MODEL 1
REMARK VINA RESULT: -7.500348820      0.000      0.000
REMARK  10 active torsions:
REMARK  status: ('A' for Active; 'I' for Inactive)
REMARK    1  A    between atoms: C2_2  and  C3_3 
REMARK    2  A    between atoms: C3_3  and  C4_4 
REMARK    3  A    between atoms: C5_5  and  C6_6 
REMARK    4  A    between atoms: C6_6  and  C7_7 
REMARK    5  A    between atoms: C7_7  and  C8_8 
REMARK    6  A    between atoms: C8_8  and  O1_9 
REMARK    7  A    between atoms: C15_17  and  C16_18 
REMARK    8  A    between atoms: C16_18  and  C17_19 
REMARK    9  A    between atoms: C17_19  and  S1_20 
REMARK   10  A    between atoms: N1_24  and  O3_25 
ROOT
HETATM    1  C8  UNL     1     -25.956  22.862   3.681  1.00  0.00     0.090 C 
HETATM    2  C9  UNL     1     -25.700  24.034   4.599  1.00  0.00     0.019 C 
HETATM    3  C10 UNL     1     -24.308  24.601   4.432  1.00  0.00     0.013 C 
HETATM    4  C11 UNL     1     -26.670  25.175   4.388  1.00  0.00     0.007 C 
HETATM    5  C12 UNL     1     -26.818  25.538   2.917  1.00  0.00     0.003 C 
HETATM    6  C13 UNL     1     -27.206  24.341   2.118  1.00  0.00     0.038 C 
HETATM    7  C14 UNL     1     -27.227  23.070   2.936  1.00  0.00     0.106 C 
HETATM    8  C15 UNL     1     -28.508  22.770   3.595  1.00  0.00     0.115 C 
HETATM    9  C19 UNL     1     -28.400  21.436   3.009  1.00  0.00     0.251 C 
HETATM   10  O2  UNL     1     -28.851  20.269   3.176  1.00  0.00    -0.271 OA
HETATM   11  N1  UNL     1     -27.488  21.953   2.050  1.00  0.00    -0.214 N 
ENDROOT
BRANCH   1  12
HETATM   12  C7  UNL     1     -25.848  21.544   4.371  1.00  0.00     0.053 C 
BRANCH  12  13
HETATM   13  C6  UNL     1     -24.645  20.745   3.946  1.00  0.00     0.097 C 
BRANCH  13  14
HETATM   14  C5  UNL     1     -24.068  20.169   5.185  1.00  0.00    -0.106 C 
HETATM   15  C4  UNL     1     -23.584  19.716   6.192  1.00  0.00    -0.107 C 
BRANCH  15  16
HETATM   16  C3  UNL     1     -23.003  19.181   7.431  1.00  0.00     0.093 C 
BRANCH  16  17
HETATM   17  C2  UNL     1     -22.214  17.903   7.149  1.00  0.00     0.007 C 
HETATM   18  C1  UNL     1     -20.756  18.240   7.384  1.00  0.00     0.006 C 
ENDBRANCH  16  17
ENDBRANCH  15  16
ENDBRANCH  13  14
ENDBRANCH  12  13
ENDBRANCH   1  12
BRANCH   1  19
HETATM   19  O1  UNL     1     -24.912  22.900   2.722  1.00  0.00    -0.387 OA
ATOM     20  H1  UNL     1     -25.083  22.194   2.110  1.00  0.00     0.210 HD
ENDBRANCH   1  19
BRANCH   8  21
HETATM   21  C16 UNL     1     -29.701  23.503   3.022  1.00  0.00     0.027 C 
BRANCH  21  22
HETATM   22  C17 UNL     1     -30.381  24.286   4.154  1.00  0.00     0.074 C 
BRANCH  22  23
HETATM   23  S1  UNL     1     -30.007  23.475   5.752  1.00  0.00    -0.173 SA
HETATM   24  C18 UNL     1     -31.483  22.700   6.413  1.00  0.00     0.089 C 
ENDBRANCH  22  23
ENDBRANCH  21  22
ENDBRANCH   8  21
BRANCH  11  25
HETATM   25  O3  UNL     1     -27.074  21.531   0.823  1.00  0.00    -0.284 OA
ATOM     26  H3  UNL     1     -27.473  21.306  -0.009  1.00  0.00     0.245 HD
ENDBRANCH  11  25
TORSDOF 10
ENDMDL
MODEL 2
REMARK VINA RESULT: -7.292116735      4.232      5.535
REMARK  10 active torsions:
REMARK  status: ('A' for Active; 'I' for Inactive)
REMARK    1  A    between atoms: C2_2  and  C3_3 
REMARK    2  A    between atoms: C3_3  and  C4_4 
REMARK    3  A    between atoms: C5_5  and  C6_6 
REMARK    4  A    between atoms: C6_6  and  C7_7 
REMARK    5  A    between atoms: C7_7  and  C8_8 
REMARK    6  A    between atoms: C8_8  and  O1_9 
REMARK    7  A    between atoms: C15_17  and  C16_18 
REMARK    8  A    between atoms: C16_18  and  C17_19 
REMARK    9  A    between atoms: C17_19  and  S1_20 
REMARK   10  A    between atoms: N1_24  and  O3_25 
ROOT
HETATM    1  C8  UNL     1     -20.945  20.863   0.625  1.00  0.00     0.090 C 
HETATM    2  C9  UNL     1     -19.724  21.516   1.231  1.00  0.00     0.019 C 
HETATM    3  C10 UNL     1     -18.456  21.166   0.486  1.00  0.00     0.013 C 
HETATM    4  C11 UNL     1     -19.815  23.024   1.265  1.00  0.00     0.007 C 
HETATM    5  C12 UNL     1     -20.249  23.604  -0.075  1.00  0.00     0.003 C 
HETATM    6  C13 UNL     1     -21.534  22.993  -0.518  1.00  0.00     0.038 C 
HETATM    7  C14 UNL     1     -22.003  21.883   0.394  1.00  0.00     0.106 C 
HETATM    8  C15 UNL     1     -22.851  22.311   1.517  1.00  0.00     0.115 C 
HETATM    9  C19 UNL     1     -23.786  21.269   1.099  1.00  0.00     0.251 C 
HETATM   10  O2  UNL     1     -24.740  20.585   1.563  1.00  0.00    -0.271 OA
HETATM   11  N1  UNL     1     -23.182  21.273  -0.187  1.00  0.00    -0.214 N 
ENDROOT
BRANCH   1  12
HETATM   12  C7  UNL     1     -21.397  19.657   1.378  1.00  0.00     0.053 C 
BRANCH  12  13
HETATM   13  C6  UNL     1     -20.715  19.495   2.710  1.00  0.00     0.097 C 
BRANCH  13  14
HETATM   14  C5  UNL     1     -21.793  19.432   3.725  1.00  0.00    -0.106 C 
HETATM   15  C4  UNL     1     -22.664  19.400   4.559  1.00  0.00    -0.107 C 
BRANCH  15  16
HETATM   16  C3  UNL     1     -23.737  19.375   5.562  1.00  0.00     0.093 C 
BRANCH  16  17
HETATM   17  C2  UNL     1     -23.158  19.466   6.973  1.00  0.00     0.007 C 
HETATM   18  C1  UNL     1     -22.575  18.103   7.285  1.00  0.00     0.006 C 
ENDBRANCH  16  17
ENDBRANCH  15  16
ENDBRANCH  13  14
ENDBRANCH  12  13
ENDBRANCH   1  12
BRANCH   1  19
HETATM   19  O1  UNL     1     -20.533  20.408  -0.652  1.00  0.00    -0.387 OA
ATOM     20  H1  UNL     1     -20.435  21.181  -1.195  1.00  0.00     0.210 HD
ENDBRANCH   1  19
BRANCH   8  21
HETATM   21  C16 UNL     1     -23.477  23.678   1.352  1.00  0.00     0.027 C 
BRANCH  21  22
HETATM   22  C17 UNL     1     -23.708  24.281   2.745  1.00  0.00     0.074 C 
BRANCH  22  23
HETATM   23  S1  UNL     1     -25.425  23.926   3.273  1.00  0.00    -0.173 SA
HETATM   24  C18 UNL     1     -25.445  22.558   4.433  1.00  0.00     0.089 C 
ENDBRANCH  22  23
ENDBRANCH  21  22
ENDBRANCH   8  21
BRANCH  11  25
HETATM   25  O3  UNL     1     -23.593  20.861  -1.419  1.00  0.00    -0.284 OA
ATOM     26  H3  UNL     1     -24.415  20.653  -1.847  1.00  0.00     0.245 HD
ENDBRANCH  11  25
TORSDOF 10
ENDMDL
MODEL 3
REMARK VINA RESULT: -7.253020118      1.359      1.551
REMARK  10 active torsions:
REMARK  status: ('A' for Active; 'I' for Inactive)
REMARK    1  A    between atoms: C2_2  and  C3_3 
REMARK    2  A    between atoms: C3_3  and  C4_4 
REMARK    3  A    between atoms: C5_5  and  C6_6 
REMARK    4  A    between atoms: C6_6  and  C7_7 
REMARK    5  A    between atoms: C7_7  and  C8_8 
REMARK    6  A    between atoms: C8_8  and  O1_9 
REMARK    7  A    between atoms: C15_17  and  C16_18 
REMARK    8  A    between atoms: C16_18  and  C17_19 
REMARK    9  A    between atoms: C17_19  and  S1_20 
REMARK   10  A    between atoms: N1_24  and  O3_25 
ROOT
HETATM    1  C8  UNL     1     -26.557  22.524   4.428  1.00  0.00     0.090 C 
HETATM    2  C9  UNL     1     -26.437  22.807   5.908  1.00  0.00     0.019 C 
HETATM    3  C10 UNL     1     -25.107  23.432   6.267  1.00  0.00     0.013 C 
HETATM    4  C11 UNL     1     -27.514  23.735   6.423  1.00  0.00     0.007 C 
HETATM    5  C12 UNL     1     -27.674  24.971   5.548  1.00  0.00     0.003 C 
HETATM    6  C13 UNL     1     -27.925  24.582   4.131  1.00  0.00     0.038 C 
HETATM    7  C14 UNL     1     -27.830  23.090   3.906  1.00  0.00     0.106 C 
HETATM    8  C15 UNL     1     -29.085  22.346   4.100  1.00  0.00     0.115 C 
HETATM    9  C19 UNL     1     -28.833  21.746   2.792  1.00  0.00     0.251 C 
HETATM   10  O2  UNL     1     -29.165  20.735   2.114  1.00  0.00    -0.271 OA
HETATM   11  N1  UNL     1     -27.962  22.826   2.487  1.00  0.00    -0.214 N 
ENDROOT
BRANCH   1  12
HETATM   12  C7  UNL     1     -26.328  21.090   4.088  1.00  0.00     0.053 C 
BRANCH  12  13
HETATM   13  C6  UNL     1     -24.897  20.784   3.733  1.00  0.00     0.097 C 
BRANCH  13  14
HETATM   14  C5  UNL     1     -24.271  20.238   4.961  1.00  0.00    -0.106 C 
HETATM   15  C4  UNL     1     -23.758  19.814   5.967  1.00  0.00    -0.107 C 
BRANCH  15  16
HETATM   16  C3  UNL     1     -23.150  19.303   7.203  1.00  0.00     0.093 C 
BRANCH  16  17
HETATM   17  C2  UNL     1     -22.348  18.033   6.925  1.00  0.00     0.007 C 
HETATM   18  C1  UNL     1     -20.935  18.308   7.395  1.00  0.00     0.006 C 
ENDBRANCH  16  17
ENDBRANCH  15  16
ENDBRANCH  13  14
ENDBRANCH  12  13
ENDBRANCH   1  12
BRANCH   1  19
HETATM   19  O1  UNL     1     -25.507  23.255   3.819  1.00  0.00    -0.387 OA
ATOM     20  H1  UNL     1     -25.870  23.642   3.031  1.00  0.00     0.210 HD
ENDBRANCH   1  19
BRANCH   8  21
HETATM   21  C16 UNL     1     -30.337  23.195   4.058  1.00  0.00     0.027 C 
BRANCH  21  22
HETATM   22  C17 UNL     1     -31.038  23.098   5.421  1.00  0.00     0.074 C 
BRANCH  22  23
HETATM   23  S1  UNL     1     -31.542  24.775   5.955  1.00  0.00    -0.173 SA
HETATM   24  C18 UNL     1     -33.266  24.774   6.447  1.00  0.00     0.089 C 
ENDBRANCH  22  23
ENDBRANCH  21  22
ENDBRANCH   8  21
BRANCH  11  25
HETATM   25  O3  UNL     1     -27.486  23.351   1.323  1.00  0.00    -0.284 OA
ATOM     26  H3  UNL     1     -27.827  23.859   0.597  1.00  0.00     0.245 HD
ENDBRANCH  11  25
TORSDOF 10
ENDMDL
MODEL 4
REMARK VINA RESULT: -7.182656509      2.510      3.543
REMARK  10 active torsions:
REMARK  status: ('A' for Active; 'I' for Inactive)
REMARK    1  A    between atoms: C2_2  and  C3_3 
REMARK    2  A    between atoms: C3_3  and  C4_4 
REMARK    3  A    between atoms: C5_5  and  C6_6 
REMARK    4  A    between atoms: C6_6  and  C7_7 
REMARK    5  A    between atoms: C7_7  and  C8_8 
REMARK    6  A    between atoms: C8_8  and  O1_9 
REMARK    7  A    between atoms: C15_17  and  C16_18 
REMARK    8  A    between atoms: C16_18  and  C17_19 
REMARK    9  A    between atoms: C17_19  and  S1_20 
REMARK   10  A    between atoms: N1_24  and  O3_25 
ROOT
HETATM    1  C8  UNL     1     -25.656  22.517   4.537  1.00  0.00     0.090 C 
HETATM    2  C9  UNL     1     -27.060  22.773   5.036  1.00  0.00     0.019 C 
HETATM    3  C10 UNL     1     -27.096  23.794   6.151  1.00  0.00     0.013 C 
HETATM    4  C11 UNL     1     -27.992  23.269   3.953  1.00  0.00     0.007 C 
HETATM    5  C12 UNL     1     -27.383  24.410   3.149  1.00  0.00     0.003 C 
HETATM    6  C13 UNL     1     -26.062  24.008   2.586  1.00  0.00     0.038 C 
HETATM    7  C14 UNL     1     -25.615  22.642   3.055  1.00  0.00     0.106 C 
HETATM    8  C15 UNL     1     -26.064  21.516   2.222  1.00  0.00     0.115 C 
HETATM    9  C19 UNL     1     -24.669  21.080   2.209  1.00  0.00     0.251 C 
HETATM   10  O2  UNL     1     -23.985  20.039   2.002  1.00  0.00    -0.271 OA
HETATM   11  N1  UNL     1     -24.275  22.399   2.560  1.00  0.00    -0.214 N 
ENDROOT
BRANCH   1  12
HETATM   12  C7  UNL     1     -25.068  21.255   5.072  1.00  0.00     0.053 C 
BRANCH  12  13
HETATM   13  C6  UNL     1     -24.852  21.282   6.561  1.00  0.00     0.097 C 
BRANCH  13  14
HETATM   14  C5  UNL     1     -23.931  20.161   6.869  1.00  0.00    -0.106 C 
HETATM   15  C4  UNL     1     -23.191  19.239   7.103  1.00  0.00    -0.107 C 
BRANCH  15  16
HETATM   16  C3  UNL     1     -22.277  18.120   7.371  1.00  0.00     0.093 C 
BRANCH  16  17
HETATM   17  C2  UNL     1     -20.843  18.495   7.001  1.00  0.00     0.007 C 
HETATM   18  C1  UNL     1     -19.945  17.503   7.712  1.00  0.00     0.006 C 
ENDBRANCH  16  17
ENDBRANCH  15  16
ENDBRANCH  13  14
ENDBRANCH  12  13
ENDBRANCH   1  12
BRANCH   1  19
HETATM   19  O1  UNL     1     -24.873  23.578   5.057  1.00  0.00    -0.387 OA
ATOM     20  H1  UNL     1     -23.974  23.393   4.813  1.00  0.00     0.210 HD
ENDBRANCH   1  19
BRANCH   8  21
HETATM   21  C16 UNL     1     -26.509  21.898   0.828  1.00  0.00     0.027 C 
BRANCH  21  22
HETATM   22  C17 UNL     1     -28.010  21.601   0.697  1.00  0.00     0.074 C 
BRANCH  22  23
HETATM   23  S1  UNL     1     -28.729  22.704  -0.576  1.00  0.00    -0.173 SA
HETATM   24  C18 UNL     1     -27.546  22.977  -1.896  1.00  0.00     0.089 C 
ENDBRANCH  22  23
ENDBRANCH  21  22
ENDBRANCH   8  21
BRANCH  11  25
HETATM   25  O3  UNL     1     -23.107  23.092   2.449  1.00  0.00    -0.284 OA
ATOM     26  H3  UNL     1     -22.274  22.988   2.004  1.00  0.00     0.245 HD
ENDBRANCH  11  25
TORSDOF 10
ENDMDL
MODEL 5
REMARK VINA RESULT: -7.084470151      2.764      4.525
REMARK  10 active torsions:
REMARK  status: ('A' for Active; 'I' for Inactive)
REMARK    1  A    between atoms: C2_2  and  C3_3 
REMARK    2  A    between atoms: C3_3  and  C4_4 
REMARK    3  A    between atoms: C5_5  and  C6_6 
REMARK    4  A    between atoms: C6_6  and  C7_7 
REMARK    5  A    between atoms: C7_7  and  C8_8 
REMARK    6  A    between atoms: C8_8  and  O1_9 
REMARK    7  A    between atoms: C15_17  and  C16_18 
REMARK    8  A    between atoms: C16_18  and  C17_19 
REMARK    9  A    between atoms: C17_19  and  S1_20 
REMARK   10  A    between atoms: N1_24  and  O3_25 
ROOT
HETATM    1  C8  UNL     1     -26.693  22.446   3.484  1.00  0.00     0.090 C 
HETATM    2  C9  UNL     1     -27.308  21.337   2.664  1.00  0.00     0.019 C 
HETATM    3  C10 UNL     1     -28.656  20.906   3.198  1.00  0.00     0.013 C 
HETATM    4  C11 UNL     1     -27.508  21.713   1.213  1.00  0.00     0.007 C 
HETATM    5  C12 UNL     1     -28.184  23.070   1.060  1.00  0.00     0.003 C 
HETATM    6  C13 UNL     1     -27.422  24.120   1.794  1.00  0.00     0.038 C 
HETATM    7  C14 UNL     1     -26.269  23.560   2.594  1.00  0.00     0.106 C 
HETATM    8  C15 UNL     1     -24.994  23.458   1.867  1.00  0.00     0.115 C 
HETATM    9  C19 UNL     1     -24.389  24.154   3.000  1.00  0.00     0.251 C 
HETATM   10  O2  UNL     1     -23.258  24.333   3.531  1.00  0.00    -0.271 OA
HETATM   11  N1  UNL     1     -25.675  24.633   3.365  1.00  0.00    -0.214 N 
ENDROOT
BRANCH   1  12
HETATM   12  C7  UNL     1     -25.638  21.963   4.423  1.00  0.00     0.053 C 
BRANCH  12  13
HETATM   13  C6  UNL     1     -25.063  20.627   4.036  1.00  0.00     0.097 C 
BRANCH  13  14
HETATM   14  C5  UNL     1     -24.317  20.137   5.220  1.00  0.00    -0.106 C 
HETATM   15  C4  UNL     1     -23.695  19.752   6.179  1.00  0.00    -0.107 C 
BRANCH  15  16
HETATM   16  C3  UNL     1     -22.942  19.301   7.357  1.00  0.00     0.093 C 
BRANCH  16  17
HETATM   17  C2  UNL     1     -22.259  17.963   7.081  1.00  0.00     0.007 C 
HETATM   18  C1  UNL     1     -20.788  18.163   7.383  1.00  0.00     0.006 C 
ENDBRANCH  16  17
ENDBRANCH  15  16
ENDBRANCH  13  14
ENDBRANCH  12  13
ENDBRANCH   1  12
BRANCH   1  19
HETATM   19  O1  UNL     1     -27.747  22.948   4.288  1.00  0.00    -0.387 OA
ATOM     20  H1  UNL     1     -28.389  23.315   3.692  1.00  0.00     0.210 HD
ENDBRANCH   1  19
BRANCH   8  21
HETATM   21  C16 UNL     1     -24.907  24.308   0.618  1.00  0.00     0.027 C 
BRANCH  21  22
HETATM   22  C17 UNL     1     -24.484  23.411  -0.554  1.00  0.00     0.074 C 
BRANCH  22  23
HETATM   23  S1  UNL     1     -25.776  23.475  -1.851  1.00  0.00    -0.173 SA
HETATM   24  C18 UNL     1     -26.237  21.813  -2.345  1.00  0.00     0.089 C 
ENDBRANCH  22  23
ENDBRANCH  21  22
ENDBRANCH   8  21
BRANCH  11  25
HETATM   25  O3  UNL     1     -26.109  25.676   4.127  1.00  0.00    -0.284 OA
ATOM     26  H3  UNL     1     -26.625  25.797   4.916  1.00  0.00     0.245 HD
ENDBRANCH  11  25
TORSDOF 10
ENDMDL
