MODEL 1
REMARK VINA RESULT: -7.298694318      0.000      0.000
REMARK  1 active torsions:
REMARK  status: ('A' for Active; 'I' for Inactive)
REMARK    1  A    between atoms: C2_2  and  C3_3 
ROOT
HETATM    1  C1  UNL     1     -24.045  18.101   5.249  1.00  0.00     0.011 C 
HETATM    2  C2  UNL     1     -23.370  18.747   6.176  1.00  0.00     0.039 C 
HETATM    3  N1  UNL     1     -22.008  18.408   5.994  1.00  0.00    -0.335 N 
ATOM      4  H1  UNL     1     -21.277  18.563   6.688  1.00  0.00     0.165 HD
HETATM    5  C7  UNL     1     -21.789  17.807   4.686  1.00  0.00     0.252 C 
HETATM    6  C8  UNL     1     -23.176  17.286   4.381  1.00  0.00     0.123 C 
HETATM    7  O1  UNL     1     -21.373  18.786   3.800  1.00  0.00    -0.336 OA
HETATM    8  C9  UNL     1     -20.857  18.044   2.729  1.00  0.00     0.199 C 
HETATM    9  C10 UNL     1     -20.549  16.684   3.323  1.00  0.00     0.199 C 
HETATM   10  O2  UNL     1     -20.827  16.821   4.702  1.00  0.00    -0.336 OA
ENDROOT
BRANCH   2  11
HETATM   11  C3  UNL     1     -23.944  19.657   7.215  1.00  0.00    -0.003 A 
HETATM   12  C4  UNL     1     -23.670  19.537   8.530  1.00  0.00     0.021 A 
HETATM   13  C5  UNL     1     -24.256  20.428   9.383  1.00  0.00     0.050 A 
HETATM   14  S1  UNL     1     -25.174  21.410   8.337  1.00  0.00    -0.113 SA
HETATM   15  C6  UNL     1     -24.795  20.671   6.855  1.00  0.00     0.063 A 
ENDBRANCH   2  11
TORSDOF 1
ENDMDL
MODEL 2
REMARK VINA RESULT: -7.129798164      3.949      6.371
REMARK  1 active torsions:
REMARK  status: ('A' for Active; 'I' for Inactive)
REMARK    1  A    between atoms: C2_2  and  C3_3 
ROOT
HETATM    1  C1  UNL     1     -25.127  21.496   7.266  1.00  0.00     0.011 C 
HETATM    2  C2  UNL     1     -24.394  20.426   7.489  1.00  0.00     0.039 C 
HETATM    3  N1  UNL     1     -24.063  20.442   8.865  1.00  0.00    -0.335 N 
ATOM      4  H1  UNL     1     -23.324  19.881   9.288  1.00  0.00     0.165 HD
HETATM    5  C7  UNL     1     -24.917  21.368   9.596  1.00  0.00     0.252 C 
HETATM    6  C8  UNL     1     -25.338  22.301   8.483  1.00  0.00     0.123 C 
HETATM    7  O1  UNL     1     -25.977  20.670  10.148  1.00  0.00    -0.336 OA
HETATM    8  C9  UNL     1     -26.488  21.568  11.095  1.00  0.00     0.199 C 
HETATM    9  C10 UNL     1     -25.343  22.522  11.369  1.00  0.00     0.199 C 
HETATM   10  O2  UNL     1     -24.259  22.008  10.624  1.00  0.00    -0.336 OA
ENDROOT
BRANCH   2  11
HETATM   11  C3  UNL     1     -23.992  19.402   6.475  1.00  0.00    -0.003 A 
HETATM   12  C4  UNL     1     -23.195  18.354   6.764  1.00  0.00     0.021 A 
HETATM   13  C5  UNL     1     -22.899  17.486   5.753  1.00  0.00     0.050 A 
HETATM   14  S1  UNL     1     -23.733  18.148   4.424  1.00  0.00    -0.113 SA
HETATM   15  C6  UNL     1     -24.433  19.500   5.180  1.00  0.00     0.063 A 
ENDBRANCH   2  11
TORSDOF 1
ENDMDL
MODEL 3
REMARK VINA RESULT: -6.852998286      3.998      6.401
REMARK  1 active torsions:
REMARK  status: ('A' for Active; 'I' for Inactive)
REMARK    1  A    between atoms: C2_2  and  C3_3 
ROOT
HETATM    1  C1  UNL     1     -23.804  19.866   8.597  1.00  0.00     0.011 C 
HETATM    2  C2  UNL     1     -24.544  20.481   7.699  1.00  0.00     0.039 C 
HETATM    3  N1  UNL     1     -25.360  21.396   8.406  1.00  0.00    -0.335 N 
ATOM      4  H1  UNL     1     -26.190  21.847   8.021  1.00  0.00     0.165 HD
HETATM    5  C7  UNL     1     -24.858  21.609   9.756  1.00  0.00     0.252 C 
HETATM    6  C8  UNL     1     -24.076  20.332   9.969  1.00  0.00     0.123 C 
HETATM    7  O1  UNL     1     -24.062  22.740   9.773  1.00  0.00    -0.336 OA
HETATM    8  C9  UNL     1     -23.958  23.033  11.140  1.00  0.00     0.199 C 
HETATM    9  C10 UNL     1     -25.144  22.331  11.770  1.00  0.00     0.199 C 
HETATM   10  O2  UNL     1     -25.864  21.792  10.680  1.00  0.00    -0.336 OA
ENDROOT
BRANCH   2  11
HETATM   11  C3  UNL     1     -24.518  20.247   6.222  1.00  0.00    -0.003 A 
HETATM   12  C4  UNL     1     -23.956  19.159   5.659  1.00  0.00     0.021 A 
HETATM   13  C5  UNL     1     -23.996  19.058   4.298  1.00  0.00     0.050 A 
HETATM   14  S1  UNL     1     -24.812  20.478   3.833  1.00  0.00    -0.113 SA
HETATM   15  C6  UNL     1     -25.081  21.160   5.366  1.00  0.00     0.063 A 
ENDBRANCH   2  11
TORSDOF 1
ENDMDL
MODEL 4
REMARK VINA RESULT: -6.845605315      1.229      1.287
REMARK  1 active torsions:
REMARK  status: ('A' for Active; 'I' for Inactive)
REMARK    1  A    between atoms: C2_2  and  C3_3 
ROOT
HETATM    1  C1  UNL     1     -24.299  19.909   5.174  1.00  0.00     0.011 C 
HETATM    2  C2  UNL     1     -24.016  19.530   6.403  1.00  0.00     0.039 C 
HETATM    3  N1  UNL     1     -23.328  18.298   6.298  1.00  0.00    -0.335 N 
ATOM      4  H1  UNL     1     -23.183  17.650   7.072  1.00  0.00     0.165 HD
HETATM    5  C7  UNL     1     -22.855  18.078   4.938  1.00  0.00     0.252 C 
HETATM    6  C8  UNL     1     -23.815  18.952   4.162  1.00  0.00     0.123 C 
HETATM    7  O1  UNL     1     -21.541  18.498   4.840  1.00  0.00    -0.336 OA
HETATM    8  C9  UNL     1     -21.108  17.909   3.644  1.00  0.00     0.199 C 
HETATM    9  C10 UNL     1     -22.074  16.763   3.415  1.00  0.00     0.199 C 
HETATM   10  O2  UNL     1     -22.899  16.753   4.562  1.00  0.00    -0.336 OA
ENDROOT
BRANCH   2  11
HETATM   11  C3  UNL     1     -24.363  20.268   7.657  1.00  0.00    -0.003 A 
HETATM   12  C4  UNL     1     -23.872  19.933   8.867  1.00  0.00     0.021 A 
HETATM   13  C5  UNL     1     -24.263  20.682   9.939  1.00  0.00     0.050 A 
HETATM   14  S1  UNL     1     -25.306  21.833   9.241  1.00  0.00    -0.113 SA
HETATM   15  C6  UNL     1     -25.220  21.338   7.617  1.00  0.00     0.063 A 
ENDBRANCH   2  11
TORSDOF 1
ENDMDL
MODEL 5
REMARK VINA RESULT: -6.760475053      4.052      6.432
REMARK  1 active torsions:
REMARK  status: ('A' for Active; 'I' for Inactive)
REMARK    1  A    between atoms: C2_2  and  C3_3 
ROOT
HETATM    1  C1  UNL     1     -23.675  19.730   8.747  1.00  0.00     0.011 C 
HETATM    2  C2  UNL     1     -24.390  20.269   7.783  1.00  0.00     0.039 C 
HETATM    3  N1  UNL     1     -25.255  21.206   8.397  1.00  0.00    -0.335 N 
ATOM      4  H1  UNL     1     -26.078  21.611   7.951  1.00  0.00     0.165 HD
HETATM    5  C7  UNL     1     -24.813  21.516   9.750  1.00  0.00     0.252 C 
HETATM    6  C8  UNL     1     -24.013  20.274  10.075  1.00  0.00     0.123 C 
HETATM    7  O1  UNL     1     -24.043  22.665   9.726  1.00  0.00    -0.336 OA
HETATM    8  C9  UNL     1     -24.002  23.046  11.074  1.00  0.00     0.199 C 
HETATM    9  C10 UNL     1     -25.197  22.357  11.700  1.00  0.00     0.199 C 
HETATM   10  O2  UNL     1     -25.860  21.732  10.619  1.00  0.00    -0.336 OA
ENDROOT
BRANCH   2  11
HETATM   11  C3  UNL     1     -24.299  19.942   6.326  1.00  0.00    -0.003 A 
HETATM   12  C4  UNL     1     -24.896  20.680   5.368  1.00  0.00     0.021 A 
HETATM   13  C5  UNL     1     -24.740  20.280   4.072  1.00  0.00     0.050 A 
HETATM   14  S1  UNL     1     -23.769  18.889   4.215  1.00  0.00    -0.113 SA
HETATM   15  C6  UNL     1     -23.586  18.849   5.904  1.00  0.00     0.063 A 
ENDBRANCH   2  11
TORSDOF 1
ENDMDL
