MODEL 1
REMARK VINA RESULT: -7.696059233      0.000      0.000
REMARK  4 active torsions:
REMARK  status: ('A' for Active; 'I' for Inactive)
REMARK    1  A    between atoms: C1_2  and  O2_3 
REMARK    2  A    between atoms: C1_2  and  C8_12 
REMARK    3  A    between atoms: O2_3  and  C2_4 
REMARK    4  A    between atoms: C5_7  and  O3_8 
ROOT
HETATM    1  O2  UNL     1     -23.868  18.370   4.527  1.00  0.00    -0.279 OA
ENDROOT
BRANCH   1   2
HETATM    2  C1  UNL     1     -22.929  18.754   3.570  1.00  0.00     0.273 C 
HETATM    3  O1  UNL     1     -23.361  19.536   2.658  1.00  0.00    -0.264 OA
BRANCH   2   4
HETATM    4  C8  UNL     1     -21.531  18.303   3.590  1.00  0.00     0.144 C 
HETATM    5  C9  UNL     1     -21.421  16.820   3.682  1.00  0.00     0.138 C 
HETATM    6  C10 UNL     1     -19.924  16.556   3.662  1.00  0.00     0.035 C 
HETATM    7  O4  UNL     1     -21.742  16.780   2.306  1.00  0.00    -0.379 OA
HETATM    8  C11 UNL     1     -19.600  17.461   2.453  1.00  0.00     0.035 C 
HETATM    9  C12 UNL     1     -21.002  17.982   2.228  1.00  0.00     0.138 C 
ENDBRANCH   2   4
ENDBRANCH   1   2
BRANCH   1  10
HETATM   10  C2  UNL     1     -23.786  18.794   5.852  1.00  0.00     0.079 A 
HETATM   11  C3  UNL     1     -23.049  18.123   6.807  1.00  0.00     0.040 A 
HETATM   12  C4  UNL     1     -22.966  18.544   8.123  1.00  0.00     0.039 A 
HETATM   13  C5  UNL     1     -23.643  19.683   8.510  1.00  0.00     0.065 A 
HETATM   14  C6  UNL     1     -24.384  20.367   7.573  1.00  0.00     0.039 A 
HETATM   15  C7  UNL     1     -24.458  19.938   6.268  1.00  0.00     0.040 A 
BRANCH  13  16
HETATM   16  O3  UNL     1     -23.574  20.125   9.835  1.00  0.00    -0.361 OA
ATOM     17  H3  UNL     1     -24.369  20.230  10.345  1.00  0.00     0.217 HD
ENDBRANCH  13  16
ENDBRANCH   1  10
TORSDOF 4
ENDMDL
MODEL 2
REMARK VINA RESULT: -7.689761649      2.338      7.000
REMARK  4 active torsions:
REMARK  status: ('A' for Active; 'I' for Inactive)
REMARK    1  A    between atoms: C1_2  and  O2_3 
REMARK    2  A    between atoms: C1_2  and  C8_12 
REMARK    3  A    between atoms: O2_3  and  C2_4 
REMARK    4  A    between atoms: C5_7  and  O3_8 
ROOT
HETATM    1  O2  UNL     1     -23.354  19.840   8.705  1.00  0.00    -0.279 OA
ENDROOT
BRANCH   1   2
HETATM    2  C1  UNL     1     -24.474  19.924   9.532  1.00  0.00     0.273 C 
HETATM    3  O1  UNL     1     -24.436  19.203  10.584  1.00  0.00    -0.264 OA
BRANCH   2   4
HETATM    4  C8  UNL     1     -25.632  20.778   9.233  1.00  0.00     0.144 C 
HETATM    5  C9  UNL     1     -25.969  21.684  10.367  1.00  0.00     0.138 C 
HETATM    6  C10 UNL     1     -27.154  22.490   9.859  1.00  0.00     0.035 C 
HETATM    7  O4  UNL     1     -24.878  22.485   9.961  1.00  0.00    -0.379 OA
HETATM    8  C11 UNL     1     -26.542  22.864   8.492  1.00  0.00     0.035 C 
HETATM    9  C12 UNL     1     -25.246  22.102   8.651  1.00  0.00     0.138 C 
ENDBRANCH   2   4
ENDBRANCH   1   2
BRANCH   1  10
HETATM   10  C2  UNL     1     -23.392  19.181   7.477  1.00  0.00     0.079 A 
HETATM   11  C3  UNL     1     -24.060  19.683   6.379  1.00  0.00     0.040 A 
HETATM   12  C4  UNL     1     -24.097  19.030   5.160  1.00  0.00     0.039 A 
HETATM   13  C5  UNL     1     -23.439  17.824   5.022  1.00  0.00     0.065 A 
HETATM   14  C6  UNL     1     -22.766  17.306   6.105  1.00  0.00     0.039 A 
HETATM   15  C7  UNL     1     -22.738  17.966   7.312  1.00  0.00     0.040 A 
BRANCH  13  16
HETATM   16  O3  UNL     1     -23.464  17.146   3.799  1.00  0.00    -0.361 OA
ATOM     17  H3  UNL     1     -23.373  16.201   3.776  1.00  0.00     0.217 HD
ENDBRANCH  13  16
ENDBRANCH   1  10
TORSDOF 4
ENDMDL
MODEL 3
REMARK VINA RESULT: -7.665782742      2.295      6.905
REMARK  4 active torsions:
REMARK  status: ('A' for Active; 'I' for Inactive)
REMARK    1  A    between atoms: C1_2  and  O2_3 
REMARK    2  A    between atoms: C1_2  and  C8_12 
REMARK    3  A    between atoms: O2_3  and  C2_4 
REMARK    4  A    between atoms: C5_7  and  O3_8 
ROOT
HETATM    1  O2  UNL     1     -24.349  20.302   7.471  1.00  0.00    -0.279 OA
ENDROOT
BRANCH   1   2
HETATM    2  C1  UNL     1     -24.041  20.156   8.823  1.00  0.00     0.273 C 
HETATM    3  O1  UNL     1     -22.960  19.526   9.077  1.00  0.00    -0.264 OA
BRANCH   2   4
HETATM    4  C8  UNL     1     -24.888  20.683   9.901  1.00  0.00     0.144 C 
HETATM    5  C9  UNL     1     -24.420  22.013  10.383  1.00  0.00     0.138 C 
HETATM    6  C10 UNL     1     -25.425  22.394  11.459  1.00  0.00     0.035 C 
HETATM    7  O4  UNL     1     -25.011  22.565   9.224  1.00  0.00    -0.379 OA
HETATM    8  C11 UNL     1     -26.693  22.072  10.638  1.00  0.00     0.035 C 
HETATM    9  C12 UNL     1     -25.991  21.562   9.400  1.00  0.00     0.138 C 
ENDBRANCH   2   4
ENDBRANCH   1   2
BRANCH   1  10
HETATM   10  C2  UNL     1     -23.916  19.386   6.513  1.00  0.00     0.079 A 
HETATM   11  C3  UNL     1     -23.122  18.299   6.822  1.00  0.00     0.040 A 
HETATM   12  C4  UNL     1     -22.693  17.389   5.873  1.00  0.00     0.039 A 
HETATM   13  C5  UNL     1     -23.068  17.563   4.555  1.00  0.00     0.065 A 
HETATM   14  C6  UNL     1     -23.859  18.640   4.226  1.00  0.00     0.039 A 
HETATM   15  C7  UNL     1     -24.279  19.538   5.180  1.00  0.00     0.040 A 
BRANCH  13  16
HETATM   16  O3  UNL     1     -22.645  16.655   3.579  1.00  0.00    -0.361 OA
ATOM     17  H3  UNL     1     -23.021  16.683   2.707  1.00  0.00     0.217 HD
ENDBRANCH  13  16
ENDBRANCH   1  10
TORSDOF 4
ENDMDL
MODEL 4
REMARK VINA RESULT: -7.641604550      0.209      1.200
REMARK  4 active torsions:
REMARK  status: ('A' for Active; 'I' for Inactive)
REMARK    1  A    between atoms: C1_2  and  O2_3 
REMARK    2  A    between atoms: C1_2  and  C8_12 
REMARK    3  A    between atoms: O2_3  and  C2_4 
REMARK    4  A    between atoms: C5_7  and  O3_8 
ROOT
HETATM    1  O2  UNL     1     -23.758  18.166   4.775  1.00  0.00    -0.279 OA
ENDROOT
BRANCH   1   2
HETATM    2  C1  UNL     1     -22.932  18.642   3.758  1.00  0.00     0.273 C 
HETATM    3  O1  UNL     1     -23.489  19.423   2.916  1.00  0.00    -0.264 OA
BRANCH   2   4
HETATM    4  C8  UNL     1     -21.512  18.283   3.643  1.00  0.00     0.144 C 
HETATM    5  C9  UNL     1     -21.303  16.807   3.656  1.00  0.00     0.138 C 
HETATM    6  C10 UNL     1     -19.799  16.643   3.502  1.00  0.00     0.035 C 
HETATM    7  O4  UNL     1     -21.735  16.804   2.310  1.00  0.00    -0.379 OA
HETATM    8  C11 UNL     1     -19.635  17.617   2.315  1.00  0.00     0.035 C 
HETATM    9  C12 UNL     1     -21.080  18.054   2.229  1.00  0.00     0.138 C 
ENDBRANCH   2   4
ENDBRANCH   1   2
BRANCH   1  10
HETATM   10  C2  UNL     1     -23.748  18.721   6.054  1.00  0.00     0.079 A 
HETATM   11  C3  UNL     1     -24.457  19.859   6.380  1.00  0.00     0.040 A 
HETATM   12  C4  UNL     1     -24.449  20.410   7.649  1.00  0.00     0.039 A 
HETATM   13  C5  UNL     1     -23.704  19.804   8.642  1.00  0.00     0.065 A 
HETATM   14  C6  UNL     1     -22.990  18.668   8.337  1.00  0.00     0.039 A 
HETATM   15  C7  UNL     1     -23.007  18.131   7.071  1.00  0.00     0.040 A 
BRANCH  13  16
HETATM   16  O3  UNL     1     -23.681  20.345   9.932  1.00  0.00    -0.361 OA
ATOM     17  H3  UNL     1     -24.276  21.048  10.164  1.00  0.00     0.217 HD
ENDBRANCH  13  16
ENDBRANCH   1  10
TORSDOF 4
ENDMDL
MODEL 5
REMARK VINA RESULT: -7.638069902      2.426      7.139
REMARK  4 active torsions:
REMARK  status: ('A' for Active; 'I' for Inactive)
REMARK    1  A    between atoms: C1_2  and  O2_3 
REMARK    2  A    between atoms: C1_2  and  C8_12 
REMARK    3  A    between atoms: O2_3  and  C2_4 
REMARK    4  A    between atoms: C5_7  and  O3_8 
ROOT
HETATM    1  O2  UNL     1     -23.182  19.783   8.912  1.00  0.00    -0.279 OA
ENDROOT
BRANCH   1   2
HETATM    2  C1  UNL     1     -24.249  19.950   9.794  1.00  0.00     0.273 C 
HETATM    3  O1  UNL     1     -24.547  18.926  10.496  1.00  0.00    -0.264 OA
BRANCH   2   4
HETATM    4  C8  UNL     1     -24.993  21.209   9.926  1.00  0.00     0.144 C 
HETATM    5  C9  UNL     1     -26.059  21.341   8.893  1.00  0.00     0.138 C 
HETATM    6  C10 UNL     1     -26.721  22.673   9.210  1.00  0.00     0.035 C 
HETATM    7  O4  UNL     1     -26.827  20.444   9.669  1.00  0.00    -0.379 OA
HETATM    8  C11 UNL     1     -26.890  22.432  10.725  1.00  0.00     0.035 C 
HETATM    9  C12 UNL     1     -26.218  21.078  10.776  1.00  0.00     0.138 C 
ENDBRANCH   2   4
ENDBRANCH   1   2
BRANCH   1  10
HETATM   10  C2  UNL     1     -23.351  19.220   7.648  1.00  0.00     0.079 A 
HETATM   11  C3  UNL     1     -24.065  19.840   6.642  1.00  0.00     0.040 A 
HETATM   12  C4  UNL     1     -24.233  19.282   5.388  1.00  0.00     0.039 A 
HETATM   13  C5  UNL     1     -23.666  18.053   5.116  1.00  0.00     0.065 A 
HETATM   14  C6  UNL     1     -22.950  17.417   6.105  1.00  0.00     0.039 A 
HETATM   15  C7  UNL     1     -22.791  17.983   7.349  1.00  0.00     0.040 A 
BRANCH  13  16
HETATM   16  O3  UNL     1     -23.824  17.470   3.854  1.00  0.00    -0.361 OA
ATOM     17  H3  UNL     1     -24.128  16.573   3.778  1.00  0.00     0.217 HD
ENDBRANCH  13  16
ENDBRANCH   1  10
TORSDOF 4
ENDMDL
