MODEL 1
REMARK VINA RESULT: -6.582443691      0.000      0.000
REMARK  1 active torsions:
REMARK  status: ('A' for Active; 'I' for Inactive)
REMARK    1  A    between atoms: C3_4  and  C4_5 
ROOT
HETATM    1  C4  UNL     1     -23.841  20.277   8.512  1.00  0.00     0.115 C 
HETATM    2  C5  UNL     1     -23.346  18.835   8.315  1.00  0.00     0.039 C 
HETATM    3  C6  UNL     1     -23.055  18.901   6.831  1.00  0.00     0.045 C 
HETATM    4  C7  UNL     1     -23.039  17.642   6.102  1.00  0.00     0.022 C 
HETATM    5  C8  UNL     1     -23.497  17.766   4.706  1.00  0.00     0.081 C 
HETATM    6  S2  UNL     1     -24.461  19.318   4.699  1.00  0.00    -0.117 SA
HETATM    7  C9  UNL     1     -24.182  19.753   6.398  1.00  0.00     0.047 C 
HETATM    8  N1  UNL     1     -24.592  20.494   7.334  1.00  0.00    -0.380 N 
ATOM      9  H1  UNL     1     -25.361  21.160   7.252  1.00  0.00     0.160 HD
ENDROOT
BRANCH   1  10
HETATM   10  C3  UNL     1     -24.603  20.422   9.787  1.00  0.00     0.165 C 
HETATM   11  S1  UNL     1     -24.000  21.821  10.777  1.00  0.00    -0.137 SA
HETATM   12  C2  UNL     1     -25.670  22.393  11.241  1.00  0.00     0.120 C 
HETATM   13  C1  UNL     1     -26.478  21.801  10.141  1.00  0.00     0.067 C 
HETATM   14  N2  UNL     1     -25.980  20.594   9.683  1.00  0.00    -0.386 N 
ATOM     15  H2  UNL     1     -26.586  19.874   9.291  1.00  0.00     0.159 HD
ENDBRANCH   1  10
TORSDOF 1
ENDMDL
MODEL 2
REMARK VINA RESULT: -5.976411612      3.860      5.993
REMARK  1 active torsions:
REMARK  status: ('A' for Active; 'I' for Inactive)
REMARK    1  A    between atoms: C3_4  and  C4_5 
ROOT
HETATM    1  C4  UNL     1     -26.776  22.684   7.112  1.00  0.00     0.115 C 
HETATM    2  C5  UNL     1     -25.408  23.238   7.544  1.00  0.00     0.039 C 
HETATM    3  C6  UNL     1     -25.190  22.365   8.761  1.00  0.00     0.045 C 
HETATM    4  C7  UNL     1     -24.272  22.861   9.776  1.00  0.00     0.022 C 
HETATM    5  C8  UNL     1     -24.634  22.451  11.145  1.00  0.00     0.081 C 
HETATM    6  S2  UNL     1     -26.406  22.025  11.020  1.00  0.00    -0.117 SA
HETATM    7  C9  UNL     1     -26.575  22.312   9.276  1.00  0.00     0.047 C 
HETATM    8  N1  UNL     1     -27.420  22.489   8.356  1.00  0.00    -0.380 N 
ATOM      9  H1  UNL     1     -28.431  22.491   8.491  1.00  0.00     0.160 HD
ENDROOT
BRANCH   1  10
HETATM   10  C3  UNL     1     -27.471  23.617   6.177  1.00  0.00     0.165 C 
HETATM   11  S1  UNL     1     -27.127  23.210   4.440  1.00  0.00    -0.137 SA
HETATM   12  C2  UNL     1     -28.849  23.466   3.893  1.00  0.00     0.120 C 
HETATM   13  C1  UNL     1     -29.576  23.278   5.178  1.00  0.00     0.067 C 
HETATM   14  N2  UNL     1     -28.856  23.699   6.282  1.00  0.00    -0.386 N 
ATOM     15  H2  UNL     1     -29.314  24.050   7.123  1.00  0.00     0.159 HD
ENDBRANCH   1  10
TORSDOF 1
ENDMDL
MODEL 3
REMARK VINA RESULT: -5.929713195      3.079      5.223
REMARK  1 active torsions:
REMARK  status: ('A' for Active; 'I' for Inactive)
REMARK    1  A    between atoms: C3_4  and  C4_5 
ROOT
HETATM    1  C4  UNL     1     -24.931  20.072   4.339  1.00  0.00     0.115 C 
HETATM    2  C5  UNL     1     -23.742  19.097   4.355  1.00  0.00     0.039 C 
HETATM    3  C6  UNL     1     -23.874  18.610   5.782  1.00  0.00     0.045 C 
HETATM    4  C7  UNL     1     -22.682  18.055   6.405  1.00  0.00     0.022 C 
HETATM    5  C8  UNL     1     -22.612  18.297   7.858  1.00  0.00     0.081 C 
HETATM    6  S2  UNL     1     -23.739  19.711   8.120  1.00  0.00    -0.117 SA
HETATM    7  C9  UNL     1     -24.278  19.873   6.436  1.00  0.00     0.047 C 
HETATM    8  N1  UNL     1     -24.853  20.652   5.626  1.00  0.00    -0.380 N 
ATOM      9  H1  UNL     1     -25.212  21.576   5.868  1.00  0.00     0.160 HD
ENDROOT
BRANCH   1  10
HETATM   10  C3  UNL     1     -24.832  21.034   3.202  1.00  0.00     0.165 C 
HETATM   11  S1  UNL     1     -26.469  21.568   2.626  1.00  0.00    -0.137 SA
HETATM   12  C2  UNL     1     -25.986  23.318   2.435  1.00  0.00     0.120 C 
HETATM   13  C1  UNL     1     -24.822  23.383   3.359  1.00  0.00     0.067 C 
HETATM   14  N2  UNL     1     -24.106  22.201   3.424  1.00  0.00    -0.386 N 
ATOM     15  H2  UNL     1     -23.106  22.185   3.623  1.00  0.00     0.159 HD
ENDBRANCH   1  10
TORSDOF 1
ENDMDL
MODEL 4
REMARK VINA RESULT: -5.705191879      3.835      4.678
REMARK  1 active torsions:
REMARK  status: ('A' for Active; 'I' for Inactive)
REMARK    1  A    between atoms: C3_4  and  C4_5 
ROOT
HETATM    1  C4  UNL     1     -26.461  23.014   7.597  1.00  0.00     0.115 C 
HETATM    2  C5  UNL     1     -26.024  22.545   6.199  1.00  0.00     0.039 C 
HETATM    3  C6  UNL     1     -27.029  23.326   5.379  1.00  0.00     0.045 C 
HETATM    4  C7  UNL     1     -27.326  22.825   4.045  1.00  0.00     0.022 C 
HETATM    5  C8  UNL     1     -28.714  23.082   3.618  1.00  0.00     0.081 C 
HETATM    6  S2  UNL     1     -29.609  23.363   5.185  1.00  0.00    -0.117 SA
HETATM    7  C9  UNL     1     -28.207  23.214   6.265  1.00  0.00     0.047 C 
HETATM    8  N1  UNL     1     -27.869  23.045   7.469  1.00  0.00    -0.380 N 
ATOM      9  H1  UNL     1     -28.524  22.944   8.245  1.00  0.00     0.160 HD
ENDROOT
BRANCH   1  10
HETATM   10  C3  UNL     1     -25.940  22.109   8.663  1.00  0.00     0.165 C 
HETATM   11  S1  UNL     1     -24.571  22.870   9.583  1.00  0.00    -0.137 SA
HETATM   12  C2  UNL     1     -25.162  22.297  11.212  1.00  0.00     0.120 C 
HETATM   13  C1  UNL     1     -26.606  22.087  10.921  1.00  0.00     0.067 C 
HETATM   14  N2  UNL     1     -26.850  21.676   9.623  1.00  0.00    -0.386 N 
ATOM     15  H2  UNL     1     -27.649  21.090   9.383  1.00  0.00     0.159 HD
ENDBRANCH   1  10
TORSDOF 1
ENDMDL
MODEL 5
REMARK VINA RESULT: -5.423894721      1.742      2.129
REMARK  1 active torsions:
REMARK  status: ('A' for Active; 'I' for Inactive)
REMARK    1  A    between atoms: C3_4  and  C4_5 
ROOT
HETATM    1  C4  UNL     1     -24.342  19.698   7.492  1.00  0.00     0.115 C 
HETATM    2  C5  UNL     1     -24.584  20.175   6.051  1.00  0.00     0.039 C 
HETATM    3  C6  UNL     1     -24.004  18.981   5.323  1.00  0.00     0.045 C 
HETATM    4  C7  UNL     1     -23.561  19.192   3.953  1.00  0.00     0.022 C 
HETATM    5  C8  UNL     1     -22.410  18.352   3.573  1.00  0.00     0.081 C 
HETATM    6  S2  UNL     1     -21.670  17.875   5.173  1.00  0.00    -0.117 SA
HETATM    7  C9  UNL     1     -22.862  18.682   6.212  1.00  0.00     0.047 C 
HETATM    8  N1  UNL     1     -23.073  19.084   7.390  1.00  0.00    -0.380 N 
ATOM      9  H1  UNL     1     -22.416  18.979   8.164  1.00  0.00     0.160 HD
ENDROOT
BRANCH   1  10
HETATM   10  C3  UNL     1     -24.423  20.831   8.461  1.00  0.00     0.165 C 
HETATM   11  S1  UNL     1     -25.596  22.104   7.914  1.00  0.00    -0.137 SA
HETATM   12  C2  UNL     1     -26.317  22.353   9.572  1.00  0.00     0.120 C 
HETATM   13  C1  UNL     1     -25.977  21.056  10.216  1.00  0.00     0.067 C 
HETATM   14  N2  UNL     1     -24.783  20.517   9.769  1.00  0.00    -0.386 N 
ATOM     15  H2  UNL     1     -24.203  19.925  10.362  1.00  0.00     0.159 HD
ENDBRANCH   1  10
TORSDOF 1
ENDMDL
