MODEL 1
REMARK VINA RESULT: -6.140757830      0.000      0.000
REMARK  2 active torsions:
REMARK  status: ('A' for Active; 'I' for Inactive)
REMARK    1  A    between atoms: O1_2  and  C2_3 
REMARK    2  A    between atoms: C6_8  and  N1_9 
ROOT
HETATM    1  C2  UNL     1     -24.713  22.470   9.517  1.00  0.00     0.296 C 
HETATM    2  O2  UNL     1     -25.182  23.221   8.442  1.00  0.00    -0.322 OA
HETATM    3  C3  UNL     1     -26.048  22.390   7.736  1.00  0.00     0.168 C 
HETATM    4  C4  UNL     1     -27.093  23.191   7.008  1.00  0.00     0.070 C 
HETATM    5  C5  UNL     1     -26.522  23.986   5.864  1.00  0.00     0.038 C 
HETATM    6  C6  UNL     1     -25.368  23.334   5.190  1.00  0.00     0.183 C 
HETATM    7  C7  UNL     1     -25.247  21.864   5.417  1.00  0.00     0.038 C 
HETATM    8  C8  UNL     1     -25.302  21.450   6.854  1.00  0.00     0.070 C 
HETATM    9  O3  UNL     1     -26.728  21.625   8.703  1.00  0.00    -0.340 OA
HETATM   10  C9  UNL     1     -25.910  21.597   9.823  1.00  0.00     0.107 C 
HETATM   11  C10 UNL     1     -26.708  22.093  10.990  1.00  0.00     0.051 C 
HETATM   12  C11 UNL     1     -25.484  20.162  10.066  1.00  0.00     0.051 C 
ENDROOT
BRANCH   1  13
HETATM   13  O1  UNL     1     -24.361  23.222  10.608  1.00  0.00    -0.363 OA
HETATM   14  C1  UNL     1     -23.411  22.521  11.361  1.00  0.00     0.204 C 
ENDBRANCH   1  13
BRANCH   6  15
HETATM   15  N1  UNL     1     -25.498  23.538   3.756  1.00  0.00    -0.075 N 
ATOM     16  H13 UNL     1     -25.760  22.686   3.261  1.00  0.00     0.274 HD
ATOM     17  H12 UNL     1     -26.316  24.097   3.512  1.00  0.00     0.274 HD
ATOM     18  H11 UNL     1     -24.629  23.943   3.408  1.00  0.00     0.274 HD
ENDBRANCH   6  15
TORSDOF 2
ENDMDL
MODEL 2
REMARK VINA RESULT: -6.040848044      4.258      6.175
REMARK  2 active torsions:
REMARK  status: ('A' for Active; 'I' for Inactive)
REMARK    1  A    between atoms: O1_2  and  C2_3 
REMARK    2  A    between atoms: C6_8  and  N1_9 
ROOT
HETATM    1  C2  UNL     1     -24.393  22.004   3.688  1.00  0.00     0.296 C 
HETATM    2  O2  UNL     1     -23.820  20.783   4.037  1.00  0.00    -0.322 OA
HETATM    3  C3  UNL     1     -24.780  20.102   4.780  1.00  0.00     0.168 C 
HETATM    4  C4  UNL     1     -24.605  18.613   4.655  1.00  0.00     0.070 C 
HETATM    5  C5  UNL     1     -23.360  18.115   5.340  1.00  0.00     0.038 C 
HETATM    6  C6  UNL     1     -22.986  18.889   6.554  1.00  0.00     0.183 C 
HETATM    7  C7  UNL     1     -24.087  19.696   7.157  1.00  0.00     0.038 C 
HETATM    8  C8  UNL     1     -24.813  20.578   6.192  1.00  0.00     0.070 C 
HETATM    9  O3  UNL     1     -26.021  20.413   4.192  1.00  0.00    -0.340 OA
HETATM   10  C9  UNL     1     -25.850  21.625   3.539  1.00  0.00     0.107 C 
HETATM   11  C10 UNL     1     -26.259  21.440   2.109  1.00  0.00     0.051 C 
HETATM   12  C11 UNL     1     -26.746  22.655   4.200  1.00  0.00     0.051 C 
ENDROOT
BRANCH   1  13
HETATM   13  O1  UNL     1     -23.901  22.535   2.523  1.00  0.00    -0.363 OA
HETATM   14  C1  UNL     1     -23.460  23.841   2.766  1.00  0.00     0.204 C 
ENDBRANCH   1  13
BRANCH   6  15
HETATM   15  N1  UNL     1     -22.531  17.955   7.571  1.00  0.00    -0.075 N 
ATOM     16  H13 UNL     1     -22.698  18.294   8.518  1.00  0.00     0.274 HD
ATOM     17  H12 UNL     1     -23.110  17.116   7.621  1.00  0.00     0.274 HD
ATOM     18  H11 UNL     1     -21.548  17.744   7.398  1.00  0.00     0.274 HD
ENDBRANCH   6  15
TORSDOF 2
ENDMDL
MODEL 3
REMARK VINA RESULT: -5.883812945      1.488      2.308
REMARK  2 active torsions:
REMARK  status: ('A' for Active; 'I' for Inactive)
REMARK    1  A    between atoms: O1_2  and  C2_3 
REMARK    2  A    between atoms: C6_8  and  N1_9 
ROOT
HETATM    1  C2  UNL     1     -25.317  20.934   9.083  1.00  0.00     0.296 C 
HETATM    2  O2  UNL     1     -25.156  21.501   7.821  1.00  0.00    -0.322 OA
HETATM    3  C3  UNL     1     -25.783  22.744   7.871  1.00  0.00     0.168 C 
HETATM    4  C4  UNL     1     -25.157  23.705   6.899  1.00  0.00     0.070 C 
HETATM    5  C5  UNL     1     -25.436  23.344   5.464  1.00  0.00     0.038 C 
HETATM    6  C6  UNL     1     -26.758  22.699   5.248  1.00  0.00     0.183 C 
HETATM    7  C7  UNL     1     -27.757  22.920   6.334  1.00  0.00     0.038 C 
HETATM    8  C8  UNL     1     -27.259  22.615   7.711  1.00  0.00     0.070 C 
HETATM    9  O3  UNL     1     -25.534  23.254   9.160  1.00  0.00    -0.340 OA
HETATM   10  C9  UNL     1     -25.289  22.156   9.973  1.00  0.00     0.107 C 
HETATM   11  C10 UNL     1     -23.961  22.360  10.637  1.00  0.00     0.051 C 
HETATM   12  C11 UNL     1     -26.382  22.086  11.022  1.00  0.00     0.051 C 
ENDROOT
BRANCH   1  13
HETATM   13  O1  UNL     1     -24.324  20.052   9.425  1.00  0.00    -0.363 OA
HETATM   14  C1  UNL     1     -23.661  19.636   8.263  1.00  0.00     0.204 C 
ENDBRANCH   1  13
BRANCH   6  15
HETATM   15  N1  UNL     1     -27.332  23.229   4.021  1.00  0.00    -0.075 N 
ATOM     16  H13 UNL     1     -26.624  23.448   3.321  1.00  0.00     0.274 HD
ATOM     17  H12 UNL     1     -27.839  22.522   3.489  1.00  0.00     0.274 HD
ATOM     18  H11 UNL     1     -27.912  24.033   4.258  1.00  0.00     0.274 HD
ENDBRANCH   6  15
TORSDOF 2
ENDMDL
MODEL 4
REMARK VINA RESULT: -5.841631739      2.583      5.001
REMARK  2 active torsions:
REMARK  status: ('A' for Active; 'I' for Inactive)
REMARK    1  A    between atoms: O1_2  and  C2_3 
REMARK    2  A    between atoms: C6_8  and  N1_9 
ROOT
HETATM    1  C2  UNL     1     -27.852  23.056   6.210  1.00  0.00     0.296 C 
HETATM    2  O2  UNL     1     -27.193  22.895   7.426  1.00  0.00    -0.322 OA
HETATM    3  C3  UNL     1     -25.834  22.857   7.130  1.00  0.00     0.168 C 
HETATM    4  C4  UNL     1     -25.012  23.348   8.290  1.00  0.00     0.070 C 
HETATM    5  C5  UNL     1     -25.038  22.402   9.461  1.00  0.00     0.038 C 
HETATM    6  C6  UNL     1     -25.149  20.969   9.080  1.00  0.00     0.183 C 
HETATM    7  C7  UNL     1     -24.762  20.654   7.674  1.00  0.00     0.038 C 
HETATM    8  C8  UNL     1     -25.421  21.511   6.640  1.00  0.00     0.070 C 
HETATM    9  O3  UNL     1     -25.638  23.775   6.080  1.00  0.00    -0.340 OA
HETATM   10  C9  UNL     1     -26.861  23.896   5.436  1.00  0.00     0.107 C 
HETATM   11  C10 UNL     1     -27.227  25.349   5.408  1.00  0.00     0.051 C 
HETATM   12  C11 UNL     1     -26.707  23.379   4.018  1.00  0.00     0.051 C 
ENDROOT
BRANCH   1  13
HETATM   13  O1  UNL     1     -29.062  23.693   6.315  1.00  0.00    -0.363 OA
HETATM   14  C1  UNL     1     -30.040  22.929   5.666  1.00  0.00     0.204 C 
ENDBRANCH   1  13
BRANCH   6  15
HETATM   15  N1  UNL     1     -24.278  20.194   9.950  1.00  0.00    -0.075 N 
ATOM     16  H13 UNL     1     -23.449  20.714  10.237  1.00  0.00     0.274 HD
ATOM     17  H12 UNL     1     -24.679  20.049  10.876  1.00  0.00     0.274 HD
ATOM     18  H11 UNL     1     -24.049  19.319   9.479  1.00  0.00     0.274 HD
ENDBRANCH   6  15
TORSDOF 2
ENDMDL
MODEL 5
REMARK VINA RESULT: -5.740151908      3.852      5.628
REMARK  2 active torsions:
REMARK  status: ('A' for Active; 'I' for Inactive)
REMARK    1  A    between atoms: O1_2  and  C2_3 
REMARK    2  A    between atoms: C6_8  and  N1_9 
ROOT
HETATM    1  C2  UNL     1     -28.957  24.011   5.525  1.00  0.00     0.296 C 
HETATM    2  O2  UNL     1     -29.225  23.020   4.584  1.00  0.00    -0.322 OA
HETATM    3  C3  UNL     1     -28.042  22.824   3.877  1.00  0.00     0.168 C 
HETATM    4  C4  UNL     1     -27.959  21.422   3.339  1.00  0.00     0.070 C 
HETATM    5  C5  UNL     1     -28.952  21.164   2.237  1.00  0.00     0.038 C 
HETATM    6  C6  UNL     1     -29.245  22.354   1.394  1.00  0.00     0.183 C 
HETATM    7  C7  UNL     1     -28.223  23.440   1.452  1.00  0.00     0.038 C 
HETATM    8  C8  UNL     1     -27.851  23.872   2.835  1.00  0.00     0.070 C 
HETATM    9  O3  UNL     1     -27.001  22.958   4.816  1.00  0.00    -0.340 OA
HETATM   10  C9  UNL     1     -27.504  23.739   5.846  1.00  0.00     0.107 C 
HETATM   11  C10 UNL     1     -27.324  22.985   7.129  1.00  0.00     0.051 C 
HETATM   12  C11 UNL     1     -26.711  25.031   5.896  1.00  0.00     0.051 C 
ENDROOT
BRANCH   1  13
HETATM   13  O1  UNL     1     -29.734  23.930   6.653  1.00  0.00    -0.363 OA
HETATM   14  C1  UNL     1     -30.965  23.352   6.319  1.00  0.00     0.204 C 
ENDBRANCH   1  13
BRANCH   6  15
HETATM   15  N1  UNL     1     -29.336  21.923   0.008  1.00  0.00    -0.075 N 
ATOM     16  H13 UNL     1     -30.270  21.596  -0.240  1.00  0.00     0.274 HD
ATOM     17  H12 UNL     1     -29.284  22.702  -0.649  1.00  0.00     0.274 HD
ATOM     18  H11 UNL     1     -28.616  21.220  -0.159  1.00  0.00     0.274 HD
ENDBRANCH   6  15
TORSDOF 2
ENDMDL
