MODEL 1
REMARK VINA RESULT: -6.469322033      0.000      0.000
REMARK  1 active torsions:
REMARK  status: ('A' for Active; 'I' for Inactive)
REMARK    1  A    between atoms: C9_11  and  C10_12 
ROOT
HETATM    1  C1  UNL     1     -27.510  21.366   3.577  1.00  0.00     0.081 C 
HETATM    2  C2  UNL     1     -26.062  21.355   3.126  1.00  0.00     0.193 C 
HETATM    3  C3  UNL     1     -25.955  21.522   1.641  1.00  0.00     0.081 C 
HETATM    4  O1  UNL     1     -25.316  22.362   3.725  1.00  0.00    -0.198 OA
HETATM    5  O2  UNL     1     -24.165  21.784   3.998  1.00  0.00    -0.197 OA
HETATM    6  C4  UNL     1     -24.637  20.597   4.619  1.00  0.00     0.213 C 
HETATM    7  C5  UNL     1     -25.430  21.040   5.805  1.00  0.00     0.072 C 
HETATM    8  C6  UNL     1     -24.783  20.843   7.132  1.00  0.00     0.006 C 
HETATM    9  C7  UNL     1     -23.888  19.664   7.245  1.00  0.00     0.001 C 
HETATM   10  C8  UNL     1     -24.004  18.748   6.045  1.00  0.00     0.021 C 
HETATM   11  C9  UNL     1     -23.562  19.641   4.869  1.00  0.00     0.152 C 
HETATM   12  O5  UNL     1     -25.468  20.154   3.590  1.00  0.00    -0.313 OA
ENDROOT
BRANCH  11  13
HETATM   13  C10 UNL     1     -23.269  18.762   3.758  1.00  0.00     0.182 C 
HETATM   14  O3  UNL     1     -22.590  19.069   2.786  1.00  0.00    -0.648 OA
HETATM   15  O4  UNL     1     -23.798  17.461   3.787  1.00  0.00    -0.648 OA
ENDBRANCH  11  13
TORSDOF 1
ENDMDL
MODEL 2
REMARK VINA RESULT: -6.124930942      3.126      4.402
REMARK  1 active torsions:
REMARK  status: ('A' for Active; 'I' for Inactive)
REMARK    1  A    between atoms: C9_11  and  C10_12 
ROOT
HETATM    1  C1  UNL     1     -29.793  23.873   4.699  1.00  0.00     0.081 C 
HETATM    2  C2  UNL     1     -28.527  24.703   4.609  1.00  0.00     0.193 C 
HETATM    3  C3  UNL     1     -28.588  25.664   3.463  1.00  0.00     0.081 C 
HETATM    4  O1  UNL     1     -28.291  25.431   5.768  1.00  0.00    -0.198 OA
HETATM    5  O2  UNL     1     -26.990  25.332   5.946  1.00  0.00    -0.197 OA
HETATM    6  C4  UNL     1     -26.834  23.930   5.780  1.00  0.00     0.213 C 
HETATM    7  C5  UNL     1     -27.676  23.295   6.839  1.00  0.00     0.072 C 
HETATM    8  C6  UNL     1     -26.939  22.706   7.991  1.00  0.00     0.006 C 
HETATM    9  C7  UNL     1     -25.600  22.144   7.682  1.00  0.00     0.001 C 
HETATM   10  C8  UNL     1     -25.350  22.063   6.191  1.00  0.00     0.021 C 
HETATM   11  C9  UNL     1     -25.429  23.534   5.736  1.00  0.00     0.152 C 
HETATM   12  O5  UNL     1     -27.425  23.812   4.523  1.00  0.00    -0.313 OA
ENDROOT
BRANCH  11  13
HETATM   13  C10 UNL     1     -24.829  23.602   4.421  1.00  0.00     0.182 C 
HETATM   14  O3  UNL     1     -24.664  24.634   3.782  1.00  0.00    -0.648 OA
HETATM   15  O4  UNL     1     -24.400  22.403   3.827  1.00  0.00    -0.648 OA
ENDBRANCH  11  13
TORSDOF 1
ENDMDL
MODEL 3
REMARK VINA RESULT: -6.080133219      1.804      4.037
REMARK  1 active torsions:
REMARK  status: ('A' for Active; 'I' for Inactive)
REMARK    1  A    between atoms: C9_11  and  C10_12 
ROOT
HETATM    1  C1  UNL     1     -21.438  17.955   5.538  1.00  0.00     0.081 C 
HETATM    2  C2  UNL     1     -22.316  17.837   4.307  1.00  0.00     0.193 C 
HETATM    3  C3  UNL     1     -21.714  16.910   3.297  1.00  0.00     0.081 C 
HETATM    4  O1  UNL     1     -23.589  17.371   4.611  1.00  0.00    -0.198 OA
HETATM    5  O2  UNL     1     -24.381  18.095   3.848  1.00  0.00    -0.197 OA
HETATM    6  C4  UNL     1     -23.864  19.388   4.127  1.00  0.00     0.213 C 
HETATM    7  C5  UNL     1     -24.031  19.589   5.599  1.00  0.00     0.072 C 
HETATM    8  C6  UNL     1     -25.120  20.517   6.010  1.00  0.00     0.006 C 
HETATM    9  C7  UNL     1     -25.397  21.640   5.078  1.00  0.00     0.001 C 
HETATM   10  C8  UNL     1     -24.340  21.757   4.002  1.00  0.00     0.021 C 
HETATM   11  C9  UNL     1     -24.438  20.411   3.257  1.00  0.00     0.152 C 
HETATM   12  O5  UNL     1     -22.531  19.143   3.797  1.00  0.00    -0.313 OA
ENDROOT
BRANCH  11  13
HETATM   13  C10 UNL     1     -23.753  20.576   1.994  1.00  0.00     0.182 C 
HETATM   14  O3  UNL     1     -23.913  19.859   1.014  1.00  0.00    -0.648 OA
HETATM   15  O4  UNL     1     -22.837  21.634   1.872  1.00  0.00    -0.648 OA
ENDBRANCH  11  13
TORSDOF 1
ENDMDL
MODEL 4
REMARK VINA RESULT: -5.953214607      2.634      3.713
REMARK  1 active torsions:
REMARK  status: ('A' for Active; 'I' for Inactive)
REMARK    1  A    between atoms: C9_11  and  C10_12 
ROOT
HETATM    1  C1  UNL     1     -29.716  23.319   6.013  1.00  0.00     0.081 C 
HETATM    2  C2  UNL     1     -28.441  23.848   5.385  1.00  0.00     0.193 C 
HETATM    3  C3  UNL     1     -28.715  24.496   4.063  1.00  0.00     0.081 C 
HETATM    4  O1  UNL     1     -27.802  24.778   6.195  1.00  0.00    -0.198 OA
HETATM    5  O2  UNL     1     -26.525  24.482   6.070  1.00  0.00    -0.197 OA
HETATM    6  C4  UNL     1     -26.585  23.078   6.278  1.00  0.00     0.213 C 
HETATM    7  C5  UNL     1     -27.158  22.889   7.646  1.00  0.00     0.072 C 
HETATM    8  C6  UNL     1     -26.195  22.469   8.702  1.00  0.00     0.006 C 
HETATM    9  C7  UNL     1     -25.074  21.607   8.249  1.00  0.00     0.001 C 
HETATM   10  C8  UNL     1     -25.272  21.122   6.829  1.00  0.00     0.021 C 
HETATM   11  C9  UNL     1     -25.307  22.426   6.007  1.00  0.00     0.152 C 
HETATM   12  O5  UNL     1     -27.521  22.772   5.291  1.00  0.00    -0.313 OA
ENDROOT
BRANCH  11  13
HETATM   13  C10 UNL     1     -25.103  22.058   4.623  1.00  0.00     0.182 C 
HETATM   14  O3  UNL     1     -24.729  22.826   3.745  1.00  0.00    -0.648 OA
HETATM   15  O4  UNL     1     -25.351  20.727   4.249  1.00  0.00    -0.648 OA
ENDBRANCH  11  13
TORSDOF 1
ENDMDL
MODEL 5
REMARK VINA RESULT: -5.812668867      3.660      5.811
REMARK  1 active torsions:
REMARK  status: ('A' for Active; 'I' for Inactive)
REMARK    1  A    between atoms: C9_11  and  C10_12 
ROOT
HETATM    1  C1  UNL     1     -22.291  18.007   4.717  1.00  0.00     0.081 C 
HETATM    2  C2  UNL     1     -21.319  17.743   3.583  1.00  0.00     0.193 C 
HETATM    3  C3  UNL     1     -20.271  16.752   3.986  1.00  0.00     0.081 C 
HETATM    4  O1  UNL     1     -21.954  17.257   2.448  1.00  0.00    -0.198 OA
HETATM    5  O2  UNL     1     -21.349  17.877   1.456  1.00  0.00    -0.197 OA
HETATM    6  C4  UNL     1     -21.393  19.209   1.947  1.00  0.00     0.213 C 
HETATM    7  C5  UNL     1     -22.841  19.536   2.119  1.00  0.00     0.072 C 
HETATM    8  C6  UNL     1     -23.426  20.455   1.103  1.00  0.00     0.006 C 
HETATM    9  C7  UNL     1     -22.503  21.477   0.548  1.00  0.00     0.001 C 
HETATM   10  C8  UNL     1     -21.199  21.537   1.314  1.00  0.00     0.021 C 
HETATM   11  C9  UNL     1     -20.607  20.126   1.124  1.00  0.00     0.152 C 
HETATM   12  O5  UNL     1     -20.773  18.988   3.176  1.00  0.00    -0.313 OA
ENDROOT
BRANCH  11  13
HETATM   13  C10 UNL     1     -19.208  20.202   1.482  1.00  0.00     0.182 C 
HETATM   14  O3  UNL     1     -18.359  19.379   1.161  1.00  0.00    -0.648 OA
HETATM   15  O4  UNL     1     -18.781  21.297   2.252  1.00  0.00    -0.648 OA
ENDBRANCH  11  13
TORSDOF 1
ENDMDL
