MODEL 1
REMARK VINA RESULT: -6.138306747      0.000      0.000
REMARK  2 active torsions:
REMARK  status: ('A' for Active; 'I' for Inactive)
REMARK    1  A    between atoms: C8_11  and  C9_12 
REMARK    2  A    between atoms: C9_12  and  O4_13 
ROOT
HETATM    1  C1  UNL     1     -24.991  20.666   5.473  1.00  0.00     0.049 C 
HETATM    2  C2  UNL     1     -25.190  21.300   6.600  1.00  0.00     0.077 C 
HETATM    3  O1  UNL     1     -24.808  20.923   7.872  1.00  0.00    -0.316 OA
HETATM    4  C3  UNL     1     -25.229  21.992   8.739  1.00  0.00     0.175 C 
HETATM    5  C4  UNL     1     -24.305  22.171   9.899  1.00  0.00     0.095 C 
HETATM    6  C5  UNL     1     -25.030  22.613  11.146  1.00  0.00     0.173 C 
HETATM    7  O2  UNL     1     -26.030  21.760  11.539  1.00  0.00    -0.391 OA
HETATM    8  C6  UNL     1     -26.477  20.933  10.539  1.00  0.00     0.173 C 
HETATM    9  C7  UNL     1     -26.633  21.725   9.242  1.00  0.00     0.095 C 
HETATM   10  O3  UNL     1     -25.240  23.113   7.886  1.00  0.00    -0.335 OA
HETATM   11  C8  UNL     1     -25.885  22.593   6.763  1.00  0.00     0.248 C 
ENDROOT
BRANCH  11  12
HETATM   12  C9  UNL     1     -25.818  23.466   5.602  1.00  0.00     0.146 C 
HETATM   13  S1  UNL     1     -27.178  23.780   4.757  1.00  0.00    -0.055 SA
BRANCH  12  14
HETATM   14  O4  UNL     1     -24.649  24.068   5.146  1.00  0.00    -0.352 OA
ATOM     15  H4  UNL     1     -24.283  23.933   4.281  1.00  0.00     0.218 HD
ENDBRANCH  12  14
ENDBRANCH  11  12
TORSDOF 2
ENDMDL
MODEL 2
REMARK VINA RESULT: -5.593291188      1.615      2.283
REMARK  2 active torsions:
REMARK  status: ('A' for Active; 'I' for Inactive)
REMARK    1  A    between atoms: C8_11  and  C9_12 
REMARK    2  A    between atoms: C9_12  and  O4_13 
ROOT
HETATM    1  C1  UNL     1     -28.088  23.256   6.881  1.00  0.00     0.049 C 
HETATM    2  C2  UNL     1     -26.989  22.785   7.413  1.00  0.00     0.077 C 
HETATM    3  O1  UNL     1     -26.824  22.190   8.647  1.00  0.00    -0.316 OA
HETATM    4  C3  UNL     1     -25.435  21.816   8.718  1.00  0.00     0.175 C 
HETATM    5  C4  UNL     1     -25.229  20.570   9.516  1.00  0.00     0.095 C 
HETATM    6  C5  UNL     1     -23.925  20.584  10.274  1.00  0.00     0.173 C 
HETATM    7  O2  UNL     1     -23.790  21.651  11.126  1.00  0.00    -0.391 OA
HETATM    8  C6  UNL     1     -24.616  22.705  10.829  1.00  0.00     0.173 C 
HETATM    9  C7  UNL     1     -24.627  22.947   9.321  1.00  0.00     0.095 C 
HETATM   10  O3  UNL     1     -25.077  21.651   7.366  1.00  0.00    -0.335 OA
HETATM   11  C8  UNL     1     -25.649  22.788   6.793  1.00  0.00     0.248 C 
ENDROOT
BRANCH  11  12
HETATM   12  C9  UNL     1     -25.655  22.761   5.340  1.00  0.00     0.146 C 
HETATM   13  S1  UNL     1     -25.217  24.099   4.512  1.00  0.00    -0.055 SA
BRANCH  12  14
HETATM   14  O4  UNL     1     -26.016  21.652   4.581  1.00  0.00    -0.352 OA
ATOM     15  H4  UNL     1     -26.751  21.634   3.980  1.00  0.00     0.218 HD
ENDBRANCH  12  14
ENDBRANCH  11  12
TORSDOF 2
ENDMDL
MODEL 3
REMARK VINA RESULT: -5.592300685      2.483      4.738
REMARK  2 active torsions:
REMARK  status: ('A' for Active; 'I' for Inactive)
REMARK    1  A    between atoms: C8_11  and  C9_12 
REMARK    2  A    between atoms: C9_12  and  O4_13 
ROOT
HETATM    1  C1  UNL     1     -24.265  22.682  10.449  1.00  0.00     0.049 C 
HETATM    2  C2  UNL     1     -24.806  22.448   9.281  1.00  0.00     0.077 C 
HETATM    3  O1  UNL     1     -25.161  23.359   8.306  1.00  0.00    -0.316 OA
HETATM    4  C3  UNL     1     -25.667  22.578   7.208  1.00  0.00     0.175 C 
HETATM    5  C4  UNL     1     -25.375  23.211   5.887  1.00  0.00     0.095 C 
HETATM    6  C5  UNL     1     -26.466  22.959   4.876  1.00  0.00     0.173 C 
HETATM    7  O2  UNL     1     -27.706  23.388   5.278  1.00  0.00    -0.391 OA
HETATM    8  C6  UNL     1     -27.820  23.554   6.636  1.00  0.00     0.173 C 
HETATM    9  C7  UNL     1     -27.162  22.381   7.359  1.00  0.00     0.095 C 
HETATM   10  O3  UNL     1     -25.012  21.341   7.364  1.00  0.00    -0.335 OA
HETATM   11  C8  UNL     1     -25.165  21.124   8.734  1.00  0.00     0.248 C 
ENDROOT
BRANCH  11  12
HETATM   12  C9  UNL     1     -24.359  20.024   9.239  1.00  0.00     0.146 C 
HETATM   13  S1  UNL     1     -23.259  19.321   8.258  1.00  0.00    -0.055 SA
BRANCH  12  14
HETATM   14  O4  UNL     1     -24.460  19.511  10.528  1.00  0.00    -0.352 OA
ATOM     15  H4  UNL     1     -23.934  18.793  10.859  1.00  0.00     0.218 HD
ENDBRANCH  12  14
ENDBRANCH  11  12
TORSDOF 2
ENDMDL
MODEL 4
REMARK VINA RESULT: -5.449039468      2.434      4.769
REMARK  2 active torsions:
REMARK  status: ('A' for Active; 'I' for Inactive)
REMARK    1  A    between atoms: C8_11  and  C9_12 
REMARK    2  A    between atoms: C9_12  and  O4_13 
ROOT
HETATM    1  C1  UNL     1     -24.241  20.225   8.662  1.00  0.00     0.049 C 
HETATM    2  C2  UNL     1     -24.955  21.242   8.253  1.00  0.00     0.077 C 
HETATM    3  O1  UNL     1     -25.563  21.421   7.026  1.00  0.00    -0.316 OA
HETATM    4  C3  UNL     1     -26.255  22.681   7.114  1.00  0.00     0.175 C 
HETATM    5  C4  UNL     1     -27.508  22.691   6.302  1.00  0.00     0.095 C 
HETATM    6  C5  UNL     1     -27.798  24.048   5.712  1.00  0.00     0.173 C 
HETATM    7  O2  UNL     1     -26.788  24.539   4.923  1.00  0.00    -0.391 OA
HETATM    8  C6  UNL     1     -25.570  23.951   5.155  1.00  0.00     0.173 C 
HETATM    9  C7  UNL     1     -25.344  23.802   6.659  1.00  0.00     0.095 C 
HETATM   10  O3  UNL     1     -26.510  22.812   8.493  1.00  0.00    -0.335 OA
HETATM   11  C8  UNL     1     -25.274  22.454   9.033  1.00  0.00     0.248 C 
ENDROOT
BRANCH  11  12
HETATM   12  C9  UNL     1     -25.309  22.254  10.472  1.00  0.00     0.146 C 
HETATM   13  S1  UNL     1     -24.047  22.751  11.381  1.00  0.00    -0.055 SA
BRANCH  12  14
HETATM   14  O4  UNL     1     -26.366  21.655  11.152  1.00  0.00    -0.352 OA
ATOM     15  H4  UNL     1     -26.811  20.869  10.857  1.00  0.00     0.218 HD
ENDBRANCH  12  14
ENDBRANCH  11  12
TORSDOF 2
ENDMDL
MODEL 5
REMARK VINA RESULT: -5.249097996      2.595      4.960
REMARK  2 active torsions:
REMARK  status: ('A' for Active; 'I' for Inactive)
REMARK    1  A    between atoms: C8_11  and  C9_12 
REMARK    2  A    between atoms: C9_12  and  O4_13 
ROOT
HETATM    1  C1  UNL     1     -24.705  20.766   7.215  1.00  0.00     0.049 C 
HETATM    2  C2  UNL     1     -25.555  21.749   7.062  1.00  0.00     0.077 C 
HETATM    3  O1  UNL     1     -26.210  22.142   5.912  1.00  0.00    -0.316 OA
HETATM    4  C3  UNL     1     -27.059  23.238   6.302  1.00  0.00     0.175 C 
HETATM    5  C4  UNL     1     -28.321  23.281   5.505  1.00  0.00     0.095 C 
HETATM    6  C5  UNL     1     -28.800  24.692   5.265  1.00  0.00     0.173 C 
HETATM    7  O2  UNL     1     -27.881  25.490   4.632  1.00  0.00    -0.391 OA
HETATM    8  C6  UNL     1     -26.592  25.030   4.724  1.00  0.00     0.173 C 
HETATM    9  C7  UNL     1     -26.313  24.548   6.146  1.00  0.00     0.095 C 
HETATM   10  O3  UNL     1     -27.297  22.992   7.667  1.00  0.00    -0.335 OA
HETATM   11  C8  UNL     1     -26.013  22.678   8.115  1.00  0.00     0.248 C 
ENDROOT
BRANCH  11  12
HETATM   12  C9  UNL     1     -25.987  22.128   9.460  1.00  0.00     0.146 C 
HETATM   13  S1  UNL     1     -24.698  22.416  10.419  1.00  0.00    -0.055 SA
BRANCH  12  14
HETATM   14  O4  UNL     1     -27.007  21.353  10.005  1.00  0.00    -0.352 OA
ATOM     15  H4  UNL     1     -26.993  20.998  10.886  1.00  0.00     0.218 HD
ENDBRANCH  12  14
ENDBRANCH  11  12
TORSDOF 2
ENDMDL
