MODEL 1
REMARK VINA RESULT: -8.259965878      0.000      0.000
REMARK  4 active torsions:
REMARK  status: ('A' for Active; 'I' for Inactive)
REMARK    1  A    between atoms: C3_6  and  N2_7 
REMARK    2  A    between atoms: N2_7  and  C4_9 
REMARK    3  A    between atoms: C4_9  and  C6_11 
REMARK    4  A    between atoms: C7_16  and  C8_17 
ROOT
HETATM    1  C6  UNL     1     -21.193  19.642   2.739  1.00  0.00     0.120 A 
HETATM    2  N3  UNL     1     -22.300  20.388   2.729  1.00  0.00    -0.286 N 
ATOM      3  H3  UNL     1     -22.547  21.059   2.002  1.00  0.00     0.188 HD
HETATM    4  N4  UNL     1     -23.017  20.132   3.782  1.00  0.00    -0.287 N 
ATOM      5  H4  UNL     1     -23.911  20.564   4.013  1.00  0.00     0.188 HD
HETATM    6  C7  UNL     1     -22.382  19.199   4.515  1.00  0.00     0.101 A 
HETATM    7  N5  UNL     1     -21.263  18.904   3.868  1.00  0.00    -0.331 N 
ATOM      8  H5  UNL     1     -20.565  18.225   4.174  1.00  0.00     0.168 HD
ENDROOT
BRANCH   1   9
HETATM    9  C4  UNL     1     -20.155  19.673   1.700  1.00  0.00     0.148 C 
HETATM   10  C5  UNL     1     -19.517  18.290   1.558  1.00  0.00     0.040 C 
BRANCH   9  11
HETATM   11  N2  UNL     1     -20.688  20.022   0.397  1.00  0.00    -0.358 N 
ATOM     12  H2  UNL     1     -21.542  19.605   0.025  1.00  0.00     0.162 HD
BRANCH  11  13
HETATM   13  C3  UNL     1     -19.989  20.914  -0.271  1.00  0.00     0.163 A 
HETATM   14  S1  UNL     1     -20.490  22.302  -1.122  1.00  0.00     0.024 SA
HETATM   15  N1  UNL     1     -18.980  22.822  -1.642  1.00  0.00    -0.313 N 
HETATM   16  C2  UNL     1     -18.152  21.905  -1.139  1.00  0.00     0.085 A 
ATOM     17  H1  UNL     1     -18.751  23.640  -2.206  1.00  0.00     0.175 HD
HETATM   18  C1  UNL     1     -16.658  22.028  -1.396  1.00  0.00     0.089 C 
HETATM   19  N6  UNL     1     -18.662  20.931  -0.440  1.00  0.00    -0.325 N 
ATOM     20  H6  UNL     1     -18.069  20.206  -0.035  1.00  0.00     0.169 HD
ENDBRANCH  11  13
ENDBRANCH   9  11
ENDBRANCH   1   9
BRANCH   6  21
HETATM   21  C8  UNL     1     -22.890  18.652   5.789  1.00  0.00     0.055 C 
HETATM   22  C9  UNL     1     -23.580  19.657   6.689  1.00  0.00     0.012 C 
HETATM   23  C10 UNL     1     -22.896  18.958   7.869  1.00  0.00     0.002 C 
HETATM   24  C11 UNL     1     -21.824  18.521   6.881  1.00  0.00     0.012 C 
ENDBRANCH   6  21
TORSDOF 4
ENDMDL
MODEL 2
REMARK VINA RESULT: -8.185201743      2.015      2.327
REMARK  4 active torsions:
REMARK  status: ('A' for Active; 'I' for Inactive)
REMARK    1  A    between atoms: C3_6  and  N2_7 
REMARK    2  A    between atoms: N2_7  and  C4_9 
REMARK    3  A    between atoms: C4_9  and  C6_11 
REMARK    4  A    between atoms: C7_16  and  C8_17 
ROOT
HETATM    1  C6  UNL     1     -21.113  18.902   2.903  1.00  0.00     0.120 A 
HETATM    2  N3  UNL     1     -21.327  17.585   2.884  1.00  0.00    -0.286 N 
ATOM      3  H3  UNL     1     -20.998  16.949   2.158  1.00  0.00     0.188 HD
HETATM    4  N4  UNL     1     -22.016  17.232   3.929  1.00  0.00    -0.287 N 
ATOM      5  H4  UNL     1     -22.313  16.283   4.154  1.00  0.00     0.188 HD
HETATM    6  C7  UNL     1     -22.271  18.332   4.662  1.00  0.00     0.101 A 
HETATM    7  N5  UNL     1     -21.713  19.352   4.026  1.00  0.00    -0.331 N 
ATOM      8  H5  UNL     1     -21.734  20.324   4.336  1.00  0.00     0.168 HD
ENDROOT
BRANCH   1   9
HETATM    9  C4  UNL     1     -20.367  19.642   1.877  1.00  0.00     0.148 C 
HETATM   10  C5  UNL     1     -19.216  18.784   1.346  1.00  0.00     0.040 C 
BRANCH   9  11
HETATM   11  N2  UNL     1     -21.191  19.985   0.733  1.00  0.00    -0.358 N 
ATOM     12  H2  UNL     1     -21.491  19.292   0.047  1.00  0.00     0.162 HD
BRANCH  11  13
HETATM   13  C3  UNL     1     -21.523  21.255   0.645  1.00  0.00     0.163 A 
HETATM   14  S1  UNL     1     -22.957  22.058   1.092  1.00  0.00     0.024 SA
HETATM   15  N1  UNL     1     -22.513  23.612   0.636  1.00  0.00    -0.313 N 
HETATM   16  C2  UNL     1     -21.279  23.449   0.159  1.00  0.00     0.085 A 
ATOM     17  H1  UNL     1     -23.056  24.473   0.706  1.00  0.00     0.175 HD
HETATM   18  C1  UNL     1     -20.517  24.656  -0.365  1.00  0.00     0.089 C 
HETATM   19  N6  UNL     1     -20.770  22.249   0.162  1.00  0.00    -0.325 N 
ATOM     20  H6  UNL     1     -19.830  22.074  -0.193  1.00  0.00     0.169 HD
ENDBRANCH  11  13
ENDBRANCH   9  11
ENDBRANCH   1   9
BRANCH   6  21
HETATM   21  C8  UNL     1     -23.034  18.330   5.927  1.00  0.00     0.055 C 
HETATM   22  C9  UNL     1     -23.561  19.684   6.359  1.00  0.00     0.012 C 
HETATM   23  C10 UNL     1     -23.199  19.283   7.793  1.00  0.00     0.002 C 
HETATM   24  C11 UNL     1     -22.158  18.356   7.183  1.00  0.00     0.012 C 
ENDBRANCH   6  21
TORSDOF 4
ENDMDL
MODEL 3
REMARK VINA RESULT: -8.152676665      1.163      1.429
REMARK  4 active torsions:
REMARK  status: ('A' for Active; 'I' for Inactive)
REMARK    1  A    between atoms: C3_6  and  N2_7 
REMARK    2  A    between atoms: N2_7  and  C4_9 
REMARK    3  A    between atoms: C4_9  and  C6_11 
REMARK    4  A    between atoms: C7_16  and  C8_17 
ROOT
HETATM    1  C6  UNL     1     -21.058  18.872   2.923  1.00  0.00     0.120 A 
HETATM    2  N3  UNL     1     -21.339  17.568   2.880  1.00  0.00    -0.286 N 
ATOM      3  H3  UNL     1     -21.032  16.927   2.149  1.00  0.00     0.188 HD
HETATM    4  N4  UNL     1     -22.062  17.236   3.908  1.00  0.00    -0.287 N 
ATOM      5  H4  UNL     1     -22.411  16.300   4.114  1.00  0.00     0.188 HD
HETATM    6  C7  UNL     1     -22.273  18.336   4.655  1.00  0.00     0.101 A 
HETATM    7  N5  UNL     1     -21.653  19.336   4.043  1.00  0.00    -0.331 N 
ATOM      8  H5  UNL     1     -21.629  20.302   4.368  1.00  0.00     0.168 HD
ENDROOT
BRANCH   1   9
HETATM    9  C4  UNL     1     -20.259  19.588   1.920  1.00  0.00     0.148 C 
HETATM   10  C5  UNL     1     -19.150  18.678   1.388  1.00  0.00     0.040 C 
BRANCH   9  11
HETATM   11  N2  UNL     1     -21.048  19.996   0.772  1.00  0.00    -0.358 N 
ATOM     12  H2  UNL     1     -21.844  19.455   0.435  1.00  0.00     0.162 HD
BRANCH  11  13
HETATM   13  C3  UNL     1     -20.660  21.115   0.198  1.00  0.00     0.163 A 
HETATM   14  S1  UNL     1     -21.113  22.728   0.502  1.00  0.00     0.024 SA
HETATM   15  N1  UNL     1     -20.155  23.468  -0.663  1.00  0.00    -0.313 N 
HETATM   16  C2  UNL     1     -19.527  22.442  -1.237  1.00  0.00     0.085 A 
ATOM     17  H1  UNL     1     -20.075  24.462  -0.879  1.00  0.00     0.175 HD
HETATM   18  C1  UNL     1     -18.545  22.708  -2.368  1.00  0.00     0.089 C 
HETATM   19  N6  UNL     1     -19.781  21.241  -0.801  1.00  0.00    -0.325 N 
ATOM     20  H6  UNL     1     -19.326  20.424  -1.209  1.00  0.00     0.169 HD
ENDBRANCH  11  13
ENDBRANCH   9  11
ENDBRANCH   1   9
BRANCH   6  21
HETATM   21  C8  UNL     1     -23.055  18.355   5.908  1.00  0.00     0.055 C 
HETATM   22  C9  UNL     1     -23.575  19.719   6.317  1.00  0.00     0.012 C 
HETATM   23  C10 UNL     1     -23.239  19.329   7.761  1.00  0.00     0.002 C 
HETATM   24  C11 UNL     1     -22.198  18.385   7.177  1.00  0.00     0.012 C 
ENDBRANCH   6  21
TORSDOF 4
ENDMDL
MODEL 4
REMARK VINA RESULT: -8.143243315      1.477      1.998
REMARK  4 active torsions:
REMARK  status: ('A' for Active; 'I' for Inactive)
REMARK    1  A    between atoms: C3_6  and  N2_7 
REMARK    2  A    between atoms: N2_7  and  C4_9 
REMARK    3  A    between atoms: C4_9  and  C6_11 
REMARK    4  A    between atoms: C7_16  and  C8_17 
ROOT
HETATM    1  C6  UNL     1     -22.055  19.736   2.443  1.00  0.00     0.120 A 
HETATM    2  N3  UNL     1     -21.231  18.700   2.613  1.00  0.00    -0.286 N 
ATOM      3  H3  UNL     1     -20.551  18.374   1.927  1.00  0.00     0.188 HD
HETATM    4  N4  UNL     1     -21.423  18.168   3.784  1.00  0.00    -0.287 N 
ATOM      5  H4  UNL     1     -20.922  17.365   4.163  1.00  0.00     0.188 HD
HETATM    6  C7  UNL     1     -22.394  18.857   4.412  1.00  0.00     0.101 A 
HETATM    7  N5  UNL     1     -22.776  19.818   3.582  1.00  0.00    -0.331 N 
ATOM      8  H5  UNL     1     -23.501  20.510   3.774  1.00  0.00     0.168 HD
ENDROOT
BRANCH   1   9
HETATM    9  C4  UNL     1     -22.109  20.570   1.235  1.00  0.00     0.148 C 
HETATM   10  C5  UNL     1     -23.521  21.128   1.047  1.00  0.00     0.040 C 
BRANCH   9  11
HETATM   11  N2  UNL     1     -21.218  21.713   1.311  1.00  0.00    -0.358 N 
ATOM     12  H2  UNL     1     -21.420  22.526   1.892  1.00  0.00     0.162 HD
BRANCH  11  13
HETATM   13  C3  UNL     1     -20.131  21.622   0.576  1.00  0.00     0.163 A 
HETATM   14  S1  UNL     1     -18.673  20.785   0.855  1.00  0.00     0.024 SA
HETATM   15  N1  UNL     1     -17.877  21.215  -0.560  1.00  0.00    -0.313 N 
HETATM   16  C2  UNL     1     -18.766  21.984  -1.188  1.00  0.00     0.085 A 
ATOM     17  H1  UNL     1     -16.940  20.952  -0.864  1.00  0.00     0.175 HD
HETATM   18  C1  UNL     1     -18.410  22.583  -2.540  1.00  0.00     0.089 C 
HETATM   19  N6  UNL     1     -19.916  22.194  -0.613  1.00  0.00    -0.325 N 
ATOM     20  H6  UNL     1     -20.629  22.776  -1.054  1.00  0.00     0.169 HD
ENDBRANCH  11  13
ENDBRANCH   9  11
ENDBRANCH   1   9
BRANCH   6  21
HETATM   21  C8  UNL     1     -22.891  18.549   5.768  1.00  0.00     0.055 C 
HETATM   22  C9  UNL     1     -23.503  19.721   6.508  1.00  0.00     0.012 C 
HETATM   23  C10 UNL     1     -22.820  19.183   7.770  1.00  0.00     0.002 C 
HETATM   24  C11 UNL     1     -21.801  18.537   6.843  1.00  0.00     0.012 C 
ENDBRANCH   6  21
TORSDOF 4
ENDMDL
MODEL 5
REMARK VINA RESULT: -8.130460111      2.204      3.521
REMARK  4 active torsions:
REMARK  status: ('A' for Active; 'I' for Inactive)
REMARK    1  A    between atoms: C3_6  and  N2_7 
REMARK    2  A    between atoms: N2_7  and  C4_9 
REMARK    3  A    between atoms: C4_9  and  C6_11 
REMARK    4  A    between atoms: C7_16  and  C8_17 
ROOT
HETATM    1  C6  UNL     1     -21.151  19.155   2.790  1.00  0.00     0.120 A 
HETATM    2  N3  UNL     1     -21.229  17.823   2.745  1.00  0.00    -0.286 N 
ATOM      3  H3  UNL     1     -20.842  17.239   2.004  1.00  0.00     0.188 HD
HETATM    4  N4  UNL     1     -21.870  17.381   3.785  1.00  0.00    -0.287 N 
ATOM      5  H4  UNL     1     -22.066  16.402   3.992  1.00  0.00     0.188 HD
HETATM    6  C7  UNL     1     -22.232  18.433   4.543  1.00  0.00     0.101 A 
HETATM    7  N5  UNL     1     -21.786  19.518   3.925  1.00  0.00    -0.331 N 
ATOM      8  H5  UNL     1     -21.905  20.476   4.255  1.00  0.00     0.168 HD
ENDROOT
BRANCH   1   9
HETATM    9  C4  UNL     1     -20.492  19.988   1.775  1.00  0.00     0.148 C 
HETATM   10  C5  UNL     1     -19.185  19.332   1.329  1.00  0.00     0.040 C 
BRANCH   9  11
HETATM   11  N2  UNL     1     -21.303  20.153   0.583  1.00  0.00    -0.358 N 
ATOM     12  H2  UNL     1     -21.135  19.621  -0.271  1.00  0.00     0.162 HD
BRANCH  11  13
HETATM   13  C3  UNL     1     -22.270  21.040   0.684  1.00  0.00     0.163 A 
HETATM   14  S1  UNL     1     -22.213  22.742   0.705  1.00  0.00     0.024 SA
HETATM   15  N1  UNL     1     -23.860  23.034   0.859  1.00  0.00    -0.313 N 
HETATM   16  C2  UNL     1     -24.385  21.808   0.888  1.00  0.00     0.085 A 
ATOM     17  H1  UNL     1     -24.342  23.931   0.917  1.00  0.00     0.175 HD
HETATM   18  C1  UNL     1     -25.891  21.647   1.021  1.00  0.00     0.089 C 
HETATM   19  N6  UNL     1     -23.579  20.789   0.799  1.00  0.00    -0.325 N 
ATOM     20  H6  UNL     1     -23.933  19.833   0.817  1.00  0.00     0.169 HD
ENDBRANCH  11  13
ENDBRANCH   9  11
ENDBRANCH   1   9
BRANCH   6  21
HETATM   21  C8  UNL     1     -22.982  18.328   5.811  1.00  0.00     0.055 C 
HETATM   22  C9  UNL     1     -23.450  19.648   6.390  1.00  0.00     0.012 C 
HETATM   23  C10 UNL     1     -23.090  19.084   7.769  1.00  0.00     0.002 C 
HETATM   24  C11 UNL     1     -22.092  18.187   7.050  1.00  0.00     0.012 C 
ENDBRANCH   6  21
TORSDOF 4
ENDMDL
