MODEL 1
REMARK VINA RESULT: -7.317326961      0.000      0.000
REMARK  4 active torsions:
REMARK  status: ('A' for Active; 'I' for Inactive)
REMARK    1  A    between atoms: C2_2  and  C4_4 
REMARK    2  A    between atoms: C8_11  and  S2_12 
REMARK    3  A    between atoms: S2_12  and  C9_13 
REMARK    4  A    between atoms: C11_18  and  N4_19 
ROOT
HETATM    1  C9  UNL     1     -27.315  22.748   2.521  1.00  0.00     0.206 C 
HETATM    2  C10 UNL     1     -28.090  21.554   2.883  1.00  0.00     0.069 C 
HETATM    3  N2  UNL     1     -28.699  20.612   3.186  1.00  0.00    -0.197 NA
ENDROOT
BRANCH   1   4
HETATM    4  S2  UNL     1     -26.094  23.027   3.848  1.00  0.00    -0.080 SA
BRANCH   4   5
HETATM    5  C8  UNL     1     -24.822  21.757   3.674  1.00  0.00     0.147 A 
HETATM    6  N1  UNL     1     -24.795  20.699   4.469  1.00  0.00    -0.339 N 
HETATM    7  C7  UNL     1     -23.863  19.698   4.395  1.00  0.00     0.037 A 
ATOM      8  H1  UNL     1     -25.517  20.625   5.185  1.00  0.00     0.168 HD
HETATM    9  C4  UNL     1     -23.722  18.504   5.217  1.00  0.00     0.050 C 
HETATM   10  C6  UNL     1     -22.926  19.861   3.413  1.00  0.00     0.067 A 
HETATM   11  C5  UNL     1     -23.080  17.388   4.429  1.00  0.00     0.090 C 
HETATM   12  S1  UNL     1     -21.864  18.435   3.503  1.00  0.00    -0.123 SA
HETATM   13  C11 UNL     1     -22.936  20.941   2.586  1.00  0.00     0.119 A 
HETATM   14  N3  UNL     1     -23.897  21.914   2.709  1.00  0.00    -0.322 N 
ATOM     15  H3  UNL     1     -23.909  22.726   2.092  1.00  0.00     0.169 HD
BRANCH   9  16
HETATM   16  C2  UNL     1     -22.813  18.767   6.403  1.00  0.00    -0.012 C 
HETATM   17  C1  UNL     1     -23.444  19.750   7.338  1.00  0.00     0.010 C 
HETATM   18  C3  UNL     1     -22.453  17.467   7.046  1.00  0.00     0.010 C 
ENDBRANCH   9  16
BRANCH  13  19
HETATM   19  N4  UNL     1     -22.065  21.119   1.655  1.00  0.00    -0.384 N 
ATOM     20  H42 UNL     1     -21.368  20.383   1.545  1.00  0.00     0.157 HD
ATOM     21  H41 UNL     1     -22.057  21.942   1.053  1.00  0.00     0.157 HD
ENDBRANCH  13  19
ENDBRANCH   4   5
ENDBRANCH   1   4
TORSDOF 4
ENDMDL
MODEL 2
REMARK VINA RESULT: -7.243576574      0.964      1.023
REMARK  4 active torsions:
REMARK  status: ('A' for Active; 'I' for Inactive)
REMARK    1  A    between atoms: C2_2  and  C4_4 
REMARK    2  A    between atoms: C8_11  and  S2_12 
REMARK    3  A    between atoms: S2_12  and  C9_13 
REMARK    4  A    between atoms: C11_18  and  N4_19 
ROOT
HETATM    1  C9  UNL     1     -28.175  21.232   2.889  1.00  0.00     0.206 C 
HETATM    2  C10 UNL     1     -28.430  21.541   1.475  1.00  0.00     0.069 C 
HETATM    3  N2  UNL     1     -28.615  21.793   0.356  1.00  0.00    -0.197 NA
ENDROOT
BRANCH   1   4
HETATM    4  S2  UNL     1     -26.810  22.308   3.444  1.00  0.00    -0.080 SA
BRANCH   4   5
HETATM    5  C8  UNL     1     -25.299  21.321   3.385  1.00  0.00     0.147 A 
HETATM    6  N1  UNL     1     -25.109  20.307   4.214  1.00  0.00    -0.339 N 
HETATM    7  C7  UNL     1     -23.990  19.515   4.226  1.00  0.00     0.037 A 
ATOM      8  H1  UNL     1     -25.844  20.101   4.889  1.00  0.00     0.168 HD
HETATM    9  C4  UNL     1     -23.663  18.392   5.094  1.00  0.00     0.050 C 
HETATM   10  C6  UNL     1     -23.046  19.847   3.295  1.00  0.00     0.067 A 
HETATM   11  C5  UNL     1     -22.760  17.415   4.380  1.00  0.00     0.090 C 
HETATM   12  S1  UNL     1     -21.724  18.670   3.493  1.00  0.00    -0.123 SA
HETATM   13  C11 UNL     1     -23.222  20.886   2.435  1.00  0.00     0.119 A 
HETATM   14  N3  UNL     1     -24.366  21.644   2.470  1.00  0.00    -0.322 N 
ATOM     15  H3  UNL     1     -24.504  22.424   1.827  1.00  0.00     0.169 HD
BRANCH   9  16
HETATM   16  C2  UNL     1     -22.902  18.859   6.321  1.00  0.00    -0.012 C 
HETATM   17  C1  UNL     1     -23.710  19.858   7.088  1.00  0.00     0.010 C 
HETATM   18  C3  UNL     1     -22.489  17.670   7.126  1.00  0.00     0.010 C 
ENDBRANCH   9  16
BRANCH  13  19
HETATM   19  N4  UNL     1     -22.349  21.219   1.550  1.00  0.00    -0.384 N 
ATOM     20  H42 UNL     1     -21.426  21.473   1.903  1.00  0.00     0.157 HD
ATOM     21  H41 UNL     1     -22.549  21.233   0.550  1.00  0.00     0.157 HD
ENDBRANCH  13  19
ENDBRANCH   4   5
ENDBRANCH   1   4
TORSDOF 4
ENDMDL
MODEL 3
REMARK VINA RESULT: -7.184566021      1.341      1.673
REMARK  4 active torsions:
REMARK  status: ('A' for Active; 'I' for Inactive)
REMARK    1  A    between atoms: C2_2  and  C4_4 
REMARK    2  A    between atoms: C8_11  and  S2_12 
REMARK    3  A    between atoms: S2_12  and  C9_13 
REMARK    4  A    between atoms: C11_18  and  N4_19 
ROOT
HETATM    1  C9  UNL     1     -26.557  23.666   4.290  1.00  0.00     0.206 C 
HETATM    2  C10 UNL     1     -26.190  23.202   5.634  1.00  0.00     0.069 C 
HETATM    3  N2  UNL     1     -25.895  22.819   6.691  1.00  0.00    -0.197 NA
ENDROOT
BRANCH   1   4
HETATM    4  S2  UNL     1     -26.839  22.186   3.261  1.00  0.00    -0.080 SA
BRANCH   4   5
HETATM    5  C8  UNL     1     -25.303  21.238   3.262  1.00  0.00     0.147 A 
HETATM    6  N1  UNL     1     -25.111  20.244   4.114  1.00  0.00    -0.339 N 
HETATM    7  C7  UNL     1     -23.974  19.481   4.173  1.00  0.00     0.037 A 
ATOM      8  H1  UNL     1     -25.860  20.030   4.772  1.00  0.00     0.168 HD
HETATM    9  C4  UNL     1     -23.644  18.381   5.069  1.00  0.00     0.050 C 
HETATM   10  C6  UNL     1     -23.012  19.821   3.263  1.00  0.00     0.067 A 
HETATM   11  C5  UNL     1     -22.696  17.416   4.399  1.00  0.00     0.090 C 
HETATM   12  S1  UNL     1     -21.667  18.682   3.520  1.00  0.00    -0.123 SA
HETATM   13  C11 UNL     1     -23.189  20.840   2.380  1.00  0.00     0.119 A 
HETATM   14  N3  UNL     1     -24.353  21.569   2.369  1.00  0.00    -0.322 N 
ATOM     15  H3  UNL     1     -24.491  22.334   1.708  1.00  0.00     0.169 HD
BRANCH   9  16
HETATM   16  C2  UNL     1     -22.931  18.889   6.309  1.00  0.00    -0.012 C 
HETATM   17  C1  UNL     1     -23.774  19.900   7.020  1.00  0.00     0.010 C 
HETATM   18  C3  UNL     1     -22.535  17.726   7.160  1.00  0.00     0.010 C 
ENDBRANCH   9  16
BRANCH  13  19
HETATM   19  N4  UNL     1     -22.299  21.180   1.514  1.00  0.00    -0.384 N 
ATOM     20  H42 UNL     1     -22.043  20.468   0.830  1.00  0.00     0.157 HD
ATOM     21  H41 UNL     1     -21.864  22.102   1.498  1.00  0.00     0.157 HD
ENDBRANCH  13  19
ENDBRANCH   4   5
ENDBRANCH   1   4
TORSDOF 4
ENDMDL
MODEL 4
REMARK VINA RESULT: -7.097016377      1.961      2.040
REMARK  4 active torsions:
REMARK  status: ('A' for Active; 'I' for Inactive)
REMARK    1  A    between atoms: C2_2  and  C4_4 
REMARK    2  A    between atoms: C8_11  and  S2_12 
REMARK    3  A    between atoms: S2_12  and  C9_13 
REMARK    4  A    between atoms: C11_18  and  N4_19 
ROOT
HETATM    1  C9  UNL     1     -26.545  23.067   6.376  1.00  0.00     0.206 C 
HETATM    2  C10 UNL     1     -27.598  24.040   6.696  1.00  0.00     0.069 C 
HETATM    3  N2  UNL     1     -28.436  24.809   6.932  1.00  0.00    -0.197 NA
ENDROOT
BRANCH   1   4
HETATM    4  S2  UNL     1     -26.312  23.092   4.566  1.00  0.00    -0.080 SA
BRANCH   4   5
HETATM    5  C8  UNL     1     -25.025  21.887   4.180  1.00  0.00     0.147 A 
HETATM    6  N1  UNL     1     -24.895  20.772   4.881  1.00  0.00    -0.339 N 
HETATM    7  C7  UNL     1     -23.945  19.814   4.646  1.00  0.00     0.037 A 
ATOM      8  H1  UNL     1     -25.547  20.616   5.650  1.00  0.00     0.168 HD
HETATM    9  C4  UNL     1     -23.696  18.566   5.354  1.00  0.00     0.050 C 
HETATM   10  C6  UNL     1     -23.106  20.087   3.601  1.00  0.00     0.067 A 
HETATM   11  C5  UNL     1     -23.095  17.538   4.425  1.00  0.00     0.090 C 
HETATM   12  S1  UNL     1     -21.998  18.697   3.484  1.00  0.00    -0.123 SA
HETATM   13  C11 UNL     1     -23.222  21.226   2.868  1.00  0.00     0.119 A 
HETATM   14  N3  UNL     1     -24.196  22.151   3.153  1.00  0.00    -0.322 N 
ATOM     15  H3  UNL     1     -24.288  23.007   2.606  1.00  0.00     0.169 HD
BRANCH   9  16
HETATM   16  C2  UNL     1     -22.691  18.769   6.473  1.00  0.00    -0.012 C 
HETATM   17  C1  UNL     1     -23.273  19.631   7.549  1.00  0.00     0.010 C 
HETATM   18  C3  UNL     1     -22.215  17.438   6.956  1.00  0.00     0.010 C 
ENDBRANCH   9  16
BRANCH  13  19
HETATM   19  N4  UNL     1     -22.445  21.507   1.882  1.00  0.00    -0.384 N 
ATOM     20  H42 UNL     1     -21.456  21.292   2.012  1.00  0.00     0.157 HD
ATOM     21  H41 UNL     1     -22.779  21.920   1.012  1.00  0.00     0.157 HD
ENDBRANCH  13  19
ENDBRANCH   4   5
ENDBRANCH   1   4
TORSDOF 4
ENDMDL
MODEL 5
REMARK VINA RESULT: -6.969160920      1.677      1.754
REMARK  4 active torsions:
REMARK  status: ('A' for Active; 'I' for Inactive)
REMARK    1  A    between atoms: C2_2  and  C4_4 
REMARK    2  A    between atoms: C8_11  and  S2_12 
REMARK    3  A    between atoms: S2_12  and  C9_13 
REMARK    4  A    between atoms: C11_18  and  N4_19 
ROOT
HETATM    1  C9  UNL     1     -26.356  22.898   0.559  1.00  0.00     0.206 C 
HETATM    2  C10 UNL     1     -27.180  22.198  -0.435  1.00  0.00     0.069 C 
HETATM    3  N2  UNL     1     -27.844  21.638  -1.208  1.00  0.00    -0.197 NA
ENDROOT
BRANCH   1   4
HETATM    4  S2  UNL     1     -26.673  22.117   2.177  1.00  0.00    -0.080 SA
BRANCH   4   5
HETATM    5  C8  UNL     1     -25.169  21.236   2.645  1.00  0.00     0.147 A 
HETATM    6  N1  UNL     1     -25.130  20.468   3.722  1.00  0.00    -0.339 N 
HETATM    7  C7  UNL     1     -24.026  19.770   4.137  1.00  0.00     0.037 A 
ATOM      8  H1  UNL     1     -25.979  20.391   4.282  1.00  0.00     0.168 HD
HETATM    9  C4  UNL     1     -23.859  18.914   5.303  1.00  0.00     0.050 C 
HETATM   10  C6  UNL     1     -22.924  19.918   3.341  1.00  0.00     0.067 A 
HETATM   11  C5  UNL     1     -22.826  17.846   5.035  1.00  0.00     0.090 C 
HETATM   12  S1  UNL     1     -21.653  18.904   4.066  1.00  0.00    -0.123 SA
HETATM   13  C11 UNL     1     -22.944  20.703   2.230  1.00  0.00     0.119 A 
HETATM   14  N3  UNL     1     -24.082  21.379   1.865  1.00  0.00    -0.322 N 
ATOM     15  H3  UNL     1     -24.102  21.969   1.033  1.00  0.00     0.169 HD
BRANCH   9  16
HETATM   16  C2  UNL     1     -23.352  19.710   6.491  1.00  0.00    -0.012 C 
HETATM   17  C1  UNL     1     -24.407  20.654   6.977  1.00  0.00     0.010 C 
HETATM   18  C3  UNL     1     -22.856  18.768   7.540  1.00  0.00     0.010 C 
ENDBRANCH   9  16
BRANCH  13  19
HETATM   19  N4  UNL     1     -21.921  20.859   1.465  1.00  0.00    -0.384 N 
ATOM     20  H42 UNL     1     -21.009  20.840   1.923  1.00  0.00     0.157 HD
ATOM     21  H41 UNL     1     -21.997  20.997   0.458  1.00  0.00     0.157 HD
ENDBRANCH  13  19
ENDBRANCH   4   5
ENDBRANCH   1   4
TORSDOF 4
ENDMDL
