MODEL 1
REMARK VINA RESULT: -6.486225095      0.000      0.000
REMARK  6 active torsions:
REMARK  status: ('A' for Active; 'I' for Inactive)
REMARK    1  A    between atoms: C2_2  and  C3_3 
REMARK    2  A    between atoms: C8_9  and  C9_10 
REMARK    3  A    between atoms: C9_10  and  O1_11 
REMARK    4  A    between atoms: C9_10  and  C10_13 
REMARK    5  A    between atoms: C10_13  and  O2_14 
REMARK    6  A    between atoms: C12_16  and  O3_17 
ROOT
HETATM    1  C3  UNL     1     -22.598  19.391   5.167  1.00  0.00    -0.007 A 
HETATM    2  C4  UNL     1     -23.692  20.183   5.298  1.00  0.00     0.020 A 
HETATM    3 BR1  UNL     1     -24.532  20.533   6.990  1.00  0.00    -0.050 Br
HETATM    4  C5  UNL     1     -24.246  20.773   4.195  1.00  0.00     0.027 A 
HETATM    5  C6  UNL     1     -23.673  20.546   2.971  1.00  0.00    -0.049 A 
HETATM    6  C7  UNL     1     -24.281  21.188   1.790  1.00  0.00     0.049 C 
HETATM    7  C8  UNL     1     -22.545  19.736   2.792  1.00  0.00     0.012 A 
HETATM    8  C12 UNL     1     -22.011  19.158   3.906  1.00  0.00     0.082 A 
ENDROOT
BRANCH   7   9
HETATM    9  C9  UNL     1     -21.977  19.528   1.461  1.00  0.00     0.178 C 
BRANCH   9  10
HETATM   10  O1  UNL     1     -21.539  18.217   1.257  1.00  0.00    -0.389 OA
ATOM     11  H1  UNL     1     -21.334  17.766   2.068  1.00  0.00     0.210 HD
ENDBRANCH   9  10
BRANCH   9  12
HETATM   12  C10 UNL     1     -20.833  20.381   1.050  1.00  0.00     0.203 C 
BRANCH  12  13
HETATM   13  O2  UNL     1     -19.639  19.908   1.573  1.00  0.00    -0.393 OA
HETATM   14  C11 UNL     1     -18.538  20.482   0.993  1.00  0.00     0.201 C 
ENDBRANCH  12  13
ENDBRANCH   9  12
ENDBRANCH   7   9
BRANCH   8  15
HETATM   15  O3  UNL     1     -20.903  18.332   3.897  1.00  0.00    -0.359 OA
ATOM     16  H3  UNL     1     -20.213  18.567   3.287  1.00  0.00     0.217 HD
ENDBRANCH   8  15
BRANCH   1  17
HETATM   17  C2  UNL     1     -22.035  18.772   6.394  1.00  0.00     0.038 C 
HETATM   18  C1  UNL     1     -22.709  17.437   6.649  1.00  0.00     0.010 C 
ENDBRANCH   1  17
TORSDOF 6
ENDMDL
MODEL 2
REMARK VINA RESULT: -6.450550972      2.607      3.562
REMARK  6 active torsions:
REMARK  status: ('A' for Active; 'I' for Inactive)
REMARK    1  A    between atoms: C2_2  and  C3_3 
REMARK    2  A    between atoms: C8_9  and  C9_10 
REMARK    3  A    between atoms: C9_10  and  O1_11 
REMARK    4  A    between atoms: C9_10  and  C10_13 
REMARK    5  A    between atoms: C10_13  and  O2_14 
REMARK    6  A    between atoms: C12_16  and  O3_17 
ROOT
HETATM    1  C3  UNL     1     -23.416  19.372   4.795  1.00  0.00    -0.007 A 
HETATM    2  C4  UNL     1     -23.628  19.688   6.097  1.00  0.00     0.020 A 
HETATM    3 BR1  UNL     1     -22.803  18.741   7.551  1.00  0.00    -0.050 Br
HETATM    4  C5  UNL     1     -24.462  20.723   6.422  1.00  0.00     0.027 A 
HETATM    5  C6  UNL     1     -25.068  21.421   5.411  1.00  0.00    -0.049 A 
HETATM    6  C7  UNL     1     -25.966  22.534   5.776  1.00  0.00     0.049 C 
HETATM    7  C8  UNL     1     -24.877  21.127   4.055  1.00  0.00     0.012 A 
HETATM    8  C12 UNL     1     -24.042  20.091   3.756  1.00  0.00     0.082 A 
ENDROOT
BRANCH   7   9
HETATM    9  C9  UNL     1     -25.551  21.906   3.018  1.00  0.00     0.178 C 
BRANCH   9  10
HETATM   10  O1  UNL     1     -26.060  21.111   1.988  1.00  0.00    -0.389 OA
ATOM     11  H1  UNL     1     -26.394  21.620   1.259  1.00  0.00     0.210 HD
ENDBRANCH   9  10
BRANCH   9  12
HETATM   12  C10 UNL     1     -24.777  22.971   2.333  1.00  0.00     0.203 C 
BRANCH  12  13
HETATM   13  O2  UNL     1     -24.108  22.474   1.225  1.00  0.00    -0.393 OA
HETATM   14  C11 UNL     1     -22.795  22.861   1.176  1.00  0.00     0.201 C 
ENDBRANCH  12  13
ENDBRANCH   9  12
ENDBRANCH   7   9
BRANCH   8  15
HETATM   15  O3  UNL     1     -23.751  19.675   2.470  1.00  0.00    -0.359 OA
ATOM     16  H3  UNL     1     -24.300  18.983   2.123  1.00  0.00     0.217 HD
ENDBRANCH   8  15
BRANCH   1  17
HETATM   17  C2  UNL     1     -22.503  18.239   4.493  1.00  0.00     0.038 C 
HETATM   18  C1  UNL     1     -23.307  16.963   4.334  1.00  0.00     0.010 C 
ENDBRANCH   1  17
TORSDOF 6
ENDMDL
MODEL 3
REMARK VINA RESULT: -6.382149149      2.735      4.258
REMARK  6 active torsions:
REMARK  status: ('A' for Active; 'I' for Inactive)
REMARK    1  A    between atoms: C2_2  and  C3_3 
REMARK    2  A    between atoms: C8_9  and  C9_10 
REMARK    3  A    between atoms: C9_10  and  O1_11 
REMARK    4  A    between atoms: C9_10  and  C10_13 
REMARK    5  A    between atoms: C10_13  and  O2_14 
REMARK    6  A    between atoms: C12_16  and  O3_17 
ROOT
HETATM    1  C3  UNL     1     -24.884  21.031   4.554  1.00  0.00    -0.007 A 
HETATM    2  C4  UNL     1     -25.116  21.426   5.830  1.00  0.00     0.020 A 
HETATM    3 BR1  UNL     1     -26.288  22.883   6.276  1.00  0.00    -0.050 Br
HETATM    4  C5  UNL     1     -24.504  20.780   6.869  1.00  0.00     0.027 A 
HETATM    5  C6  UNL     1     -23.662  19.736   6.588  1.00  0.00    -0.049 A 
HETATM    6  C7  UNL     1     -23.008  19.048   7.718  1.00  0.00     0.049 C 
HETATM    7  C8  UNL     1     -23.395  19.297   5.286  1.00  0.00     0.012 A 
HETATM    8  C12 UNL     1     -24.015  19.957   4.267  1.00  0.00     0.082 A 
ENDROOT
BRANCH   7   9
HETATM    9  C9  UNL     1     -22.485  18.177   5.046  1.00  0.00     0.178 C 
BRANCH   9  10
HETATM   10  O1  UNL     1     -21.380  18.534   4.269  1.00  0.00    -0.389 OA
ATOM     11  H1  UNL     1     -21.214  17.923   3.561  1.00  0.00     0.210 HD
ENDBRANCH   9  10
BRANCH   9  12
HETATM   12  C10 UNL     1     -23.033  16.961   4.395  1.00  0.00     0.203 C 
BRANCH  12  13
HETATM   13  O2  UNL     1     -22.637  16.878   3.069  1.00  0.00    -0.393 OA
HETATM   14  C11 UNL     1     -21.938  15.732   2.792  1.00  0.00     0.201 C 
ENDBRANCH  12  13
ENDBRANCH   9  12
ENDBRANCH   7   9
BRANCH   8  15
HETATM   15  O3  UNL     1     -23.855  19.648   2.930  1.00  0.00    -0.359 OA
ATOM     16  H3  UNL     1     -23.009  19.293   2.683  1.00  0.00     0.217 HD
ENDBRANCH   8  15
BRANCH   1  17
HETATM   17  C2  UNL     1     -25.571  21.766   3.461  1.00  0.00     0.038 C 
HETATM   18  C1  UNL     1     -26.930  21.145   3.202  1.00  0.00     0.010 C 
ENDBRANCH   1  17
TORSDOF 6
ENDMDL
MODEL 4
REMARK VINA RESULT: -6.351527969      1.009      1.076
REMARK  6 active torsions:
REMARK  status: ('A' for Active; 'I' for Inactive)
REMARK    1  A    between atoms: C2_2  and  C3_3 
REMARK    2  A    between atoms: C8_9  and  C9_10 
REMARK    3  A    between atoms: C9_10  and  O1_11 
REMARK    4  A    between atoms: C9_10  and  C10_13 
REMARK    5  A    between atoms: C10_13  and  O2_14 
REMARK    6  A    between atoms: C12_16  and  O3_17 
ROOT
HETATM    1  C3  UNL     1     -23.253  19.241   5.055  1.00  0.00    -0.007 A 
HETATM    2  C4  UNL     1     -23.936  20.393   4.843  1.00  0.00     0.020 A 
HETATM    3 BR1  UNL     1     -25.053  21.206   6.179  1.00  0.00    -0.050 Br
HETATM    4  C5  UNL     1     -23.847  21.030   3.636  1.00  0.00     0.027 A 
HETATM    5  C6  UNL     1     -23.059  20.478   2.659  1.00  0.00    -0.049 A 
HETATM    6  C7  UNL     1     -22.973  21.175   1.361  1.00  0.00     0.049 C 
HETATM    7  C8  UNL     1     -22.339  19.291   2.836  1.00  0.00     0.012 A 
HETATM    8  C12 UNL     1     -22.445  18.674   4.047  1.00  0.00     0.082 A 
ENDROOT
BRANCH   7   9
HETATM    9  C9  UNL     1     -21.515  18.748   1.757  1.00  0.00     0.178 C 
BRANCH   9  10
HETATM   10  O1  UNL     1     -21.609  17.358   1.650  1.00  0.00    -0.389 OA
ATOM     11  H1  UNL     1     -21.639  17.058   0.749  1.00  0.00     0.210 HD
ENDBRANCH   9  10
BRANCH   9  12
HETATM   12  C10 UNL     1     -20.058  19.032   1.782  1.00  0.00     0.203 C 
BRANCH  12  13
HETATM   13  O2  UNL     1     -19.802  20.301   2.277  1.00  0.00    -0.393 OA
HETATM   14  C11 UNL     1     -18.810  20.952   1.591  1.00  0.00     0.201 C 
ENDBRANCH  12  13
ENDBRANCH   9  12
ENDBRANCH   7   9
BRANCH   8  15
HETATM   15  O3  UNL     1     -21.800  17.497   4.378  1.00  0.00    -0.359 OA
ATOM     16  H3  UNL     1     -22.331  16.839   4.810  1.00  0.00     0.217 HD
ENDBRANCH   8  15
BRANCH   1  17
HETATM   17  C2  UNL     1     -23.384  18.586   6.382  1.00  0.00     0.038 C 
HETATM   18  C1  UNL     1     -22.233  19.007   7.276  1.00  0.00     0.010 C 
ENDBRANCH   1  17
TORSDOF 6
ENDMDL
MODEL 5
REMARK VINA RESULT: -6.263577142      3.020      4.309
REMARK  6 active torsions:
REMARK  status: ('A' for Active; 'I' for Inactive)
REMARK    1  A    between atoms: C2_2  and  C3_3 
REMARK    2  A    between atoms: C8_9  and  C9_10 
REMARK    3  A    between atoms: C9_10  and  O1_11 
REMARK    4  A    between atoms: C9_10  and  C10_13 
REMARK    5  A    between atoms: C10_13  and  O2_14 
REMARK    6  A    between atoms: C12_16  and  O3_17 
ROOT
HETATM    1  C3  UNL     1     -23.410  19.301   4.872  1.00  0.00    -0.007 A 
HETATM    2  C4  UNL     1     -23.582  19.602   6.183  1.00  0.00     0.020 A 
HETATM    3 BR1  UNL     1     -22.704  18.646   7.599  1.00  0.00    -0.050 Br
HETATM    4  C5  UNL     1     -24.412  20.628   6.547  1.00  0.00     0.027 A 
HETATM    5  C6  UNL     1     -25.056  21.332   5.563  1.00  0.00    -0.049 A 
HETATM    6  C7  UNL     1     -25.948  22.435   5.969  1.00  0.00     0.049 C 
HETATM    7  C8  UNL     1     -24.906  21.054   4.199  1.00  0.00     0.012 A 
HETATM    8  C12 UNL     1     -24.075  20.027   3.861  1.00  0.00     0.082 A 
ENDROOT
BRANCH   7   9
HETATM    9  C9  UNL     1     -25.620  21.839   3.192  1.00  0.00     0.178 C 
BRANCH   9  10
HETATM   10  O1  UNL     1     -26.095  21.060   2.134  1.00  0.00    -0.389 OA
ATOM     11  H1  UNL     1     -25.825  21.389   1.284  1.00  0.00     0.210 HD
ENDBRANCH   9  10
BRANCH   9  12
HETATM   12  C10 UNL     1     -24.898  22.964   2.546  1.00  0.00     0.203 C 
BRANCH  12  13
HETATM   13  O2  UNL     1     -25.781  23.857   1.959  1.00  0.00    -0.393 OA
HETATM   14  C11 UNL     1     -26.664  24.401   2.856  1.00  0.00     0.201 C 
ENDBRANCH  12  13
ENDBRANCH   9  12
ENDBRANCH   7   9
BRANCH   8  15
HETATM   15  O3  UNL     1     -23.824  19.627   2.562  1.00  0.00    -0.359 OA
ATOM     16  H3  UNL     1     -23.723  20.323   1.924  1.00  0.00     0.217 HD
ENDBRANCH   8  15
BRANCH   1  17
HETATM   17  C2  UNL     1     -22.501  18.178   4.528  1.00  0.00     0.038 C 
HETATM   18  C1  UNL     1     -23.306  16.907   4.339  1.00  0.00     0.010 C 
ENDBRANCH   1  17
TORSDOF 6
ENDMDL
