MODEL 1
REMARK VINA RESULT: -8.639014399      0.000      0.000
REMARK  5 active torsions:
REMARK  status: ('A' for Active; 'I' for Inactive)
REMARK    1  A    between atoms: N1_1  and  C1_4 
REMARK    2  A    between atoms: C5_11  and  C6_12 
REMARK    3  A    between atoms: C6_12  and  O1_13 
REMARK    4  A    between atoms: O1_13  and  C7_14 
REMARK    5  A    between atoms: C7_14  and  C8_15 
ROOT
HETATM    1  C6  UNL     1     -24.130  19.292   4.005  1.00  0.00     0.210 C 
ENDROOT
BRANCH   1   2
HETATM    2  C5  UNL     1     -23.252  19.126   5.162  1.00  0.00     0.009 A 
HETATM    3  C1  UNL     1     -21.951  18.635   4.963  1.00  0.00     0.109 A 
HETATM    4  N2  UNL     1     -21.137  18.426   5.996  1.00  0.00    -0.319 N 
HETATM    5  C2  UNL     1     -21.486  18.663   7.277  1.00  0.00     0.189 A 
ATOM      6  H2  UNL     1     -20.201  18.069   5.809  1.00  0.00     0.169 HD
HETATM    7  F1  UNL     1     -20.663  18.453   8.326  1.00  0.00    -0.186 F 
HETATM    8  C3  UNL     1     -22.745  19.143   7.543  1.00  0.00     0.062 A 
HETATM    9  C4  UNL     1     -23.610  19.365   6.461  1.00  0.00     0.017 A 
BRANCH   3  10
HETATM   10  N1  UNL     1     -21.528  18.377   3.752  1.00  0.00    -0.385 N 
ATOM     11  H12 UNL     1     -21.388  19.139   3.088  1.00  0.00     0.157 HD
ATOM     12  H11 UNL     1     -21.342  17.410   3.484  1.00  0.00     0.157 HD
ENDBRANCH   3  10
ENDBRANCH   1   2
BRANCH   1  13
HETATM   13  O1  UNL     1     -25.171  20.174   4.108  1.00  0.00    -0.384 OA
BRANCH  13  14
HETATM   14  C7  UNL     1     -25.227  21.011   3.038  1.00  0.00     0.206 C 
BRANCH  14  15
HETATM   15  C8  UNL     1     -26.623  21.528   2.746  1.00  0.00     0.083 C 
HETATM   16  C9  UNL     1     -26.754  22.850   3.473  1.00  0.00     0.045 C 
HETATM   17  C10 UNL     1     -28.125  23.419   3.184  1.00  0.00    -0.009 C 
HETATM   18  C11 UNL     1     -28.256  23.566   1.690  1.00  0.00     0.009 C 
HETATM   19  C15 UNL     1     -29.132  22.420   3.738  1.00  0.00     0.037 C 
HETATM   20  C12 UNL     1     -28.178  22.229   1.010  1.00  0.00    -0.009 C 
HETATM   21  C13 UNL     1     -29.193  21.287   1.596  1.00  0.00     0.037 C 
HETATM   22  C16 UNL     1     -26.790  21.654   1.267  1.00  0.00     0.045 C 
HETATM   23  C14 UNL     1     -28.849  21.091   3.053  1.00  0.00     0.123 C 
HETATM   24  O2  UNL     1     -27.571  20.650   3.258  1.00  0.00    -0.373 OA
ENDBRANCH  14  15
ENDBRANCH  13  14
ENDBRANCH   1  13
TORSDOF 5
ENDMDL
MODEL 2
REMARK VINA RESULT: -8.526631264      4.208      7.662
REMARK  5 active torsions:
REMARK  status: ('A' for Active; 'I' for Inactive)
REMARK    1  A    between atoms: N1_1  and  C1_4 
REMARK    2  A    between atoms: C5_11  and  C6_12 
REMARK    3  A    between atoms: C6_12  and  O1_13 
REMARK    4  A    between atoms: O1_13  and  C7_14 
REMARK    5  A    between atoms: C7_14  and  C8_15 
ROOT
HETATM    1  C6  UNL     1     -26.543  21.123   3.282  1.00  0.00     0.210 C 
ENDROOT
BRANCH   1   2
HETATM    2  C5  UNL     1     -27.135  21.485   1.996  1.00  0.00     0.009 A 
HETATM    3  C1  UNL     1     -28.533  21.475   1.865  1.00  0.00     0.109 A 
HETATM    4  N2  UNL     1     -29.109  21.753   0.696  1.00  0.00    -0.319 N 
HETATM    5  C2  UNL     1     -28.417  22.058  -0.420  1.00  0.00     0.189 A 
ATOM      6  H2  UNL     1     -30.127  21.735   0.643  1.00  0.00     0.169 HD
HETATM    7  F1  UNL     1     -28.997  22.341  -1.605  1.00  0.00    -0.186 F 
HETATM    8  C3  UNL     1     -27.045  22.085  -0.362  1.00  0.00     0.062 A 
HETATM    9  C4  UNL     1     -26.429  21.792   0.865  1.00  0.00     0.017 A 
BRANCH   3  10
HETATM   10  N1  UNL     1     -29.285  21.189   2.897  1.00  0.00    -0.385 N 
ATOM     11  H12 UNL     1     -29.726  20.272   2.968  1.00  0.00     0.157 HD
ATOM     12  H11 UNL     1     -29.423  21.892   3.624  1.00  0.00     0.157 HD
ENDBRANCH   3  10
ENDBRANCH   1   2
BRANCH   1  13
HETATM   13  O1  UNL     1     -25.197  20.880   3.326  1.00  0.00    -0.384 OA
BRANCH  13  14
HETATM   14  C7  UNL     1     -24.744  20.793   4.606  1.00  0.00     0.206 C 
BRANCH  14  15
HETATM   15  C8  UNL     1     -23.746  19.670   4.820  1.00  0.00     0.083 C 
HETATM   16  C9  UNL     1     -23.481  19.609   6.309  1.00  0.00     0.045 C 
HETATM   17  C10 UNL     1     -22.510  18.480   6.574  1.00  0.00    -0.009 C 
HETATM   18  C11 UNL     1     -23.127  17.211   6.043  1.00  0.00     0.009 C 
HETATM   19  C15 UNL     1     -21.227  18.831   5.833  1.00  0.00     0.037 C 
HETATM   20  C12 UNL     1     -23.321  17.289   4.557  1.00  0.00    -0.009 C 
HETATM   21  C13 UNL     1     -22.024  17.637   3.879  1.00  0.00     0.037 C 
HETATM   22  C16 UNL     1     -24.321  18.405   4.275  1.00  0.00     0.045 C 
HETATM   23  C14 UNL     1     -21.604  19.002   4.367  1.00  0.00     0.123 C 
HETATM   24  O2  UNL     1     -22.552  19.968   4.173  1.00  0.00    -0.373 OA
ENDBRANCH  14  15
ENDBRANCH  13  14
ENDBRANCH   1  13
TORSDOF 5
ENDMDL
MODEL 3
REMARK VINA RESULT: -8.520238150      1.760      2.813
REMARK  5 active torsions:
REMARK  status: ('A' for Active; 'I' for Inactive)
REMARK    1  A    between atoms: N1_1  and  C1_4 
REMARK    2  A    between atoms: C5_11  and  C6_12 
REMARK    3  A    between atoms: C6_12  and  O1_13 
REMARK    4  A    between atoms: O1_13  and  C7_14 
REMARK    5  A    between atoms: C7_14  and  C8_15 
ROOT
HETATM    1  C6  UNL     1     -24.472  20.023   4.837  1.00  0.00     0.210 C 
ENDROOT
BRANCH   1   2
HETATM    2  C5  UNL     1     -23.371  19.490   5.638  1.00  0.00     0.009 A 
HETATM    3  C1  UNL     1     -22.159  19.173   5.003  1.00  0.00     0.109 A 
HETATM    4  N2  UNL     1     -21.150  18.642   5.691  1.00  0.00    -0.319 N 
HETATM    5  C2  UNL     1     -21.208  18.376   7.011  1.00  0.00     0.189 A 
ATOM      6  H2  UNL     1     -20.287  18.426   5.192  1.00  0.00     0.169 HD
HETATM    7  F1  UNL     1     -20.186  17.839   7.710  1.00  0.00    -0.186 F 
HETATM    8  C3  UNL     1     -22.365  18.661   7.694  1.00  0.00     0.062 A 
HETATM    9  C4  UNL     1     -23.434  19.219   6.978  1.00  0.00     0.017 A 
BRANCH   3  10
HETATM   10  N1  UNL     1     -22.014  19.398   3.722  1.00  0.00    -0.385 N 
ATOM     11  H12 UNL     1     -21.226  19.953   3.388  1.00  0.00     0.157 HD
ATOM     12  H11 UNL     1     -22.695  19.013   3.067  1.00  0.00     0.157 HD
ENDBRANCH   3  10
ENDBRANCH   1   2
BRANCH   1  13
HETATM   13  O1  UNL     1     -24.491  21.366   4.582  1.00  0.00    -0.384 OA
BRANCH  13  14
HETATM   14  C7  UNL     1     -25.518  21.706   3.757  1.00  0.00     0.206 C 
BRANCH  14  15
HETATM   15  C8  UNL     1     -26.445  22.755   4.343  1.00  0.00     0.083 C 
HETATM   16  C9  UNL     1     -27.857  22.258   4.113  1.00  0.00     0.045 C 
HETATM   17  C10 UNL     1     -28.818  23.261   4.710  1.00  0.00    -0.009 C 
HETATM   18  C11 UNL     1     -28.485  23.401   6.174  1.00  0.00     0.009 C 
HETATM   19  C15 UNL     1     -28.600  24.568   3.960  1.00  0.00     0.037 C 
HETATM   20  C12 UNL     1     -27.100  23.949   6.360  1.00  0.00    -0.009 C 
HETATM   21  C13 UNL     1     -26.943  25.237   5.598  1.00  0.00     0.037 C 
HETATM   22  C16 UNL     1     -26.116  22.934   5.788  1.00  0.00     0.045 C 
HETATM   23  C14 UNL     1     -27.130  24.929   4.133  1.00  0.00     0.123 C 
HETATM   24  O2  UNL     1     -26.287  23.958   3.666  1.00  0.00    -0.373 OA
ENDBRANCH  14  15
ENDBRANCH  13  14
ENDBRANCH   1  13
TORSDOF 5
ENDMDL
MODEL 4
REMARK VINA RESULT: -8.513606253      1.186      1.735
REMARK  5 active torsions:
REMARK  status: ('A' for Active; 'I' for Inactive)
REMARK    1  A    between atoms: N1_1  and  C1_4 
REMARK    2  A    between atoms: C5_11  and  C6_12 
REMARK    3  A    between atoms: C6_12  and  O1_13 
REMARK    4  A    between atoms: O1_13  and  C7_14 
REMARK    5  A    between atoms: C7_14  and  C8_15 
ROOT
HETATM    1  C6  UNL     1     -24.137  18.811   3.914  1.00  0.00     0.210 C 
ENDROOT
BRANCH   1   2
HETATM    2  C5  UNL     1     -23.270  18.824   5.091  1.00  0.00     0.009 A 
HETATM    3  C1  UNL     1     -21.942  18.388   4.962  1.00  0.00     0.109 A 
HETATM    4  N2  UNL     1     -21.135  18.341   6.021  1.00  0.00    -0.319 N 
HETATM    5  C2  UNL     1     -21.518  18.698   7.263  1.00  0.00     0.189 A 
ATOM      6  H2  UNL     1     -20.178  18.019   5.884  1.00  0.00     0.169 HD
HETATM    7  F1  UNL     1     -20.703  18.652   8.338  1.00  0.00    -0.186 F 
HETATM    8  C3  UNL     1     -22.805  19.133   7.461  1.00  0.00     0.062 A 
HETATM    9  C4  UNL     1     -23.663  19.185   6.351  1.00  0.00     0.017 A 
BRANCH   3  10
HETATM   10  N1  UNL     1     -21.485  18.022   3.792  1.00  0.00    -0.385 N 
ATOM     11  H12 UNL     1     -21.767  17.127   3.392  1.00  0.00     0.157 HD
ATOM     12  H11 UNL     1     -20.846  18.640   3.290  1.00  0.00     0.157 HD
ENDBRANCH   3  10
ENDBRANCH   1   2
BRANCH   1  13
HETATM   13  O1  UNL     1     -23.794  19.604   2.853  1.00  0.00    -0.384 OA
BRANCH  13  14
HETATM   14  C7  UNL     1     -23.826  20.923   3.182  1.00  0.00     0.206 C 
BRANCH  14  15
HETATM   15  C8  UNL     1     -25.075  21.638   2.703  1.00  0.00     0.083 C 
HETATM   16  C9  UNL     1     -26.094  21.518   3.817  1.00  0.00     0.045 C 
HETATM   17  C10 UNL     1     -27.351  22.245   3.393  1.00  0.00    -0.009 C 
HETATM   18  C11 UNL     1     -26.977  23.676   3.102  1.00  0.00     0.009 C 
HETATM   19  C15 UNL     1     -27.860  21.536   2.146  1.00  0.00     0.037 C 
HETATM   20  C12 UNL     1     -26.011  23.757   1.957  1.00  0.00    -0.009 C 
HETATM   21  C13 UNL     1     -26.566  23.042   0.756  1.00  0.00     0.037 C 
HETATM   22  C16 UNL     1     -24.726  23.053   2.378  1.00  0.00     0.045 C 
HETATM   23  C14 UNL     1     -26.732  21.588   1.124  1.00  0.00     0.123 C 
HETATM   24  O2  UNL     1     -25.581  21.003   1.575  1.00  0.00    -0.373 OA
ENDBRANCH  14  15
ENDBRANCH  13  14
ENDBRANCH   1  13
TORSDOF 5
ENDMDL
MODEL 5
REMARK VINA RESULT: -8.458033674      3.650      7.056
REMARK  5 active torsions:
REMARK  status: ('A' for Active; 'I' for Inactive)
REMARK    1  A    between atoms: N1_1  and  C1_4 
REMARK    2  A    between atoms: C5_11  and  C6_12 
REMARK    3  A    between atoms: C6_12  and  O1_13 
REMARK    4  A    between atoms: O1_13  and  C7_14 
REMARK    5  A    between atoms: C7_14  and  C8_15 
ROOT
HETATM    1  C6  UNL     1     -25.178  21.760   2.617  1.00  0.00     0.210 C 
ENDROOT
BRANCH   1   2
HETATM    2  C5  UNL     1     -25.167  21.521   1.175  1.00  0.00     0.009 A 
HETATM    3  C1  UNL     1     -24.046  20.906   0.596  1.00  0.00     0.109 A 
HETATM    4  N2  UNL     1     -23.979  20.714  -0.721  1.00  0.00    -0.319 N 
HETATM    5  C2  UNL     1     -24.953  21.083  -1.576  1.00  0.00     0.189 A 
ATOM      6  H2  UNL     1     -23.147  20.263  -1.101  1.00  0.00     0.169 HD
HETATM    7  F1  UNL     1     -24.888  20.889  -2.910  1.00  0.00    -0.186 F 
HETATM    8  C3  UNL     1     -26.078  21.691  -1.076  1.00  0.00     0.062 A 
HETATM    9  C4  UNL     1     -26.157  21.899   0.309  1.00  0.00     0.017 A 
BRANCH   3  10
HETATM   10  N1  UNL     1     -23.051  20.515   1.351  1.00  0.00    -0.385 N 
ATOM     11  H12 UNL     1     -23.118  19.638   1.869  1.00  0.00     0.157 HD
ATOM     12  H11 UNL     1     -22.215  21.096   1.416  1.00  0.00     0.157 HD
ENDBRANCH   3  10
ENDBRANCH   1   2
BRANCH   1  13
HETATM   13  O1  UNL     1     -25.434  20.700   3.443  1.00  0.00    -0.384 OA
BRANCH  13  14
HETATM   14  C7  UNL     1     -24.749  20.799   4.614  1.00  0.00     0.206 C 
BRANCH  14  15
HETATM   15  C8  UNL     1     -23.751  19.677   4.830  1.00  0.00     0.083 C 
HETATM   16  C9  UNL     1     -23.492  19.611   6.321  1.00  0.00     0.045 C 
HETATM   17  C10 UNL     1     -22.521  18.483   6.586  1.00  0.00    -0.009 C 
HETATM   18  C11 UNL     1     -23.134  17.215   6.049  1.00  0.00     0.009 C 
HETATM   19  C15 UNL     1     -21.236  18.837   5.852  1.00  0.00     0.037 C 
HETATM   20  C12 UNL     1     -23.322  17.297   4.562  1.00  0.00    -0.009 C 
HETATM   21  C13 UNL     1     -22.022  17.648   3.892  1.00  0.00     0.037 C 
HETATM   22  C16 UNL     1     -24.322  18.413   4.278  1.00  0.00     0.045 C 
HETATM   23  C14 UNL     1     -21.606  19.012   4.386  1.00  0.00     0.123 C 
HETATM   24  O2  UNL     1     -22.554  19.978   4.190  1.00  0.00    -0.373 OA
ENDBRANCH  14  15
ENDBRANCH  13  14
ENDBRANCH   1  13
TORSDOF 5
ENDMDL
