MODEL 1
REMARK VINA RESULT: -7.862805490      0.000      0.000
REMARK  6 active torsions:
REMARK  status: ('A' for Active; 'I' for Inactive)
REMARK    1  A    between atoms: O1_2  and  C2_3 
REMARK    2  A    between atoms: C2_3  and  C3_4 
REMARK    3  A    between atoms: C3_4  and  N1_5 
REMARK    4  A    between atoms: N1_5  and  C4_7 
REMARK    5  A    between atoms: C5_10  and  N3_11 
REMARK    6  A    between atoms: C7_17  and  C8_18 
ROOT
HETATM    1  C4  UNL     1     -22.370  19.927   1.473  1.00  0.00     0.146 A 
HETATM    2  N2  UNL     1     -21.336  19.081   1.297  1.00  0.00    -0.175 N 
ATOM      3  H2  UNL     1     -20.926  18.995   0.367  1.00  0.00     0.186 HD
HETATM    4  C5  UNL     1     -20.825  18.350   2.298  1.00  0.00     0.678 A 
HETATM    5  N4  UNL     1     -21.373  18.474   3.520  1.00  0.00    -0.189 N 
ATOM      6  H4  UNL     1     -20.998  17.927   4.294  1.00  0.00     0.184 HD
HETATM    7  C6  UNL     1     -22.409  19.308   3.741  1.00  0.00     0.086 A 
HETATM    8  C7  UNL     1     -23.001  19.452   4.999  1.00  0.00    -0.023 A 
HETATM    9  C11 UNL     1     -24.067  20.322   5.164  1.00  0.00     0.034 A 
HETATM   10  C12 UNL     1     -24.574  21.063   4.118  1.00  0.00     0.006 A 
HETATM   11  C13 UNL     1     -25.730  22.008   4.303  1.00  0.00     0.068 C 
HETATM   12  N5  UNL     1     -23.988  20.906   2.922  1.00  0.00    -0.355 N 
ATOM     13  H5  UNL     1     -24.343  21.441   2.130  1.00  0.00     0.166 HD
HETATM   14  C14 UNL     1     -22.953  20.073   2.724  1.00  0.00     0.105 A 
ENDROOT
BRANCH   1  15
HETATM   15  N1  UNL     1     -22.861  20.627   0.504  1.00  0.00    -0.372 N 
ATOM     16  H1  UNL     1     -23.642  20.230  -0.019  1.00  0.00     0.161 HD
BRANCH  15  17
HETATM   17  C3  UNL     1     -22.382  21.932   0.110  1.00  0.00     0.147 C 
BRANCH  17  18
HETATM   18  C2  UNL     1     -21.588  21.750  -1.169  1.00  0.00     0.186 C 
BRANCH  18  19
HETATM   19  O1  UNL     1     -20.403  21.102  -0.968  1.00  0.00    -0.394 OA
HETATM   20  C1  UNL     1     -19.271  21.867  -0.941  1.00  0.00     0.201 C 
ENDBRANCH  18  19
ENDBRANCH  17  18
ENDBRANCH  15  17
ENDBRANCH   1  15
BRANCH   4  21
HETATM   21  N3  UNL     1     -19.819  17.531   2.101  1.00  0.00    -0.234 N 
ATOM     22  H32 UNL     1     -19.139  17.716   1.365  1.00  0.00     0.174 HD
ATOM     23  H31 UNL     1     -19.692  16.697   2.675  1.00  0.00     0.174 HD
ENDBRANCH   4  21
BRANCH   8  24
HETATM   24  C8  UNL     1     -22.457  18.641   6.103  1.00  0.00     0.013 C 
HETATM   25  C9  UNL     1     -22.796  19.177   7.477  1.00  0.00     0.015 C 
HETATM   26  C10 UNL     1     -22.986  17.214   6.082  1.00  0.00     0.015 C 
ENDBRANCH   8  24
TORSDOF 6
ENDMDL
MODEL 2
REMARK VINA RESULT: -7.801610181      2.166      2.992
REMARK  6 active torsions:
REMARK  status: ('A' for Active; 'I' for Inactive)
REMARK    1  A    between atoms: O1_2  and  C2_3 
REMARK    2  A    between atoms: C2_3  and  C3_4 
REMARK    3  A    between atoms: C3_4  and  N1_5 
REMARK    4  A    between atoms: N1_5  and  C4_7 
REMARK    5  A    between atoms: C5_10  and  N3_11 
REMARK    6  A    between atoms: C7_17  and  C8_18 
ROOT
HETATM    1  C4  UNL     1     -23.323  20.877   1.525  1.00  0.00     0.146 A 
HETATM    2  N2  UNL     1     -22.360  20.126   0.954  1.00  0.00    -0.175 N 
ATOM      3  H2  UNL     1     -22.164  20.253  -0.039  1.00  0.00     0.186 HD
HETATM    4  C5  UNL     1     -21.651  19.220   1.642  1.00  0.00     0.678 A 
HETATM    5  N4  UNL     1     -21.919  19.065   2.951  1.00  0.00    -0.189 N 
ATOM      6  H4  UNL     1     -21.389  18.381   3.492  1.00  0.00     0.184 HD
HETATM    7  C6  UNL     1     -22.873  19.794   3.563  1.00  0.00     0.086 A 
HETATM    8  C7  UNL     1     -23.175  19.649   4.919  1.00  0.00    -0.023 A 
HETATM    9  C11 UNL     1     -24.171  20.424   5.491  1.00  0.00     0.034 A 
HETATM   10  C12 UNL     1     -24.886  21.349   4.761  1.00  0.00     0.006 A 
HETATM   11  C13 UNL     1     -25.965  22.191   5.387  1.00  0.00     0.068 C 
HETATM   12  N5  UNL     1     -24.577  21.469   3.462  1.00  0.00    -0.355 N 
ATOM     13  H5  UNL     1     -25.091  22.145   2.897  1.00  0.00     0.166 HD
HETATM   14  C14 UNL     1     -23.618  20.735   2.873  1.00  0.00     0.105 A 
ENDROOT
BRANCH   1  15
HETATM   15  N1  UNL     1     -24.007  21.746   0.856  1.00  0.00    -0.372 N 
ATOM     16  H1  UNL     1     -23.856  22.732   1.068  1.00  0.00     0.161 HD
BRANCH  15  17
HETATM   17  C3  UNL     1     -24.969  21.419  -0.172  1.00  0.00     0.147 C 
BRANCH  17  18
HETATM   18  C2  UNL     1     -26.328  21.872   0.327  1.00  0.00     0.186 C 
BRANCH  18  19
HETATM   19  O1  UNL     1     -26.777  21.132   1.383  1.00  0.00    -0.394 OA
HETATM   20  C1  UNL     1     -27.913  21.563   2.009  1.00  0.00     0.201 C 
ENDBRANCH  18  19
ENDBRANCH  17  18
ENDBRANCH  15  17
ENDBRANCH   1  15
BRANCH   4  21
HETATM   21  N3  UNL     1     -20.720  18.499   1.064  1.00  0.00    -0.234 N 
ATOM     22  H32 UNL     1     -20.276  18.821   0.204  1.00  0.00     0.174 HD
ATOM     23  H31 UNL     1     -20.419  17.607   1.456  1.00  0.00     0.174 HD
ENDBRANCH   4  21
BRANCH   8  24
HETATM   24  C8  UNL     1     -22.412  18.644   5.682  1.00  0.00     0.013 C 
HETATM   25  C9  UNL     1     -22.247  18.987   7.146  1.00  0.00     0.015 C 
HETATM   26  C10 UNL     1     -23.079  17.276   5.657  1.00  0.00     0.015 C 
ENDBRANCH   8  24
TORSDOF 6
ENDMDL
MODEL 3
REMARK VINA RESULT: -7.702720248      1.300      1.822
REMARK  6 active torsions:
REMARK  status: ('A' for Active; 'I' for Inactive)
REMARK    1  A    between atoms: O1_2  and  C2_3 
REMARK    2  A    between atoms: C2_3  and  C3_4 
REMARK    3  A    between atoms: C3_4  and  N1_5 
REMARK    4  A    between atoms: N1_5  and  C4_7 
REMARK    5  A    between atoms: C5_10  and  N3_11 
REMARK    6  A    between atoms: C7_17  and  C8_18 
ROOT
HETATM    1  C4  UNL     1     -22.496  19.863   1.509  1.00  0.00     0.146 A 
HETATM    2  N2  UNL     1     -21.440  19.042   1.340  1.00  0.00    -0.175 N 
ATOM      3  H2  UNL     1     -21.039  18.945   0.407  1.00  0.00     0.186 HD
HETATM    4  C5  UNL     1     -20.896  18.350   2.351  1.00  0.00     0.678 A 
HETATM    5  N4  UNL     1     -21.434  18.489   3.577  1.00  0.00    -0.189 N 
ATOM      6  H4  UNL     1     -21.034  17.971   4.359  1.00  0.00     0.184 HD
HETATM    7  C6  UNL     1     -22.490  19.299   3.792  1.00  0.00     0.086 A 
HETATM    8  C7  UNL     1     -23.070  19.457   5.052  1.00  0.00    -0.023 A 
HETATM    9  C11 UNL     1     -24.158  20.300   5.210  1.00  0.00     0.034 A 
HETATM   10  C12 UNL     1     -24.698  21.001   4.154  1.00  0.00     0.006 A 
HETATM   11  C13 UNL     1     -25.878  21.918   4.330  1.00  0.00     0.068 C 
HETATM   12  N5  UNL     1     -24.123  20.831   2.954  1.00  0.00    -0.355 N 
ATOM     13  H5  UNL     1     -24.502  21.337   2.154  1.00  0.00     0.166 HD
HETATM   14  C14 UNL     1     -23.067  20.023   2.763  1.00  0.00     0.105 A 
ENDROOT
BRANCH   1  15
HETATM   15  N1  UNL     1     -23.018  20.525   0.530  1.00  0.00    -0.372 N 
ATOM     16  H1  UNL     1     -23.931  20.226   0.189  1.00  0.00     0.161 HD
BRANCH  15  17
HETATM   17  C3  UNL     1     -22.398  21.660  -0.116  1.00  0.00     0.147 C 
BRANCH  17  18
HETATM   18  C2  UNL     1     -23.409  22.790  -0.101  1.00  0.00     0.186 C 
BRANCH  18  19
HETATM   19  O1  UNL     1     -23.722  23.204   1.161  1.00  0.00    -0.394 OA
HETATM   20  C1  UNL     1     -24.847  23.965   1.308  1.00  0.00     0.201 C 
ENDBRANCH  18  19
ENDBRANCH  17  18
ENDBRANCH  15  17
ENDBRANCH   1  15
BRANCH   4  21
HETATM   21  N3  UNL     1     -19.871  17.555   2.162  1.00  0.00    -0.234 N 
ATOM     22  H32 UNL     1     -18.993  17.717   2.656  1.00  0.00     0.174 HD
ATOM     23  H31 UNL     1     -19.924  16.761   1.523  1.00  0.00     0.174 HD
ENDBRANCH   4  21
BRANCH   8  24
HETATM   24  C8  UNL     1     -22.490  18.688   6.169  1.00  0.00     0.013 C 
HETATM   25  C9  UNL     1     -22.865  19.221   7.535  1.00  0.00     0.015 C 
HETATM   26  C10 UNL     1     -22.943  17.235   6.161  1.00  0.00     0.015 C 
ENDBRANCH   8  24
TORSDOF 6
ENDMDL
MODEL 4
REMARK VINA RESULT: -7.535591383      1.268      1.634
REMARK  6 active torsions:
REMARK  status: ('A' for Active; 'I' for Inactive)
REMARK    1  A    between atoms: O1_2  and  C2_3 
REMARK    2  A    between atoms: C2_3  and  C3_4 
REMARK    3  A    between atoms: C3_4  and  N1_5 
REMARK    4  A    between atoms: N1_5  and  C4_7 
REMARK    5  A    between atoms: C5_10  and  N3_11 
REMARK    6  A    between atoms: C7_17  and  C8_18 
ROOT
HETATM    1  C4  UNL     1     -22.550  19.841   1.506  1.00  0.00     0.146 A 
HETATM    2  N2  UNL     1     -21.489  19.029   1.330  1.00  0.00    -0.175 N 
ATOM      3  H2  UNL     1     -21.100  18.929   0.392  1.00  0.00     0.186 HD
HETATM    4  C5  UNL     1     -20.928  18.347   2.338  1.00  0.00     0.678 A 
HETATM    5  N4  UNL     1     -21.451  18.489   3.570  1.00  0.00    -0.189 N 
ATOM      6  H4  UNL     1     -21.037  17.980   4.350  1.00  0.00     0.184 HD
HETATM    7  C6  UNL     1     -22.511  19.292   3.792  1.00  0.00     0.086 A 
HETATM    8  C7  UNL     1     -23.077  19.453   5.059  1.00  0.00    -0.023 A 
HETATM    9  C11 UNL     1     -24.170  20.289   5.225  1.00  0.00     0.034 A 
HETATM   10  C12 UNL     1     -24.729  20.978   4.171  1.00  0.00     0.006 A 
HETATM   11  C13 UNL     1     -25.914  21.887   4.357  1.00  0.00     0.068 C 
HETATM   12  N5  UNL     1     -24.167  20.806   2.966  1.00  0.00    -0.355 N 
ATOM     13  H5  UNL     1     -24.560  21.303   2.167  1.00  0.00     0.166 HD
HETATM   14  C14 UNL     1     -23.107  20.005   2.766  1.00  0.00     0.105 A 
ENDROOT
BRANCH   1  15
HETATM   15  N1  UNL     1     -23.090  20.493   0.530  1.00  0.00    -0.372 N 
ATOM     16  H1  UNL     1     -23.996  20.173   0.189  1.00  0.00     0.161 HD
BRANCH  15  17
HETATM   17  C3  UNL     1     -22.499  21.644  -0.114  1.00  0.00     0.147 C 
BRANCH  17  18
HETATM   18  C2  UNL     1     -23.471  22.108  -1.182  1.00  0.00     0.186 C 
BRANCH  18  19
HETATM   19  O1  UNL     1     -24.371  21.143  -1.533  1.00  0.00    -0.394 OA
HETATM   20  C1  UNL     1     -24.622  20.978  -2.866  1.00  0.00     0.201 C 
ENDBRANCH  18  19
ENDBRANCH  17  18
ENDBRANCH  15  17
ENDBRANCH   1  15
BRANCH   4  21
HETATM   21  N3  UNL     1     -19.898  17.559   2.141  1.00  0.00    -0.234 N 
ATOM     22  H32 UNL     1     -19.010  17.941   1.817  1.00  0.00     0.174 HD
ATOM     23  H31 UNL     1     -19.958  16.554   2.305  1.00  0.00     0.174 HD
ENDBRANCH   4  21
BRANCH   8  24
HETATM   24  C8  UNL     1     -22.477  18.697   6.173  1.00  0.00     0.013 C 
HETATM   25  C9  UNL     1     -22.837  19.236   7.541  1.00  0.00     0.015 C 
HETATM   26  C10 UNL     1     -22.921  17.240   6.182  1.00  0.00     0.015 C 
ENDBRANCH   8  24
TORSDOF 6
ENDMDL
MODEL 5
REMARK VINA RESULT: -7.232670187      2.523      3.241
REMARK  6 active torsions:
REMARK  status: ('A' for Active; 'I' for Inactive)
REMARK    1  A    between atoms: O1_2  and  C2_3 
REMARK    2  A    between atoms: C2_3  and  C3_4 
REMARK    3  A    between atoms: C3_4  and  N1_5 
REMARK    4  A    between atoms: N1_5  and  C4_7 
REMARK    5  A    between atoms: C5_10  and  N3_11 
REMARK    6  A    between atoms: C7_17  and  C8_18 
ROOT
HETATM    1  C4  UNL     1     -23.572  21.059   0.596  1.00  0.00     0.146 A 
HETATM    2  N2  UNL     1     -22.383  20.513   0.275  1.00  0.00    -0.175 N 
ATOM      3  H2  UNL     1     -22.007  20.670  -0.660  1.00  0.00     0.186 HD
HETATM    4  C5  UNL     1     -21.674  19.772   1.139  1.00  0.00     0.678 A 
HETATM    5  N4  UNL     1     -22.180  19.574   2.370  1.00  0.00    -0.189 N 
ATOM      6  H4  UNL     1     -21.656  19.014   3.041  1.00  0.00     0.184 HD
HETATM    7  C6  UNL     1     -23.366  20.101   2.733  1.00  0.00     0.086 A 
HETATM    8  C7  UNL     1     -23.917  19.907   4.002  1.00  0.00    -0.023 A 
HETATM    9  C11 UNL     1     -25.143  20.471   4.316  1.00  0.00     0.034 A 
HETATM   10  C12 UNL     1     -25.852  21.229   3.409  1.00  0.00     0.006 A 
HETATM   11  C13 UNL     1     -27.182  21.842   3.756  1.00  0.00     0.068 C 
HETATM   12  N5  UNL     1     -25.301  21.400   2.199  1.00  0.00    -0.355 N 
ATOM     13  H5  UNL     1     -25.804  21.957   1.507  1.00  0.00     0.166 HD
HETATM   14  C14 UNL     1     -24.115  20.870   1.858  1.00  0.00     0.105 A 
ENDROOT
BRANCH   1  15
HETATM   15  N1  UNL     1     -24.253  21.770  -0.242  1.00  0.00    -0.372 N 
ATOM     16  H1  UNL     1     -24.220  22.785  -0.139  1.00  0.00     0.161 HD
BRANCH  15  17
HETATM   17  C3  UNL     1     -25.057  21.229  -1.314  1.00  0.00     0.147 C 
BRANCH  17  18
HETATM   18  C2  UNL     1     -26.395  21.941  -1.273  1.00  0.00     0.186 C 
BRANCH  18  19
HETATM   19  O1  UNL     1     -27.153  21.580  -0.197  1.00  0.00    -0.394 OA
HETATM   20  C1  UNL     1     -28.473  21.933  -0.216  1.00  0.00     0.201 C 
ENDBRANCH  18  19
ENDBRANCH  17  18
ENDBRANCH  15  17
ENDBRANCH   1  15
BRANCH   4  21
HETATM   21  N3  UNL     1     -20.520  19.248   0.803  1.00  0.00    -0.234 N 
ATOM     22  H32 UNL     1     -20.103  19.455  -0.104  1.00  0.00     0.174 HD
ATOM     23  H31 UNL     1     -20.014  18.626   1.434  1.00  0.00     0.174 HD
ENDBRANCH   4  21
BRANCH   8  24
HETATM   24  C8  UNL     1     -23.154  19.080   4.955  1.00  0.00     0.013 C 
HETATM   25  C9  UNL     1     -23.338  19.489   6.400  1.00  0.00     0.015 C 
HETATM   26  C10 UNL     1     -23.557  17.614   4.893  1.00  0.00     0.015 C 
ENDBRANCH   8  24
TORSDOF 6
ENDMDL
