MODEL 1
REMARK VINA RESULT: -7.277431057      0.000      0.000
REMARK  6 active torsions:
REMARK  status: ('A' for Active; 'I' for Inactive)
REMARK    1  A    between atoms: C2_2  and  C4_4 
REMARK    2  A    between atoms: C4_4  and  C5_5 
REMARK    3  A    between atoms: C5_5  and  N1_7 
REMARK    4  A    between atoms: N1_7  and  C7_9 
REMARK    5  A    between atoms: C8_12  and  N3_13 
REMARK    6  A    between atoms: C12_17  and  N4_18 
ROOT
HETATM    1  C7  UNL     1     -25.107  20.994   2.909  1.00  0.00     0.679 A 
HETATM    2  N2  UNL     1     -24.773  20.310   4.038  1.00  0.00    -0.175 N 
ATOM      3  H2  UNL     1     -25.448  20.300   4.803  1.00  0.00     0.186 HD
HETATM    4  C8  UNL     1     -23.625  19.652   4.217  1.00  0.00     0.144 A 
HETATM    5  C13 UNL     1     -22.753  19.705   3.138  1.00  0.00     0.094 A 
HETATM    6 CL1  UNL     1     -21.229  18.863   3.304  1.00  0.00    -0.079 Cl
HETATM    7  C14 UNL     1     -23.070  20.387   1.993  1.00  0.00     0.133 A 
HETATM    8  N5  UNL     1     -24.245  21.024   1.890  1.00  0.00    -0.200 N 
ATOM      9  H5  UNL     1     -24.480  21.530   1.036  1.00  0.00     0.183 HD
ENDROOT
BRANCH   4  10
HETATM   10  N3  UNL     1     -23.289  18.949   5.387  1.00  0.00    -0.338 N 
HETATM   11  C9  UNL     1     -23.355  17.558   5.678  1.00  0.00     0.127 C 
HETATM   12  C10 UNL     1     -22.404  17.328   6.841  1.00  0.00     0.024 C 
HETATM   13  C11 UNL     1     -21.663  18.640   6.977  1.00  0.00     0.056 C 
HETATM   14  C12 UNL     1     -22.772  19.617   6.587  1.00  0.00     0.285 C 
BRANCH  14  15
HETATM   15  N4  UNL     1     -23.751  19.564   7.660  1.00  0.00    -0.058 N 
ATOM     16  H43 UNL     1     -24.288  20.429   7.727  1.00  0.00     0.276 HD
ATOM     17  H42 UNL     1     -24.516  18.927   7.444  1.00  0.00     0.276 HD
ATOM     18  H41 UNL     1     -23.299  19.329   8.544  1.00  0.00     0.276 HD
ENDBRANCH  14  15
ENDBRANCH   4  10
BRANCH   1  19
HETATM   19  N1  UNL     1     -26.222  21.581   2.850  1.00  0.00    -0.222 N 
ATOM     20  H1  UNL     1     -26.374  22.083   1.975  1.00  0.00     0.178 HD
BRANCH  19  21
HETATM   21  C5  UNL     1     -27.304  21.680   3.757  1.00  0.00     0.095 C 
HETATM   22  C6  UNL     1     -28.617  21.211   3.225  1.00  0.00     0.032 C 
BRANCH  21  23
HETATM   23  C4  UNL     1     -27.314  22.971   4.505  1.00  0.00     0.029 C 
BRANCH  23  24
HETATM   24  C2  UNL     1     -27.055  22.922   5.959  1.00  0.00    -0.021 C 
HETATM   25  C1  UNL     1     -25.659  22.696   6.411  1.00  0.00     0.009 C 
HETATM   26  C3  UNL     1     -27.575  24.139   6.703  1.00  0.00     0.009 C 
ENDBRANCH  23  24
ENDBRANCH  21  23
ENDBRANCH  19  21
ENDBRANCH   1  19
TORSDOF 6
ENDMDL
MODEL 2
REMARK VINA RESULT: -7.275783444      2.460      6.267
REMARK  6 active torsions:
REMARK  status: ('A' for Active; 'I' for Inactive)
REMARK    1  A    between atoms: C2_2  and  C4_4 
REMARK    2  A    between atoms: C4_4  and  C5_5 
REMARK    3  A    between atoms: C5_5  and  N1_7 
REMARK    4  A    between atoms: N1_7  and  C7_9 
REMARK    5  A    between atoms: C8_12  and  N3_13 
REMARK    6  A    between atoms: C12_17  and  N4_18 
ROOT
HETATM    1  C7  UNL     1     -24.394  20.433   3.742  1.00  0.00     0.679 A 
HETATM    2  N2  UNL     1     -25.704  20.779   3.607  1.00  0.00    -0.175 N 
ATOM      3  H2  UNL     1     -26.398  20.193   4.071  1.00  0.00     0.186 HD
HETATM    4  C8  UNL     1     -26.146  21.829   2.910  1.00  0.00     0.144 A 
HETATM    5  C13 UNL     1     -25.150  22.583   2.305  1.00  0.00     0.094 A 
HETATM    6 CL1  UNL     1     -25.658  23.975   1.377  1.00  0.00    -0.079 Cl
HETATM    7  C14 UNL     1     -23.826  22.254   2.430  1.00  0.00     0.133 A 
HETATM    8  N5  UNL     1     -23.461  21.181   3.148  1.00  0.00    -0.200 N 
ATOM      9  H5  UNL     1     -22.475  20.939   3.239  1.00  0.00     0.183 HD
ENDROOT
BRANCH   4  10
HETATM   10  N3  UNL     1     -27.502  22.177   2.776  1.00  0.00    -0.338 N 
HETATM   11  C9  UNL     1     -28.289  23.114   3.502  1.00  0.00     0.127 C 
HETATM   12  C10 UNL     1     -29.475  23.442   2.611  1.00  0.00     0.024 C 
HETATM   13  C11 UNL     1     -29.130  22.802   1.284  1.00  0.00     0.056 C 
HETATM   14  C12 UNL     1     -28.377  21.564   1.771  1.00  0.00     0.285 C 
BRANCH  14  15
HETATM   15  N4  UNL     1     -29.369  20.715   2.411  1.00  0.00    -0.058 N 
ATOM     16  H43 UNL     1     -30.081  20.399   1.751  1.00  0.00     0.276 HD
ATOM     17  H42 UNL     1     -28.984  19.806   2.664  1.00  0.00     0.276 HD
ATOM     18  H41 UNL     1     -29.780  21.191   3.214  1.00  0.00     0.276 HD
ENDBRANCH  14  15
ENDBRANCH   4  10
BRANCH   1  19
HETATM   19  N1  UNL     1     -24.090  19.418   4.425  1.00  0.00    -0.222 N 
ATOM     20  H1  UNL     1     -24.780  19.184   5.139  1.00  0.00     0.178 HD
BRANCH  19  21
HETATM   21  C5  UNL     1     -22.981  18.539   4.397  1.00  0.00     0.095 C 
HETATM   22  C6  UNL     1     -23.328  17.090   4.312  1.00  0.00     0.032 C 
BRANCH  21  23
HETATM   23  C4  UNL     1     -21.923  18.911   5.383  1.00  0.00     0.029 C 
BRANCH  23  24
HETATM   24  C2  UNL     1     -22.009  18.319   6.734  1.00  0.00    -0.021 C 
HETATM   25  C1  UNL     1     -20.746  18.120   7.489  1.00  0.00     0.009 C 
HETATM   26  C3  UNL     1     -22.969  19.055   7.652  1.00  0.00     0.009 C 
ENDBRANCH  23  24
ENDBRANCH  21  23
ENDBRANCH  19  21
ENDBRANCH   1  19
TORSDOF 6
ENDMDL
MODEL 3
REMARK VINA RESULT: -7.210816309      2.239      5.406
REMARK  6 active torsions:
REMARK  status: ('A' for Active; 'I' for Inactive)
REMARK    1  A    between atoms: C2_2  and  C4_4 
REMARK    2  A    between atoms: C4_4  and  C5_5 
REMARK    3  A    between atoms: C5_5  and  N1_7 
REMARK    4  A    between atoms: N1_7  and  C7_9 
REMARK    5  A    between atoms: C8_12  and  N3_13 
REMARK    6  A    between atoms: C12_17  and  N4_18 
ROOT
HETATM    1  C7  UNL     1     -22.571  20.158   2.460  1.00  0.00     0.679 A 
HETATM    2  N2  UNL     1     -23.563  20.803   3.133  1.00  0.00    -0.175 N 
ATOM      3  H2  UNL     1     -23.502  20.834   4.151  1.00  0.00     0.186 HD
HETATM    4  C8  UNL     1     -24.611  21.399   2.558  1.00  0.00     0.144 A 
HETATM    5  C13 UNL     1     -24.631  21.321   1.172  1.00  0.00     0.094 A 
HETATM    6 CL1  UNL     1     -25.976  22.081   0.352  1.00  0.00    -0.079 Cl
HETATM    7  C14 UNL     1     -23.643  20.678   0.475  1.00  0.00     0.133 A 
HETATM    8  N5  UNL     1     -22.621  20.103   1.127  1.00  0.00    -0.200 N 
ATOM      9  H5  UNL     1     -21.886  19.625   0.606  1.00  0.00     0.183 HD
ENDROOT
BRANCH   4  10
HETATM   10  N3  UNL     1     -25.630  22.062   3.263  1.00  0.00    -0.338 N 
HETATM   11  C9  UNL     1     -26.982  21.687   3.498  1.00  0.00     0.127 C 
HETATM   12  C10 UNL     1     -27.432  22.483   4.712  1.00  0.00     0.024 C 
HETATM   13  C11 UNL     1     -26.158  23.112   5.234  1.00  0.00     0.056 C 
HETATM   14  C12 UNL     1     -25.421  23.358   3.917  1.00  0.00     0.285 C 
BRANCH  14  15
HETATM   15  N4  UNL     1     -26.164  24.401   3.229  1.00  0.00    -0.058 N 
ATOM     16  H43 UNL     1     -27.004  24.671   3.742  1.00  0.00     0.276 HD
ATOM     17  H42 UNL     1     -25.676  25.296   3.257  1.00  0.00     0.276 HD
ATOM     18  H41 UNL     1     -26.377  24.115   2.273  1.00  0.00     0.276 HD
ENDBRANCH  14  15
ENDBRANCH   4  10
BRANCH   1  19
HETATM   19  N1  UNL     1     -21.627  19.630   3.108  1.00  0.00    -0.222 N 
ATOM     20  H1  UNL     1     -20.725  20.085   2.962  1.00  0.00     0.178 HD
BRANCH  19  21
HETATM   21  C5  UNL     1     -21.571  18.531   3.999  1.00  0.00     0.095 C 
HETATM   22  C6  UNL     1     -22.392  17.352   3.596  1.00  0.00     0.032 C 
BRANCH  21  23
HETATM   23  C4  UNL     1     -21.658  18.942   5.431  1.00  0.00     0.029 C 
BRANCH  23  24
HETATM   24  C2  UNL     1     -22.855  18.525   6.190  1.00  0.00    -0.021 C 
HETATM   25  C1  UNL     1     -22.664  17.622   7.352  1.00  0.00     0.009 C 
HETATM   26  C3  UNL     1     -23.701  19.694   6.666  1.00  0.00     0.009 C 
ENDBRANCH  23  24
ENDBRANCH  21  23
ENDBRANCH  19  21
ENDBRANCH   1  19
TORSDOF 6
ENDMDL
MODEL 4
REMARK VINA RESULT: -7.210648404      2.226      5.693
REMARK  6 active torsions:
REMARK  status: ('A' for Active; 'I' for Inactive)
REMARK    1  A    between atoms: C2_2  and  C4_4 
REMARK    2  A    between atoms: C4_4  and  C5_5 
REMARK    3  A    between atoms: C5_5  and  N1_7 
REMARK    4  A    between atoms: N1_7  and  C7_9 
REMARK    5  A    between atoms: C8_12  and  N3_13 
REMARK    6  A    between atoms: C12_17  and  N4_18 
ROOT
HETATM    1  C7  UNL     1     -24.327  20.188   3.451  1.00  0.00     0.679 A 
HETATM    2  N2  UNL     1     -25.153  20.948   4.221  1.00  0.00    -0.175 N 
ATOM      3  H2  UNL     1     -25.342  20.627   5.171  1.00  0.00     0.186 HD
HETATM    4  C8  UNL     1     -25.732  22.084   3.824  1.00  0.00     0.144 A 
HETATM    5  C13 UNL     1     -25.431  22.463   2.524  1.00  0.00     0.094 A 
HETATM    6 CL1  UNL     1     -26.156  23.943   1.938  1.00  0.00    -0.079 Cl
HETATM    7  C14 UNL     1     -24.602  21.713   1.732  1.00  0.00     0.133 A 
HETATM    8  N5  UNL     1     -24.057  20.583   2.204  1.00  0.00    -0.200 N 
ATOM      9  H5  UNL     1     -23.439  20.027   1.613  1.00  0.00     0.183 HD
ENDROOT
BRANCH   4  10
HETATM   10  N3  UNL     1     -26.584  22.861   4.628  1.00  0.00    -0.338 N 
HETATM   11  C9  UNL     1     -28.005  22.902   4.696  1.00  0.00     0.127 C 
HETATM   12  C10 UNL     1     -28.342  23.500   6.051  1.00  0.00     0.024 C 
HETATM   13  C11 UNL     1     -27.015  23.543   6.777  1.00  0.00     0.056 C 
HETATM   14  C12 UNL     1     -26.077  23.832   5.605  1.00  0.00     0.285 C 
BRANCH  14  15
HETATM   15  N4  UNL     1     -26.376  25.188   5.175  1.00  0.00    -0.058 N 
ATOM     16  H43 UNL     1     -26.011  25.380   4.242  1.00  0.00     0.276 HD
ATOM     17  H42 UNL     1     -27.368  25.314   4.978  1.00  0.00     0.276 HD
ATOM     18  H41 UNL     1     -26.036  25.863   5.861  1.00  0.00     0.276 HD
ENDBRANCH  14  15
ENDBRANCH   4  10
BRANCH   1  19
HETATM   19  N1  UNL     1     -23.834  19.131   3.930  1.00  0.00    -0.222 N 
ATOM     20  H1  UNL     1     -24.416  18.306   3.787  1.00  0.00     0.178 HD
BRANCH  19  21
HETATM   21  C5  UNL     1     -22.631  18.864   4.628  1.00  0.00     0.095 C 
HETATM   22  C6  UNL     1     -21.396  18.899   3.791  1.00  0.00     0.032 C 
BRANCH  21  23
HETATM   23  C4  UNL     1     -22.756  17.719   5.578  1.00  0.00     0.029 C 
BRANCH  23  24
HETATM   24  C2  UNL     1     -22.483  17.983   7.006  1.00  0.00    -0.021 C 
HETATM   25  C1  UNL     1     -21.066  18.056   7.443  1.00  0.00     0.009 C 
HETATM   26  C3  UNL     1     -23.177  19.228   7.530  1.00  0.00     0.009 C 
ENDBRANCH  23  24
ENDBRANCH  21  23
ENDBRANCH  19  21
ENDBRANCH   1  19
TORSDOF 6
ENDMDL
MODEL 5
REMARK VINA RESULT: -7.172775821      2.588      6.597
REMARK  6 active torsions:
REMARK  status: ('A' for Active; 'I' for Inactive)
REMARK    1  A    between atoms: C2_2  and  C4_4 
REMARK    2  A    between atoms: C4_4  and  C5_5 
REMARK    3  A    between atoms: C5_5  and  N1_7 
REMARK    4  A    between atoms: N1_7  and  C7_9 
REMARK    5  A    between atoms: C8_12  and  N3_13 
REMARK    6  A    between atoms: C12_17  and  N4_18 
ROOT
HETATM    1  C7  UNL     1     -25.010  20.576   4.265  1.00  0.00     0.679 A 
HETATM    2  N2  UNL     1     -25.833  20.965   3.253  1.00  0.00    -0.175 N 
ATOM      3  H2  UNL     1     -25.862  20.382   2.416  1.00  0.00     0.186 HD
HETATM    4  C8  UNL     1     -26.606  22.054   3.276  1.00  0.00     0.144 A 
HETATM    5  C13 UNL     1     -26.520  22.800   4.443  1.00  0.00     0.094 A 
HETATM    6 CL1  UNL     1     -27.507  24.240   4.542  1.00  0.00    -0.079 Cl
HETATM    7  C14 UNL     1     -25.698  22.426   5.473  1.00  0.00     0.133 A 
HETATM    8  N5  UNL     1     -24.951  21.317   5.374  1.00  0.00    -0.200 N 
ATOM      9  H5  UNL     1     -24.341  21.040   6.143  1.00  0.00     0.183 HD
ENDROOT
BRANCH   4  10
HETATM   10  N3  UNL     1     -27.454  22.446   2.225  1.00  0.00    -0.338 N 
HETATM   11  C9  UNL     1     -27.279  23.440   1.222  1.00  0.00     0.127 C 
HETATM   12  C10 UNL     1     -28.226  23.068   0.094  1.00  0.00     0.024 C 
HETATM   13  C11 UNL     1     -28.726  21.690   0.470  1.00  0.00     0.056 C 
HETATM   14  C12 UNL     1     -28.762  21.824   1.993  1.00  0.00     0.285 C 
BRANCH  14  15
HETATM   15  N4  UNL     1     -29.831  22.763   2.289  1.00  0.00    -0.058 N 
ATOM     16  H43 UNL     1     -30.488  22.387   2.973  1.00  0.00     0.276 HD
ATOM     17  H42 UNL     1     -29.496  23.563   2.824  1.00  0.00     0.276 HD
ATOM     18  H41 UNL     1     -30.301  23.051   1.430  1.00  0.00     0.276 HD
ENDBRANCH  14  15
ENDBRANCH   4  10
BRANCH   1  19
HETATM   19  N1  UNL     1     -24.323  19.527   4.134  1.00  0.00    -0.222 N 
ATOM     20  H1  UNL     1     -24.736  18.844   3.498  1.00  0.00     0.178 HD
BRANCH  19  21
HETATM   21  C5  UNL     1     -23.093  19.109   4.695  1.00  0.00     0.095 C 
HETATM   22  C6  UNL     1     -21.932  19.134   3.757  1.00  0.00     0.032 C 
BRANCH  21  23
HETATM   23  C4  UNL     1     -23.230  17.892   5.548  1.00  0.00     0.029 C 
BRANCH  23  24
HETATM   24  C2  UNL     1     -22.804  17.995   6.960  1.00  0.00    -0.021 C 
HETATM   25  C1  UNL     1     -21.381  17.723   7.280  1.00  0.00     0.009 C 
HETATM   26  C3  UNL     1     -23.160  19.326   7.598  1.00  0.00     0.009 C 
ENDBRANCH  23  24
ENDBRANCH  21  23
ENDBRANCH  19  21
ENDBRANCH   1  19
TORSDOF 6
ENDMDL
