MODEL 1
REMARK VINA RESULT: -7.779273433      0.000      0.000
REMARK  6 active torsions:
REMARK  status: ('A' for Active; 'I' for Inactive)
REMARK    1  A    between atoms: C4_5  and  O1_6 
REMARK    2  A    between atoms: C6_9  and  C7_10 
REMARK    3  A    between atoms: C12_15  and  S1_16 
REMARK    4  A    between atoms: S1_16  and  C13_18 
REMARK    5  A    between atoms: C13_18  and  C14_19 
REMARK    6  A    between atoms: C14_19  and  O3_20 
ROOT
HETATM    1  C1  UNL     1     -23.284  20.849   0.508  1.00  0.00     0.053 C 
HETATM    2  C2  UNL     1     -23.883  20.731   1.892  1.00  0.00    -0.001 A 
HETATM    3  C3  UNL     1     -25.062  21.291   2.211  1.00  0.00     0.156 A 
HETATM    4  F1  UNL     1     -25.733  22.099   1.340  1.00  0.00    -0.203 F 
HETATM    5  C4  UNL     1     -25.635  21.078   3.473  1.00  0.00     0.105 A 
HETATM    6  C5  UNL     1     -24.962  20.268   4.409  1.00  0.00     0.048 A 
HETATM    7  C6  UNL     1     -23.743  19.686   4.112  1.00  0.00    -0.031 A 
HETATM    8  C12 UNL     1     -23.245  19.960   2.804  1.00  0.00     0.047 A 
ENDROOT
BRANCH   8   9
HETATM    9  S1  UNL     1     -21.790  19.123   2.411  1.00  0.00     0.053 S 
HETATM   10  O2  UNL     1     -21.699  17.524   2.374  1.00  0.00    -0.253 OA
BRANCH   9  11
HETATM   11  C13 UNL     1     -20.359  20.103   2.490  1.00  0.00     0.140 C 
BRANCH  11  12
HETATM   12  C14 UNL     1     -19.337  19.910   1.384  1.00  0.00     0.177 C 
BRANCH  12  13
HETATM   13  O3  UNL     1     -19.000  18.553   1.216  1.00  0.00    -0.400 OA
ATOM     14  H3  UNL     1     -19.267  18.228   0.364  1.00  0.00     0.209 HD
ENDBRANCH  12  13
ENDBRANCH  11  12
ENDBRANCH   9  11
ENDBRANCH   8   9
BRANCH   7  15
HETATM   15  C7  UNL     1     -22.994  19.049   5.161  1.00  0.00     0.020 C 
HETATM   16  C8  UNL     1     -23.203  17.644   5.536  1.00  0.00     0.009 C 
HETATM   17  C9  UNL     1     -22.170  17.615   6.706  1.00  0.00     0.001 C 
HETATM   18  C10 UNL     1     -22.704  18.786   7.549  1.00  0.00     0.001 C 
HETATM   19  C11 UNL     1     -23.511  19.649   6.562  1.00  0.00     0.009 C 
ENDBRANCH   7  15
BRANCH   5  20
HETATM   20  O1  UNL     1     -26.855  21.669   3.790  1.00  0.00    -0.358 OA
ATOM     21  H1  UNL     1     -27.442  21.243   4.404  1.00  0.00     0.217 HD
ENDBRANCH   5  20
TORSDOF 6
ENDMDL
MODEL 2
REMARK VINA RESULT: -7.567507810      1.285      1.796
REMARK  6 active torsions:
REMARK  status: ('A' for Active; 'I' for Inactive)
REMARK    1  A    between atoms: C4_5  and  O1_6 
REMARK    2  A    between atoms: C6_9  and  C7_10 
REMARK    3  A    between atoms: C12_15  and  S1_16 
REMARK    4  A    between atoms: S1_16  and  C13_18 
REMARK    5  A    between atoms: C13_18  and  C14_19 
REMARK    6  A    between atoms: C14_19  and  O3_20 
ROOT
HETATM    1  C1  UNL     1     -22.878  20.852   0.657  1.00  0.00     0.053 C 
HETATM    2  C2  UNL     1     -23.650  20.725   1.951  1.00  0.00    -0.001 A 
HETATM    3  C3  UNL     1     -24.909  21.178   2.081  1.00  0.00     0.156 A 
HETATM    4  F1  UNL     1     -25.523  21.884   1.089  1.00  0.00    -0.203 F 
HETATM    5  C4  UNL     1     -25.629  20.954   3.263  1.00  0.00     0.105 A 
HETATM    6  C5  UNL     1     -25.020  20.249   4.320  1.00  0.00     0.048 A 
HETATM    7  C6  UNL     1     -23.723  19.779   4.218  1.00  0.00    -0.031 A 
HETATM    8  C12 UNL     1     -23.076  20.054   2.977  1.00  0.00     0.047 A 
ENDROOT
BRANCH   8   9
HETATM    9  S1  UNL     1     -21.510  19.351   2.826  1.00  0.00     0.053 S 
HETATM   10  O2  UNL     1     -20.170  20.229   2.786  1.00  0.00    -0.253 OA
BRANCH   9  11
HETATM   11  C13 UNL     1     -21.517  17.700   2.290  1.00  0.00     0.140 C 
BRANCH  11  12
HETATM   12  C14 UNL     1     -21.965  16.655   3.297  1.00  0.00     0.177 C 
BRANCH  12  13
HETATM   13  O3  UNL     1     -21.884  15.353   2.769  1.00  0.00    -0.400 OA
ATOM     14  H3  UNL     1     -21.677  14.713   3.440  1.00  0.00     0.209 HD
ENDBRANCH  12  13
ENDBRANCH  11  12
ENDBRANCH   9  11
ENDBRANCH   8   9
BRANCH   7  15
HETATM   15  C7  UNL     1     -23.072  19.257   5.389  1.00  0.00     0.020 C 
HETATM   16  C8  UNL     1     -23.250  17.868   5.835  1.00  0.00     0.009 C 
HETATM   17  C9  UNL     1     -22.363  17.976   7.115  1.00  0.00     0.001 C 
HETATM   18  C10 UNL     1     -23.054  19.165   7.806  1.00  0.00     0.001 C 
HETATM   19  C11 UNL     1     -23.782  19.912   6.675  1.00  0.00     0.009 C 
ENDBRANCH   7  15
BRANCH   5  20
HETATM   20  O1  UNL     1     -26.931  21.434   3.383  1.00  0.00    -0.358 OA
ATOM     21  H1  UNL     1     -27.349  21.459   4.235  1.00  0.00     0.217 HD
ENDBRANCH   5  20
TORSDOF 6
ENDMDL
MODEL 3
REMARK VINA RESULT: -7.309107372      1.905      2.180
REMARK  6 active torsions:
REMARK  status: ('A' for Active; 'I' for Inactive)
REMARK    1  A    between atoms: C4_5  and  O1_6 
REMARK    2  A    between atoms: C6_9  and  C7_10 
REMARK    3  A    between atoms: C12_15  and  S1_16 
REMARK    4  A    between atoms: S1_16  and  C13_18 
REMARK    5  A    between atoms: C13_18  and  C14_19 
REMARK    6  A    between atoms: C14_19  and  O3_20 
ROOT
HETATM    1  C1  UNL     1     -24.497  22.913   2.019  1.00  0.00     0.053 C 
HETATM    2  C2  UNL     1     -24.631  22.384   3.430  1.00  0.00    -0.001 A 
HETATM    3  C3  UNL     1     -25.394  22.993   4.354  1.00  0.00     0.156 A 
HETATM    4  F1  UNL     1     -26.001  24.189   4.107  1.00  0.00    -0.203 F 
HETATM    5  C4  UNL     1     -25.574  22.421   5.621  1.00  0.00     0.105 A 
HETATM    6  C5  UNL     1     -24.945  21.197   5.922  1.00  0.00     0.048 A 
HETATM    7  C6  UNL     1     -24.145  20.552   4.995  1.00  0.00    -0.031 A 
HETATM    8  C12 UNL     1     -24.027  21.211   3.736  1.00  0.00     0.047 A 
ENDROOT
BRANCH   8   9
HETATM    9  S1  UNL     1     -23.132  20.328   2.557  1.00  0.00     0.053 S 
HETATM   10  O2  UNL     1     -23.800  19.759   1.216  1.00  0.00    -0.253 OA
BRANCH   9  11
HETATM   11  C13 UNL     1     -21.601  19.734   3.120  1.00  0.00     0.140 C 
BRANCH  11  12
HETATM   12  C14 UNL     1     -21.166  18.373   2.606  1.00  0.00     0.177 C 
BRANCH  12  13
HETATM   13  O3  UNL     1     -21.565  18.167   1.272  1.00  0.00    -0.400 OA
ATOM     14  H3  UNL     1     -21.137  17.410   0.890  1.00  0.00     0.209 HD
ENDBRANCH  12  13
ENDBRANCH  11  12
ENDBRANCH   9  11
ENDBRANCH   8   9
BRANCH   7  15
HETATM   15  C7  UNL     1     -23.356  19.425   5.412  1.00  0.00     0.020 C 
HETATM   16  C8  UNL     1     -23.816  18.039   5.250  1.00  0.00     0.009 C 
HETATM   17  C9  UNL     1     -22.579  17.361   5.919  1.00  0.00     0.001 C 
HETATM   18  C10 UNL     1     -22.592  18.086   7.276  1.00  0.00     0.001 C 
HETATM   19  C11 UNL     1     -23.365  19.392   7.020  1.00  0.00     0.009 C 
ENDBRANCH   7  15
BRANCH   5  20
HETATM   20  O1  UNL     1     -26.365  23.067   6.567  1.00  0.00    -0.358 OA
ATOM     21  H1  UNL     1     -26.003  23.779   7.080  1.00  0.00     0.217 HD
ENDBRANCH   5  20
TORSDOF 6
ENDMDL
MODEL 4
REMARK VINA RESULT: -7.245598242      3.212      4.911
REMARK  6 active torsions:
REMARK  status: ('A' for Active; 'I' for Inactive)
REMARK    1  A    between atoms: C4_5  and  O1_6 
REMARK    2  A    between atoms: C6_9  and  C7_10 
REMARK    3  A    between atoms: C12_15  and  S1_16 
REMARK    4  A    between atoms: S1_16  and  C13_18 
REMARK    5  A    between atoms: C13_18  and  C14_19 
REMARK    6  A    between atoms: C14_19  and  O3_20 
ROOT
HETATM    1  C1  UNL     1     -23.249  18.450   3.464  1.00  0.00     0.053 C 
HETATM    2  C2  UNL     1     -23.705  19.187   4.703  1.00  0.00    -0.001 A 
HETATM    3  C3  UNL     1     -23.376  18.779   5.941  1.00  0.00     0.156 A 
HETATM    4  F1  UNL     1     -22.711  17.608   6.157  1.00  0.00    -0.203 F 
HETATM    5  C4  UNL     1     -23.732  19.543   7.062  1.00  0.00     0.105 A 
HETATM    6  C5  UNL     1     -24.440  20.746   6.881  1.00  0.00     0.048 A 
HETATM    7  C6  UNL     1     -24.800  21.187   5.621  1.00  0.00    -0.031 A 
HETATM    8  C12 UNL     1     -24.391  20.344   4.545  1.00  0.00     0.047 A 
ENDROOT
BRANCH   8   9
HETATM    9  S1  UNL     1     -24.738  20.976   2.980  1.00  0.00     0.053 S 
HETATM   10  O2  UNL     1     -26.111  20.669   2.211  1.00  0.00    -0.253 OA
BRANCH   9  11
HETATM   11  C13 UNL     1     -23.352  21.588   2.133  1.00  0.00     0.140 C 
BRANCH  11  12
HETATM   12  C14 UNL     1     -23.181  21.144   0.691  1.00  0.00     0.177 C 
BRANCH  12  13
HETATM   13  O3  UNL     1     -23.673  19.840   0.485  1.00  0.00    -0.400 OA
ATOM     14  H3  UNL     1     -23.108  19.338  -0.089  1.00  0.00     0.209 HD
ENDBRANCH  12  13
ENDBRANCH  11  12
ENDBRANCH   9  11
ENDBRANCH   8   9
BRANCH   7  15
HETATM   15  C7  UNL     1     -25.701  22.301   5.497  1.00  0.00     0.020 C 
HETATM   16  C8  UNL     1     -25.228  23.689   5.400  1.00  0.00     0.009 C 
HETATM   17  C9  UNL     1     -26.639  24.356   5.348  1.00  0.00     0.001 C 
HETATM   18  C10 UNL     1     -27.245  23.774   6.637  1.00  0.00     0.001 C 
HETATM   19  C11 UNL     1     -26.431  22.498   6.916  1.00  0.00     0.009 C 
ENDBRANCH   7  15
BRANCH   5  20
HETATM   20  O1  UNL     1     -23.388  19.103   8.338  1.00  0.00    -0.358 OA
ATOM     21  H1  UNL     1     -23.237  19.734   9.031  1.00  0.00     0.217 HD
ENDBRANCH   5  20
TORSDOF 6
ENDMDL
MODEL 5
REMARK VINA RESULT: -7.156608308      1.757      2.264
REMARK  6 active torsions:
REMARK  status: ('A' for Active; 'I' for Inactive)
REMARK    1  A    between atoms: C4_5  and  O1_6 
REMARK    2  A    between atoms: C6_9  and  C7_10 
REMARK    3  A    between atoms: C12_15  and  S1_16 
REMARK    4  A    between atoms: S1_16  and  C13_18 
REMARK    5  A    between atoms: C13_18  and  C14_19 
REMARK    6  A    between atoms: C14_19  and  O3_20 
ROOT
HETATM    1  C1  UNL     1     -24.671  21.557   2.258  1.00  0.00     0.053 C 
HETATM    2  C2  UNL     1     -24.645  21.410   3.763  1.00  0.00    -0.001 A 
HETATM    3  C3  UNL     1     -25.232  22.301   4.580  1.00  0.00     0.156 A 
HETATM    4  F1  UNL     1     -25.786  23.453   4.105  1.00  0.00    -0.203 F 
HETATM    5  C4  UNL     1     -25.274  22.080   5.964  1.00  0.00     0.105 A 
HETATM    6  C5  UNL     1     -24.693  20.912   6.495  1.00  0.00     0.048 A 
HETATM    7  C6  UNL     1     -24.074  19.982   5.680  1.00  0.00    -0.031 A 
HETATM    8  C12 UNL     1     -24.085  20.294   4.288  1.00  0.00     0.047 A 
ENDROOT
BRANCH   8   9
HETATM    9  S1  UNL     1     -23.421  19.063   3.282  1.00  0.00     0.053 S 
HETATM   10  O2  UNL     1     -23.816  17.517   3.436  1.00  0.00    -0.253 OA
BRANCH   9  11
HETATM   11  C13 UNL     1     -22.001  19.543   2.407  1.00  0.00     0.140 C 
BRANCH  11  12
HETATM   12  C14 UNL     1     -20.949  18.474   2.170  1.00  0.00     0.177 C 
BRANCH  12  13
HETATM   13  O3  UNL     1     -21.522  17.274   1.706  1.00  0.00    -0.400 OA
ATOM     14  H3  UNL     1     -21.137  16.515   2.129  1.00  0.00     0.209 HD
ENDBRANCH  12  13
ENDBRANCH  11  12
ENDBRANCH   9  11
ENDBRANCH   8   9
BRANCH   7  15
HETATM   15  C7  UNL     1     -23.312  18.920   6.280  1.00  0.00     0.020 C 
HETATM   16  C8  UNL     1     -23.104  18.822   7.731  1.00  0.00     0.009 C 
HETATM   17  C9  UNL     1     -22.201  17.549   7.698  1.00  0.00     0.001 C 
HETATM   18  C10 UNL     1     -21.105  18.037   6.734  1.00  0.00     0.001 C 
HETATM   19  C11 UNL     1     -21.763  19.174   5.931  1.00  0.00     0.009 C 
ENDBRANCH   7  15
BRANCH   5  20
HETATM   20  O1  UNL     1     -25.883  23.015   6.797  1.00  0.00    -0.358 OA
ATOM     21  H1  UNL     1     -25.369  23.471   7.452  1.00  0.00     0.217 HD
ENDBRANCH   5  20
TORSDOF 6
ENDMDL
