MODEL 1
REMARK VINA RESULT: -8.186507388      0.000      0.000
REMARK  3 active torsions:
REMARK  status: ('A' for Active; 'I' for Inactive)
REMARK    1  A    between atoms: C3_5  and  S1_6 
REMARK    2  A    between atoms: S1_6  and  C4_7 
REMARK    3  A    between atoms: C4_7  and  C5_8 
ROOT
HETATM    1  S1  UNL     1      68.646  31.834  -0.330  1.00  0.00    -0.086 SA
ENDROOT
BRANCH   1   2
HETATM    2  C3  UNL     1      70.415  31.892  -0.597  1.00  0.00     0.145 A 
HETATM    3  N1  UNL     1      71.214  31.172   0.117  1.00  0.00    -0.336 N 
HETATM    4  C2  UNL     1      72.609  31.201  -0.077  1.00  0.00     0.048 A 
ATOM      5  H1  UNL     1      70.825  30.566   0.839  1.00  0.00     0.168 HD
HETATM    6  C1  UNL     1      73.445  30.464   0.651  1.00  0.00     0.045 C 
HETATM    7  C14 UNL     1      73.146  32.073  -1.114  1.00  0.00     0.082 A 
HETATM    8  C12 UNL     1      72.302  32.812  -1.846  1.00  0.00     0.031 A 
HETATM    9 CL1  UNL     1      74.854  32.207  -1.461  1.00  0.00    -0.080 Cl
HETATM   10  N4  UNL     1      70.907  32.751  -1.615  1.00  0.00    -0.339 N 
HETATM   11  C13 UNL     1      72.851  33.706  -2.908  1.00  0.00     0.070 C 
ATOM     12  H4  UNL     1      70.265  33.315  -2.173  1.00  0.00     0.168 HD
ENDBRANCH   1   2
BRANCH   1  13
HETATM   13  C4  UNL     1      67.941  30.327  -1.014  1.00  0.00     0.158 C 
BRANCH  13  14
HETATM   14  C5  UNL     1      66.971  29.776  -0.018  1.00  0.00     0.092 A 
HETATM   15  N2  UNL     1      65.872  29.047  -0.264  1.00  0.00    -0.343 N 
HETATM   16  C6  UNL     1      65.251  28.732   0.885  1.00  0.00     0.060 A 
ATOM     17  H2  UNL     1      65.553  28.770  -1.193  1.00  0.00     0.167 HD
HETATM   18  C7  UNL     1      64.120  28.026   1.228  1.00  0.00     0.032 A 
HETATM   19  C11 UNL     1      65.996  29.295   1.928  1.00  0.00     0.060 A 
HETATM   20  C8  UNL     1      63.718  27.866   2.535  1.00  0.00     0.002 A 
HETATM   21  C9  UNL     1      64.462  28.427   3.555  1.00  0.00     0.002 A 
HETATM   22  C10 UNL     1      65.597  29.138   3.239  1.00  0.00     0.032 A 
HETATM   23  N3  UNL     1      67.026  29.915   1.317  1.00  0.00    -0.343 N 
ATOM     24  H3  UNL     1      67.758  30.427   1.808  1.00  0.00     0.167 HD
ENDBRANCH  13  14
ENDBRANCH   1  13
TORSDOF 3
ENDMDL
MODEL 2
REMARK VINA RESULT: -8.146021206      0.178      1.274
REMARK  3 active torsions:
REMARK  status: ('A' for Active; 'I' for Inactive)
REMARK    1  A    between atoms: C3_5  and  S1_6 
REMARK    2  A    between atoms: S1_6  and  C4_7 
REMARK    3  A    between atoms: C4_7  and  C5_8 
ROOT
HETATM    1  S1  UNL     1      68.459  31.826  -0.398  1.00  0.00    -0.086 SA
ENDROOT
BRANCH   1   2
HETATM    2  C3  UNL     1      70.233  31.892  -0.621  1.00  0.00     0.145 A 
HETATM    3  N1  UNL     1      71.017  31.171   0.109  1.00  0.00    -0.336 N 
HETATM    4  C2  UNL     1      72.417  31.206  -0.050  1.00  0.00     0.048 A 
ATOM      5  H1  UNL     1      70.613  30.560   0.818  1.00  0.00     0.168 HD
HETATM    6  C1  UNL     1      73.237  30.469   0.695  1.00  0.00     0.045 C 
HETATM    7  C14 UNL     1      72.976  32.086  -1.068  1.00  0.00     0.082 A 
HETATM    8  C12 UNL     1      72.147  32.826  -1.817  1.00  0.00     0.031 A 
HETATM    9 CL1  UNL     1      74.692  32.228  -1.372  1.00  0.00    -0.080 Cl
HETATM   10  N4  UNL     1      70.747  32.758  -1.622  1.00  0.00    -0.339 N 
HETATM   11  C13 UNL     1      72.719  33.728  -2.860  1.00  0.00     0.070 C 
ATOM     12  H4  UNL     1      70.117  33.323  -2.192  1.00  0.00     0.168 HD
ENDBRANCH   1   2
BRANCH   1  13
HETATM   13  C4  UNL     1      67.798  30.249  -0.960  1.00  0.00     0.158 C 
BRANCH  13  14
HETATM   14  C5  UNL     1      66.874  29.732   0.096  1.00  0.00     0.092 A 
HETATM   15  N2  UNL     1      66.978  29.893   1.424  1.00  0.00    -0.343 N 
HETATM   16  C6  UNL     1      65.958  29.285   2.051  1.00  0.00     0.060 A 
ATOM     17  H2  UNL     1      67.727  30.405   1.891  1.00  0.00     0.167 HD
HETATM   18  C7  UNL     1      65.566  29.127   3.361  1.00  0.00     0.032 A 
HETATM   19  C11 UNL     1      65.154  28.700   1.067  1.00  0.00     0.060 A 
HETATM   20  C8  UNL     1      64.434  28.427   3.714  1.00  0.00     0.002 A 
HETATM   21  C9  UNL     1      63.648  27.853   2.732  1.00  0.00     0.002 A 
HETATM   22  C10 UNL     1      64.018  27.997   1.415  1.00  0.00     0.032 A 
HETATM   23  N3  UNL     1      65.761  29.006  -0.098  1.00  0.00    -0.343 N 
ATOM     24  H3  UNL     1      65.418  28.720  -1.014  1.00  0.00     0.167 HD
ENDBRANCH  13  14
ENDBRANCH   1  13
TORSDOF 3
ENDMDL
MODEL 3
REMARK VINA RESULT: -8.114791824      0.127      1.870
REMARK  3 active torsions:
REMARK  status: ('A' for Active; 'I' for Inactive)
REMARK    1  A    between atoms: C3_5  and  S1_6 
REMARK    2  A    between atoms: S1_6  and  C4_7 
REMARK    3  A    between atoms: C4_7  and  C5_8 
ROOT
HETATM    1  S1  UNL     1      68.561  31.864  -0.327  1.00  0.00    -0.086 SA
ENDROOT
BRANCH   1   2
HETATM    2  C3  UNL     1      70.316  31.995  -0.652  1.00  0.00     0.145 A 
HETATM    3  N1  UNL     1      70.763  32.821  -1.537  1.00  0.00    -0.336 N 
HETATM    4  C2  UNL     1      72.141  32.942  -1.808  1.00  0.00     0.048 A 
ATOM      5  H1  UNL     1      70.103  33.402  -2.053  1.00  0.00     0.168 HD
HETATM    6  C1  UNL     1      72.617  33.789  -2.718  1.00  0.00     0.045 C 
HETATM    7  C14 UNL     1      73.069  32.104  -1.060  1.00  0.00     0.082 A 
HETATM    8  C12 UNL     1      72.588  31.253  -0.144  1.00  0.00     0.031 A 
HETATM    9 CL1  UNL     1      74.801  32.151  -1.294  1.00  0.00    -0.080 Cl
HETATM   10  N4  UNL     1      71.195  31.166   0.094  1.00  0.00    -0.339 N 
HETATM   11  C13 UNL     1      73.538  30.394   0.622  1.00  0.00     0.070 C 
ATOM     12  H4  UNL     1      70.829  30.517   0.791  1.00  0.00     0.168 HD
ENDBRANCH   1   2
BRANCH   1  13
HETATM   13  C4  UNL     1      67.901  30.318  -0.970  1.00  0.00     0.158 C 
BRANCH  13  14
HETATM   14  C5  UNL     1      66.938  29.772   0.035  1.00  0.00     0.092 A 
HETATM   15  N2  UNL     1      65.832  29.050  -0.202  1.00  0.00    -0.343 N 
HETATM   16  C6  UNL     1      65.221  28.737   0.953  1.00  0.00     0.060 A 
ATOM     17  H2  UNL     1      65.503  28.776  -1.128  1.00  0.00     0.167 HD
HETATM   18  C7  UNL     1      64.089  28.038   1.306  1.00  0.00     0.032 A 
HETATM   19  C11 UNL     1      65.980  29.294   1.989  1.00  0.00     0.060 A 
HETATM   20  C8  UNL     1      63.699  27.878   2.617  1.00  0.00     0.002 A 
HETATM   21  C9  UNL     1      64.457  28.433   3.631  1.00  0.00     0.002 A 
HETATM   22  C10 UNL     1      65.594  29.137   3.304  1.00  0.00     0.032 A 
HETATM   23  N3  UNL     1      67.008  29.908   1.368  1.00  0.00    -0.343 N 
ATOM     24  H3  UNL     1      67.748  30.414   1.853  1.00  0.00     0.167 HD
ENDBRANCH  13  14
ENDBRANCH   1  13
TORSDOF 3
ENDMDL
MODEL 4
REMARK VINA RESULT: -7.887389717      1.130      2.033
REMARK  3 active torsions:
REMARK  status: ('A' for Active; 'I' for Inactive)
REMARK    1  A    between atoms: C3_5  and  S1_6 
REMARK    2  A    between atoms: S1_6  and  C4_7 
REMARK    3  A    between atoms: C4_7  and  C5_8 
ROOT
HETATM    1  S1  UNL     1      69.727  30.754   0.040  1.00  0.00    -0.086 SA
ENDROOT
BRANCH   1   2
HETATM    2  C3  UNL     1      70.900  31.839  -0.768  1.00  0.00     0.145 A 
HETATM    3  N1  UNL     1      70.496  32.867  -1.436  1.00  0.00    -0.336 N 
HETATM    4  C2  UNL     1      71.402  33.734  -2.079  1.00  0.00     0.048 A 
ATOM      5  H1  UNL     1      69.496  33.055  -1.501  1.00  0.00     0.168 HD
HETATM    6  C1  UNL     1      71.000  34.798  -2.771  1.00  0.00     0.045 C 
HETATM    7  C14 UNL     1      72.826  33.448  -1.975  1.00  0.00     0.082 A 
HETATM    8  C12 UNL     1      73.228  32.377  -1.276  1.00  0.00     0.031 A 
HETATM    9 CL1  UNL     1      74.058  34.439  -2.721  1.00  0.00    -0.080 Cl
HETATM   10  N4  UNL     1      72.281  31.533  -0.647  1.00  0.00    -0.339 N 
HETATM   11  C13 UNL     1      74.687  32.083  -1.170  1.00  0.00     0.070 C 
ATOM     12  H4  UNL     1      72.587  30.718  -0.116  1.00  0.00     0.168 HD
ENDBRANCH   1   2
BRANCH   1  13
HETATM   13  C4  UNL     1      68.196  30.648  -0.900  1.00  0.00     0.158 C 
BRANCH  13  14
HETATM   14  C5  UNL     1      67.165  29.998  -0.034  1.00  0.00     0.092 A 
HETATM   15  N2  UNL     1      66.116  29.260  -0.426  1.00  0.00    -0.343 N 
HETATM   16  C6  UNL     1      65.412  28.843   0.639  1.00  0.00     0.060 A 
ATOM     17  H2  UNL     1      65.885  29.045  -1.397  1.00  0.00     0.167 HD
HETATM   18  C7  UNL     1      64.279  28.084   0.832  1.00  0.00     0.032 A 
HETATM   19  C11 UNL     1      66.048  29.346   1.780  1.00  0.00     0.060 A 
HETATM   20  C8  UNL     1      63.774  27.815   2.084  1.00  0.00     0.002 A 
HETATM   21  C9  UNL     1      64.412  28.317   3.203  1.00  0.00     0.002 A 
HETATM   22  C10 UNL     1      65.546  29.079   3.038  1.00  0.00     0.032 A 
HETATM   23  N3  UNL     1      67.104  30.037   1.307  1.00  0.00    -0.343 N 
ATOM     24  H3  UNL     1      67.775  30.530   1.895  1.00  0.00     0.167 HD
ENDBRANCH  13  14
ENDBRANCH   1  13
TORSDOF 3
ENDMDL
MODEL 5
REMARK VINA RESULT: -7.809121552      1.156      1.316
REMARK  3 active torsions:
REMARK  status: ('A' for Active; 'I' for Inactive)
REMARK    1  A    between atoms: C3_5  and  S1_6 
REMARK    2  A    between atoms: S1_6  and  C4_7 
REMARK    3  A    between atoms: C4_7  and  C5_8 
ROOT
HETATM    1  S1  UNL     1      69.766  30.785   0.103  1.00  0.00    -0.086 SA
ENDROOT
BRANCH   1   2
HETATM    2  C3  UNL     1      70.981  31.819  -0.709  1.00  0.00     0.145 A 
HETATM    3  N1  UNL     1      72.242  31.567  -0.596  1.00  0.00    -0.336 N 
HETATM    4  C2  UNL     1      73.216  32.367  -1.227  1.00  0.00     0.048 A 
ATOM      5  H1  UNL     1      72.541  30.769  -0.037  1.00  0.00     0.168 HD
HETATM    6  C1  UNL     1      74.519  32.120  -1.121  1.00  0.00     0.045 C 
HETATM    7  C14 UNL     1      72.768  33.504  -2.022  1.00  0.00     0.082 A 
HETATM    8  C12 UNL     1      71.456  33.749  -2.128  1.00  0.00     0.031 A 
HETATM    9 CL1  UNL     1      73.866  34.578  -2.857  1.00  0.00    -0.080 Cl
HETATM   10  N4  UNL     1      70.514  32.918  -1.476  1.00  0.00    -0.339 N 
HETATM   11  C13 UNL     1      70.997  34.914  -2.942  1.00  0.00     0.070 C 
ATOM     12  H4  UNL     1      69.514  33.106  -1.557  1.00  0.00     0.168 HD
ENDBRANCH   1   2
BRANCH   1  13
HETATM   13  C4  UNL     1      68.266  30.661  -0.882  1.00  0.00     0.158 C 
BRANCH  13  14
HETATM   14  C5  UNL     1      67.214  30.008  -0.043  1.00  0.00     0.092 A 
HETATM   15  N2  UNL     1      66.177  29.267  -0.463  1.00  0.00    -0.343 N 
HETATM   16  C6  UNL     1      65.447  28.848   0.583  1.00  0.00     0.060 A 
ATOM     17  H2  UNL     1      65.972  29.053  -1.439  1.00  0.00     0.167 HD
HETATM   18  C7  UNL     1      64.312  28.086   0.746  1.00  0.00     0.032 A 
HETATM   19  C11 UNL     1      66.051  29.351   1.741  1.00  0.00     0.060 A 
HETATM   20  C8  UNL     1      63.775  27.815   1.985  1.00  0.00     0.002 A 
HETATM   21  C9  UNL     1      64.382  28.318   3.120  1.00  0.00     0.002 A 
HETATM   22  C10 UNL     1      65.518  29.083   2.985  1.00  0.00     0.032 A 
HETATM   23  N3  UNL     1      67.118  30.046   1.296  1.00  0.00    -0.343 N 
ATOM     24  H3  UNL     1      67.772  30.540   1.902  1.00  0.00     0.167 HD
ENDBRANCH  13  14
ENDBRANCH   1  13
TORSDOF 3
ENDMDL
