MODEL 1
REMARK VINA RESULT: -5.566315246      0.000      0.000
REMARK  5 active torsions:
REMARK  status: ('A' for Active; 'I' for Inactive)
REMARK    1  A    between atoms: C3_3  and  C4_4 
REMARK    2  A    between atoms: C4_4  and  C5_5 
REMARK    3  A    between atoms: C8_9  and  C9_10 
REMARK    4  A    between atoms: C11_12  and  O1_13 
REMARK    5  A    between atoms: N1_18  and  C14_19 
ROOT
HETATM    1  C4  UNL     1      71.753  35.836  -2.794  1.00  0.00     0.030 C 
ENDROOT
BRANCH   1   2
HETATM    2  C3  UNL     1      72.477  36.290  -3.781  1.00  0.00     0.014 A 
HETATM    3  C2  UNL     1      72.661  37.655  -4.056  1.00  0.00     0.037 A 
HETATM    4  C1  UNL     1      72.131  38.652  -3.359  1.00  0.00     0.044 C 
HETATM    5  N1  UNL     1      73.449  37.784  -5.122  1.00  0.00    -0.351 N 
HETATM    6  C13 UNL     1      73.774  36.551  -5.538  1.00  0.00     0.116 A 
HETATM    7  C12 UNL     1      73.193  35.599  -4.735  1.00  0.00     0.062 A 
HETATM    8 CL1  UNL     1      73.322  33.848  -4.884  1.00  0.00    -0.082 Cl
BRANCH   5   9
HETATM    9  C14 UNL     1      73.854  39.077  -5.697  1.00  0.00     0.081 C 
HETATM   10  C15 UNL     1      75.310  39.075  -6.063  1.00  0.00     0.032 C 
HETATM   11  C16 UNL     1      73.058  39.350  -6.972  1.00  0.00     0.032 C 
ENDBRANCH   5   9
ENDBRANCH   1   2
BRANCH   1  12
HETATM   12  C5  UNL     1      72.265  34.940  -1.724  1.00  0.00     0.012 A 
HETATM   13  C6  UNL     1      73.080  35.411  -0.727  1.00  0.00    -0.008 A 
HETATM   14  C7  UNL     1      73.557  36.837  -0.541  1.00  0.00     0.057 C 
HETATM   15  S1  UNL     1      73.399  34.024   0.202  1.00  0.00    -0.096 SA
HETATM   16  C8  UNL     1      72.502  32.883  -0.681  1.00  0.00     0.017 A 
HETATM   17  C11 UNL     1      71.963  33.623  -1.699  1.00  0.00     0.090 A 
BRANCH  16  18
HETATM   18  C9  UNL     1      72.353  31.407  -0.394  1.00  0.00     0.045 C 
HETATM   19  C10 UNL     1      71.006  31.066   0.146  1.00  0.00     0.010 C 
ENDBRANCH  16  18
BRANCH  17  20
HETATM   20  O1  UNL     1      71.134  32.957  -2.649  1.00  0.00    -0.359 OA
ATOM     21  H1  UNL     1      71.450  32.432  -3.375  1.00  0.00     0.217 HD
ENDBRANCH  17  20
ENDBRANCH   1  12
TORSDOF 5
ENDMDL
MODEL 2
REMARK VINA RESULT: -5.497791923      2.029      3.239
REMARK  5 active torsions:
REMARK  status: ('A' for Active; 'I' for Inactive)
REMARK    1  A    between atoms: C3_3  and  C4_4 
REMARK    2  A    between atoms: C4_4  and  C5_5 
REMARK    3  A    between atoms: C8_9  and  C9_10 
REMARK    4  A    between atoms: C11_12  and  O1_13 
REMARK    5  A    between atoms: N1_18  and  C14_19 
ROOT
HETATM    1  C4  UNL     1      73.286  33.690  -2.364  1.00  0.00     0.030 C 
ENDROOT
BRANCH   1   2
HETATM    2  C3  UNL     1      73.289  34.995  -2.311  1.00  0.00     0.014 A 
HETATM    3  C2  UNL     1      73.226  35.827  -3.440  1.00  0.00     0.037 A 
HETATM    4  C1  UNL     1      73.154  35.404  -4.696  1.00  0.00     0.044 C 
HETATM    5  N1  UNL     1      73.247  37.100  -3.047  1.00  0.00    -0.351 N 
HETATM    6  C13 UNL     1      73.323  37.110  -1.709  1.00  0.00     0.116 A 
HETATM    7  C12 UNL     1      73.350  35.828  -1.214  1.00  0.00     0.062 A 
HETATM    8 CL1  UNL     1      73.451  35.333   0.474  1.00  0.00    -0.082 Cl
BRANCH   5   9
HETATM    9  C14 UNL     1      73.197  38.247  -3.968  1.00  0.00     0.081 C 
HETATM   10  C15 UNL     1      72.136  39.226  -3.556  1.00  0.00     0.032 C 
HETATM   11  C16 UNL     1      74.536  38.982  -3.952  1.00  0.00     0.032 C 
ENDBRANCH   5   9
ENDBRANCH   1   2
BRANCH   1  12
HETATM   12  C5  UNL     1      72.448  32.819  -1.497  1.00  0.00     0.012 A 
HETATM   13  C6  UNL     1      73.006  31.844  -0.712  1.00  0.00    -0.008 A 
HETATM   14  C7  UNL     1      74.479  31.513  -0.584  1.00  0.00     0.057 C 
HETATM   15  S1  UNL     1      71.658  31.134   0.042  1.00  0.00    -0.096 SA
HETATM   16  C8  UNL     1      70.424  32.078  -0.643  1.00  0.00     0.017 A 
HETATM   17  C11 UNL     1      71.103  32.942  -1.460  1.00  0.00     0.090 A 
BRANCH  16  18
HETATM   18  C9  UNL     1      68.938  31.969  -0.398  1.00  0.00     0.045 C 
HETATM   19  C10 UNL     1      68.418  30.596  -0.658  1.00  0.00     0.010 C 
ENDBRANCH  16  18
BRANCH  17  20
HETATM   20  O1  UNL     1      70.349  33.897  -2.205  1.00  0.00    -0.359 OA
ATOM     21  H1  UNL     1      70.569  34.203  -3.078  1.00  0.00     0.217 HD
ENDBRANCH  17  20
ENDBRANCH   1  12
TORSDOF 5
ENDMDL
MODEL 3
REMARK VINA RESULT: -5.496354122      1.610      2.360
REMARK  5 active torsions:
REMARK  status: ('A' for Active; 'I' for Inactive)
REMARK    1  A    between atoms: C3_3  and  C4_4 
REMARK    2  A    between atoms: C4_4  and  C5_5 
REMARK    3  A    between atoms: C8_9  and  C9_10 
REMARK    4  A    between atoms: C11_12  and  O1_13 
REMARK    5  A    between atoms: N1_18  and  C14_19 
ROOT
HETATM    1  C4  UNL     1      71.711  35.670  -2.905  1.00  0.00     0.030 C 
ENDROOT
BRANCH   1   2
HETATM    2  C3  UNL     1      72.475  36.201  -3.821  1.00  0.00     0.014 A 
HETATM    3  C2  UNL     1      73.239  35.457  -4.734  1.00  0.00     0.037 A 
HETATM    4  C1  UNL     1      73.285  34.131  -4.788  1.00  0.00     0.044 C 
HETATM    5  N1  UNL     1      73.903  36.291  -5.532  1.00  0.00    -0.351 N 
HETATM    6  C13 UNL     1      73.592  37.541  -5.160  1.00  0.00     0.116 A 
HETATM    7  C12 UNL     1      72.711  37.529  -4.105  1.00  0.00     0.062 A 
HETATM    8 CL1  UNL     1      72.020  38.918  -3.270  1.00  0.00    -0.082 Cl
BRANCH   5   9
HETATM    9  C14 UNL     1      74.806  35.857  -6.610  1.00  0.00     0.081 C 
HETATM   10  C15 UNL     1      74.664  36.734  -7.821  1.00  0.00     0.032 C 
HETATM   11  C16 UNL     1      76.257  35.951  -6.140  1.00  0.00     0.032 C 
ENDBRANCH   5   9
ENDBRANCH   1   2
BRANCH   1  12
HETATM   12  C5  UNL     1      72.211  34.854  -1.767  1.00  0.00     0.012 A 
HETATM   13  C6  UNL     1      73.002  35.399  -0.789  1.00  0.00    -0.008 A 
HETATM   14  C7  UNL     1      73.463  36.840  -0.692  1.00  0.00     0.057 C 
HETATM   15  S1  UNL     1      73.316  34.081   0.237  1.00  0.00    -0.096 SA
HETATM   16  C8  UNL     1      72.446  32.874  -0.583  1.00  0.00     0.017 A 
HETATM   17  C11 UNL     1      71.921  33.538  -1.659  1.00  0.00     0.090 A 
BRANCH  16  18
HETATM   18  C9  UNL     1      72.305  31.420  -0.199  1.00  0.00     0.045 C 
HETATM   19  C10 UNL     1      70.921  31.078   0.235  1.00  0.00     0.010 C 
ENDBRANCH  16  18
BRANCH  17  20
HETATM   20  O1  UNL     1      71.115  32.802  -2.577  1.00  0.00    -0.359 OA
ATOM     21  H1  UNL     1      70.746  31.942  -2.410  1.00  0.00     0.217 HD
ENDBRANCH  17  20
ENDBRANCH   1  12
TORSDOF 5
ENDMDL
MODEL 4
REMARK VINA RESULT: -5.404646585      1.976      2.993
REMARK  5 active torsions:
REMARK  status: ('A' for Active; 'I' for Inactive)
REMARK    1  A    between atoms: C3_3  and  C4_4 
REMARK    2  A    between atoms: C4_4  and  C5_5 
REMARK    3  A    between atoms: C8_9  and  C9_10 
REMARK    4  A    between atoms: C11_12  and  O1_13 
REMARK    5  A    between atoms: N1_18  and  C14_19 
ROOT
HETATM    1  C4  UNL     1      74.019  33.312  -2.831  1.00  0.00     0.030 C 
ENDROOT
BRANCH   1   2
HETATM    2  C3  UNL     1      73.849  34.557  -3.184  1.00  0.00     0.014 A 
HETATM    3  C2  UNL     1      73.847  35.003  -4.515  1.00  0.00     0.037 A 
HETATM    4  C1  UNL     1      74.016  34.227  -5.580  1.00  0.00     0.044 C 
HETATM    5  N1  UNL     1      73.649  36.320  -4.536  1.00  0.00    -0.351 N 
HETATM    6  C13 UNL     1      73.525  36.731  -3.266  1.00  0.00     0.116 A 
HETATM    7  C12 UNL     1      73.642  35.671  -2.398  1.00  0.00     0.062 A 
HETATM    8 CL1  UNL     1      73.555  35.711  -0.639  1.00  0.00    -0.082 Cl
BRANCH   5   9
HETATM    9  C14 UNL     1      73.589  37.126  -5.766  1.00  0.00     0.081 C 
HETATM   10  C15 UNL     1      72.460  38.113  -5.712  1.00  0.00     0.032 C 
HETATM   11  C16 UNL     1      74.886  37.916  -5.930  1.00  0.00     0.032 C 
ENDBRANCH   5   9
ENDBRANCH   1   2
BRANCH   1  12
HETATM   12  C5  UNL     1      73.234  32.628  -1.769  1.00  0.00     0.012 A 
HETATM   13  C6  UNL     1      73.849  31.911  -0.775  1.00  0.00    -0.008 A 
HETATM   14  C7  UNL     1      75.340  31.717  -0.585  1.00  0.00     0.057 C 
HETATM   15  S1  UNL     1      72.546  31.323   0.143  1.00  0.00    -0.096 SA
HETATM   16  C8  UNL     1      71.256  31.990  -0.739  1.00  0.00     0.017 A 
HETATM   17  C11 UNL     1      71.883  32.669  -1.750  1.00  0.00     0.090 A 
BRANCH  16  18
HETATM   18  C9  UNL     1      69.779  31.849  -0.460  1.00  0.00     0.045 C 
HETATM   19  C10 UNL     1      69.250  30.513  -0.855  1.00  0.00     0.010 C 
ENDBRANCH  16  18
BRANCH  17  20
HETATM   20  O1  UNL     1      71.074  33.363  -2.698  1.00  0.00    -0.359 OA
ATOM     21  H1  UNL     1      70.427  32.955  -3.263  1.00  0.00     0.217 HD
ENDBRANCH  17  20
ENDBRANCH   1  12
TORSDOF 5
ENDMDL
MODEL 5
REMARK VINA RESULT: -5.349654247      4.412      6.547
REMARK  5 active torsions:
REMARK  status: ('A' for Active; 'I' for Inactive)
REMARK    1  A    between atoms: C3_3  and  C4_4 
REMARK    2  A    between atoms: C4_4  and  C5_5 
REMARK    3  A    between atoms: C8_9  and  C9_10 
REMARK    4  A    between atoms: C11_12  and  O1_13 
REMARK    5  A    between atoms: N1_18  and  C14_19 
ROOT
HETATM    1  C4  UNL     1      74.791  32.276  -1.343  1.00  0.00     0.030 C 
ENDROOT
BRANCH   1   2
HETATM    2  C3  UNL     1      73.504  32.442  -1.490  1.00  0.00     0.014 A 
HETATM    3  C2  UNL     1      72.537  31.860  -0.655  1.00  0.00     0.037 A 
HETATM    4  C1  UNL     1      72.799  31.074   0.383  1.00  0.00     0.044 C 
HETATM    5  N1  UNL     1      71.325  32.224  -1.069  1.00  0.00    -0.351 N 
HETATM    6  C13 UNL     1      71.482  33.016  -2.140  1.00  0.00     0.116 A 
HETATM    7  C12 UNL     1      72.816  33.176  -2.432  1.00  0.00     0.062 A 
HETATM    8 CL1  UNL     1      73.519  34.119  -3.745  1.00  0.00    -0.082 Cl
BRANCH   5   9
HETATM    9  C14 UNL     1      70.071  31.797  -0.427  1.00  0.00     0.081 C 
HETATM   10  C15 UNL     1      69.020  32.863  -0.529  1.00  0.00     0.032 C 
HETATM   11  C16 UNL     1      69.532  30.548  -1.123  1.00  0.00     0.032 C 
ENDBRANCH   5   9
ENDBRANCH   1   2
BRANCH   1  12
HETATM   12  C5  UNL     1      75.763  33.388  -1.168  1.00  0.00     0.012 A 
HETATM   13  C6  UNL     1      76.799  33.577  -2.046  1.00  0.00    -0.008 A 
HETATM   14  C7  UNL     1      77.106  32.752  -3.279  1.00  0.00     0.057 C 
HETATM   15  S1  UNL     1      77.611  34.924  -1.404  1.00  0.00    -0.096 SA
HETATM   16  C8  UNL     1      76.633  35.222  -0.047  1.00  0.00     0.017 A 
HETATM   17  C11 UNL     1      75.677  34.246  -0.127  1.00  0.00     0.090 A 
BRANCH  16  18
HETATM   18  C9  UNL     1      76.802  36.308   0.989  1.00  0.00     0.045 C 
HETATM   19  C10 UNL     1      77.540  35.835   2.194  1.00  0.00     0.010 C 
ENDBRANCH  16  18
BRANCH  17  20
HETATM   20  O1  UNL     1      74.670  34.205   0.884  1.00  0.00    -0.359 OA
ATOM     21  H1  UNL     1      74.803  34.442   1.794  1.00  0.00     0.217 HD
ENDBRANCH  17  20
ENDBRANCH   1  12
TORSDOF 5
ENDMDL
