MODEL 1
REMARK VINA RESULT: -7.070590445      0.000      0.000
REMARK  4 active torsions:
REMARK  status: ('A' for Active; 'I' for Inactive)
REMARK    1  A    between atoms: C5_12  and  N4_13 
REMARK    2  A    between atoms: N4_13  and  C6_15 
REMARK    3  A    between atoms: C6_15  and  C7_16 
REMARK    4  A    between atoms: C13_24  and  C14_25 
ROOT
HETATM    1  C1  UNL     1      74.685  34.913  -4.893  1.00  0.00     0.068 C 
HETATM    2  C2  UNL     1      74.923  33.979  -3.758  1.00  0.00     0.014 A 
HETATM    3  N1  UNL     1      76.122  33.397  -3.586  1.00  0.00    -0.345 N 
ATOM      4  H1  UNL     1      76.947  33.539  -4.169  1.00  0.00     0.167 HD
HETATM    5  C3  UNL     1      76.042  32.603  -2.521  1.00  0.00     0.122 A 
HETATM    6  N2  UNL     1      76.949  31.823  -1.890  1.00  0.00    -0.318 N 
ATOM      7  H2  UNL     1      77.894  31.758  -2.268  1.00  0.00     0.170 HD
HETATM    8  C4  UNL     1      76.642  31.140  -0.789  1.00  0.00     0.182 A 
HETATM    9 CL1  UNL     1      77.871  30.139  -0.068  1.00  0.00    -0.045 Cl
HETATM   10  N3  UNL     1      75.414  31.185  -0.237  1.00  0.00    -0.318 N 
ATOM     11  H3  UNL     1      75.200  30.658   0.610  1.00  0.00     0.170 HD
HETATM   12  C5  UNL     1      74.465  31.956  -0.842  1.00  0.00     0.118 A 
HETATM   13  C12 UNL     1      74.742  32.666  -1.978  1.00  0.00     0.060 A 
HETATM   14  C13 UNL     1      74.031  33.563  -2.801  1.00  0.00    -0.015 A 
ENDROOT
BRANCH  12  15
HETATM   15  N4  UNL     1      73.301  32.095  -0.259  1.00  0.00    -0.371 N 
ATOM     16  H4  UNL     1      73.029  33.025   0.061  1.00  0.00     0.161 HD
BRANCH  15  17
HETATM   17  C6  UNL     1      72.387  31.010  -0.046  1.00  0.00     0.160 C 
BRANCH  17  18
HETATM   18  C7  UNL     1      70.973  31.326  -0.292  1.00  0.00    -0.038 A 
HETATM   19  C8  UNL     1      70.522  32.645  -0.367  1.00  0.00     0.025 A 
HETATM   20  C9  UNL     1      69.190  32.931  -0.539  1.00  0.00     0.088 A 
HETATM   21  N5  UNL     1      68.297  31.915  -0.639  1.00  0.00    -0.375 N 
HETATM   22  C10 UNL     1      68.665  30.626  -0.577  1.00  0.00     0.088 A 
ATOM     23  H5  UNL     1      67.310  32.139  -0.765  1.00  0.00     0.164 HD
HETATM   24  C11 UNL     1      70.005  30.360  -0.404  1.00  0.00     0.025 A 
ENDBRANCH  17  18
ENDBRANCH  15  17
ENDBRANCH  12  15
BRANCH  14  25
HETATM   25  C14 UNL     1      72.692  34.053  -2.606  1.00  0.00     0.013 C 
HETATM   26  C15 UNL     1      71.843  33.854  -3.879  1.00  0.00     0.015 C 
HETATM   27  C16 UNL     1      72.481  35.444  -2.140  1.00  0.00     0.015 C 
ENDBRANCH  14  25
TORSDOF 4
ENDMDL
MODEL 2
REMARK VINA RESULT: -7.017098665      0.079      1.006
REMARK  4 active torsions:
REMARK  status: ('A' for Active; 'I' for Inactive)
REMARK    1  A    between atoms: C5_12  and  N4_13 
REMARK    2  A    between atoms: N4_13  and  C6_15 
REMARK    3  A    between atoms: C6_15  and  C7_16 
REMARK    4  A    between atoms: C13_24  and  C14_25 
ROOT
HETATM    1  C1  UNL     1      74.767  34.881  -4.841  1.00  0.00     0.068 C 
HETATM    2  C2  UNL     1      74.985  33.937  -3.710  1.00  0.00     0.014 A 
HETATM    3  N1  UNL     1      76.177  33.343  -3.530  1.00  0.00    -0.345 N 
ATOM      4  H1  UNL     1      77.009  33.481  -4.104  1.00  0.00     0.167 HD
HETATM    5  C3  UNL     1      76.080  32.543  -2.470  1.00  0.00     0.122 A 
HETATM    6  N2  UNL     1      76.974  31.752  -1.836  1.00  0.00    -0.318 N 
ATOM      7  H2  UNL     1      77.921  31.680  -2.205  1.00  0.00     0.170 HD
HETATM    8  C4  UNL     1      76.650  31.064  -0.742  1.00  0.00     0.182 A 
HETATM    9 CL1  UNL     1      77.863  30.048  -0.016  1.00  0.00    -0.045 Cl
HETATM   10  N3  UNL     1      75.417  31.118  -0.201  1.00  0.00    -0.318 N 
ATOM     11  H3  UNL     1      75.190  30.588   0.641  1.00  0.00     0.170 HD
HETATM   12  C5  UNL     1      74.481  31.901  -0.810  1.00  0.00     0.118 A 
HETATM   13  C12 UNL     1      74.775  32.616  -1.939  1.00  0.00     0.060 A 
HETATM   14  C13 UNL     1      74.080  33.525  -2.763  1.00  0.00    -0.015 A 
ENDROOT
BRANCH  12  15
HETATM   15  N4  UNL     1      73.313  32.048  -0.237  1.00  0.00    -0.371 N 
ATOM     16  H4  UNL     1      73.050  32.977   0.092  1.00  0.00     0.161 HD
BRANCH  15  17
HETATM   17  C6  UNL     1      72.383  30.972  -0.049  1.00  0.00     0.160 C 
BRANCH  17  18
HETATM   18  C7  UNL     1      70.969  31.328  -0.234  1.00  0.00    -0.038 A 
HETATM   19  C8  UNL     1      69.980  30.351  -0.356  1.00  0.00     0.025 A 
HETATM   20  C9  UNL     1      68.670  30.692  -0.587  1.00  0.00     0.088 A 
HETATM   21  N5  UNL     1      68.331  32.000  -0.696  1.00  0.00    -0.375 N 
HETATM   22  C10 UNL     1      69.232  32.988  -0.586  1.00  0.00     0.088 A 
ATOM     23  H5  UNL     1      67.355  32.242  -0.869  1.00  0.00     0.164 HD
HETATM   24  C11 UNL     1      70.540  32.625  -0.356  1.00  0.00     0.025 A 
ENDBRANCH  17  18
ENDBRANCH  15  17
ENDBRANCH  12  15
BRANCH  14  25
HETATM   25  C14 UNL     1      72.745  34.026  -2.578  1.00  0.00     0.013 C 
HETATM   26  C15 UNL     1      71.883  33.771  -3.833  1.00  0.00     0.015 C 
HETATM   27  C16 UNL     1      72.540  35.437  -2.173  1.00  0.00     0.015 C 
ENDBRANCH  14  25
TORSDOF 4
ENDMDL
MODEL 3
REMARK VINA RESULT: -6.791542099      2.666      3.417
REMARK  4 active torsions:
REMARK  status: ('A' for Active; 'I' for Inactive)
REMARK    1  A    between atoms: C5_12  and  N4_13 
REMARK    2  A    between atoms: N4_13  and  C6_15 
REMARK    3  A    between atoms: C6_15  and  C7_16 
REMARK    4  A    between atoms: C13_24  and  C14_25 
ROOT
HETATM    1  C1  UNL     1      72.648  37.971  -3.314  1.00  0.00     0.068 C 
HETATM    2  C2  UNL     1      72.969  37.051  -2.187  1.00  0.00     0.014 A 
HETATM    3  N1  UNL     1      73.295  37.534  -0.977  1.00  0.00    -0.345 N 
ATOM      4  H1  UNL     1      73.337  38.519  -0.715  1.00  0.00     0.167 HD
HETATM    5  C3  UNL     1      73.552  36.500  -0.179  1.00  0.00     0.122 A 
HETATM    6  N2  UNL     1      73.886  36.413   1.128  1.00  0.00    -0.318 N 
ATOM      7  H2  UNL     1      74.013  37.270   1.666  1.00  0.00     0.170 HD
HETATM    8  C4  UNL     1      74.052  35.238   1.733  1.00  0.00     0.182 A 
HETATM    9 CL1  UNL     1      74.512  35.232   3.413  1.00  0.00    -0.045 Cl
HETATM   10  N3  UNL     1      73.895  34.069   1.082  1.00  0.00    -0.318 N 
ATOM     11  H3  UNL     1      74.022  33.179   1.565  1.00  0.00     0.170 HD
HETATM   12  C5  UNL     1      73.563  34.108  -0.240  1.00  0.00     0.118 A 
HETATM   13  C12 UNL     1      73.391  35.296  -0.896  1.00  0.00     0.060 A 
HETATM   14  C13 UNL     1      73.016  35.679  -2.200  1.00  0.00    -0.015 A 
ENDROOT
BRANCH  12  15
HETATM   15  N4  UNL     1      73.303  32.984  -0.858  1.00  0.00    -0.371 N 
ATOM     16  H4  UNL     1      73.574  32.897  -1.838  1.00  0.00     0.161 HD
BRANCH  15  17
HETATM   17  C6  UNL     1      72.656  31.867  -0.231  1.00  0.00     0.160 C 
BRANCH  17  18
HETATM   18  C7  UNL     1      71.191  31.845  -0.350  1.00  0.00    -0.038 A 
HETATM   19  C8  UNL     1      70.463  33.006  -0.612  1.00  0.00     0.025 A 
HETATM   20  C9  UNL     1      69.090  32.987  -0.664  1.00  0.00     0.088 A 
HETATM   21  N5  UNL     1      68.432  31.819  -0.460  1.00  0.00    -0.375 N 
HETATM   22  C10 UNL     1      69.073  30.667  -0.208  1.00  0.00     0.088 A 
ATOM     23  H5  UNL     1      67.413  31.816  -0.501  1.00  0.00     0.164 HD
HETATM   24  C11 UNL     1      70.448  30.708  -0.158  1.00  0.00     0.025 A 
ENDBRANCH  17  18
ENDBRANCH  15  17
ENDBRANCH  12  15
BRANCH  14  25
HETATM   25  C14 UNL     1      72.627  34.818  -3.285  1.00  0.00     0.013 C 
HETATM   26  C15 UNL     1      73.614  34.942  -4.466  1.00  0.00     0.015 C 
HETATM   27  C16 UNL     1      71.255  34.908  -3.837  1.00  0.00     0.015 C 
ENDBRANCH  14  25
TORSDOF 4
ENDMDL
MODEL 4
REMARK VINA RESULT: -6.743025589      1.217      1.854
REMARK  4 active torsions:
REMARK  status: ('A' for Active; 'I' for Inactive)
REMARK    1  A    between atoms: C5_12  and  N4_13 
REMARK    2  A    between atoms: N4_13  and  C6_15 
REMARK    3  A    between atoms: C6_15  and  C7_16 
REMARK    4  A    between atoms: C13_24  and  C14_25 
ROOT
HETATM    1  C1  UNL     1      73.704  36.420  -5.620  1.00  0.00     0.068 C 
HETATM    2  C2  UNL     1      74.174  35.308  -4.747  1.00  0.00     0.014 A 
HETATM    3  N1  UNL     1      75.316  34.654  -5.021  1.00  0.00    -0.345 N 
ATOM      4  H1  UNL     1      75.948  34.850  -5.797  1.00  0.00     0.167 HD
HETATM    5  C3  UNL     1      75.475  33.705  -4.101  1.00  0.00     0.122 A 
HETATM    6  N2  UNL     1      76.452  32.797  -3.882  1.00  0.00    -0.318 N 
ATOM      7  H2  UNL     1      77.239  32.751  -4.528  1.00  0.00     0.170 HD
HETATM    8  C4  UNL     1      76.414  31.962  -2.845  1.00  0.00     0.182 A 
HETATM    9 CL1  UNL     1      77.705  30.807  -2.668  1.00  0.00    -0.045 Cl
HETATM   10  N3  UNL     1      75.405  31.974  -1.952  1.00  0.00    -0.318 N 
ATOM     11  H3  UNL     1      75.398  31.329  -1.162  1.00  0.00     0.170 HD
HETATM   12  C5  UNL     1      74.394  32.871  -2.136  1.00  0.00     0.118 A 
HETATM   13  C12 UNL     1      74.396  33.739  -3.193  1.00  0.00     0.060 A 
HETATM   14  C13 UNL     1      73.561  34.786  -3.635  1.00  0.00    -0.015 A 
ENDROOT
BRANCH  12  15
HETATM   15  N4  UNL     1      73.464  32.967  -1.220  1.00  0.00    -0.371 N 
ATOM     16  H4  UNL     1      73.149  33.899  -0.947  1.00  0.00     0.161 HD
BRANCH  15  17
HETATM   17  C6  UNL     1      72.862  31.833  -0.580  1.00  0.00     0.160 C 
BRANCH  17  18
HETATM   18  C7  UNL     1      71.397  31.879  -0.473  1.00  0.00    -0.038 A 
HETATM   19  C8  UNL     1      70.648  30.733  -0.206  1.00  0.00     0.025 A 
HETATM   20  C9  UNL     1      69.275  30.775  -0.166  1.00  0.00     0.088 A 
HETATM   21  N5  UNL     1      68.638  31.951  -0.387  1.00  0.00    -0.375 N 
HETATM   22  C10 UNL     1      69.299  33.090  -0.646  1.00  0.00     0.088 A 
ATOM     23  H5  UNL     1      67.618  31.971  -0.355  1.00  0.00     0.164 HD
HETATM   24  C11 UNL     1      70.674  33.026  -0.683  1.00  0.00     0.025 A 
ENDBRANCH  17  18
ENDBRANCH  15  17
ENDBRANCH  12  15
BRANCH  14  25
HETATM   25  C14 UNL     1      72.383  35.297  -2.986  1.00  0.00     0.013 C 
HETATM   26  C15 UNL     1      71.113  34.933  -3.784  1.00  0.00     0.015 C 
HETATM   27  C16 UNL     1      72.301  36.737  -2.644  1.00  0.00     0.015 C 
ENDBRANCH  14  25
TORSDOF 4
ENDMDL
MODEL 5
REMARK VINA RESULT: -6.641068688      2.716      5.249
REMARK  4 active torsions:
REMARK  status: ('A' for Active; 'I' for Inactive)
REMARK    1  A    between atoms: C5_12  and  N4_13 
REMARK    2  A    between atoms: N4_13  and  C6_15 
REMARK    3  A    between atoms: C6_15  and  C7_16 
REMARK    4  A    between atoms: C13_24  and  C14_25 
ROOT
HETATM    1  C1  UNL     1      76.653  31.765  -0.714  1.00  0.00     0.068 C 
HETATM    2  C2  UNL     1      75.173  31.869  -0.847  1.00  0.00     0.014 A 
HETATM    3  N1  UNL     1      74.359  31.172  -0.036  1.00  0.00    -0.345 N 
ATOM      4  H1  UNL     1      74.652  30.551   0.718  1.00  0.00     0.167 HD
HETATM    5  C3  UNL     1      73.103  31.435  -0.392  1.00  0.00     0.122 A 
HETATM    6  N2  UNL     1      71.910  31.038   0.103  1.00  0.00    -0.318 N 
ATOM      7  H2  UNL     1      71.890  30.382   0.884  1.00  0.00     0.170 HD
HETATM    8  C4  UNL     1      70.759  31.480  -0.401  1.00  0.00     0.182 A 
HETATM    9 CL1  UNL     1      69.274  30.886   0.285  1.00  0.00    -0.045 Cl
HETATM   10  N3  UNL     1      70.715  32.350  -1.429  1.00  0.00    -0.318 N 
ATOM     11  H3  UNL     1      69.823  32.681  -1.798  1.00  0.00     0.170 HD
HETATM   12  C5  UNL     1      71.896  32.775  -1.964  1.00  0.00     0.118 A 
HETATM   13  C12 UNL     1      73.096  32.336  -1.477  1.00  0.00     0.060 A 
HETATM   14  C13 UNL     1      74.453  32.601  -1.758  1.00  0.00    -0.015 A 
ENDROOT
BRANCH  12  15
HETATM   15  N4  UNL     1      71.872  33.699  -2.891  1.00  0.00    -0.371 N 
ATOM     16  H4  UNL     1      72.284  33.484  -3.798  1.00  0.00     0.161 HD
BRANCH  15  17
HETATM   17  C6  UNL     1      71.296  34.999  -2.697  1.00  0.00     0.160 C 
BRANCH  17  18
HETATM   18  C7  UNL     1      72.219  36.022  -2.185  1.00  0.00    -0.038 A 
HETATM   19  C8  UNL     1      72.687  37.055  -2.997  1.00  0.00     0.025 A 
HETATM   20  C9  UNL     1      73.594  37.973  -2.527  1.00  0.00     0.088 A 
HETATM   21  N5  UNL     1      74.042  37.874  -1.251  1.00  0.00    -0.375 N 
HETATM   22  C10 UNL     1      73.629  36.906  -0.417  1.00  0.00     0.088 A 
ATOM     23  H5  UNL     1      74.716  38.560  -0.911  1.00  0.00     0.164 HD
HETATM   24  C11 UNL     1      72.721  35.996  -0.908  1.00  0.00     0.025 A 
ENDBRANCH  17  18
ENDBRANCH  15  17
ENDBRANCH  12  15
BRANCH  14  25
HETATM   25  C14 UNL     1      74.979  33.545  -2.708  1.00  0.00     0.013 C 
HETATM   26  C15 UNL     1      75.667  32.818  -3.882  1.00  0.00     0.015 C 
HETATM   27  C16 UNL     1      75.894  34.617  -2.247  1.00  0.00     0.015 C 
ENDBRANCH  14  25
TORSDOF 4
ENDMDL
