MODEL 1
REMARK VINA RESULT: -6.298204924      0.000      0.000
REMARK  5 active torsions:
REMARK  status: ('A' for Active; 'I' for Inactive)
REMARK    1  A    between atoms: C5_5  and  C6_6 
REMARK    2  A    between atoms: C6_6  and  C7_7 
REMARK    3  A    between atoms: C7_7  and  O1_8 
REMARK    4  A    between atoms: C10_12  and  C11_13 
REMARK    5  A    between atoms: C11_13  and  O2_14 
ROOT
HETATM    1  C1  UNL     1      67.466  29.956  -0.397  1.00  0.00     0.017 C 
HETATM    2  C2  UNL     1      68.566  30.445  -0.474  1.00  0.00    -0.083 C 
HETATM    3  C3  UNL     1      69.870  31.029  -0.545  1.00  0.00    -0.013 C 
HETATM    4  C4  UNL     1      70.693  31.120   0.680  1.00  0.00     0.057 C 
HETATM    5  C5  UNL     1      70.329  31.478  -1.688  1.00  0.00    -0.008 C 
ENDROOT
BRANCH   5   6
HETATM    6  C6  UNL     1      71.655  32.072  -1.761  1.00  0.00     0.071 C 
BRANCH   6   7
HETATM    7  C7  UNL     1      71.695  33.484  -2.221  1.00  0.00     0.089 C 
HETATM    8  C8  UNL     1      72.330  33.661  -3.570  1.00  0.00     0.044 C 
HETATM    9  C9  UNL     1      72.630  35.074  -3.927  1.00  0.00     0.015 C 
HETATM   10  C10 UNL     1      72.096  36.092  -2.950  1.00  0.00     0.050 C 
HETATM   11  C12 UNL     1      72.571  35.647  -1.586  1.00  0.00    -0.001 A 
HETATM   12  S1  UNL     1      73.355  36.361  -0.256  1.00  0.00    -0.086 SA
HETATM   13  C15 UNL     1      72.389  34.352  -1.189  1.00  0.00    -0.008 A 
HETATM   14  C13 UNL     1      73.434  35.008   0.774  1.00  0.00     0.052 A 
HETATM   15 BR1  UNL     1      74.169  34.840   2.545  1.00  0.00    -0.043 Br
HETATM   16  C14 UNL     1      72.836  34.017   0.036  1.00  0.00     0.038 A 
BRANCH   7  17
HETATM   17  O1  UNL     1      70.381  33.953  -2.290  1.00  0.00    -0.385 OA
ATOM     18  H1  UNL     1      70.085  33.867  -3.189  1.00  0.00     0.211 HD
ENDBRANCH   7  17
BRANCH  10  19
HETATM   19  C11 UNL     1      72.767  37.414  -3.269  1.00  0.00     0.173 C 
BRANCH  19  20
HETATM   20  O2  UNL     1      71.879  38.324  -3.838  1.00  0.00    -0.400 OA
ATOM     21  H2  UNL     1      71.783  38.187  -4.774  1.00  0.00     0.209 HD
ENDBRANCH  19  20
ENDBRANCH  10  19
ENDBRANCH   6   7
ENDBRANCH   5   6
TORSDOF 5
ENDMDL
MODEL 2
REMARK VINA RESULT: -6.295090833      2.416      2.661
REMARK  5 active torsions:
REMARK  status: ('A' for Active; 'I' for Inactive)
REMARK    1  A    between atoms: C5_5  and  C6_6 
REMARK    2  A    between atoms: C6_6  and  C7_7 
REMARK    3  A    between atoms: C7_7  and  O1_8 
REMARK    4  A    between atoms: C10_12  and  C11_13 
REMARK    5  A    between atoms: C11_13  and  O2_14 
ROOT
HETATM    1  C1  UNL     1      68.047  30.233  -0.348  1.00  0.00     0.017 C 
HETATM    2  C2  UNL     1      69.114  30.794  -0.338  1.00  0.00    -0.083 C 
HETATM    3  C3  UNL     1      70.390  31.442  -0.322  1.00  0.00    -0.013 C 
HETATM    4  C4  UNL     1      71.620  30.627  -0.408  1.00  0.00     0.057 C 
HETATM    5  C5  UNL     1      70.463  32.748  -0.230  1.00  0.00    -0.008 C 
ENDROOT
BRANCH   5   6
HETATM    6  C6  UNL     1      71.760  33.408  -0.213  1.00  0.00     0.071 C 
BRANCH   6   7
HETATM    7  C7  UNL     1      72.022  34.324  -1.353  1.00  0.00     0.089 C 
HETATM    8  C8  UNL     1      70.872  34.440  -2.310  1.00  0.00     0.044 C 
HETATM    9  C9  UNL     1      71.204  35.123  -3.590  1.00  0.00     0.015 C 
HETATM   10  C10 UNL     1      72.587  35.725  -3.636  1.00  0.00     0.050 C 
HETATM   11  C12 UNL     1      73.533  34.623  -3.218  1.00  0.00    -0.001 A 
HETATM   12  S1  UNL     1      74.974  33.940  -3.810  1.00  0.00    -0.086 SA
HETATM   13  C15 UNL     1      73.282  33.902  -2.084  1.00  0.00    -0.008 A 
HETATM   14  C13 UNL     1      75.229  32.758  -2.612  1.00  0.00     0.052 A 
HETATM   15 BR1  UNL     1      76.643  31.465  -2.428  1.00  0.00    -0.043 Br
HETATM   16  C14 UNL     1      74.162  32.933  -1.767  1.00  0.00     0.038 A 
BRANCH   7  17
HETATM   17  O1  UNL     1      72.291  35.593  -0.835  1.00  0.00    -0.385 OA
ATOM     18  H1  UNL     1      72.036  36.236  -1.486  1.00  0.00     0.211 HD
ENDBRANCH   7  17
BRANCH  10  19
HETATM   19  C11 UNL     1      72.878  36.066  -5.084  1.00  0.00     0.173 C 
BRANCH  19  20
HETATM   20  O2  UNL     1      71.980  37.003  -5.589  1.00  0.00    -0.400 OA
ATOM     21  H2  UNL     1      72.421  37.688  -6.078  1.00  0.00     0.209 HD
ENDBRANCH  19  20
ENDBRANCH  10  19
ENDBRANCH   6   7
ENDBRANCH   5   6
TORSDOF 5
ENDMDL
MODEL 3
REMARK VINA RESULT: -6.257155807      2.608      2.952
REMARK  5 active torsions:
REMARK  status: ('A' for Active; 'I' for Inactive)
REMARK    1  A    between atoms: C5_5  and  C6_6 
REMARK    2  A    between atoms: C6_6  and  C7_7 
REMARK    3  A    between atoms: C7_7  and  O1_8 
REMARK    4  A    between atoms: C10_12  and  C11_13 
REMARK    5  A    between atoms: C11_13  and  O2_14 
ROOT
HETATM    1  C1  UNL     1      67.974  30.322  -0.456  1.00  0.00     0.017 C 
HETATM    2  C2  UNL     1      68.993  30.956  -0.332  1.00  0.00    -0.083 C 
HETATM    3  C3  UNL     1      70.208  31.694  -0.171  1.00  0.00    -0.013 C 
HETATM    4  C4  UNL     1      71.355  31.064   0.517  1.00  0.00     0.057 C 
HETATM    5  C5  UNL     1      70.299  32.919  -0.630  1.00  0.00    -0.008 C 
ENDROOT
BRANCH   5   6
HETATM    6  C6  UNL     1      71.534  33.671  -0.465  1.00  0.00     0.071 C 
BRANCH   6   7
HETATM    7  C7  UNL     1      72.154  34.158  -1.724  1.00  0.00     0.089 C 
HETATM    8  C8  UNL     1      71.256  34.044  -2.921  1.00  0.00     0.044 C 
HETATM    9  C9  UNL     1      71.939  34.262  -4.226  1.00  0.00     0.015 C 
HETATM   10  C10 UNL     1      73.372  34.722  -4.110  1.00  0.00     0.050 C 
HETATM   11  C12 UNL     1      74.046  33.746  -3.174  1.00  0.00    -0.001 A 
HETATM   12  S1  UNL     1      75.468  32.813  -3.174  1.00  0.00    -0.086 SA
HETATM   13  C15 UNL     1      73.466  33.440  -1.974  1.00  0.00    -0.008 A 
HETATM   14  C13 UNL     1      75.300  32.057  -1.658  1.00  0.00     0.052 A 
HETATM   15 BR1  UNL     1      76.448  30.794  -0.769  1.00  0.00    -0.043 Br
HETATM   16  C14 UNL     1      74.116  32.563  -1.185  1.00  0.00     0.038 A 
BRANCH   7  17
HETATM   17  O1  UNL     1      72.484  35.504  -1.551  1.00  0.00    -0.385 OA
ATOM     18  H1  UNL     1      71.679  36.009  -1.564  1.00  0.00     0.211 HD
ENDBRANCH   7  17
BRANCH  10  19
HETATM   19  C11 UNL     1      74.003  34.565  -5.480  1.00  0.00     0.173 C 
BRANCH  19  20
HETATM   20  O2  UNL     1      73.690  33.338  -6.060  1.00  0.00    -0.400 OA
ATOM     21  H2  UNL     1      72.932  32.935  -5.651  1.00  0.00     0.209 HD
ENDBRANCH  19  20
ENDBRANCH  10  19
ENDBRANCH   6   7
ENDBRANCH   5   6
TORSDOF 5
ENDMDL
MODEL 4
REMARK VINA RESULT: -6.171119041      1.306      1.455
REMARK  5 active torsions:
REMARK  status: ('A' for Active; 'I' for Inactive)
REMARK    1  A    between atoms: C5_5  and  C6_6 
REMARK    2  A    between atoms: C6_6  and  C7_7 
REMARK    3  A    between atoms: C7_7  and  O1_8 
REMARK    4  A    between atoms: C10_12  and  C11_13 
REMARK    5  A    between atoms: C11_13  and  O2_14 
ROOT
HETATM    1  C1  UNL     1      66.695  29.874  -0.414  1.00  0.00     0.017 C 
HETATM    2  C2  UNL     1      67.808  30.337  -0.445  1.00  0.00    -0.083 C 
HETATM    3  C3  UNL     1      69.136  30.868  -0.480  1.00  0.00    -0.013 C 
HETATM    4  C4  UNL     1      70.275  29.958  -0.726  1.00  0.00     0.057 C 
HETATM    5  C5  UNL     1      69.338  32.150  -0.293  1.00  0.00    -0.008 C 
ENDROOT
BRANCH   5   6
HETATM    6  C6  UNL     1      70.689  32.690  -0.327  1.00  0.00     0.071 C 
BRANCH   6   7
HETATM    7  C7  UNL     1      71.020  33.496  -1.529  1.00  0.00     0.089 C 
HETATM    8  C8  UNL     1      71.625  32.695  -2.645  1.00  0.00     0.044 C 
HETATM    9  C9  UNL     1      72.215  33.513  -3.740  1.00  0.00     0.015 C 
HETATM   10  C10 UNL     1      71.957  34.995  -3.620  1.00  0.00     0.050 C 
HETATM   11  C12 UNL     1      72.376  35.377  -2.220  1.00  0.00    -0.001 A 
HETATM   12  S1  UNL     1      73.349  36.574  -1.503  1.00  0.00    -0.086 SA
HETATM   13  C15 UNL     1      71.928  34.651  -1.151  1.00  0.00    -0.008 A 
HETATM   14  C13 UNL     1      73.169  36.132   0.130  1.00  0.00     0.052 A 
HETATM   15 BR1  UNL     1      73.918  36.922   1.718  1.00  0.00    -0.043 Br
HETATM   16  C14 UNL     1      72.339  35.041   0.070  1.00  0.00     0.038 A 
BRANCH   7  17
HETATM   17  O1  UNL     1      69.840  34.079  -1.997  1.00  0.00    -0.385 OA
ATOM     18  H1  UNL     1      69.444  33.480  -2.619  1.00  0.00     0.211 HD
ENDBRANCH   7  17
BRANCH  10  19
HETATM   19  C11 UNL     1      72.890  35.691  -4.592  1.00  0.00     0.173 C 
BRANCH  19  20
HETATM   20  O2  UNL     1      72.236  36.681  -5.322  1.00  0.00    -0.400 OA
ATOM     21  H2  UNL     1      72.616  37.539  -5.176  1.00  0.00     0.209 HD
ENDBRANCH  19  20
ENDBRANCH  10  19
ENDBRANCH   6   7
ENDBRANCH   5   6
TORSDOF 5
ENDMDL
MODEL 5
REMARK VINA RESULT: -6.062757527      3.580      4.068
REMARK  5 active torsions:
REMARK  status: ('A' for Active; 'I' for Inactive)
REMARK    1  A    between atoms: C5_5  and  C6_6 
REMARK    2  A    between atoms: C6_6  and  C7_7 
REMARK    3  A    between atoms: C7_7  and  O1_8 
REMARK    4  A    between atoms: C10_12  and  C11_13 
REMARK    5  A    between atoms: C11_13  and  O2_14 
ROOT
HETATM    1  C1  UNL     1      69.146  30.261  -1.230  1.00  0.00     0.017 C 
HETATM    2  C2  UNL     1      70.210  30.828  -1.183  1.00  0.00    -0.083 C 
HETATM    3  C3  UNL     1      71.477  31.488  -1.111  1.00  0.00    -0.013 C 
HETATM    4  C4  UNL     1      72.580  30.862  -0.352  1.00  0.00     0.057 C 
HETATM    5  C5  UNL     1      71.655  32.639  -1.715  1.00  0.00    -0.008 C 
ENDROOT
BRANCH   5   6
HETATM    6  C6  UNL     1      72.943  33.311  -1.642  1.00  0.00     0.071 C 
BRANCH   6   7
HETATM    7  C7  UNL     1      73.529  33.705  -2.948  1.00  0.00     0.089 C 
HETATM    8  C8  UNL     1      72.586  33.545  -4.105  1.00  0.00     0.044 C 
HETATM    9  C9  UNL     1      73.227  33.666  -5.442  1.00  0.00     0.015 C 
HETATM   10  C10 UNL     1      74.675  34.091  -5.404  1.00  0.00     0.050 C 
HETATM   11  C12 UNL     1      75.357  33.155  -4.434  1.00  0.00    -0.001 A 
HETATM   12  S1  UNL     1      76.754  32.185  -4.427  1.00  0.00    -0.086 SA
HETATM   13  C15 UNL     1      74.813  32.938  -3.199  1.00  0.00    -0.008 A 
HETATM   14  C13 UNL     1      76.621  31.525  -2.863  1.00  0.00     0.052 A 
HETATM   15 BR1  UNL     1      77.768  30.286  -1.939  1.00  0.00    -0.043 Br
HETATM   16  C14 UNL     1      75.468  32.091  -2.381  1.00  0.00     0.038 A 
BRANCH   7  17
HETATM   17  O1  UNL     1      73.900  35.049  -2.868  1.00  0.00    -0.385 OA
ATOM     18  H1  UNL     1      73.109  35.567  -2.768  1.00  0.00     0.211 HD
ENDBRANCH   7  17
BRANCH  10  19
HETATM   19  C11 UNL     1      75.252  33.836  -6.783  1.00  0.00     0.173 C 
BRANCH  19  20
HETATM   20  O2  UNL     1      75.201  34.972  -7.587  1.00  0.00    -0.400 OA
ATOM     21  H2  UNL     1      74.443  35.510  -7.393  1.00  0.00     0.209 HD
ENDBRANCH  19  20
ENDBRANCH  10  19
ENDBRANCH   6   7
ENDBRANCH   5   6
TORSDOF 5
ENDMDL
