MODEL 1
REMARK VINA RESULT: -6.093164507      0.000      0.000
REMARK  3 active torsions:
REMARK  status: ('A' for Active; 'I' for Inactive)
REMARK    1  A    between atoms: C6_6  and  N1_7 
REMARK    2  A    between atoms: N1_7  and  C7_9 
REMARK    3  A    between atoms: C7_9  and  C8_10 
ROOT
HETATM    1  C1  UNL     1      68.708  31.753  -0.060  1.00  0.00     0.037 C 
HETATM    2  C2  UNL     1      70.135  31.677  -0.662  1.00  0.00     0.019 C 
HETATM    3  C3  UNL     1      70.058  30.443  -1.568  1.00  0.00     0.037 C 
HETATM    4  C4  UNL     1      70.997  31.323   0.489  1.00  0.00     0.032 C 
HETATM    5  C5  UNL     1      72.448  31.578   0.332  1.00  0.00     0.027 C 
HETATM    6  C6  UNL     1      72.688  33.054   0.501  1.00  0.00     0.079 C 
HETATM    7  C12 UNL     1      72.469  33.905  -0.666  1.00  0.00     0.054 C 
HETATM    8  C13 UNL     1      71.506  33.426  -1.715  1.00  0.00     0.021 C 
HETATM    9  C14 UNL     1      71.100  34.758  -2.407  1.00  0.00     0.037 C 
HETATM   10  C15 UNL     1      72.237  32.673  -2.825  1.00  0.00     0.037 C 
HETATM   11  N2  UNL     1      70.309  32.883  -1.298  1.00  0.00    -0.405 N 
ATOM     12  H2  UNL     1      69.469  33.431  -1.480  1.00  0.00     0.154 HD
ENDROOT
BRANCH   6  13
HETATM   13  N1  UNL     1      73.982  33.249   1.087  1.00  0.00    -0.413 N 
ATOM     14  H1  UNL     1      74.391  32.575   1.733  1.00  0.00     0.153 HD
BRANCH  13  15
HETATM   15  C7  UNL     1      74.661  34.446   0.711  1.00  0.00     0.153 C 
BRANCH  15  16
HETATM   16  C8  UNL     1      74.403  35.427   1.849  1.00  0.00    -0.033 A 
HETATM   17  C9  UNL     1      74.767  35.105   3.132  1.00  0.00     0.059 A 
HETATM   18  S1  UNL     1      74.291  36.476   4.023  1.00  0.00    -0.094 SA
HETATM   19  C10 UNL     1      73.646  37.417   2.763  1.00  0.00     0.051 A 
HETATM   20 BR1  UNL     1      72.851  39.175   2.826  1.00  0.00    -0.043 Br
HETATM   21  C11 UNL     1      73.822  36.625   1.660  1.00  0.00     0.036 A 
ENDBRANCH  15  16
ENDBRANCH  13  15
ENDBRANCH   6  13
TORSDOF 3
ENDMDL
MODEL 2
REMARK VINA RESULT: -6.075769460      4.721      7.250
REMARK  3 active torsions:
REMARK  status: ('A' for Active; 'I' for Inactive)
REMARK    1  A    between atoms: C6_6  and  N1_7 
REMARK    2  A    between atoms: N1_7  and  C7_9 
REMARK    3  A    between atoms: C7_9  and  C8_10 
ROOT
HETATM    1  C1  UNL     1      74.793  31.425  -0.469  1.00  0.00     0.037 C 
HETATM    2  C2  UNL     1      73.383  32.029  -0.234  1.00  0.00     0.019 C 
HETATM    3  C3  UNL     1      73.676  33.235   0.665  1.00  0.00     0.037 C 
HETATM    4  C4  UNL     1      72.689  31.019   0.597  1.00  0.00     0.032 C 
HETATM    5  C5  UNL     1      71.210  31.106   0.646  1.00  0.00     0.027 C 
HETATM    6  C6  UNL     1      70.664  30.544  -0.639  1.00  0.00     0.079 C 
HETATM    7  C12 UNL     1      70.623  31.436  -1.795  1.00  0.00     0.054 C 
HETATM    8  C13 UNL     1      71.604  32.572  -1.841  1.00  0.00     0.021 C 
HETATM    9  C14 UNL     1      71.667  32.877  -3.365  1.00  0.00     0.037 C 
HETATM   10  C15 UNL     1      70.992  33.848  -1.264  1.00  0.00     0.037 C 
HETATM   11  N2  UNL     1      72.913  32.315  -1.493  1.00  0.00    -0.405 N 
ATOM     12  H2  UNL     1      73.601  32.339  -2.246  1.00  0.00     0.154 HD
ENDROOT
BRANCH   6  13
HETATM   13  N1  UNL     1      69.395  29.931  -0.374  1.00  0.00    -0.413 N 
ATOM     14  H1  UNL     1      69.317  28.968  -0.047  1.00  0.00     0.153 HD
BRANCH  13  15
HETATM   15  C7  UNL     1      68.249  30.751  -0.596  1.00  0.00     0.153 C 
BRANCH  15  16
HETATM   16  C8  UNL     1      67.061  29.909  -0.144  1.00  0.00    -0.033 A 
HETATM   17  C9  UNL     1      66.272  29.277  -1.071  1.00  0.00     0.059 A 
HETATM   18  S1  UNL     1      65.111  28.482  -0.112  1.00  0.00    -0.094 SA
HETATM   19  C10 UNL     1      65.645  28.965   1.428  1.00  0.00     0.051 A 
HETATM   20 BR1  UNL     1      64.923  28.539   3.167  1.00  0.00    -0.043 Br
HETATM   21  C11 UNL     1      66.734  29.747   1.150  1.00  0.00     0.036 A 
ENDBRANCH  15  16
ENDBRANCH  13  15
ENDBRANCH   6  13
TORSDOF 3
ENDMDL
MODEL 3
REMARK VINA RESULT: -6.062504263      1.455      1.730
REMARK  3 active torsions:
REMARK  status: ('A' for Active; 'I' for Inactive)
REMARK    1  A    between atoms: C6_6  and  N1_7 
REMARK    2  A    between atoms: N1_7  and  C7_9 
REMARK    3  A    between atoms: C7_9  and  C8_10 
ROOT
HETATM    1  C1  UNL     1      68.711  31.685  -0.056  1.00  0.00     0.037 C 
HETATM    2  C2  UNL     1      70.140  31.667  -0.658  1.00  0.00     0.019 C 
HETATM    3  C3  UNL     1      70.118  30.422  -1.553  1.00  0.00     0.037 C 
HETATM    4  C4  UNL     1      71.018  31.362   0.495  1.00  0.00     0.032 C 
HETATM    5  C5  UNL     1      72.456  31.680   0.335  1.00  0.00     0.027 C 
HETATM    6  C6  UNL     1      72.630  33.167   0.489  1.00  0.00     0.079 C 
HETATM    7  C12 UNL     1      72.373  33.996  -0.686  1.00  0.00     0.054 C 
HETATM    8  C13 UNL     1      71.432  33.464  -1.728  1.00  0.00     0.021 C 
HETATM    9  C14 UNL     1      70.968  34.771  -2.433  1.00  0.00     0.037 C 
HETATM   10  C15 UNL     1      72.195  32.735  -2.833  1.00  0.00     0.037 C 
HETATM   11  N2  UNL     1      70.261  32.873  -1.306  1.00  0.00    -0.405 N 
ATOM     12  H2  UNL     1      69.397  33.382  -1.493  1.00  0.00     0.154 HD
ENDROOT
BRANCH   6  13
HETATM   13  N1  UNL     1      73.914  33.424   1.073  1.00  0.00    -0.413 N 
ATOM     14  H1  UNL     1      74.410  32.723   1.623  1.00  0.00     0.153 HD
BRANCH  13  15
HETATM   15  C7  UNL     1      74.456  34.722   0.836  1.00  0.00     0.153 C 
BRANCH  15  16
HETATM   16  C8  UNL     1      74.497  35.394   2.204  1.00  0.00    -0.033 A 
HETATM   17  C9  UNL     1      74.128  36.709   2.336  1.00  0.00     0.059 A 
HETATM   18  S1  UNL     1      74.333  37.001   4.002  1.00  0.00    -0.094 SA
HETATM   19  C10 UNL     1      74.878  35.466   4.488  1.00  0.00     0.051 A 
HETATM   20 BR1  UNL     1      75.374  34.839   6.245  1.00  0.00    -0.043 Br
HETATM   21  C11 UNL     1      74.886  34.753   3.319  1.00  0.00     0.036 A 
ENDBRANCH  15  16
ENDBRANCH  13  15
ENDBRANCH   6  13
TORSDOF 3
ENDMDL
MODEL 4
REMARK VINA RESULT: -6.010113646      1.496      1.604
REMARK  3 active torsions:
REMARK  status: ('A' for Active; 'I' for Inactive)
REMARK    1  A    between atoms: C6_6  and  N1_7 
REMARK    2  A    between atoms: N1_7  and  C7_9 
REMARK    3  A    between atoms: C7_9  and  C8_10 
ROOT
HETATM    1  C1  UNL     1      68.811  31.794  -0.004  1.00  0.00     0.037 C 
HETATM    2  C2  UNL     1      70.215  31.704  -0.656  1.00  0.00     0.019 C 
HETATM    3  C3  UNL     1      70.087  30.484  -1.575  1.00  0.00     0.037 C 
HETATM    4  C4  UNL     1      71.110  31.322   0.460  1.00  0.00     0.032 C 
HETATM    5  C5  UNL     1      72.559  31.556   0.256  1.00  0.00     0.027 C 
HETATM    6  C6  UNL     1      72.829  33.026   0.435  1.00  0.00     0.079 C 
HETATM    7  C12 UNL     1      72.583  33.896  -0.713  1.00  0.00     0.054 C 
HETATM    8  C13 UNL     1      71.577  33.445  -1.733  1.00  0.00     0.021 C 
HETATM    9  C14 UNL     1      71.169  34.792  -2.394  1.00  0.00     0.037 C 
HETATM   10  C15 UNL     1      72.257  32.696  -2.878  1.00  0.00     0.037 C 
HETATM   11  N2  UNL     1      70.387  32.915  -1.282  1.00  0.00    -0.405 N 
ATOM     12  H2  UNL     1      69.549  33.479  -1.428  1.00  0.00     0.154 HD
ENDROOT
BRANCH   6  13
HETATM   13  N1  UNL     1      74.145  33.192   0.978  1.00  0.00    -0.413 N 
ATOM     14  H1  UNL     1      74.579  32.487   1.572  1.00  0.00     0.153 HD
BRANCH  13  15
HETATM   15  C7  UNL     1      74.809  34.408   0.637  1.00  0.00     0.153 C 
BRANCH  15  16
HETATM   16  C8  UNL     1      75.371  34.940   1.950  1.00  0.00    -0.033 A 
HETATM   17  C9  UNL     1      76.695  35.287   2.043  1.00  0.00     0.059 A 
HETATM   18  S1  UNL     1      76.843  35.812   3.657  1.00  0.00    -0.094 SA
HETATM   19  C10 UNL     1      75.240  35.581   4.173  1.00  0.00     0.051 A 
HETATM   20 BR1  UNL     1      74.447  35.913   5.902  1.00  0.00    -0.043 Br
HETATM   21  C11 UNL     1      74.619  35.092   3.055  1.00  0.00     0.036 A 
ENDBRANCH  15  16
ENDBRANCH  13  15
ENDBRANCH   6  13
TORSDOF 3
ENDMDL
MODEL 5
REMARK VINA RESULT: -5.990198969      5.060      7.697
REMARK  3 active torsions:
REMARK  status: ('A' for Active; 'I' for Inactive)
REMARK    1  A    between atoms: C6_6  and  N1_7 
REMARK    2  A    between atoms: N1_7  and  C7_9 
REMARK    3  A    between atoms: C7_9  and  C8_10 
ROOT
HETATM    1  C1  UNL     1      71.823  34.932   0.285  1.00  0.00     0.037 C 
HETATM    2  C2  UNL     1      71.209  33.794  -0.572  1.00  0.00     0.019 C 
HETATM    3  C3  UNL     1      71.256  34.373  -1.991  1.00  0.00     0.037 C 
HETATM    4  C4  UNL     1      69.787  33.755  -0.160  1.00  0.00     0.032 C 
HETATM    5  C5  UNL     1      69.036  32.521  -0.489  1.00  0.00     0.027 C 
HETATM    6  C6  UNL     1      69.435  31.452   0.493  1.00  0.00     0.079 C 
HETATM    7  C12 UNL     1      70.664  30.713   0.214  1.00  0.00     0.054 C 
HETATM    8  C13 UNL     1      71.719  31.389  -0.614  1.00  0.00     0.021 C 
HETATM    9  C14 UNL     1      72.999  30.613  -0.194  1.00  0.00     0.037 C 
HETATM   10  C15 UNL     1      71.570  31.028  -2.091  1.00  0.00     0.037 C 
HETATM   11  N2  UNL     1      72.016  32.707  -0.337  1.00  0.00    -0.405 N 
ATOM     12  H2  UNL     1      72.926  32.893   0.084  1.00  0.00     0.154 HD
ENDROOT
BRANCH   6  13
HETATM   13  N1  UNL     1      68.313  30.588   0.717  1.00  0.00    -0.413 N 
ATOM     14  H1  UNL     1      68.091  30.217   1.641  1.00  0.00     0.153 HD
BRANCH  13  15
HETATM   15  C7  UNL     1      67.527  30.279  -0.432  1.00  0.00     0.153 C 
BRANCH  15  16
HETATM   16  C8  UNL     1      66.365  29.442   0.092  1.00  0.00    -0.033 A 
HETATM   17  C9  UNL     1      65.590  28.717  -0.778  1.00  0.00     0.059 A 
HETATM   18  S1  UNL     1      64.456  27.968   0.248  1.00  0.00    -0.094 SA
HETATM   19  C10 UNL     1      64.982  28.585   1.742  1.00  0.00     0.051 A 
HETATM   20 BR1  UNL     1      64.279  28.276   3.513  1.00  0.00    -0.043 Br
HETATM   21  C11 UNL     1      66.048  29.372   1.397  1.00  0.00     0.036 A 
ENDBRANCH  15  16
ENDBRANCH  13  15
ENDBRANCH   6  13
TORSDOF 3
ENDMDL
