MODEL 1
REMARK VINA RESULT: -6.443867165      0.000      0.000
REMARK  4 active torsions:
REMARK  status: ('A' for Active; 'I' for Inactive)
REMARK    1  A    between atoms: C2_2  and  C3_3 
REMARK    2  A    between atoms: C5_5  and  C6_6 
REMARK    3  A    between atoms: C10_18  and  N5_19 
REMARK    4  A    between atoms: N5_19  and  C11_21 
ROOT
HETATM    1  C6  UNL     1      74.179  32.042  -1.326  1.00  0.00     0.076 A 
HETATM    2  N1  UNL     1      74.766  31.483  -0.200  1.00  0.00    -0.297 N 
ATOM      3  H1  UNL     1      75.765  31.415  -0.003  1.00  0.00     0.187 HD
HETATM    4  N2  UNL     1      73.800  31.063   0.553  1.00  0.00    -0.284 N 
ATOM      5  H2  UNL     1      73.945  30.604   1.452  1.00  0.00     0.188 HD
HETATM    6  C7  UNL     1      72.607  31.294   0.034  1.00  0.00     0.137 A 
HETATM    7  N3  UNL     1      71.362  31.042   0.499  1.00  0.00    -0.330 N 
ATOM      8  H3  UNL     1      71.211  30.572   1.392  1.00  0.00     0.168 HD
HETATM    9  C8  UNL     1      70.335  31.440  -0.269  1.00  0.00     0.080 A 
HETATM   10  C9  UNL     1      68.967  31.155   0.259  1.00  0.00     0.089 C 
HETATM   11  N4  UNL     1      70.512  32.056  -1.437  1.00  0.00    -0.332 N 
ATOM     12  H4  UNL     1      69.691  32.336  -1.974  1.00  0.00     0.168 HD
HETATM   13  C10 UNL     1      71.756  32.328  -1.943  1.00  0.00     0.119 A 
HETATM   14  C14 UNL     1      72.824  31.934  -1.194  1.00  0.00     0.082 A 
ENDROOT
BRANCH   1  15
HETATM   15  C5  UNL     1      75.043  32.647  -2.329  1.00  0.00    -0.006 A 
HETATM   16  C4  UNL     1      75.599  32.059  -3.404  1.00  0.00     0.022 A 
HETATM   17  C3  UNL     1      76.347  32.728  -4.369  1.00  0.00    -0.035 A 
HETATM   18  C18 UNL     1      76.551  34.073  -4.239  1.00  0.00     0.046 A 
HETATM   19  C16 UNL     1      76.008  34.746  -3.148  1.00  0.00    -0.039 A 
HETATM   20 CL1  UNL     1      77.471  34.995  -5.390  1.00  0.00    -0.083 Cl
HETATM   21  C15 UNL     1      75.284  34.044  -2.236  1.00  0.00     0.022 A 
HETATM   22  C17 UNL     1      76.233  36.208  -3.007  1.00  0.00     0.050 C 
BRANCH  17  23
HETATM   23  C2  UNL     1      76.907  31.978  -5.510  1.00  0.00     0.036 C 
HETATM   24  C1  UNL     1      76.884  30.477  -5.271  1.00  0.00     0.010 C 
ENDBRANCH  17  23
ENDBRANCH   1  15
BRANCH  13  25
HETATM   25  N5  UNL     1      71.887  32.970  -3.021  1.00  0.00    -0.371 N 
ATOM     26  H5  UNL     1      72.251  32.428  -3.806  1.00  0.00     0.161 HD
BRANCH  25  27
HETATM   27  C11 UNL     1      71.608  34.330  -3.308  1.00  0.00     0.075 C 
HETATM   28  C12 UNL     1      71.879  35.272  -2.173  1.00  0.00     0.031 C 
HETATM   29  C13 UNL     1      72.397  34.838  -4.516  1.00  0.00     0.031 C 
ENDBRANCH  25  27
ENDBRANCH  13  25
TORSDOF 4
ENDMDL
MODEL 2
REMARK VINA RESULT: -6.382452885      3.264      6.517
REMARK  4 active torsions:
REMARK  status: ('A' for Active; 'I' for Inactive)
REMARK    1  A    between atoms: C2_2  and  C3_3 
REMARK    2  A    between atoms: C5_5  and  C6_6 
REMARK    3  A    between atoms: C10_18  and  N5_19 
REMARK    4  A    between atoms: N5_19  and  C11_21 
ROOT
HETATM    1  C6  UNL     1      72.341  35.314  -3.429  1.00  0.00     0.076 A 
HETATM    2  N1  UNL     1      71.660  36.515  -3.282  1.00  0.00    -0.297 N 
ATOM      3  H1  UNL     1      71.024  36.766  -2.526  1.00  0.00     0.187 HD
HETATM    4  N2  UNL     1      71.990  37.255  -4.292  1.00  0.00    -0.284 N 
ATOM      5  H2  UNL     1      71.632  38.198  -4.440  1.00  0.00     0.188 HD
HETATM    6  C7  UNL     1      72.839  36.658  -5.109  1.00  0.00     0.137 A 
HETATM    7  N3  UNL     1      73.440  37.082  -6.244  1.00  0.00    -0.330 N 
ATOM      8  H3  UNL     1      73.253  38.006  -6.635  1.00  0.00     0.168 HD
HETATM    9  C8  UNL     1      74.296  36.231  -6.832  1.00  0.00     0.080 A 
HETATM   10  C9  UNL     1      74.952  36.715  -8.085  1.00  0.00     0.089 C 
HETATM   11  N4  UNL     1      74.556  35.021  -6.338  1.00  0.00    -0.332 N 
ATOM     12  H4  UNL     1      75.217  34.421  -6.830  1.00  0.00     0.168 HD
HETATM   13  C10 UNL     1      73.967  34.555  -5.193  1.00  0.00     0.119 A 
HETATM   14  C14 UNL     1      73.088  35.389  -4.569  1.00  0.00     0.082 A 
ENDROOT
BRANCH   1  15
HETATM   15  C5  UNL     1      72.192  34.304  -2.392  1.00  0.00    -0.006 A 
HETATM   16  C4  UNL     1      71.508  33.147  -2.456  1.00  0.00     0.022 A 
HETATM   17  C3  UNL     1      71.485  32.188  -1.446  1.00  0.00    -0.035 A 
HETATM   18  C18 UNL     1      72.193  32.411  -0.300  1.00  0.00     0.046 A 
HETATM   19  C16 UNL     1      72.922  33.590  -0.163  1.00  0.00    -0.039 A 
HETATM   20 CL1  UNL     1      72.226  31.276   1.016  1.00  0.00    -0.083 Cl
HETATM   21  C15 UNL     1      72.911  34.492  -1.181  1.00  0.00     0.022 A 
HETATM   22  C17 UNL     1      73.690  33.832   1.085  1.00  0.00     0.050 C 
BRANCH  17  23
HETATM   23  C2  UNL     1      70.699  30.953  -1.629  1.00  0.00     0.036 C 
HETATM   24  C1  UNL     1      69.340  31.037  -0.953  1.00  0.00     0.010 C 
ENDBRANCH  17  23
ENDBRANCH   1  15
BRANCH  13  25
HETATM   25  N5  UNL     1      74.283  33.430  -4.717  1.00  0.00    -0.371 N 
ATOM     26  H5  UNL     1      73.549  32.722  -4.756  1.00  0.00     0.161 HD
BRANCH  25  27
HETATM   27  C11 UNL     1      75.503  33.000  -4.135  1.00  0.00     0.075 C 
HETATM   28  C12 UNL     1      75.352  32.322  -2.807  1.00  0.00     0.031 C 
HETATM   29  C13 UNL     1      76.270  32.043  -5.048  1.00  0.00     0.031 C 
ENDBRANCH  25  27
ENDBRANCH  13  25
TORSDOF 4
ENDMDL
MODEL 3
REMARK VINA RESULT: -6.214147740      0.842      1.034
REMARK  4 active torsions:
REMARK  status: ('A' for Active; 'I' for Inactive)
REMARK    1  A    between atoms: C2_2  and  C3_3 
REMARK    2  A    between atoms: C5_5  and  C6_6 
REMARK    3  A    between atoms: C10_18  and  N5_19 
REMARK    4  A    between atoms: N5_19  and  C11_21 
ROOT
HETATM    1  C6  UNL     1      74.177  32.092  -1.375  1.00  0.00     0.076 A 
HETATM    2  N1  UNL     1      74.794  31.374  -0.360  1.00  0.00    -0.297 N 
ATOM      3  H1  UNL     1      75.797  31.281  -0.201  1.00  0.00     0.187 HD
HETATM    4  N2  UNL     1      73.848  30.844   0.347  1.00  0.00    -0.284 N 
ATOM      5  H2  UNL     1      74.016  30.255   1.163  1.00  0.00     0.188 HD
HETATM    6  C7  UNL     1      72.642  31.144  -0.102  1.00  0.00     0.137 A 
HETATM    7  N3  UNL     1      71.409  30.822   0.353  1.00  0.00    -0.330 N 
ATOM      8  H3  UNL     1      71.281  30.223   1.169  1.00  0.00     0.168 HD
HETATM    9  C8  UNL     1      70.363  31.326  -0.322  1.00  0.00     0.080 A 
HETATM   10  C9  UNL     1      69.008  30.960   0.194  1.00  0.00     0.089 C 
HETATM   11  N4  UNL     1      70.509  32.110  -1.388  1.00  0.00    -0.332 N 
ATOM     12  H4  UNL     1      69.675  32.463  -1.857  1.00  0.00     0.168 HD
HETATM   13  C10 UNL     1      71.739  32.458  -1.880  1.00  0.00     0.119 A 
HETATM   14  C14 UNL     1      72.827  31.961  -1.226  1.00  0.00     0.082 A 
ENDROOT
BRANCH   1  15
HETATM   15  C5  UNL     1      75.016  32.843  -2.299  1.00  0.00    -0.006 A 
HETATM   16  C4  UNL     1      75.185  32.635  -3.617  1.00  0.00     0.022 A 
HETATM   17  C3  UNL     1      75.941  33.452  -4.453  1.00  0.00    -0.035 A 
HETATM   18  C18 UNL     1      76.567  34.546  -3.926  1.00  0.00     0.046 A 
HETATM   19  C16 UNL     1      76.439  34.821  -2.567  1.00  0.00    -0.039 A 
HETATM   20 CL1  UNL     1      77.533  35.625  -4.887  1.00  0.00    -0.083 Cl
HETATM   21  C15 UNL     1      75.687  33.990  -1.796  1.00  0.00     0.022 A 
HETATM   22  C17 UNL     1      77.122  36.009  -1.995  1.00  0.00     0.050 C 
BRANCH  17  23
HETATM   23  C2  UNL     1      76.054  33.126  -5.888  1.00  0.00     0.036 C 
HETATM   24  C1  UNL     1      75.035  33.883  -6.726  1.00  0.00     0.010 C 
ENDBRANCH  17  23
ENDBRANCH   1  15
BRANCH  13  25
HETATM   25  N5  UNL     1      71.843  33.254  -2.854  1.00  0.00    -0.371 N 
ATOM     26  H5  UNL     1      72.184  32.835  -3.720  1.00  0.00     0.161 HD
BRANCH  25  27
HETATM   27  C11 UNL     1      71.559  34.641  -2.927  1.00  0.00     0.075 C 
HETATM   28  C12 UNL     1      72.164  35.457  -1.825  1.00  0.00     0.031 C 
HETATM   29  C13 UNL     1      72.020  35.254  -4.250  1.00  0.00     0.031 C 
ENDBRANCH  25  27
ENDBRANCH  13  25
TORSDOF 4
ENDMDL
MODEL 4
REMARK VINA RESULT: -6.204198936      0.435      2.240
REMARK  4 active torsions:
REMARK  status: ('A' for Active; 'I' for Inactive)
REMARK    1  A    between atoms: C2_2  and  C3_3 
REMARK    2  A    between atoms: C5_5  and  C6_6 
REMARK    3  A    between atoms: C10_18  and  N5_19 
REMARK    4  A    between atoms: N5_19  and  C11_21 
ROOT
HETATM    1  C6  UNL     1      74.173  32.171  -1.500  1.00  0.00     0.076 A 
HETATM    2  N1  UNL     1      74.829  31.524  -0.462  1.00  0.00    -0.297 N 
ATOM      3  H1  UNL     1      75.838  31.455  -0.328  1.00  0.00     0.187 HD
HETATM    4  N2  UNL     1      73.913  31.026   0.304  1.00  0.00    -0.284 N 
ATOM      5  H2  UNL     1      74.113  30.491   1.149  1.00  0.00     0.188 HD
HETATM    6  C7  UNL     1      72.689  31.282  -0.125  1.00  0.00     0.137 A 
HETATM    7  N3  UNL     1      71.476  30.972   0.385  1.00  0.00    -0.330 N 
ATOM      8  H3  UNL     1      71.380  30.423   1.239  1.00  0.00     0.168 HD
HETATM    9  C8  UNL     1      70.403  31.420  -0.287  1.00  0.00     0.080 A 
HETATM   10  C9  UNL     1      69.069  31.068   0.290  1.00  0.00     0.089 C 
HETATM   11  N4  UNL     1      70.506  32.138  -1.404  1.00  0.00    -0.332 N 
ATOM     12  H4  UNL     1      69.653  32.451  -1.868  1.00  0.00     0.168 HD
HETATM   13  C10 UNL     1      71.716  32.472  -1.953  1.00  0.00     0.119 A 
HETATM   14  C14 UNL     1      72.829  32.031  -1.302  1.00  0.00     0.082 A 
ENDROOT
BRANCH   1  15
HETATM   15  C5  UNL     1      74.973  32.874  -2.492  1.00  0.00    -0.006 A 
HETATM   16  C4  UNL     1      75.264  34.186  -2.540  1.00  0.00     0.022 A 
HETATM   17  C3  UNL     1      76.110  34.772  -3.477  1.00  0.00    -0.035 A 
HETATM   18  C18 UNL     1      76.698  33.986  -4.428  1.00  0.00     0.046 A 
HETATM   19  C16 UNL     1      76.438  32.618  -4.441  1.00  0.00    -0.039 A 
HETATM   20 CL1  UNL     1      77.768  34.623  -5.639  1.00  0.00    -0.083 Cl
HETATM   21  C15 UNL     1      75.604  32.097  -3.501  1.00  0.00     0.022 A 
HETATM   22  C17 UNL     1      77.076  31.764  -5.476  1.00  0.00     0.050 C 
BRANCH  17  23
HETATM   23  C2  UNL     1      76.359  36.226  -3.431  1.00  0.00     0.036 C 
HETATM   24  C1  UNL     1      75.170  37.024  -3.944  1.00  0.00     0.010 C 
ENDBRANCH  17  23
ENDBRANCH   1  15
BRANCH  13  25
HETATM   25  N5  UNL     1      71.779  33.208  -2.976  1.00  0.00    -0.371 N 
ATOM     26  H5  UNL     1      72.133  32.750  -3.816  1.00  0.00     0.161 HD
BRANCH  25  27
HETATM   27  C11 UNL     1      71.434  34.574  -3.135  1.00  0.00     0.075 C 
HETATM   28  C12 UNL     1      71.937  35.472  -2.045  1.00  0.00     0.031 C 
HETATM   29  C13 UNL     1      71.938  35.145  -4.461  1.00  0.00     0.031 C 
ENDBRANCH  25  27
ENDBRANCH  13  25
TORSDOF 4
ENDMDL
MODEL 5
REMARK VINA RESULT: -6.189354076      2.463      3.278
REMARK  4 active torsions:
REMARK  status: ('A' for Active; 'I' for Inactive)
REMARK    1  A    between atoms: C2_2  and  C3_3 
REMARK    2  A    between atoms: C5_5  and  C6_6 
REMARK    3  A    between atoms: C10_18  and  N5_19 
REMARK    4  A    between atoms: N5_19  and  C11_21 
ROOT
HETATM    1  C6  UNL     1      72.839  32.931   0.207  1.00  0.00     0.076 A 
HETATM    2  N1  UNL     1      73.347  31.942   1.038  1.00  0.00    -0.297 N 
ATOM      3  H1  UNL     1      74.252  31.948   1.509  1.00  0.00     0.187 HD
HETATM    4  N2  UNL     1      72.450  31.012   1.100  1.00  0.00    -0.284 N 
ATOM      5  H2  UNL     1      72.562  30.156   1.644  1.00  0.00     0.188 HD
HETATM    6  C7  UNL     1      71.374  31.287   0.384  1.00  0.00     0.137 A 
HETATM    7  N3  UNL     1      70.220  30.607   0.200  1.00  0.00    -0.330 N 
ATOM      8  H3  UNL     1      70.063  29.696   0.631  1.00  0.00     0.168 HD
HETATM    9  C8  UNL     1      69.290  31.188  -0.575  1.00  0.00     0.080 A 
HETATM   10  C9  UNL     1      68.020  30.423  -0.767  1.00  0.00     0.089 C 
HETATM   11  N4  UNL     1      69.474  32.377  -1.146  1.00  0.00    -0.332 N 
ATOM     12  H4  UNL     1      68.729  32.766  -1.723  1.00  0.00     0.168 HD
HETATM   13  C10 UNL     1      70.629  33.096  -0.986  1.00  0.00     0.119 A 
HETATM   14  C14 UNL     1      71.600  32.537  -0.209  1.00  0.00     0.082 A 
ENDROOT
BRANCH   1  15
HETATM   15  C5  UNL     1      73.630  34.136   0.002  1.00  0.00    -0.006 A 
HETATM   16  C4  UNL     1      74.592  34.346  -0.914  1.00  0.00     0.022 A 
HETATM   17  C3  UNL     1      75.247  35.560  -1.106  1.00  0.00    -0.035 A 
HETATM   18  C18 UNL     1      74.912  36.628  -0.322  1.00  0.00     0.046 A 
HETATM   19  C16 UNL     1      73.925  36.481   0.650  1.00  0.00    -0.039 A 
HETATM   20 CL1  UNL     1      75.671  38.183  -0.483  1.00  0.00    -0.083 Cl
HETATM   21  C15 UNL     1      73.317  35.273   0.794  1.00  0.00     0.022 A 
HETATM   22  C17 UNL     1      73.563  37.642   1.503  1.00  0.00     0.050 C 
BRANCH  17  23
HETATM   23  C2  UNL     1      76.287  35.674  -2.146  1.00  0.00     0.036 C 
HETATM   24  C1  UNL     1      75.738  35.387  -3.534  1.00  0.00     0.010 C 
ENDBRANCH  17  23
ENDBRANCH   1  15
BRANCH  13  25
HETATM   25  N5  UNL     1      70.747  34.248  -1.488  1.00  0.00    -0.371 N 
ATOM     26  H5  UNL     1      70.517  35.019  -0.861  1.00  0.00     0.161 HD
BRANCH  25  27
HETATM   27  C11 UNL     1      71.150  34.632  -2.792  1.00  0.00     0.075 C 
HETATM   28  C12 UNL     1      71.887  35.936  -2.855  1.00  0.00     0.031 C 
HETATM   29  C13 UNL     1      72.038  33.578  -3.454  1.00  0.00     0.031 C 
ENDBRANCH  25  27
ENDBRANCH  13  25
TORSDOF 4
ENDMDL
