MODEL 1
REMARK VINA RESULT: -6.717671456      0.000      0.000
REMARK  3 active torsions:
REMARK  status: ('A' for Active; 'I' for Inactive)
REMARK    1  A    between atoms: O1_2  and  C2_3 
REMARK    2  A    between atoms: C10_14  and  C11_15 
REMARK    3  A    between atoms: C11_15  and  N2_16 
ROOT
HETATM    1  C2  UNL     1      74.468  31.669  -0.850  1.00  0.00     0.078 A 
HETATM    2  C3  UNL     1      73.486  30.986  -0.175  1.00  0.00     0.051 A 
HETATM    3  C4  UNL     1      72.164  31.048  -0.496  1.00  0.00    -0.003 A 
HETATM    4  C5  UNL     1      71.004  30.486  -0.005  1.00  0.00     0.038 A 
HETATM    5  C6  UNL     1      69.934  30.934  -0.761  1.00  0.00     0.006 A 
HETATM    6  C7  UNL     1      68.489  30.584  -0.590  1.00  0.00     0.068 C 
HETATM    7  N1  UNL     1      70.465  31.752  -1.686  1.00  0.00    -0.358 N 
ATOM      8  H1  UNL     1      69.921  32.241  -2.397  1.00  0.00     0.166 HD
HETATM    9  C8  UNL     1      71.808  31.848  -1.561  1.00  0.00     0.065 A 
HETATM   10  C9  UNL     1      72.767  32.567  -2.284  1.00  0.00     0.072 A 
HETATM   11 CL1  UNL     1      72.180  33.533  -3.597  1.00  0.00    -0.081 Cl
HETATM   12  C10 UNL     1      74.079  32.476  -1.930  1.00  0.00     0.017 A 
ENDROOT
BRANCH  12  13
HETATM   13  C11 UNL     1      75.114  33.219  -2.668  1.00  0.00     0.164 C 
BRANCH  13  14
HETATM   14  N2  UNL     1      75.904  32.313  -3.462  1.00  0.00    -0.372 N 
HETATM   15  C12 UNL     1      76.067  32.621  -4.708  1.00  0.00     0.104 A 
HETATM   16  C13 UNL     1      75.493  33.773  -5.211  1.00  0.00     0.072 A 
HETATM   17  N4  UNL     1      76.784  31.827  -5.494  1.00  0.00    -0.333 N 
HETATM   18  C14 UNL     1      75.696  34.056  -6.544  1.00  0.00     0.010 A 
HETATM   19  C15 UNL     1      75.099  35.286  -7.138  1.00  0.00     0.068 C 
HETATM   20  N3  UNL     1      76.441  33.206  -7.310  1.00  0.00    -0.350 N 
HETATM   21  C16 UNL     1      76.990  32.090  -6.799  1.00  0.00     0.078 A 
ATOM     22  H3  UNL     1      76.585  33.423  -8.296  1.00  0.00     0.167 HD
HETATM   23  C17 UNL     1      77.807  31.170  -7.662  1.00  0.00     0.089 C 
ATOM     24  H4  UNL     1      77.194  30.985  -5.093  1.00  0.00     0.168 HD
ATOM     25  H2  UNL     1      76.315  31.470  -3.061  1.00  0.00     0.161 HD
ENDBRANCH  13  14
ENDBRANCH  12  13
BRANCH   1  26
HETATM   26  O1  UNL     1      75.810  31.578  -0.491  1.00  0.00    -0.355 OA
HETATM   27  C1  UNL     1      76.479  30.355  -0.455  1.00  0.00     0.210 C 
ENDBRANCH   1  26
TORSDOF 3
ENDMDL
MODEL 2
REMARK VINA RESULT: -6.503442220      4.738      6.880
REMARK  3 active torsions:
REMARK  status: ('A' for Active; 'I' for Inactive)
REMARK    1  A    between atoms: O1_2  and  C2_3 
REMARK    2  A    between atoms: C10_14  and  C11_15 
REMARK    3  A    between atoms: C11_15  and  N2_16 
ROOT
HETATM    1  C2  UNL     1      71.482  34.182  -1.085  1.00  0.00     0.078 A 
HETATM    2  C3  UNL     1      70.181  33.793  -1.290  1.00  0.00     0.051 A 
HETATM    3  C4  UNL     1      69.664  32.615  -0.844  1.00  0.00    -0.003 A 
HETATM    4  C5  UNL     1      68.435  31.992  -0.906  1.00  0.00     0.038 A 
HETATM    5  C6  UNL     1      68.517  30.773  -0.253  1.00  0.00     0.006 A 
HETATM    6  C7  UNL     1      67.427  29.764  -0.072  1.00  0.00     0.068 C 
HETATM    7  N1  UNL     1      69.784  30.686   0.187  1.00  0.00    -0.358 N 
ATOM      8  H1  UNL     1      70.153  29.892   0.710  1.00  0.00     0.166 HD
HETATM    9  C8  UNL     1      70.509  31.776  -0.149  1.00  0.00     0.065 A 
HETATM   10  C9  UNL     1      71.845  32.122   0.089  1.00  0.00     0.072 A 
HETATM   11 CL1  UNL     1      72.794  30.974   0.975  1.00  0.00    -0.081 Cl
HETATM   12  C10 UNL     1      72.320  33.311  -0.374  1.00  0.00     0.017 A 
ENDROOT
BRANCH  12  13
HETATM   13  C11 UNL     1      73.720  33.706  -0.142  1.00  0.00     0.164 C 
BRANCH  13  14
HETATM   14  N2  UNL     1      74.079  33.476   1.234  1.00  0.00    -0.372 N 
HETATM   15  C12 UNL     1      74.045  34.501   2.023  1.00  0.00     0.104 A 
HETATM   16  C13 UNL     1      73.677  35.737   1.528  1.00  0.00     0.072 A 
HETATM   17  N4  UNL     1      74.366  34.356   3.303  1.00  0.00    -0.333 N 
HETATM   18  C14 UNL     1      73.657  36.796   2.409  1.00  0.00     0.010 A 
HETATM   19  C15 UNL     1      73.268  38.152   1.927  1.00  0.00     0.068 C 
HETATM   20  N3  UNL     1      73.997  36.595   3.716  1.00  0.00    -0.350 N 
HETATM   21  C16 UNL     1      74.352  35.382   4.177  1.00  0.00     0.078 A 
ATOM     22  H3  UNL     1      73.980  37.385   4.360  1.00  0.00     0.167 HD
HETATM   23  C17 UNL     1      74.721  35.185   5.620  1.00  0.00     0.089 C 
ATOM     24  H4  UNL     1      74.633  33.431   3.638  1.00  0.00     0.168 HD
ATOM     25  H2  UNL     1      74.346  32.551   1.569  1.00  0.00     0.161 HD
ENDBRANCH  13  14
ENDBRANCH  12  13
BRANCH   1  26
HETATM   26  O1  UNL     1      71.972  35.397  -1.556  1.00  0.00    -0.355 OA
HETATM   27  C1  UNL     1      71.949  35.721  -2.912  1.00  0.00     0.210 C 
ENDBRANCH   1  26
TORSDOF 3
ENDMDL
MODEL 3
REMARK VINA RESULT: -6.451676746      2.659      4.154
REMARK  3 active torsions:
REMARK  status: ('A' for Active; 'I' for Inactive)
REMARK    1  A    between atoms: O1_2  and  C2_3 
REMARK    2  A    between atoms: C10_14  and  C11_15 
REMARK    3  A    between atoms: C11_15  and  N2_16 
ROOT
HETATM    1  C2  UNL     1      71.445  33.848  -1.255  1.00  0.00     0.078 A 
HETATM    2  C3  UNL     1      70.096  33.589  -1.275  1.00  0.00     0.051 A 
HETATM    3  C4  UNL     1      69.547  32.403  -0.894  1.00  0.00    -0.003 A 
HETATM    4  C5  UNL     1      68.270  31.888  -0.816  1.00  0.00     0.038 A 
HETATM    5  C6  UNL     1      68.338  30.589  -0.344  1.00  0.00     0.006 A 
HETATM    6  C7  UNL     1      67.200  29.649  -0.101  1.00  0.00     0.068 C 
HETATM    7  N1  UNL     1      69.645  30.346  -0.148  1.00  0.00    -0.358 N 
ATOM      8  H1  UNL     1      70.017  29.462   0.201  1.00  0.00     0.166 HD
HETATM    9  C8  UNL     1      70.409  31.415  -0.468  1.00  0.00     0.065 A 
HETATM   10  C9  UNL     1      71.793  31.623  -0.427  1.00  0.00     0.072 A 
HETATM   11 CL1  UNL     1      72.758  30.296   0.129  1.00  0.00    -0.081 Cl
HETATM   12  C10 UNL     1      72.300  32.826  -0.816  1.00  0.00     0.017 A 
ENDROOT
BRANCH  12  13
HETATM   13  C11 UNL     1      73.751  33.079  -0.786  1.00  0.00     0.164 C 
BRANCH  13  14
HETATM   14  N2  UNL     1      74.300  32.974  -2.113  1.00  0.00    -0.372 N 
HETATM   15  C12 UNL     1      75.341  32.219  -2.255  1.00  0.00     0.104 A 
HETATM   16  C13 UNL     1      75.867  31.564  -1.159  1.00  0.00     0.072 A 
HETATM   17  N4  UNL     1      75.896  32.081  -3.452  1.00  0.00    -0.333 N 
HETATM   18  C14 UNL     1      76.977  30.772  -1.362  1.00  0.00     0.010 A 
HETATM   19  C15 UNL     1      77.584  30.042  -0.212  1.00  0.00     0.068 C 
HETATM   20  N3  UNL     1      77.510  30.664  -2.614  1.00  0.00    -0.350 N 
HETATM   21  C16 UNL     1      76.981  31.312  -3.667  1.00  0.00     0.078 A 
ATOM     22  H3  UNL     1      78.332  30.077  -2.754  1.00  0.00     0.167 HD
HETATM   23  C17 UNL     1      77.586  31.176  -5.036  1.00  0.00     0.089 C 
ATOM     24  H4  UNL     1      75.484  32.578  -4.242  1.00  0.00     0.168 HD
ATOM     25  H2  UNL     1      73.888  33.471  -2.903  1.00  0.00     0.161 HD
ENDBRANCH  13  14
ENDBRANCH  12  13
BRANCH   1  26
HETATM   26  O1  UNL     1      71.968  35.076  -1.652  1.00  0.00    -0.355 OA
HETATM   27  C1  UNL     1      71.730  35.599  -2.923  1.00  0.00     0.210 C 
ENDBRANCH   1  26
TORSDOF 3
ENDMDL
MODEL 4
REMARK VINA RESULT: -6.342100990      2.409      7.455
REMARK  3 active torsions:
REMARK  status: ('A' for Active; 'I' for Inactive)
REMARK    1  A    between atoms: O1_2  and  C2_3 
REMARK    2  A    between atoms: C10_14  and  C11_15 
REMARK    3  A    between atoms: C11_15  and  N2_16 
ROOT
HETATM    1  C2  UNL     1      73.011  35.294  -4.143  1.00  0.00     0.078 A 
HETATM    2  C3  UNL     1      73.653  35.163  -5.350  1.00  0.00     0.051 A 
HETATM    3  C4  UNL     1      74.604  34.223  -5.604  1.00  0.00    -0.003 A 
HETATM    4  C5  UNL     1      75.385  33.878  -6.687  1.00  0.00     0.038 A 
HETATM    5  C6  UNL     1      76.191  32.809  -6.337  1.00  0.00     0.006 A 
HETATM    6  C7  UNL     1      77.194  32.106  -7.197  1.00  0.00     0.068 C 
HETATM    7  N1  UNL     1      75.884  32.531  -5.058  1.00  0.00    -0.358 N 
ATOM      8  H1  UNL     1      76.318  31.784  -4.515  1.00  0.00     0.166 HD
HETATM    9  C8  UNL     1      74.932  33.362  -4.578  1.00  0.00     0.065 A 
HETATM   10  C9  UNL     1      74.310  33.449  -3.327  1.00  0.00     0.072 A 
HETATM   11 CL1  UNL     1      74.818  32.305  -2.129  1.00  0.00    -0.081 Cl
HETATM   12  C10 UNL     1      73.362  34.405  -3.117  1.00  0.00     0.017 A 
ENDROOT
BRANCH  12  13
HETATM   13  C11 UNL     1      72.688  34.526  -1.812  1.00  0.00     0.164 C 
BRANCH  13  14
HETATM   14  N2  UNL     1      71.350  34.000  -1.895  1.00  0.00    -0.372 N 
HETATM   15  C12 UNL     1      71.086  32.964  -1.165  1.00  0.00     0.104 A 
HETATM   16  C13 UNL     1      72.069  32.422  -0.361  1.00  0.00     0.072 A 
HETATM   17  N4  UNL     1      69.871  32.430  -1.196  1.00  0.00    -0.333 N 
HETATM   18  C14 UNL     1      71.738  31.319   0.397  1.00  0.00     0.010 A 
HETATM   19  C15 UNL     1      72.762  30.695   1.282  1.00  0.00     0.068 C 
HETATM   20  N3  UNL     1      70.474  30.808   0.328  1.00  0.00    -0.350 N 
HETATM   21  C16 UNL     1      69.532  31.351  -0.463  1.00  0.00     0.078 A 
ATOM     22  H3  UNL     1      70.238  29.991   0.891  1.00  0.00     0.167 HD
HETATM   23  C17 UNL     1      68.147  30.770  -0.520  1.00  0.00     0.089 C 
ATOM     24  H4  UNL     1      69.167  32.852  -1.800  1.00  0.00     0.168 HD
ATOM     25  H2  UNL     1      70.646  34.422  -2.499  1.00  0.00     0.161 HD
ENDBRANCH  13  14
ENDBRANCH  12  13
BRANCH   1  26
HETATM   26  O1  UNL     1      72.041  36.269  -3.924  1.00  0.00    -0.355 OA
HETATM   27  C1  UNL     1      72.381  37.585  -3.611  1.00  0.00     0.210 C 
ENDBRANCH   1  26
TORSDOF 3
ENDMDL
MODEL 5
REMARK VINA RESULT: -6.159022348      3.016      4.080
REMARK  3 active torsions:
REMARK  status: ('A' for Active; 'I' for Inactive)
REMARK    1  A    between atoms: O1_2  and  C2_3 
REMARK    2  A    between atoms: C10_14  and  C11_15 
REMARK    3  A    between atoms: C11_15  and  N2_16 
ROOT
HETATM    1  C2  UNL     1      71.506  32.129  -0.149  1.00  0.00     0.078 A 
HETATM    2  C3  UNL     1      70.781  31.020   0.211  1.00  0.00     0.051 A 
HETATM    3  C4  UNL     1      69.458  30.858  -0.063  1.00  0.00    -0.003 A 
HETATM    4  C5  UNL     1      68.514  29.880   0.173  1.00  0.00     0.038 A 
HETATM    5  C6  UNL     1      67.302  30.288  -0.356  1.00  0.00     0.006 A 
HETATM    6  C7  UNL     1      66.004  29.545  -0.334  1.00  0.00     0.068 C 
HETATM    7  N1  UNL     1      67.535  31.496  -0.898  1.00  0.00    -0.358 N 
ATOM      8  H1  UNL     1      66.826  32.058  -1.369  1.00  0.00     0.166 HD
HETATM    9  C8  UNL     1      68.823  31.877  -0.743  1.00  0.00     0.065 A 
HETATM   10  C9  UNL     1      69.512  33.030  -1.135  1.00  0.00     0.072 A 
HETATM   11 CL1  UNL     1      68.592  34.230  -1.980  1.00  0.00    -0.081 Cl
HETATM   12  C10 UNL     1      70.837  33.150  -0.840  1.00  0.00     0.017 A 
ENDROOT
BRANCH  12  13
HETATM   13  C11 UNL     1      71.593  34.351  -1.237  1.00  0.00     0.164 C 
BRANCH  13  14
HETATM   14  N2  UNL     1      72.345  34.089  -2.437  1.00  0.00    -0.372 N 
HETATM   15  C12 UNL     1      72.641  35.111  -3.173  1.00  0.00     0.104 A 
HETATM   16  C13 UNL     1      72.235  36.375  -2.789  1.00  0.00     0.072 A 
HETATM   17  N4  UNL     1      73.332  34.938  -4.293  1.00  0.00    -0.333 N 
HETATM   18  C14 UNL     1      72.576  37.430  -3.607  1.00  0.00     0.010 A 
HETATM   19  C15 UNL     1      72.163  38.814  -3.238  1.00  0.00     0.068 C 
HETATM   20  N3  UNL     1      73.287  37.198  -4.749  1.00  0.00    -0.350 N 
HETATM   21  C16 UNL     1      73.672  35.959  -5.104  1.00  0.00     0.078 A 
ATOM     22  H3  UNL     1      73.533  37.985  -5.349  1.00  0.00     0.167 HD
HETATM   23  C17 UNL     1      74.455  35.729  -6.366  1.00  0.00     0.089 C 
ATOM     24  H4  UNL     1      73.617  33.993  -4.550  1.00  0.00     0.168 HD
ATOM     25  H2  UNL     1      72.630  33.144  -2.694  1.00  0.00     0.161 HD
ENDBRANCH  13  14
ENDBRANCH  12  13
BRANCH   1  26
HETATM   26  O1  UNL     1      72.860  32.257   0.149  1.00  0.00    -0.355 OA
HETATM   27  C1  UNL     1      73.812  31.384  -0.375  1.00  0.00     0.210 C 
ENDBRANCH   1  26
TORSDOF 3
ENDMDL
