MODEL 1
REMARK VINA RESULT: -7.844761897      0.000      0.000
REMARK  7 active torsions:
REMARK  status: ('A' for Active; 'I' for Inactive)
REMARK    1  A    between atoms: C2_2  and  C3_3 
REMARK    2  A    between atoms: N1_11  and  C10_12 
REMARK    3  A    between atoms: C10_12  and  C11_13 
REMARK    4  A    between atoms: C11_13  and  N2_14 
REMARK    5  A    between atoms: N4_28  and  C19_29 
REMARK    6  A    between atoms: C19_29  and  C20_30 
REMARK    7  A    between atoms: C25_35  and  O5_36 
ROOT
HETATM    1  C1  UNL     1      10.486  17.864  27.565  1.00  0.00     0.055 C 
HETATM    2  C2  UNL     1      11.101  16.551  27.163  1.00  0.00     0.146 C 
HETATM    3  C9  UNL     1      12.613  16.736  27.308  1.00  0.00     0.261 C 
HETATM    4  O1  UNL     1      13.188  17.547  27.983  1.00  0.00    -0.270 OA
HETATM    5  N1  UNL     1      13.130  15.719  26.451  1.00  0.00    -0.266 N 
HETATM    6  C18 UNL     1      12.102  15.502  25.445  1.00  0.00     0.332 C 
HETATM    7  O4  UNL     1      12.142  14.707  24.513  1.00  0.00    -0.246 OA
HETATM    8  N4  UNL     1      11.011  16.392  25.729  1.00  0.00    -0.286 N 
ENDROOT
BRANCH   5   9
HETATM    9  C10 UNL     1      14.411  15.061  26.578  1.00  0.00     0.158 C 
BRANCH   9  10
HETATM   10  C11 UNL     1      14.442  14.191  27.815  1.00  0.00     0.164 C 
BRANCH  10  11
HETATM   11  N2  UNL     1      15.709  14.367  28.496  1.00  0.00    -0.255 N 
HETATM   12  C12 UNL     1      16.027  15.172  29.625  1.00  0.00     0.073 A 
HETATM   13  C13 UNL     1      15.165  16.123  30.191  1.00  0.00     0.033 A 
HETATM   14  C17 UNL     1      17.247  14.975  30.154  1.00  0.00     0.071 A 
HETATM   15  C14 UNL     1      15.532  16.867  31.284  1.00  0.00     0.002 A 
HETATM   16  C15 UNL     1      16.780  16.670  31.832  1.00  0.00     0.002 A 
HETATM   17  C16 UNL     1      17.623  15.737  31.272  1.00  0.00     0.032 A 
HETATM   18  N3  UNL     1      18.049  14.004  29.521  1.00  0.00    -0.265 N 
HETATM   19  S1  UNL     1      17.207  13.600  28.077  1.00  0.00     0.326 S 
ATOM     20  H3  UNL     1      18.936  13.623  29.849  1.00  0.00     0.180 HD
HETATM   21  O2  UNL     1      17.043  12.137  27.883  1.00  0.00    -0.182 OA
HETATM   22  O3  UNL     1      17.793  14.280  26.874  1.00  0.00    -0.182 OA
ENDBRANCH  10  11
ENDBRANCH   9  10
ENDBRANCH   5   9
BRANCH   2  23
HETATM   23  C3  UNL     1      10.776  15.469  28.069  1.00  0.00    -0.021 A 
HETATM   24  C4  UNL     1       9.665  14.698  27.659  1.00  0.00     0.010 A 
HETATM   25  C5  UNL     1       9.215  13.660  28.418  1.00  0.00     0.001 A 
HETATM   26  C6  UNL     1       9.808  13.313  29.605  1.00  0.00     0.000 A 
HETATM   27  C7  UNL     1      10.886  14.072  29.991  1.00  0.00     0.001 A 
HETATM   28  C8  UNL     1      11.377  15.138  29.247  1.00  0.00     0.010 A 
ENDBRANCH   2  23
BRANCH   8  29
HETATM   29  C19 UNL     1      10.171  17.123  24.856  1.00  0.00     0.111 C 
BRANCH  29  30
HETATM   30  C20 UNL     1      10.623  18.143  23.963  1.00  0.00     0.013 A 
HETATM   31  C21 UNL     1      10.671  19.477  24.199  1.00  0.00     0.015 A 
HETATM   32  C22 UNL     1      11.077  20.424  23.261  1.00  0.00     0.001 A 
HETATM   33  C23 UNL     1      11.459  20.023  22.010  1.00  0.00     0.003 A 
HETATM   34  C24 UNL     1      11.418  18.671  21.742  1.00  0.00     0.037 A 
HETATM   35  C25 UNL     1      11.020  17.744  22.662  1.00  0.00     0.077 A 
BRANCH  35  36
HETATM   36  O5  UNL     1      11.004  16.404  22.324  1.00  0.00    -0.360 OA
ATOM     37  H5  UNL     1      11.024  16.151  21.409  1.00  0.00     0.217 HD
ENDBRANCH  35  36
ENDBRANCH  29  30
ENDBRANCH   8  29
TORSDOF 7
ENDMDL
MODEL 2
REMARK VINA RESULT: -7.776279069      4.545      7.422
REMARK  7 active torsions:
REMARK  status: ('A' for Active; 'I' for Inactive)
REMARK    1  A    between atoms: C2_2  and  C3_3 
REMARK    2  A    between atoms: N1_11  and  C10_12 
REMARK    3  A    between atoms: C10_12  and  C11_13 
REMARK    4  A    between atoms: C11_13  and  N2_14 
REMARK    5  A    between atoms: N4_28  and  C19_29 
REMARK    6  A    between atoms: C19_29  and  C20_30 
REMARK    7  A    between atoms: C25_35  and  O5_36 
ROOT
HETATM    1  C1  UNL     1      11.606  11.057  20.611  1.00  0.00     0.055 C 
HETATM    2  C2  UNL     1      12.241  12.330  21.100  1.00  0.00     0.146 C 
HETATM    3  C9  UNL     1      12.182  12.267  22.627  1.00  0.00     0.261 C 
HETATM    4  O1  UNL     1      12.072  11.286  23.314  1.00  0.00    -0.270 OA
HETATM    5  N1  UNL     1      12.288  13.641  22.996  1.00  0.00    -0.266 N 
HETATM    6  C18 UNL     1      11.753  14.386  21.868  1.00  0.00     0.332 C 
HETATM    7  O4  UNL     1      11.657  15.605  21.770  1.00  0.00    -0.246 OA
HETATM    8  N4  UNL     1      11.344  13.440  20.867  1.00  0.00    -0.286 N 
ENDROOT
BRANCH   5   9
HETATM    9  C10 UNL     1      12.819  14.157  24.239  1.00  0.00     0.158 C 
BRANCH   9  10
HETATM   10  C11 UNL     1      11.730  14.253  25.283  1.00  0.00     0.164 C 
BRANCH  10  11
HETATM   11  N2  UNL     1      11.695  15.597  25.822  1.00  0.00    -0.255 N 
HETATM   12  C12 UNL     1      10.975  16.737  25.370  1.00  0.00     0.073 A 
HETATM   13  C13 UNL     1      10.278  16.806  24.154  1.00  0.00     0.033 A 
HETATM   14  C17 UNL     1      10.988  17.798  26.195  1.00  0.00     0.071 A 
HETATM   15  C14 UNL     1       9.600  17.938  23.776  1.00  0.00     0.002 A 
HETATM   16  C15 UNL     1       9.609  19.028  24.617  1.00  0.00     0.002 A 
HETATM   17  C16 UNL     1      10.294  18.956  25.809  1.00  0.00     0.032 A 
HETATM   18  N3  UNL     1      11.714  17.644  27.393  1.00  0.00    -0.265 N 
HETATM   19  S1  UNL     1      12.565  16.160  27.214  1.00  0.00     0.326 S 
ATOM     20  H3  UNL     1      11.732  18.276  28.193  1.00  0.00     0.180 HD
HETATM   21  O2  UNL     1      12.402  15.247  28.373  1.00  0.00    -0.182 OA
HETATM   22  O3  UNL     1      14.004  16.376  26.846  1.00  0.00    -0.182 OA
ENDBRANCH  10  11
ENDBRANCH   9  10
ENDBRANCH   5   9
BRANCH   2  23
HETATM   23  C3  UNL     1      13.653  12.417  20.791  1.00  0.00    -0.021 A 
HETATM   24  C4  UNL     1      13.969  12.049  19.463  1.00  0.00     0.010 A 
HETATM   25  C5  UNL     1      15.258  12.050  19.024  1.00  0.00     0.001 A 
HETATM   26  C6  UNL     1      16.306  12.404  19.838  1.00  0.00     0.000 A 
HETATM   27  C7  UNL     1      15.983  12.759  21.125  1.00  0.00     0.001 A 
HETATM   28  C8  UNL     1      14.681  12.771  21.613  1.00  0.00     0.010 A 
ENDBRANCH   2  23
BRANCH   8  29
HETATM   29  C19 UNL     1      10.226  13.446  19.999  1.00  0.00     0.111 C 
BRANCH  29  30
HETATM   30  C20 UNL     1       8.875  13.646  20.420  1.00  0.00     0.013 A 
HETATM   31  C21 UNL     1       7.996  12.700  20.832  1.00  0.00     0.015 A 
HETATM   32  C22 UNL     1       6.672  12.960  21.182  1.00  0.00     0.001 A 
HETATM   33  C23 UNL     1       6.190  14.239  21.116  1.00  0.00     0.003 A 
HETATM   34  C24 UNL     1       7.062  15.220  20.697  1.00  0.00     0.037 A 
HETATM   35  C25 UNL     1       8.359  14.965  20.356  1.00  0.00     0.077 A 
BRANCH  35  36
HETATM   36  O5  UNL     1       9.178  15.999  19.945  1.00  0.00    -0.360 OA
ATOM     37  H5  UNL     1      10.094  16.003  20.200  1.00  0.00     0.217 HD
ENDBRANCH  35  36
ENDBRANCH  29  30
ENDBRANCH   8  29
TORSDOF 7
ENDMDL
MODEL 3
REMARK VINA RESULT: -7.733405667      5.953      8.861
REMARK  7 active torsions:
REMARK  status: ('A' for Active; 'I' for Inactive)
REMARK    1  A    between atoms: C2_2  and  C3_3 
REMARK    2  A    between atoms: N1_11  and  C10_12 
REMARK    3  A    between atoms: C10_12  and  C11_13 
REMARK    4  A    between atoms: C11_13  and  N2_14 
REMARK    5  A    between atoms: N4_28  and  C19_29 
REMARK    6  A    between atoms: C19_29  and  C20_30 
REMARK    7  A    between atoms: C25_35  and  O5_36 
ROOT
HETATM    1  C1  UNL     1      10.569  10.519  20.714  1.00  0.00     0.055 C 
HETATM    2  C2  UNL     1      10.866  11.988  20.592  1.00  0.00     0.146 C 
HETATM    3  C9  UNL     1      10.199  12.650  21.799  1.00  0.00     0.261 C 
HETATM    4  O1  UNL     1       9.888  12.130  22.837  1.00  0.00    -0.270 OA
HETATM    5  N1  UNL     1      10.055  14.002  21.367  1.00  0.00    -0.266 N 
HETATM    6  C18 UNL     1       9.973  13.938  19.917  1.00  0.00     0.332 C 
HETATM    7  O4  UNL     1       9.844  14.882  19.144  1.00  0.00    -0.246 OA
HETATM    8  N4  UNL     1      10.067  12.558  19.530  1.00  0.00    -0.286 N 
ENDROOT
BRANCH   5   9
HETATM    9  C10 UNL     1      10.003  15.173  22.215  1.00  0.00     0.158 C 
BRANCH   9  10
HETATM   10  C11 UNL     1      11.393  15.715  22.460  1.00  0.00     0.164 C 
BRANCH  10  11
HETATM   11  N2  UNL     1      11.309  16.908  23.277  1.00  0.00    -0.255 N 
HETATM   12  C12 UNL     1      11.277  18.275  22.884  1.00  0.00     0.073 A 
HETATM   13  C13 UNL     1      11.518  18.733  21.581  1.00  0.00     0.033 A 
HETATM   14  C17 UNL     1      10.993  19.154  23.861  1.00  0.00     0.071 A 
HETATM   15  C14 UNL     1      11.471  20.068  21.267  1.00  0.00     0.002 A 
HETATM   16  C15 UNL     1      11.180  20.974  22.262  1.00  0.00     0.002 A 
HETATM   17  C16 UNL     1      10.944  20.520  23.540  1.00  0.00     0.032 A 
HETATM   18  N3  UNL     1      10.768  18.608  25.141  1.00  0.00    -0.265 N 
HETATM   19  S1  UNL     1      11.219  16.954  25.009  1.00  0.00     0.326 S 
ATOM     20  H3  UNL     1      10.414  19.091  25.967  1.00  0.00     0.180 HD
HETATM   21  O2  UNL     1      10.189  16.022  25.533  1.00  0.00    -0.182 OA
HETATM   22  O3  UNL     1      12.581  16.693  25.583  1.00  0.00    -0.182 OA
ENDBRANCH  10  11
ENDBRANCH   9  10
ENDBRANCH   5   9
BRANCH   2  23
HETATM   23  C3  UNL     1      12.273  12.299  20.734  1.00  0.00    -0.021 A 
HETATM   24  C4  UNL     1      13.007  12.177  19.532  1.00  0.00     0.010 A 
HETATM   25  C5  UNL     1      14.349  12.408  19.505  1.00  0.00     0.001 A 
HETATM   26  C6  UNL     1      15.051  12.766  20.629  1.00  0.00     0.000 A 
HETATM   27  C7  UNL     1      14.324  12.879  21.789  1.00  0.00     0.001 A 
HETATM   28  C8  UNL     1      12.955  12.653  21.860  1.00  0.00     0.010 A 
ENDBRANCH   2  23
BRANCH   8  29
HETATM   29  C19 UNL     1       9.398  11.842  18.508  1.00  0.00     0.111 C 
BRANCH  29  30
HETATM   30  C20 UNL     1       9.698  11.947  17.116  1.00  0.00     0.013 A 
HETATM   31  C21 UNL     1      10.660  11.281  16.431  1.00  0.00     0.015 A 
HETATM   32  C22 UNL     1      10.932  11.470  15.077  1.00  0.00     0.001 A 
HETATM   33  C23 UNL     1      10.206  12.379  14.358  1.00  0.00     0.003 A 
HETATM   34  C24 UNL     1       9.222  13.073  15.030  1.00  0.00     0.037 A 
HETATM   35  C25 UNL     1       8.956  12.886  16.355  1.00  0.00     0.077 A 
BRANCH  35  36
HETATM   36  O5  UNL     1       7.953  13.617  16.964  1.00  0.00    -0.360 OA
ATOM     37  H5  UNL     1       7.672  14.439  16.580  1.00  0.00     0.217 HD
ENDBRANCH  35  36
ENDBRANCH  29  30
ENDBRANCH   8  29
TORSDOF 7
ENDMDL
MODEL 4
REMARK VINA RESULT: -7.605381261      3.485      7.440
REMARK  7 active torsions:
REMARK  status: ('A' for Active; 'I' for Inactive)
REMARK    1  A    between atoms: C2_2  and  C3_3 
REMARK    2  A    between atoms: N1_11  and  C10_12 
REMARK    3  A    between atoms: C10_12  and  C11_13 
REMARK    4  A    between atoms: C11_13  and  N2_14 
REMARK    5  A    between atoms: N4_28  and  C19_29 
REMARK    6  A    between atoms: C19_29  and  C20_30 
REMARK    7  A    between atoms: C25_35  and  O5_36 
ROOT
HETATM    1  C1  UNL     1      10.249  15.273  28.039  1.00  0.00     0.055 C 
HETATM    2  C2  UNL     1      11.279  15.668  27.017  1.00  0.00     0.146 C 
HETATM    3  C9  UNL     1      11.568  14.404  26.204  1.00  0.00     0.261 C 
HETATM    4  O1  UNL     1      10.862  13.439  26.081  1.00  0.00    -0.270 OA
HETATM    5  N1  UNL     1      12.855  14.679  25.655  1.00  0.00    -0.266 N 
HETATM    6  C18 UNL     1      13.486  15.598  26.589  1.00  0.00     0.332 C 
HETATM    7  O4  UNL     1      14.606  16.089  26.496  1.00  0.00    -0.246 OA
HETATM    8  N4  UNL     1      12.562  15.840  27.662  1.00  0.00    -0.286 N 
ENDROOT
BRANCH   5   9
HETATM    9  C10 UNL     1      13.396  14.142  24.425  1.00  0.00     0.158 C 
BRANCH   9  10
HETATM   10  C11 UNL     1      12.803  14.852  23.229  1.00  0.00     0.164 C 
BRANCH  10  11
HETATM   11  N2  UNL     1      12.776  13.947  22.097  1.00  0.00    -0.255 N 
HETATM   12  C12 UNL     1      11.818  13.830  21.052  1.00  0.00     0.073 A 
HETATM   13  C13 UNL     1      10.576  14.482  21.037  1.00  0.00     0.033 A 
HETATM   14  C17 UNL     1      12.167  13.031  20.029  1.00  0.00     0.071 A 
HETATM   15  C14 UNL     1       9.695  14.328  19.995  1.00  0.00     0.002 A 
HETATM   16  C15 UNL     1      10.047  13.512  18.944  1.00  0.00     0.002 A 
HETATM   17  C16 UNL     1      11.267  12.874  18.964  1.00  0.00     0.032 A 
HETATM   18  N3  UNL     1      13.431  12.413  20.128  1.00  0.00    -0.265 N 
HETATM   19  S1  UNL     1      13.965  12.738  21.731  1.00  0.00     0.326 S 
ATOM     20  H3  UNL     1      13.922  11.888  19.405  1.00  0.00     0.180 HD
HETATM   21  O2  UNL     1      15.344  13.283  21.790  1.00  0.00    -0.182 OA
HETATM   22  O3  UNL     1      13.769  11.559  22.639  1.00  0.00    -0.182 OA
ENDBRANCH  10  11
ENDBRANCH   9  10
ENDBRANCH   5   9
BRANCH   2  23
HETATM   23  C3  UNL     1      10.783  16.622  26.047  1.00  0.00    -0.021 A 
HETATM   24  C4  UNL     1      10.748  17.952  26.525  1.00  0.00     0.010 A 
HETATM   25  C5  UNL     1      10.280  18.965  25.743  1.00  0.00     0.001 A 
HETATM   26  C6  UNL     1       9.823  18.749  24.467  1.00  0.00     0.000 A 
HETATM   27  C7  UNL     1       9.863  17.452  24.017  1.00  0.00     0.001 A 
HETATM   28  C8  UNL     1      10.333  16.391  24.782  1.00  0.00     0.010 A 
ENDBRANCH   2  23
BRANCH   8  29
HETATM   29  C19 UNL     1      12.787  15.995  29.051  1.00  0.00     0.111 C 
BRANCH  29  30
HETATM   30  C20 UNL     1      12.653  17.228  29.760  1.00  0.00     0.013 A 
HETATM   31  C21 UNL     1      11.684  17.563  30.647  1.00  0.00     0.015 A 
HETATM   32  C22 UNL     1      11.585  18.808  31.267  1.00  0.00     0.001 A 
HETATM   33  C23 UNL     1      12.504  19.782  30.987  1.00  0.00     0.003 A 
HETATM   34  C24 UNL     1      13.499  19.469  30.086  1.00  0.00     0.037 A 
HETATM   35  C25 UNL     1      13.596  18.250  29.480  1.00  0.00     0.077 A 
BRANCH  35  36
HETATM   36  O5  UNL     1      14.621  18.006  28.587  1.00  0.00    -0.360 OA
ATOM     37  H5  UNL     1      15.452  18.455  28.691  1.00  0.00     0.217 HD
ENDBRANCH  35  36
ENDBRANCH  29  30
ENDBRANCH   8  29
TORSDOF 7
ENDMDL
MODEL 5
REMARK VINA RESULT: -7.588931886      1.991      4.768
REMARK  7 active torsions:
REMARK  status: ('A' for Active; 'I' for Inactive)
REMARK    1  A    between atoms: C2_2  and  C3_3 
REMARK    2  A    between atoms: N1_11  and  C10_12 
REMARK    3  A    between atoms: C10_12  and  C11_13 
REMARK    4  A    between atoms: C11_13  and  N2_14 
REMARK    5  A    between atoms: N4_28  and  C19_29 
REMARK    6  A    between atoms: C19_29  and  C20_30 
REMARK    7  A    between atoms: C25_35  and  O5_36 
ROOT
HETATM    1  C1  UNL     1       9.510  15.513  27.708  1.00  0.00     0.055 C 
HETATM    2  C2  UNL     1      10.900  15.591  27.140  1.00  0.00     0.146 C 
HETATM    3  C9  UNL     1      11.591  14.287  27.545  1.00  0.00     0.261 C 
HETATM    4  O1  UNL     1      11.068  13.249  27.854  1.00  0.00    -0.270 OA
HETATM    5  N1  UNL     1      12.973  14.632  27.459  1.00  0.00    -0.266 N 
HETATM    6  C18 UNL     1      13.028  16.066  27.689  1.00  0.00     0.332 C 
HETATM    7  O4  UNL     1      14.032  16.771  27.701  1.00  0.00    -0.246 OA
HETATM    8  N4  UNL     1      11.686  16.531  27.906  1.00  0.00    -0.286 N 
ENDROOT
BRANCH   5   9
HETATM    9  C10 UNL     1      14.068  13.724  27.199  1.00  0.00     0.158 C 
BRANCH   9  10
HETATM   10  C11 UNL     1      14.623  13.174  28.494  1.00  0.00     0.164 C 
BRANCH  10  11
HETATM   11  N2  UNL     1      15.868  13.846  28.808  1.00  0.00    -0.255 N 
HETATM   12  C12 UNL     1      16.161  14.774  29.844  1.00  0.00     0.073 A 
HETATM   13  C13 UNL     1      15.199  15.368  30.674  1.00  0.00     0.033 A 
HETATM   14  C17 UNL     1      17.461  15.074  30.007  1.00  0.00     0.071 A 
HETATM   15  C14 UNL     1      15.548  16.257  31.660  1.00  0.00     0.002 A 
HETATM   16  C15 UNL     1      16.879  16.568  31.832  1.00  0.00     0.002 A 
HETATM   17  C16 UNL     1      17.819  15.983  31.015  1.00  0.00     0.032 A 
HETATM   18  N3  UNL     1      18.360  14.434  29.129  1.00  0.00    -0.265 N 
HETATM   19  S1  UNL     1      17.367  13.665  27.953  1.00  0.00     0.326 S 
ATOM     20  H3  UNL     1      19.378  14.428  29.179  1.00  0.00     0.180 HD
HETATM   21  O2  UNL     1      17.711  12.237  27.738  1.00  0.00    -0.182 OA
HETATM   22  O3  UNL     1      17.305  14.444  26.672  1.00  0.00    -0.182 OA
ENDBRANCH  10  11
ENDBRANCH   9  10
ENDBRANCH   5   9
BRANCH   2  23
HETATM   23  C3  UNL     1      10.925  15.583  25.692  1.00  0.00    -0.021 A 
HETATM   24  C4  UNL     1      10.826  16.870  25.114  1.00  0.00     0.010 A 
HETATM   25  C5  UNL     1      10.806  17.031  23.762  1.00  0.00     0.001 A 
HETATM   26  C6  UNL     1      10.881  15.966  22.899  1.00  0.00     0.000 A 
HETATM   27  C7  UNL     1      10.976  14.722  23.475  1.00  0.00     0.001 A 
HETATM   28  C8  UNL     1      10.999  14.514  24.849  1.00  0.00     0.010 A 
ENDBRANCH   2  23
BRANCH   8  29
HETATM   29  C19 UNL     1      11.186  17.511  28.797  1.00  0.00     0.111 C 
BRANCH  29  30
HETATM   30  C20 UNL     1      11.659  17.708  30.131  1.00  0.00     0.013 A 
HETATM   31  C21 UNL     1      11.193  17.122  31.261  1.00  0.00     0.015 A 
HETATM   32  C22 UNL     1      11.670  17.400  32.541  1.00  0.00     0.001 A 
HETATM   33  C23 UNL     1      12.670  18.319  32.710  1.00  0.00     0.003 A 
HETATM   34  C24 UNL     1      13.160  18.932  31.578  1.00  0.00     0.037 A 
HETATM   35  C25 UNL     1      12.694  18.658  30.324  1.00  0.00     0.077 A 
BRANCH  35  36
HETATM   36  O5  UNL     1      13.233  19.311  29.233  1.00  0.00    -0.360 OA
ATOM     37  H5  UNL     1      13.983  19.883  29.351  1.00  0.00     0.217 HD
ENDBRANCH  35  36
ENDBRANCH  29  30
ENDBRANCH   8  29
TORSDOF 7
ENDMDL
