MODEL 1
REMARK VINA RESULT: -6.658067716      0.000      0.000
REMARK  5 active torsions:
REMARK  status: ('A' for Active; 'I' for Inactive)
REMARK    1  A    between atoms: C2_2  and  O1_4 
REMARK    2  A    between atoms: O1_4  and  N1_5 
REMARK    3  A    between atoms: N1_5  and  C4_7 
REMARK    4  A    between atoms: N2_10  and  N3_11 
REMARK    5  A    between atoms: N3_11  and  N4_13 
ROOT
HETATM    1  C4  UNL     1      31.271  17.077  16.610  1.00  0.00     0.031 C 
HETATM    2  C5  UNL     1      31.671  17.309  15.216  1.00  0.00     0.077 C 
HETATM    3  C6  UNL     1      30.337  17.768  14.612  1.00  0.00     0.150 C 
HETATM    4  N2  UNL     1      29.463  16.744  15.154  1.00  0.00    -0.307 N 
HETATM    5  C7  UNL     1      29.860  16.587  16.540  1.00  0.00     0.198 C 
ENDROOT
BRANCH   4   6
HETATM    6  N3  UNL     1      28.469  16.095  14.423  1.00  0.00    -0.231 N 
ATOM      7  H3  UNL     1      27.730  16.607  13.942  1.00  0.00     0.209 HD
BRANCH   6   8
HETATM    8  N4  UNL     1      28.536  14.848  14.393  1.00  0.00    -0.235 N 
HETATM    9  N5  UNL     1      29.017  13.777  14.023  1.00  0.00    -0.330 N 
ATOM     10  H52 UNL     1      29.763  14.106  13.411  1.00  0.00     0.178 HD
ATOM     11  H51 UNL     1      29.072  12.759  13.999  1.00  0.00     0.178 HD
ATOM     12  H4  UNL     1      27.779  14.559  15.013  1.00  0.00     0.209 HD
ENDBRANCH   6   8
ENDBRANCH   4   6
BRANCH   1  13
HETATM   13  N1  UNL     1      31.943  17.240  17.696  1.00  0.00    -0.273 N 
ATOM     14  H1  UNL     1      32.580  16.500  17.992  1.00  0.00     0.193 HD
BRANCH  13  15
HETATM   15  O1  UNL     1      31.839  18.367  18.474  1.00  0.00    -0.276 OA
BRANCH  15  16
HETATM   16  C2  UNL     1      32.951  19.045  18.970  1.00  0.00     0.144 C 
HETATM   17  C1  UNL     1      33.667  19.856  17.917  1.00  0.00     0.042 C 
HETATM   18  C3  UNL     1      32.572  19.936  20.123  1.00  0.00     0.042 C 
ENDBRANCH  15  16
ENDBRANCH  13  15
ENDBRANCH   1  13
TORSDOF 5
ENDMDL
MODEL 2
REMARK VINA RESULT: -6.641241967      0.567      1.012
REMARK  5 active torsions:
REMARK  status: ('A' for Active; 'I' for Inactive)
REMARK    1  A    between atoms: C2_2  and  O1_4 
REMARK    2  A    between atoms: O1_4  and  N1_5 
REMARK    3  A    between atoms: N1_5  and  C4_7 
REMARK    4  A    between atoms: N2_10  and  N3_11 
REMARK    5  A    between atoms: N3_11  and  N4_13 
ROOT
HETATM    1  C4  UNL     1      31.274  17.010  16.624  1.00  0.00     0.031 C 
HETATM    2  C5  UNL     1      31.631  17.381  15.249  1.00  0.00     0.077 C 
HETATM    3  C6  UNL     1      30.266  17.830  14.712  1.00  0.00     0.150 C 
HETATM    4  N2  UNL     1      29.449  16.724  15.178  1.00  0.00    -0.307 N 
HETATM    5  C7  UNL     1      29.884  16.464  16.537  1.00  0.00     0.198 C 
ENDROOT
BRANCH   4   6
HETATM    6  N3  UNL     1      28.468  16.097  14.411  1.00  0.00    -0.231 N 
ATOM      7  H3  UNL     1      27.794  16.626  13.858  1.00  0.00     0.209 HD
BRANCH   6   8
HETATM    8  N4  UNL     1      28.464  14.848  14.440  1.00  0.00    -0.235 N 
HETATM    9  N5  UNL     1      28.850  13.734  14.088  1.00  0.00    -0.330 N 
ATOM     10  H52 UNL     1      29.556  13.988  13.398  1.00  0.00     0.178 HD
ATOM     11  H51 UNL     1      28.846  12.714  14.113  1.00  0.00     0.178 HD
ATOM     12  H4  UNL     1      27.749  14.635  15.137  1.00  0.00     0.209 HD
ENDBRANCH   6   8
ENDBRANCH   4   6
BRANCH   1  13
HETATM   13  N1  UNL     1      31.962  17.107  17.708  1.00  0.00    -0.273 N 
ATOM     14  H1  UNL     1      31.942  16.331  18.370  1.00  0.00     0.193 HD
BRANCH  13  15
HETATM   15  O1  UNL     1      32.722  18.209  18.011  1.00  0.00    -0.276 OA
BRANCH  15  16
HETATM   16  C2  UNL     1      32.187  19.355  18.595  1.00  0.00     0.144 C 
HETATM   17  C1  UNL     1      32.719  19.614  19.985  1.00  0.00     0.042 C 
HETATM   18  C3  UNL     1      32.421  20.565  17.731  1.00  0.00     0.042 C 
ENDBRANCH  15  16
ENDBRANCH  13  15
ENDBRANCH   1  13
TORSDOF 5
ENDMDL
MODEL 3
REMARK VINA RESULT: -6.472128073      6.523      8.776
REMARK  5 active torsions:
REMARK  status: ('A' for Active; 'I' for Inactive)
REMARK    1  A    between atoms: C2_2  and  O1_4 
REMARK    2  A    between atoms: O1_4  and  N1_5 
REMARK    3  A    between atoms: N1_5  and  C4_7 
REMARK    4  A    between atoms: N2_10  and  N3_11 
REMARK    5  A    between atoms: N3_11  and  N4_13 
ROOT
HETATM    1  C4  UNL     1      28.440  11.194  14.214  1.00  0.00     0.031 C 
HETATM    2  C5  UNL     1      28.702  11.822  12.914  1.00  0.00     0.077 C 
HETATM    3  C6  UNL     1      29.317  13.155  13.361  1.00  0.00     0.150 C 
HETATM    4  N2  UNL     1      28.358  13.531  14.383  1.00  0.00    -0.307 N 
HETATM    5  C7  UNL     1      28.094  12.320  15.135  1.00  0.00     0.198 C 
ENDROOT
BRANCH   4   6
HETATM    6  N3  UNL     1      27.845  14.818  14.541  1.00  0.00    -0.231 N 
ATOM      7  H3  UNL     1      26.882  14.984  14.829  1.00  0.00     0.209 HD
BRANCH   6   8
HETATM    8  N4  UNL     1      28.636  15.757  14.306  1.00  0.00    -0.235 N 
HETATM    9  N5  UNL     1      28.942  16.850  13.833  1.00  0.00    -0.330 N 
ATOM     10  H52 UNL     1      28.059  17.123  13.402  1.00  0.00     0.178 HD
ATOM     11  H51 UNL     1      29.588  17.617  13.643  1.00  0.00     0.178 HD
ATOM     12  H4  UNL     1      29.501  15.447  14.750  1.00  0.00     0.209 HD
ENDBRANCH   6   8
ENDBRANCH   4   6
BRANCH   1  13
HETATM   13  N1  UNL     1      28.483   9.951  14.551  1.00  0.00    -0.273 N 
ATOM     14  H1  UNL     1      29.247   9.633  15.147  1.00  0.00     0.193 HD
BRANCH  13  15
HETATM   15  O1  UNL     1      27.544   9.037  14.142  1.00  0.00    -0.276 OA
BRANCH  15  16
HETATM   16  C2  UNL     1      27.723   8.220  13.027  1.00  0.00     0.144 C 
HETATM   17  C1  UNL     1      27.343   6.781  13.280  1.00  0.00     0.042 C 
HETATM   18  C3  UNL     1      26.957   8.745  11.842  1.00  0.00     0.042 C 
ENDBRANCH  15  16
ENDBRANCH  13  15
ENDBRANCH   1  13
TORSDOF 5
ENDMDL
MODEL 4
REMARK VINA RESULT: -6.438411565      4.630      6.367
REMARK  5 active torsions:
REMARK  status: ('A' for Active; 'I' for Inactive)
REMARK    1  A    between atoms: C2_2  and  O1_4 
REMARK    2  A    between atoms: O1_4  and  N1_5 
REMARK    3  A    between atoms: N1_5  and  C4_7 
REMARK    4  A    between atoms: N2_10  and  N3_11 
REMARK    5  A    between atoms: N3_11  and  N4_13 
ROOT
HETATM    1  C4  UNL     1      28.603  12.717  14.018  1.00  0.00     0.031 C 
HETATM    2  C5  UNL     1      27.973  11.914  15.074  1.00  0.00     0.077 C 
HETATM    3  C6  UNL     1      28.271  10.497  14.568  1.00  0.00     0.150 C 
HETATM    4  N2  UNL     1      27.879  10.649  13.179  1.00  0.00    -0.307 N 
HETATM    5  C7  UNL     1      28.421  11.928  12.760  1.00  0.00     0.198 C 
ENDROOT
BRANCH   4   6
HETATM    6  N3  UNL     1      27.135   9.711  12.467  1.00  0.00    -0.231 N 
ATOM      7  H3  UNL     1      26.320   9.975  11.913  1.00  0.00     0.209 HD
BRANCH   6   8
HETATM    8  N4  UNL     1      27.523   8.526  12.548  1.00  0.00    -0.235 N 
HETATM    9  N5  UNL     1      27.496   7.384  13.006  1.00  0.00    -0.330 N 
ATOM     10  H52 UNL     1      26.742   7.472  13.687  1.00  0.00     0.178 HD
ATOM     11  H51 UNL     1      27.813   6.417  13.071  1.00  0.00     0.178 HD
ATOM     12  H4  UNL     1      28.272   8.480  11.856  1.00  0.00     0.209 HD
ENDBRANCH   6   8
ENDBRANCH   4   6
BRANCH   1  13
HETATM   13  N1  UNL     1      29.198  13.856  14.095  1.00  0.00    -0.273 N 
ATOM     14  H1  UNL     1      29.673  14.216  13.267  1.00  0.00     0.193 HD
BRANCH  13  15
HETATM   15  O1  UNL     1      29.219  14.609  15.244  1.00  0.00    -0.276 OA
BRANCH  15  16
HETATM   16  C2  UNL     1      29.554  15.961  15.252  1.00  0.00     0.144 C 
HETATM   17  C1  UNL     1      30.125  16.422  16.572  1.00  0.00     0.042 C 
HETATM   18  C3  UNL     1      30.519  16.287  14.143  1.00  0.00     0.042 C 
ENDBRANCH  15  16
ENDBRANCH  13  15
ENDBRANCH   1  13
TORSDOF 5
ENDMDL
MODEL 5
REMARK VINA RESULT: -6.370914570      4.931      7.442
REMARK  5 active torsions:
REMARK  status: ('A' for Active; 'I' for Inactive)
REMARK    1  A    between atoms: C2_2  and  O1_4 
REMARK    2  A    between atoms: O1_4  and  N1_5 
REMARK    3  A    between atoms: N1_5  and  C4_7 
REMARK    4  A    between atoms: N2_10  and  N3_11 
REMARK    5  A    between atoms: N3_11  and  N4_13 
ROOT
HETATM    1  C4  UNL     1      33.151  22.059  17.669  1.00  0.00     0.031 C 
HETATM    2  C5  UNL     1      33.034  23.515  17.517  1.00  0.00     0.077 C 
HETATM    3  C6  UNL     1      34.031  23.762  16.377  1.00  0.00     0.150 C 
HETATM    4  N2  UNL     1      35.153  22.980  16.865  1.00  0.00    -0.307 N 
HETATM    5  C7  UNL     1      34.580  21.743  17.358  1.00  0.00     0.198 C 
ENDROOT
BRANCH   4   6
HETATM    6  N3  UNL     1      36.479  23.406  16.828  1.00  0.00    -0.231 N 
ATOM      7  H3  UNL     1      36.977  23.695  17.670  1.00  0.00     0.209 HD
BRANCH   6   8
HETATM    8  N4  UNL     1      37.023  23.414  15.703  1.00  0.00    -0.235 N 
HETATM    9  N5  UNL     1      37.133  23.778  14.533  1.00  0.00    -0.330 N 
ATOM     10  H52 UNL     1      36.345  24.422  14.460  1.00  0.00     0.178 HD
ATOM     11  H51 UNL     1      37.577  23.785  13.615  1.00  0.00     0.178 HD
ATOM     12  H4  UNL     1      37.800  22.763  15.817  1.00  0.00     0.209 HD
ENDBRANCH   6   8
ENDBRANCH   4   6
BRANCH   1  13
HETATM   13  N1  UNL     1      32.257  21.192  17.996  1.00  0.00    -0.273 N 
ATOM     14  H1  UNL     1      31.608  21.420  18.749  1.00  0.00     0.193 HD
BRANCH  13  15
HETATM   15  O1  UNL     1      32.141  19.972  17.375  1.00  0.00    -0.276 OA
BRANCH  15  16
HETATM   16  C2  UNL     1      31.841  18.801  18.067  1.00  0.00     0.144 C 
HETATM   17  C1  UNL     1      32.134  17.551  17.272  1.00  0.00     0.042 C 
HETATM   18  C3  UNL     1      32.573  18.745  19.382  1.00  0.00     0.042 C 
ENDBRANCH  15  16
ENDBRANCH  13  15
ENDBRANCH   1  13
TORSDOF 5
ENDMDL
