MODEL 1
REMARK VINA RESULT: -8.508943545      0.000      0.000
REMARK  6 active torsions:
REMARK  status: ('A' for Active; 'I' for Inactive)
REMARK    1  A    between atoms: N1_6  and  C6_7 
REMARK    2  A    between atoms: C8_12  and  S1_13 
REMARK    3  A    between atoms: S1_13  and  C9_14 
REMARK    4  A    between atoms: C12_17  and  N3_18 
REMARK    5  A    between atoms: N3_18  and  C13_21 
REMARK    6  A    between atoms: C16_24  and  N4_25 
ROOT
HETATM    1  C6  UNL     1       4.463  37.287  27.289  1.00  0.00     0.707 A 
HETATM    2  N2  UNL     1       3.792  36.895  26.161  1.00  0.00    -0.178 N 
ATOM      3  H2  UNL     1       3.005  37.450  25.824  1.00  0.00     0.185 HD
HETATM    4  C7  UNL     1       4.158  35.789  25.497  1.00  0.00     0.141 A 
HETATM    5 CL1  UNL     1       3.227  35.341  24.018  1.00  0.00    -0.062 Cl
HETATM    6  C8  UNL     1       5.183  35.025  25.894  1.00  0.00     0.108 A 
HETATM    7  C19 UNL     1       5.909  35.394  27.061  1.00  0.00     0.279 A 
HETATM    8  O1  UNL     1       6.864  34.710  27.458  1.00  0.00    -0.266 OA
HETATM    9  N5  UNL     1       5.476  36.510  27.660  1.00  0.00    -0.153 N 
ATOM     10  H5  UNL     1       5.981  36.798  28.497  1.00  0.00     0.187 HD
ENDROOT
BRANCH   6  11
HETATM   11  S1  UNL     1       5.696  33.548  25.082  1.00  0.00    -0.116 SA
BRANCH  11  12
HETATM   12  C9  UNL     1       4.980  32.058  25.856  1.00  0.00     0.055 C 
HETATM   13  C10 UNL     1       5.216  30.838  25.078  1.00  0.00     0.017 C 
HETATM   14  C11 UNL     1       3.947  30.049  25.073  1.00  0.00     0.034 C 
HETATM   15  C12 UNL     1       2.871  31.092  25.248  1.00  0.00     0.187 C 
HETATM   16  C18 UNL     1       3.496  32.206  26.017  1.00  0.00     0.048 C 
BRANCH  15  17
HETATM   17  N3  UNL     1       1.736  30.582  26.003  1.00  0.00    -0.067 N 
ATOM     18  H32 UNL     1       1.379  29.696  25.648  1.00  0.00     0.278 HD
ATOM     19  H31 UNL     1       1.987  30.254  26.935  1.00  0.00     0.278 HD
BRANCH  17  20
HETATM   20  C13 UNL     1       0.733  31.646  26.015  1.00  0.00     0.188 C 
HETATM   21  C14 UNL     1      -0.427  31.302  26.881  1.00  0.00     0.035 C 
HETATM   22  C15 UNL     1      -1.577  32.084  26.319  1.00  0.00     0.034 C 
HETATM   23  C16 UNL     1      -1.207  32.424  24.916  1.00  0.00     0.185 C 
HETATM   24  C17 UNL     1       0.128  31.800  24.629  1.00  0.00     0.065 C 
BRANCH  23  25
HETATM   25  N4  UNL     1      -1.134  33.859  24.698  1.00  0.00    -0.075 N 
ATOM     26  H43 UNL     1      -2.039  34.234  24.412  1.00  0.00     0.274 HD
ATOM     27  H42 UNL     1      -1.022  34.360  25.579  1.00  0.00     0.274 HD
ATOM     28  H41 UNL     1      -0.403  34.112  24.033  1.00  0.00     0.274 HD
ENDBRANCH  23  25
ENDBRANCH  17  20
ENDBRANCH  15  17
ENDBRANCH  11  12
ENDBRANCH   6  11
BRANCH   1  29
HETATM   29  N1  UNL     1       4.085  38.449  28.014  1.00  0.00    -0.091 N 
HETATM   30  C4  UNL     1       4.455  39.695  27.662  1.00  0.00     0.050 A 
HETATM   31  C3  UNL     1       3.891  40.524  28.597  1.00  0.00     0.053 A 
HETATM   32  C5  UNL     1       5.292  40.113  26.511  1.00  0.00     0.071 C 
HETATM   33  C2  UNL     1       3.184  39.782  29.509  1.00  0.00     0.025 A 
HETATM   34  C1  UNL     1       2.400  40.276  30.681  1.00  0.00     0.070 C 
HETATM   35  N6  UNL     1       3.331  38.496  29.109  1.00  0.00    -0.284 N 
ATOM     36  H6  UNL     1       2.924  37.686  29.576  1.00  0.00     0.188 HD
ENDBRANCH   1  29
TORSDOF 6
ENDMDL
MODEL 2
REMARK VINA RESULT: -8.495552585      1.370      1.629
REMARK  6 active torsions:
REMARK  status: ('A' for Active; 'I' for Inactive)
REMARK    1  A    between atoms: N1_6  and  C6_7 
REMARK    2  A    between atoms: C8_12  and  S1_13 
REMARK    3  A    between atoms: S1_13  and  C9_14 
REMARK    4  A    between atoms: C12_17  and  N3_18 
REMARK    5  A    between atoms: N3_18  and  C13_21 
REMARK    6  A    between atoms: C16_24  and  N4_25 
ROOT
HETATM    1  C6  UNL     1       4.393  37.326  27.223  1.00  0.00     0.707 A 
HETATM    2  N2  UNL     1       5.379  36.529  27.741  1.00  0.00    -0.178 N 
ATOM      3  H2  UNL     1       5.831  36.790  28.617  1.00  0.00     0.185 HD
HETATM    4  C7  UNL     1       5.756  35.409  27.106  1.00  0.00     0.141 A 
HETATM    5 CL1  UNL     1       7.059  34.410  27.853  1.00  0.00    -0.062 Cl
HETATM    6  C8  UNL     1       5.196  35.019  25.954  1.00  0.00     0.108 A 
HETATM    7  C19 UNL     1       4.167  35.817  25.380  1.00  0.00     0.279 A 
HETATM    8  O1  UNL     1       3.626  35.486  24.315  1.00  0.00    -0.266 OA
HETATM    9  N5  UNL     1       3.855  36.914  26.080  1.00  0.00    -0.153 N 
ATOM     10  H5  UNL     1       3.118  37.503  25.691  1.00  0.00     0.187 HD
ENDROOT
BRANCH   6  11
HETATM   11  S1  UNL     1       5.665  33.576  25.059  1.00  0.00    -0.116 SA
BRANCH  11  12
HETATM   12  C9  UNL     1       5.002  32.054  25.818  1.00  0.00     0.055 C 
HETATM   13  C10 UNL     1       5.226  30.859  24.999  1.00  0.00     0.017 C 
HETATM   14  C11 UNL     1       3.971  30.050  25.021  1.00  0.00     0.034 C 
HETATM   15  C12 UNL     1       2.886  31.070  25.264  1.00  0.00     0.187 C 
HETATM   16  C18 UNL     1       3.523  32.173  26.040  1.00  0.00     0.048 C 
BRANCH  15  17
HETATM   17  N3  UNL     1       1.789  30.522  26.048  1.00  0.00    -0.067 N 
ATOM     18  H32 UNL     1       1.445  29.630  25.693  1.00  0.00     0.278 HD
ATOM     19  H31 UNL     1       2.077  30.189  26.968  1.00  0.00     0.278 HD
BRANCH  17  20
HETATM   20  C13 UNL     1       0.759  31.558  26.104  1.00  0.00     0.188 C 
HETATM   21  C14 UNL     1      -0.314  31.219  27.076  1.00  0.00     0.035 C 
HETATM   22  C15 UNL     1      -1.530  31.947  26.584  1.00  0.00     0.034 C 
HETATM   23  C16 UNL     1      -1.288  32.239  25.143  1.00  0.00     0.185 C 
HETATM   24  C17 UNL     1       0.037  31.640  24.769  1.00  0.00     0.065 C 
BRANCH  23  25
HETATM   25  N4  UNL     1      -1.276  33.666  24.865  1.00  0.00    -0.075 N 
ATOM     26  H43 UNL     1      -2.224  34.037  24.801  1.00  0.00     0.274 HD
ATOM     27  H42 UNL     1      -0.948  34.196  25.673  1.00  0.00     0.274 HD
ATOM     28  H41 UNL     1      -0.734  33.893  24.031  1.00  0.00     0.274 HD
ENDBRANCH  23  25
ENDBRANCH  17  20
ENDBRANCH  15  17
ENDBRANCH  11  12
ENDBRANCH   6  11
BRANCH   1  29
HETATM   29  N1  UNL     1       3.985  38.523  27.873  1.00  0.00    -0.091 N 
HETATM   30  C4  UNL     1       4.487  39.736  27.574  1.00  0.00     0.050 A 
HETATM   31  C3  UNL     1       3.842  40.615  28.404  1.00  0.00     0.053 A 
HETATM   32  C5  UNL     1       5.517  40.079  26.563  1.00  0.00     0.071 C 
HETATM   33  C2  UNL     1       2.955  39.937  29.201  1.00  0.00     0.025 A 
HETATM   34  C1  UNL     1       2.035  40.501  30.233  1.00  0.00     0.070 C 
HETATM   35  N6  UNL     1       3.076  38.637  28.837  1.00  0.00    -0.284 N 
ATOM     36  H6  UNL     1       2.550  37.864  29.241  1.00  0.00     0.188 HD
ENDBRANCH   1  29
TORSDOF 6
ENDMDL
MODEL 3
REMARK VINA RESULT: -8.196896114      3.754      6.094
REMARK  6 active torsions:
REMARK  status: ('A' for Active; 'I' for Inactive)
REMARK    1  A    between atoms: N1_6  and  C6_7 
REMARK    2  A    between atoms: C8_12  and  S1_13 
REMARK    3  A    between atoms: S1_13  and  C9_14 
REMARK    4  A    between atoms: C12_17  and  N3_18 
REMARK    5  A    between atoms: N3_18  and  C13_21 
REMARK    6  A    between atoms: C16_24  and  N4_25 
ROOT
HETATM    1  C6  UNL     1       2.992  36.132  23.600  1.00  0.00     0.707 A 
HETATM    2  N2  UNL     1       3.889  37.104  23.957  1.00  0.00    -0.178 N 
ATOM      3  H2  UNL     1       3.978  37.943  23.384  1.00  0.00     0.185 HD
HETATM    4  C7  UNL     1       4.651  36.962  25.051  1.00  0.00     0.141 A 
HETATM    5 CL1  UNL     1       5.806  38.287  25.457  1.00  0.00    -0.062 Cl
HETATM    6  C8  UNL     1       4.575  35.882  25.839  1.00  0.00     0.108 A 
HETATM    7  C19 UNL     1       3.656  34.847  25.506  1.00  0.00     0.279 A 
HETATM    8  O1  UNL     1       3.558  33.834  26.213  1.00  0.00    -0.266 OA
HETATM    9  N5  UNL     1       2.936  35.073  24.400  1.00  0.00    -0.153 N 
ATOM     10  H5  UNL     1       2.268  34.347  24.141  1.00  0.00     0.187 HD
ENDROOT
BRANCH   6  11
HETATM   11  S1  UNL     1       5.566  35.624  27.272  1.00  0.00    -0.116 SA
BRANCH  11  12
HETATM   12  C9  UNL     1       7.008  34.561  26.925  1.00  0.00     0.055 C 
HETATM   13  C10 UNL     1       7.872  35.092  25.867  1.00  0.00     0.017 C 
HETATM   14  C11 UNL     1       8.261  33.953  24.981  1.00  0.00     0.034 C 
HETATM   15  C12 UNL     1       7.123  32.973  25.130  1.00  0.00     0.187 C 
HETATM   16  C18 UNL     1       6.565  33.192  26.496  1.00  0.00     0.048 C 
BRANCH  15  17
HETATM   17  N3  UNL     1       7.576  31.594  25.028  1.00  0.00    -0.067 N 
ATOM     18  H32 UNL     1       8.168  31.422  24.216  1.00  0.00     0.278 HD
ATOM     19  H31 UNL     1       8.261  31.340  25.740  1.00  0.00     0.278 HD
BRANCH  17  20
HETATM   20  C13 UNL     1       6.377  30.759  25.055  1.00  0.00     0.188 C 
HETATM   21  C14 UNL     1       6.680  29.343  24.713  1.00  0.00     0.035 C 
HETATM   22  C15 UNL     1       5.400  28.795  24.155  1.00  0.00     0.034 C 
HETATM   23  C16 UNL     1       4.595  29.970  23.721  1.00  0.00     0.185 C 
HETATM   24  C17 UNL     1       5.413  31.204  23.966  1.00  0.00     0.065 C 
BRANCH  23  25
HETATM   25  N4  UNL     1       3.334  30.068  24.436  1.00  0.00    -0.075 N 
ATOM     26  H43 UNL     1       2.542  29.929  23.808  1.00  0.00     0.274 HD
ATOM     27  H42 UNL     1       3.195  29.266  25.051  1.00  0.00     0.274 HD
ATOM     28  H41 UNL     1       3.248  30.946  24.950  1.00  0.00     0.274 HD
ENDBRANCH  23  25
ENDBRANCH  17  20
ENDBRANCH  15  17
ENDBRANCH  11  12
ENDBRANCH   6  11
BRANCH   1  29
HETATM   29  N1  UNL     1       2.182  36.257  22.438  1.00  0.00    -0.091 N 
HETATM   30  C4  UNL     1       0.847  36.082  22.444  1.00  0.00     0.050 A 
HETATM   31  C3  UNL     1       0.443  36.292  21.151  1.00  0.00     0.053 A 
HETATM   32  C5  UNL     1      -0.028  35.737  23.591  1.00  0.00     0.071 C 
HETATM   33  C2  UNL     1       1.529  36.593  20.368  1.00  0.00     0.025 A 
HETATM   34  C1  UNL     1       1.547  36.911  18.909  1.00  0.00     0.070 C 
HETATM   35  N6  UNL     1       2.591  36.561  21.210  1.00  0.00    -0.284 N 
ATOM     36  H6  UNL     1       3.558  36.743  20.942  1.00  0.00     0.188 HD
ENDBRANCH   1  29
TORSDOF 6
ENDMDL
MODEL 4
REMARK VINA RESULT: -8.133855512      1.535      1.918
REMARK  6 active torsions:
REMARK  status: ('A' for Active; 'I' for Inactive)
REMARK    1  A    between atoms: N1_6  and  C6_7 
REMARK    2  A    between atoms: C8_12  and  S1_13 
REMARK    3  A    between atoms: S1_13  and  C9_14 
REMARK    4  A    between atoms: C12_17  and  N3_18 
REMARK    5  A    between atoms: N3_18  and  C13_21 
REMARK    6  A    between atoms: C16_24  and  N4_25 
ROOT
HETATM    1  C6  UNL     1       4.460  37.313  27.276  1.00  0.00     0.707 A 
HETATM    2  N2  UNL     1       5.460  36.497  27.737  1.00  0.00    -0.178 N 
ATOM      3  H2  UNL     1       5.921  36.715  28.620  1.00  0.00     0.185 HD
HETATM    4  C7  UNL     1       5.837  35.416  27.039  1.00  0.00     0.141 A 
HETATM    5 CL1  UNL     1       7.158  34.390  27.715  1.00  0.00    -0.062 Cl
HETATM    6  C8  UNL     1       5.264  35.083  25.875  1.00  0.00     0.108 A 
HETATM    7  C19 UNL     1       4.222  35.902  25.358  1.00  0.00     0.279 A 
HETATM    8  O1  UNL     1       3.670  35.623  24.284  1.00  0.00    -0.266 OA
HETATM    9  N5  UNL     1       3.910  36.958  26.119  1.00  0.00    -0.153 N 
ATOM     10  H5  UNL     1       3.164  37.559  25.772  1.00  0.00     0.187 HD
ENDROOT
BRANCH   6  11
HETATM   11  S1  UNL     1       5.733  33.694  24.899  1.00  0.00    -0.116 SA
BRANCH  11  12
HETATM   12  C9  UNL     1       5.129  32.124  25.607  1.00  0.00     0.055 C 
HETATM   13  C10 UNL     1       4.995  31.058  24.611  1.00  0.00     0.017 C 
HETATM   14  C11 UNL     1       3.708  30.347  24.874  1.00  0.00     0.034 C 
HETATM   15  C12 UNL     1       2.846  31.392  25.538  1.00  0.00     0.187 C 
HETATM   16  C18 UNL     1       3.783  32.313  26.244  1.00  0.00     0.048 C 
BRANCH  15  17
HETATM   17  N3  UNL     1       1.940  30.809  26.517  1.00  0.00    -0.067 N 
ATOM     18  H32 UNL     1       2.185  29.853  26.775  1.00  0.00     0.278 HD
ATOM     19  H31 UNL     1       2.032  31.218  27.446  1.00  0.00     0.278 HD
BRANCH  17  20
HETATM   20  C13 UNL     1       0.593  30.931  25.962  1.00  0.00     0.188 C 
HETATM   21  C14 UNL     1       0.488  32.072  25.013  1.00  0.00     0.035 C 
HETATM   22  C15 UNL     1      -0.957  32.472  25.044  1.00  0.00     0.034 C 
HETATM   23  C16 UNL     1      -1.512  31.940  26.320  1.00  0.00     0.185 C 
HETATM   24  C17 UNL     1      -0.391  31.278  27.067  1.00  0.00     0.065 C 
BRANCH  23  25
HETATM   25  N4  UNL     1      -2.584  30.984  26.099  1.00  0.00    -0.075 N 
ATOM     26  H43 UNL     1      -2.499  30.540  25.184  1.00  0.00     0.274 HD
ATOM     27  H42 UNL     1      -2.472  30.161  26.690  1.00  0.00     0.274 HD
ATOM     28  H41 UNL     1      -3.507  31.403  26.220  1.00  0.00     0.274 HD
ENDBRANCH  23  25
ENDBRANCH  17  20
ENDBRANCH  15  17
ENDBRANCH  11  12
ENDBRANCH   6  11
BRANCH   1  29
HETATM   29  N1  UNL     1       4.052  38.470  27.994  1.00  0.00    -0.091 N 
HETATM   30  C4  UNL     1       4.428  39.719  27.661  1.00  0.00     0.050 A 
HETATM   31  C3  UNL     1       3.828  40.540  28.580  1.00  0.00     0.053 A 
HETATM   32  C5  UNL     1       5.301  40.146  26.541  1.00  0.00     0.071 C 
HETATM   33  C2  UNL     1       3.094  39.791  29.464  1.00  0.00     0.025 A 
HETATM   34  C1  UNL     1       2.269  40.275  30.610  1.00  0.00     0.070 C 
HETATM   35  N6  UNL     1       3.260  38.507  29.062  1.00  0.00    -0.284 N 
ATOM     36  H6  UNL     1       2.842  37.693  29.511  1.00  0.00     0.188 HD
ENDBRANCH   1  29
TORSDOF 6
ENDMDL
MODEL 5
REMARK VINA RESULT: -8.119144560      3.551      7.082
REMARK  6 active torsions:
REMARK  status: ('A' for Active; 'I' for Inactive)
REMARK    1  A    between atoms: N1_6  and  C6_7 
REMARK    2  A    between atoms: C8_12  and  S1_13 
REMARK    3  A    between atoms: S1_13  and  C9_14 
REMARK    4  A    between atoms: C12_17  and  N3_18 
REMARK    5  A    between atoms: N3_18  and  C13_21 
REMARK    6  A    between atoms: C16_24  and  N4_25 
ROOT
HETATM    1  C6  UNL     1       6.996  32.903  24.786  1.00  0.00     0.707 A 
HETATM    2  N2  UNL     1       7.533  34.163  24.820  1.00  0.00    -0.178 N 
ATOM      3  H2  UNL     1       8.421  34.345  24.353  1.00  0.00     0.185 HD
HETATM    4  C7  UNL     1       6.903  35.158  25.462  1.00  0.00     0.141 A 
HETATM    5 CL1  UNL     1       7.672  36.789  25.458  1.00  0.00    -0.062 Cl
HETATM    6  C8  UNL     1       5.735  34.974  26.091  1.00  0.00     0.108 A 
HETATM    7  C19 UNL     1       5.141  33.681  26.082  1.00  0.00     0.279 A 
HETATM    8  O1  UNL     1       4.060  33.475  26.653  1.00  0.00    -0.266 OA
HETATM    9  N5  UNL     1       5.837  32.750  25.418  1.00  0.00    -0.153 N 
ATOM     10  H5  UNL     1       5.431  31.815  25.394  1.00  0.00     0.187 HD
ENDROOT
BRANCH   6  11
HETATM   11  S1  UNL     1       4.873  36.231  26.973  1.00  0.00    -0.116 SA
BRANCH  11  12
HETATM   12  C9  UNL     1       3.833  37.250  25.872  1.00  0.00     0.055 C 
HETATM   13  C10 UNL     1       2.803  38.005  26.592  1.00  0.00     0.017 C 
HETATM   14  C11 UNL     1       1.534  37.906  25.810  1.00  0.00     0.034 C 
HETATM   15  C12 UNL     1       1.669  36.600  25.064  1.00  0.00     0.187 C 
HETATM   16  C18 UNL     1       3.132  36.390  24.861  1.00  0.00     0.048 C 
BRANCH  15  17
HETATM   17  N3  UNL     1       1.020  36.647  23.763  1.00  0.00    -0.067 N 
ATOM     18  H32 UNL     1       0.186  37.234  23.748  1.00  0.00     0.278 HD
ATOM     19  H31 UNL     1       1.552  37.165  23.065  1.00  0.00     0.278 HD
BRANCH  17  20
HETATM   20  C13 UNL     1       0.758  35.261  23.379  1.00  0.00     0.188 C 
HETATM   21  C14 UNL     1       0.139  35.168  22.029  1.00  0.00     0.035 C 
HETATM   22  C15 UNL     1      -0.635  33.884  22.043  1.00  0.00     0.034 C 
HETATM   23  C16 UNL     1      -0.867  33.550  23.476  1.00  0.00     0.185 C 
HETATM   24  C17 UNL     1      -0.285  34.657  24.306  1.00  0.00     0.065 C 
BRANCH  23  25
HETATM   25  N4  UNL     1      -0.259  32.284  23.852  1.00  0.00    -0.075 N 
ATOM     26  H43 UNL     1      -0.634  31.516  23.297  1.00  0.00     0.274 HD
ATOM     27  H42 UNL     1       0.715  32.240  23.553  1.00  0.00     0.274 HD
ATOM     28  H41 UNL     1      -0.346  32.095  24.851  1.00  0.00     0.274 HD
ENDBRANCH  23  25
ENDBRANCH  17  20
ENDBRANCH  15  17
ENDBRANCH  11  12
ENDBRANCH   6  11
BRANCH   1  29
HETATM   29  N1  UNL     1       7.652  31.831  24.122  1.00  0.00    -0.091 N 
HETATM   30  C4  UNL     1       7.018  30.965  23.309  1.00  0.00     0.050 A 
HETATM   31  C3  UNL     1       7.986  30.100  22.868  1.00  0.00     0.053 A 
HETATM   32  C5  UNL     1       5.580  30.931  22.947  1.00  0.00     0.071 C 
HETATM   33  C2  UNL     1       9.198  30.443  23.411  1.00  0.00     0.025 A 
HETATM   34  C1  UNL     1      10.520  29.785  23.188  1.00  0.00     0.070 C 
HETATM   35  N6  UNL     1       8.945  31.526  24.185  1.00  0.00    -0.284 N 
ATOM     36  H6  UNL     1       9.641  32.031  24.733  1.00  0.00     0.188 HD
ENDBRANCH   1  29
TORSDOF 6
ENDMDL
