MODEL 1
REMARK VINA RESULT: -8.162089454      0.000      0.000
REMARK  7 active torsions:
REMARK  status: ('A' for Active; 'I' for Inactive)
REMARK    1  A    between atoms: C2_2  and  C5_5 
REMARK    2  A    between atoms: C5_5  and  C6_6 
REMARK    3  A    between atoms: C6_6  and  N1_7 
REMARK    4  A    between atoms: N1_7  and  C7_9 
REMARK    5  A    between atoms: C9_15  and  O1_16 
REMARK    6  A    between atoms: O1_16  and  C10_17 
REMARK    7  A    between atoms: C21_33  and  O3_35 
ROOT
HETATM    1  C7  UNL     1       7.075  34.250  25.682  1.00  0.00     0.144 A 
HETATM    2  N2  UNL     1       6.026  35.026  25.378  1.00  0.00    -0.324 N 
ATOM      3  H2  UNL     1       5.141  34.674  25.012  1.00  0.00     0.169 HD
HETATM    4  C8  UNL     1       6.280  36.324  25.617  1.00  0.00     0.139 A 
HETATM    5  N3  UNL     1       5.605  37.476  25.494  1.00  0.00    -0.319 N 
ATOM      6  H3  UNL     1       4.650  37.455  25.137  1.00  0.00     0.169 HD
HETATM    7  C9  UNL     1       6.147  38.653  25.825  1.00  0.00     0.182 A 
HETATM    8  C15 UNL     1       7.433  38.671  26.304  1.00  0.00     0.166 A 
HETATM    9  C16 UNL     1       8.081  39.904  26.681  1.00  0.00     0.122 C 
HETATM   10  N4  UNL     1       8.589  40.898  26.966  1.00  0.00    -0.190 NA
HETATM   11  N5  UNL     1       8.146  37.543  26.443  1.00  0.00    -0.339 N 
ATOM     12  H5  UNL     1       9.101  37.570  26.800  1.00  0.00     0.167 HD
HETATM   13  C17 UNL     1       7.569  36.375  26.100  1.00  0.00     0.121 A 
HETATM   14  C18 UNL     1       8.067  35.091  26.142  1.00  0.00     0.190 A 
HETATM   15  F1  UNL     1       9.275  34.671  26.544  1.00  0.00    -0.200 F 
ENDROOT
BRANCH   7  16
HETATM   16  O1  UNL     1       5.486  39.863  25.715  1.00  0.00    -0.328 OA
BRANCH  16  17
HETATM   17  C10 UNL     1       4.294  40.196  26.351  1.00  0.00     0.134 C 
HETATM   18  C11 UNL     1       3.704  41.499  25.855  1.00  0.00     0.059 C 
HETATM   19  C12 UNL     1       4.614  42.647  26.187  1.00  0.00     0.170 C 
HETATM   20  O2  UNL     1       5.537  42.364  27.166  1.00  0.00    -0.391 OA
HETATM   21  C13 UNL     1       5.012  41.681  28.247  1.00  0.00     0.170 C 
HETATM   22  C14 UNL     1       4.455  40.338  27.857  1.00  0.00     0.059 C 
ENDBRANCH  16  17
ENDBRANCH   7  16
BRANCH   1  23
HETATM   23  N1  UNL     1       7.111  32.831  25.538  1.00  0.00    -0.373 N 
ATOM     24  H1  UNL     1       7.817  32.271  26.013  1.00  0.00     0.161 HD
BRANCH  23  25
HETATM   25  C6  UNL     1       6.134  32.230  24.714  1.00  0.00     0.134 C 
BRANCH  25  26
HETATM   26  C5  UNL     1       6.350  30.799  24.288  1.00  0.00     0.013 A 
HETATM   27  C19 UNL     1       7.422  30.230  25.237  1.00  0.00     0.018 A 
HETATM   28  C20 UNL     1       8.412  30.085  24.125  1.00  0.00     0.039 A 
HETATM   29  C21 UNL     1       7.352  30.706  23.206  1.00  0.00     0.064 A 
HETATM   30  C22 UNL     1       7.185  29.838  22.026  1.00  0.00     0.047 C 
BRANCH  26  31
HETATM   31  C2  UNL     1       5.155  29.966  24.311  1.00  0.00    -0.039 C 
HETATM   32  C1  UNL     1       4.210  30.585  25.367  1.00  0.00     0.015 C 
HETATM   33  C3  UNL     1       4.319  29.800  23.099  1.00  0.00     0.015 C 
HETATM   34  C4  UNL     1       5.389  28.544  24.842  1.00  0.00     0.015 C 
ENDBRANCH  26  31
BRANCH  29  35
HETATM   35  O3  UNL     1       7.829  31.977  22.799  1.00  0.00    -0.389 OA
ATOM     36  H3  UNL     1       8.194  31.963  21.922  1.00  0.00     0.210 HD
ENDBRANCH  29  35
ENDBRANCH  25  26
ENDBRANCH  23  25
ENDBRANCH   1  23
TORSDOF 7
ENDMDL
MODEL 2
REMARK VINA RESULT: -7.895506345      2.322      9.081
REMARK  7 active torsions:
REMARK  status: ('A' for Active; 'I' for Inactive)
REMARK    1  A    between atoms: C2_2  and  C5_5 
REMARK    2  A    between atoms: C5_5  and  C6_6 
REMARK    3  A    between atoms: C6_6  and  N1_7 
REMARK    4  A    between atoms: N1_7  and  C7_9 
REMARK    5  A    between atoms: C9_15  and  O1_16 
REMARK    6  A    between atoms: O1_16  and  C10_17 
REMARK    7  A    between atoms: C21_33  and  O3_35 
ROOT
HETATM    1  C7  UNL     1       5.891  35.239  26.575  1.00  0.00     0.144 A 
HETATM    2  N2  UNL     1       7.104  34.736  26.309  1.00  0.00    -0.324 N 
ATOM      3  H2  UNL     1       7.976  35.254  26.420  1.00  0.00     0.169 HD
HETATM    4  C8  UNL     1       7.033  33.465  25.879  1.00  0.00     0.139 A 
HETATM    5  N3  UNL     1       7.911  32.528  25.489  1.00  0.00    -0.319 N 
ATOM      6  H3  UNL     1       8.906  32.752  25.489  1.00  0.00     0.169 HD
HETATM    7  C9  UNL     1       7.520  31.310  25.101  1.00  0.00     0.182 A 
HETATM    8  C15 UNL     1       6.179  31.018  25.105  1.00  0.00     0.166 A 
HETATM    9  C16 UNL     1       5.686  29.724  24.699  1.00  0.00     0.122 C 
HETATM   10  N4  UNL     1       5.307  28.690  24.360  1.00  0.00    -0.190 NA
HETATM   11  N5  UNL     1       5.265  31.924  25.485  1.00  0.00    -0.339 N 
ATOM     12  H5  UNL     1       4.271  31.696  25.483  1.00  0.00     0.167 HD
HETATM   13  C17 UNL     1       5.693  33.141  25.871  1.00  0.00     0.121 A 
HETATM   14  C18 UNL     1       4.981  34.240  26.301  1.00  0.00     0.190 A 
HETATM   15  F1  UNL     1       3.656  34.376  26.450  1.00  0.00    -0.200 F 
ENDROOT
BRANCH   7  16
HETATM   16  O1  UNL     1       8.391  30.316  24.694  1.00  0.00    -0.328 OA
BRANCH  16  17
HETATM   17  C10 UNL     1       8.745  30.038  23.377  1.00  0.00     0.134 C 
HETATM   18  C11 UNL     1      10.202  29.657  23.224  1.00  0.00     0.059 C 
HETATM   19  C12 UNL     1      11.087  30.814  23.590  1.00  0.00     0.170 C 
HETATM   20  O2  UNL     1      10.445  32.030  23.594  1.00  0.00    -0.391 OA
HETATM   21  C13 UNL     1       9.618  32.227  22.506  1.00  0.00     0.170 C 
HETATM   22  C14 UNL     1       8.504  31.216  22.446  1.00  0.00     0.059 C 
ENDBRANCH  16  17
ENDBRANCH   7  16
BRANCH   1  23
HETATM   23  N1  UNL     1       5.642  36.562  27.048  1.00  0.00    -0.373 N 
ATOM     24  H1  UNL     1       6.354  37.082  27.560  1.00  0.00     0.161 HD
BRANCH  23  25
HETATM   25  C6  UNL     1       4.375  37.126  26.782  1.00  0.00     0.134 C 
BRANCH  25  26
HETATM   26  C5  UNL     1       4.327  38.469  26.096  1.00  0.00     0.013 A 
HETATM   27  C19 UNL     1       5.785  38.813  25.732  1.00  0.00     0.018 A 
HETATM   28  C20 UNL     1       5.810  39.967  26.683  1.00  0.00     0.039 A 
HETATM   29  C21 UNL     1       4.379  39.575  27.074  1.00  0.00     0.064 A 
HETATM   30  C22 UNL     1       3.522  40.771  26.985  1.00  0.00     0.047 C 
BRANCH  26  31
HETATM   31  C2  UNL     1       3.480  38.522  24.912  1.00  0.00    -0.039 C 
HETATM   32  C1  UNL     1       3.623  37.152  24.209  1.00  0.00     0.015 C 
HETATM   33  C3  UNL     1       2.020  38.741  25.029  1.00  0.00     0.015 C 
HETATM   34  C4  UNL     1       3.956  39.515  23.841  1.00  0.00     0.015 C 
ENDBRANCH  26  31
BRANCH  29  35
HETATM   35  O3  UNL     1       4.412  39.111  28.413  1.00  0.00    -0.389 OA
ATOM     36  H3  UNL     1       4.159  39.783  29.035  1.00  0.00     0.210 HD
ENDBRANCH  29  35
ENDBRANCH  25  26
ENDBRANCH  23  25
ENDBRANCH   1  23
TORSDOF 7
ENDMDL
MODEL 3
REMARK VINA RESULT: -7.888055021      1.683      2.564
REMARK  7 active torsions:
REMARK  status: ('A' for Active; 'I' for Inactive)
REMARK    1  A    between atoms: C2_2  and  C5_5 
REMARK    2  A    between atoms: C5_5  and  C6_6 
REMARK    3  A    between atoms: C6_6  and  N1_7 
REMARK    4  A    between atoms: N1_7  and  C7_9 
REMARK    5  A    between atoms: C9_15  and  O1_16 
REMARK    6  A    between atoms: O1_16  and  C10_17 
REMARK    7  A    between atoms: C21_33  and  O3_35 
ROOT
HETATM    1  C7  UNL     1       6.901  34.505  25.620  1.00  0.00     0.144 A 
HETATM    2  N2  UNL     1       7.732  35.535  25.413  1.00  0.00    -0.324 N 
ATOM      3  H2  UNL     1       8.654  35.449  24.985  1.00  0.00     0.169 HD
HETATM    4  C8  UNL     1       7.203  36.696  25.837  1.00  0.00     0.139 A 
HETATM    5  N3  UNL     1       7.594  37.978  25.868  1.00  0.00    -0.319 N 
ATOM      6  H3  UNL     1       8.511  38.226  25.497  1.00  0.00     0.169 HD
HETATM    7  C9  UNL     1       6.816  38.942  26.372  1.00  0.00     0.182 A 
HETATM    8  C15 UNL     1       5.585  38.600  26.870  1.00  0.00     0.166 A 
HETATM    9  C16 UNL     1       4.694  39.588  27.429  1.00  0.00     0.122 C 
HETATM   10  N4  UNL     1       3.999  40.387  27.883  1.00  0.00    -0.190 NA
HETATM   11  N5  UNL     1       5.152  37.329  26.860  1.00  0.00    -0.339 N 
ATOM     12  H5  UNL     1       4.235  37.086  27.233  1.00  0.00     0.167 HD
HETATM   13  C17 UNL     1       5.960  36.383  26.344  1.00  0.00     0.121 A 
HETATM   14  C18 UNL     1       5.769  35.025  26.213  1.00  0.00     0.190 A 
HETATM   15  F1  UNL     1       4.708  34.288  26.570  1.00  0.00    -0.200 F 
ENDROOT
BRANCH   7  16
HETATM   16  O1  UNL     1       7.180  40.276  26.423  1.00  0.00    -0.328 OA
BRANCH  16  17
HETATM   17  C10 UNL     1       8.484  40.757  26.511  1.00  0.00     0.134 C 
HETATM   18  C11 UNL     1       8.986  40.843  27.936  1.00  0.00     0.059 C 
HETATM   19  C12 UNL     1       8.186  41.847  28.715  1.00  0.00     0.170 C 
HETATM   20  O2  UNL     1       7.475  42.726  27.931  1.00  0.00    -0.391 OA
HETATM   21  C13 UNL     1       8.196  43.228  26.864  1.00  0.00     0.170 C 
HETATM   22  C14 UNL     1       8.635  42.147  25.913  1.00  0.00     0.059 C 
ENDBRANCH  16  17
ENDBRANCH   7  16
BRANCH   1  23
HETATM   23  N1  UNL     1       7.180  33.149  25.277  1.00  0.00    -0.373 N 
ATOM     24  H1  UNL     1       8.044  32.696  25.573  1.00  0.00     0.161 HD
BRANCH  23  25
HETATM   25  C6  UNL     1       6.216  32.454  24.513  1.00  0.00     0.134 C 
BRANCH  25  26
HETATM   26  C5  UNL     1       6.453  30.989  24.238  1.00  0.00     0.013 A 
HETATM   27  C19 UNL     1       7.507  30.528  25.264  1.00  0.00     0.018 A 
HETATM   28  C20 UNL     1       8.523  30.281  24.194  1.00  0.00     0.039 A 
HETATM   29  C21 UNL     1       7.480  30.796  23.194  1.00  0.00     0.064 A 
HETATM   30  C22 UNL     1       7.346  29.811  22.104  1.00  0.00     0.047 C 
BRANCH  26  31
HETATM   31  C2  UNL     1       5.264  30.151  24.319  1.00  0.00    -0.039 C 
HETATM   32  C1  UNL     1       4.340  30.802  25.375  1.00  0.00     0.015 C 
HETATM   33  C3  UNL     1       4.401  29.937  23.135  1.00  0.00     0.015 C 
HETATM   34  C4  UNL     1       5.519  28.749  24.895  1.00  0.00     0.015 C 
ENDBRANCH  26  31
BRANCH  29  35
HETATM   35  O3  UNL     1       7.956  32.024  22.671  1.00  0.00    -0.389 OA
ATOM     36  H3  UNL     1       8.874  32.170  22.869  1.00  0.00     0.210 HD
ENDBRANCH  29  35
ENDBRANCH  25  26
ENDBRANCH  23  25
ENDBRANCH   1  23
TORSDOF 7
ENDMDL
MODEL 4
REMARK VINA RESULT: -7.824859363      2.143      2.462
REMARK  7 active torsions:
REMARK  status: ('A' for Active; 'I' for Inactive)
REMARK    1  A    between atoms: C2_2  and  C5_5 
REMARK    2  A    between atoms: C5_5  and  C6_6 
REMARK    3  A    between atoms: C6_6  and  N1_7 
REMARK    4  A    between atoms: N1_7  and  C7_9 
REMARK    5  A    between atoms: C9_15  and  O1_16 
REMARK    6  A    between atoms: O1_16  and  C10_17 
REMARK    7  A    between atoms: C21_33  and  O3_35 
ROOT
HETATM    1  C7  UNL     1       6.495  34.429  25.774  1.00  0.00     0.144 A 
HETATM    2  N2  UNL     1       5.614  35.092  25.013  1.00  0.00    -0.324 N 
ATOM      3  H2  UNL     1       5.455  34.901  24.024  1.00  0.00     0.169 HD
HETATM    4  C8  UNL     1       4.965  36.039  25.712  1.00  0.00     0.139 A 
HETATM    5  N3  UNL     1       4.020  36.953  25.449  1.00  0.00    -0.319 N 
ATOM      6  H3  UNL     1       3.640  37.015  24.504  1.00  0.00     0.169 HD
HETATM    7  C9  UNL     1       3.560  37.786  26.388  1.00  0.00     0.182 A 
HETATM    8  C15 UNL     1       4.077  37.696  27.656  1.00  0.00     0.166 A 
HETATM    9  C16 UNL     1       3.628  38.563  28.719  1.00  0.00     0.122 C 
HETATM   10  N4  UNL     1       3.268  39.270  29.554  1.00  0.00    -0.190 NA
HETATM   11  N5  UNL     1       5.025  36.797  27.965  1.00  0.00    -0.339 N 
ATOM     12  H5  UNL     1       5.402  36.740  28.911  1.00  0.00     0.167 HD
HETATM   13  C17 UNL     1       5.465  35.973  26.995  1.00  0.00     0.121 A 
HETATM   14  C18 UNL     1       6.415  34.976  27.038  1.00  0.00     0.190 A 
HETATM   15  F1  UNL     1       7.154  34.565  28.078  1.00  0.00    -0.200 F 
ENDROOT
BRANCH   7  16
HETATM   16  O1  UNL     1       2.587  38.741  26.159  1.00  0.00    -0.328 OA
BRANCH  16  17
HETATM   17  C10 UNL     1       2.570  39.644  25.099  1.00  0.00     0.134 C 
HETATM   18  C11 UNL     1       3.863  40.421  24.965  1.00  0.00     0.059 C 
HETATM   19  C12 UNL     1       4.076  41.294  26.168  1.00  0.00     0.170 C 
HETATM   20  O2  UNL     1       2.939  41.512  26.911  1.00  0.00    -0.391 OA
HETATM   21  C13 UNL     1       1.824  41.801  26.149  1.00  0.00     0.170 C 
HETATM   22  C14 UNL     1       1.457  40.672  25.224  1.00  0.00     0.059 C 
ENDBRANCH  16  17
ENDBRANCH   7  16
BRANCH   1  23
HETATM   23  N1  UNL     1       7.333  33.368  25.318  1.00  0.00    -0.373 N 
ATOM     24  H1  UNL     1       8.112  33.546  24.685  1.00  0.00     0.161 HD
BRANCH  23  25
HETATM   25  C6  UNL     1       7.046  32.062  25.775  1.00  0.00     0.134 C 
BRANCH  25  26
HETATM   26  C5  UNL     1       7.005  30.949  24.756  1.00  0.00     0.013 A 
HETATM   27  C19 UNL     1       7.810  29.785  25.365  1.00  0.00     0.018 A 
HETATM   28  C20 UNL     1       8.873  29.898  24.319  1.00  0.00     0.039 A 
HETATM   29  C21 UNL     1       8.087  31.091  23.760  1.00  0.00     0.064 A 
HETATM   30  C22 UNL     1       7.883  30.886  22.314  1.00  0.00     0.047 C 
BRANCH  26  31
HETATM   31  C2  UNL     1       5.667  30.506  24.388  1.00  0.00    -0.039 C 
HETATM   32  C1  UNL     1       4.708  31.066  25.465  1.00  0.00     0.015 C 
HETATM   33  C3  UNL     1       5.063  30.900  23.095  1.00  0.00     0.015 C 
HETATM   34  C4  UNL     1       5.457  28.987  24.489  1.00  0.00     0.015 C 
ENDBRANCH  26  31
BRANCH  29  35
HETATM   35  O3  UNL     1       8.867  32.255  23.971  1.00  0.00    -0.389 OA
ATOM     36  H3  UNL     1       9.796  32.096  23.850  1.00  0.00     0.210 HD
ENDBRANCH  29  35
ENDBRANCH  25  26
ENDBRANCH  23  25
ENDBRANCH   1  23
TORSDOF 7
ENDMDL
MODEL 5
REMARK VINA RESULT: -7.722446123      2.137      2.973
REMARK  7 active torsions:
REMARK  status: ('A' for Active; 'I' for Inactive)
REMARK    1  A    between atoms: C2_2  and  C5_5 
REMARK    2  A    between atoms: C5_5  and  C6_6 
REMARK    3  A    between atoms: C6_6  and  N1_7 
REMARK    4  A    between atoms: N1_7  and  C7_9 
REMARK    5  A    between atoms: C9_15  and  O1_16 
REMARK    6  A    between atoms: O1_16  and  C10_17 
REMARK    7  A    between atoms: C21_33  and  O3_35 
ROOT
HETATM    1  C7  UNL     1       6.378  34.252  25.751  1.00  0.00     0.144 A 
HETATM    2  N2  UNL     1       6.569  35.217  26.660  1.00  0.00    -0.324 N 
ATOM      3  H2  UNL     1       7.404  35.298  27.241  1.00  0.00     0.169 HD
HETATM    4  C8  UNL     1       5.528  36.065  26.714  1.00  0.00     0.139 A 
HETATM    5  N3  UNL     1       5.214  37.161  27.419  1.00  0.00    -0.319 N 
ATOM      6  H3  UNL     1       5.876  37.510  28.113  1.00  0.00     0.169 HD
HETATM    7  C9  UNL     1       4.059  37.811  27.240  1.00  0.00     0.182 A 
HETATM    8  C15 UNL     1       3.176  37.334  26.305  1.00  0.00     0.166 A 
HETATM    9  C16 UNL     1       1.911  37.985  26.059  1.00  0.00     0.122 C 
HETATM   10  N4  UNL     1       0.900  38.508  25.883  1.00  0.00    -0.190 NA
HETATM   11  N5  UNL     1       3.447  36.240  25.576  1.00  0.00    -0.339 N 
ATOM     12  H5  UNL     1       2.783  35.895  24.885  1.00  0.00     0.167 HD
HETATM   13  C17 UNL     1       4.620  35.611  25.782  1.00  0.00     0.121 A 
HETATM   14  C18 UNL     1       5.143  34.485  25.183  1.00  0.00     0.190 A 
HETATM   15  F1  UNL     1       4.605  33.718  24.223  1.00  0.00    -0.200 F 
ENDROOT
BRANCH   7  16
HETATM   16  O1  UNL     1       3.697  38.945  27.945  1.00  0.00    -0.328 OA
BRANCH  16  17
HETATM   17  C10 UNL     1       4.476  40.089  28.096  1.00  0.00     0.134 C 
HETATM   18  C11 UNL     1       3.783  41.174  28.892  1.00  0.00     0.059 C 
HETATM   19  C12 UNL     1       2.569  41.668  28.157  1.00  0.00     0.170 C 
HETATM   20  O2  UNL     1       2.558  41.353  26.819  1.00  0.00    -0.391 OA
HETATM   21  C13 UNL     1       3.769  41.562  26.187  1.00  0.00     0.170 C 
HETATM   22  C14 UNL     1       4.867  40.709  26.764  1.00  0.00     0.059 C 
ENDBRANCH  16  17
ENDBRANCH   7  16
BRANCH   1  23
HETATM   23  N1  UNL     1       7.303  33.205  25.463  1.00  0.00    -0.373 N 
ATOM     24  H1  UNL     1       8.192  33.398  25.004  1.00  0.00     0.161 HD
BRANCH  23  25
HETATM   25  C6  UNL     1       6.945  31.891  25.838  1.00  0.00     0.134 C 
BRANCH  25  26
HETATM   26  C5  UNL     1       6.973  30.819  24.776  1.00  0.00     0.013 A 
HETATM   27  C19 UNL     1       7.852  29.685  25.338  1.00  0.00     0.018 A 
HETATM   28  C20 UNL     1       8.904  29.907  24.299  1.00  0.00     0.039 A 
HETATM   29  C21 UNL     1       8.042  31.070  23.787  1.00  0.00     0.064 A 
HETATM   30  C22 UNL     1       7.850  30.910  22.334  1.00  0.00     0.047 C 
BRANCH  26  31
HETATM   31  C2  UNL     1       5.666  30.306  24.389  1.00  0.00    -0.039 C 
HETATM   32  C1  UNL     1       4.670  30.784  25.471  1.00  0.00     0.015 C 
HETATM   33  C3  UNL     1       5.046  30.694  23.101  1.00  0.00     0.015 C 
HETATM   34  C4  UNL     1       5.545  28.776  24.454  1.00  0.00     0.015 C 
ENDBRANCH  26  31
BRANCH  29  35
HETATM   35  O3  UNL     1       8.747  32.271  24.046  1.00  0.00    -0.389 OA
ATOM     36  H3  UNL     1       8.189  33.038  23.986  1.00  0.00     0.210 HD
ENDBRANCH  29  35
ENDBRANCH  25  26
ENDBRANCH  23  25
ENDBRANCH   1  23
TORSDOF 7
ENDMDL
