MODEL 1
REMARK VINA RESULT: -8.178752845      0.000      0.000
REMARK  10 active torsions:
REMARK  status: ('A' for Active; 'I' for Inactive)
REMARK    1  A    between atoms: C2_2  and  C3_3 
REMARK    2  A    between atoms: C4_4  and  C5_5 
REMARK    3  A    between atoms: C6_8  and  N2_9 
REMARK    4  A    between atoms: C7_13  and  S2_14 
REMARK    5  A    between atoms: S2_14  and  C8_15 
REMARK    6  A    between atoms: C8_15  and  C9_16 
REMARK       I    between atoms: C9_16  and  N3_18 
REMARK    7  A    between atoms: N3_18  and  C10_20 
REMARK    8  A    between atoms: C13_25  and  C14_26 
REMARK    9  A    between atoms: C14_26  and  O3_28 
REMARK   10  A    between atoms: O3_28  and  C15_29 
ROOT
HETATM    1  C9  UNL     1       3.967  30.979  25.186  1.00  0.00     0.233 C 
HETATM    2  O1  UNL     1       3.429  30.721  24.057  1.00  0.00    -0.272 OA
HETATM    3  N3  UNL     1       5.218  30.395  25.435  1.00  0.00    -0.306 N 
ATOM      4  H3  UNL     1       5.283  29.517  25.949  1.00  0.00     0.171 HD
ENDROOT
BRANCH   1   5
HETATM    5  C8  UNL     1       3.248  31.852  26.120  1.00  0.00     0.183 C 
BRANCH   5   6
HETATM    6  S2  UNL     1       1.945  32.765  25.294  1.00  0.00    -0.110 SA
BRANCH   6   7
HETATM    7  C7  UNL     1       0.344  32.159  25.883  1.00  0.00     0.080 A 
HETATM    8  C5  UNL     1      -0.877  32.210  25.259  1.00  0.00     0.112 A 
HETATM    9  N1  UNL     1      -1.897  31.701  25.889  1.00  0.00    -0.328 N 
HETATM   10  C6  UNL     1      -1.706  31.164  27.094  1.00  0.00     0.144 A 
ATOM     11  H1  UNL     1      -2.826  31.714  25.467  1.00  0.00     0.168 HD
HETATM   12  S1  UNL     1      -0.033  31.379  27.352  1.00  0.00    -0.044 SA
BRANCH   8  13
HETATM   13  C4  UNL     1      -0.985  32.826  23.925  1.00  0.00    -0.047 C 
HETATM   14  C3  UNL     1      -1.058  33.322  22.814  1.00  0.00    -0.100 C 
BRANCH  14  15
HETATM   15  C2  UNL     1      -1.121  33.918  21.489  1.00  0.00     0.090 C 
HETATM   16  C1  UNL     1      -0.236  35.163  21.401  1.00  0.00     0.018 C 
ENDBRANCH  14  15
ENDBRANCH   8  13
BRANCH  10  17
HETATM   17  N2  UNL     1      -2.598  30.603  27.887  1.00  0.00    -0.380 N 
ATOM     18  H22 UNL     1      -3.547  30.911  28.100  1.00  0.00     0.158 HD
ATOM     19  H21 UNL     1      -2.503  29.752  28.440  1.00  0.00     0.158 HD
ENDBRANCH  10  17
ENDBRANCH   6   7
ENDBRANCH   5   6
ENDBRANCH   1   5
BRANCH   3  20
HETATM   20  C10 UNL     1       6.304  30.993  24.998  1.00  0.00     0.152 A 
HETATM   21  N4  UNL     1       6.775  32.199  25.324  1.00  0.00    -0.339 N 
HETATM   22  C11 UNL     1       7.880  32.605  24.770  1.00  0.00     0.030 A 
ATOM     23  H4  UNL     1       6.280  32.789  25.992  1.00  0.00     0.168 HD
HETATM   24  C12 UNL     1       8.503  33.958  25.068  1.00  0.00     0.070 C 
HETATM   25  C13 UNL     1       8.497  31.766  23.882  1.00  0.00     0.105 A 
HETATM   26  S3  UNL     1       7.453  30.416  23.880  1.00  0.00    -0.046 SA
BRANCH  25  27
HETATM   27  C14 UNL     1       9.749  31.993  23.131  1.00  0.00     0.302 C 
HETATM   28  O2  UNL     1       9.696  32.438  21.962  1.00  0.00    -0.259 OA
BRANCH  27  29
HETATM   29  O3  UNL     1      10.982  31.725  23.686  1.00  0.00    -0.317 OA
BRANCH  29  30
HETATM   30  C15 UNL     1      11.807  30.656  23.199  1.00  0.00     0.174 C 
HETATM   31  C16 UNL     1      10.994  29.444  22.885  1.00  0.00     0.034 C 
ENDBRANCH  29  30
ENDBRANCH  27  29
ENDBRANCH  25  27
ENDBRANCH   3  20
TORSDOF 10
ENDMDL
MODEL 2
REMARK VINA RESULT: -8.024859348      2.182      3.536
REMARK  10 active torsions:
REMARK  status: ('A' for Active; 'I' for Inactive)
REMARK    1  A    between atoms: C2_2  and  C3_3 
REMARK    2  A    between atoms: C4_4  and  C5_5 
REMARK    3  A    between atoms: C6_8  and  N2_9 
REMARK    4  A    between atoms: C7_13  and  S2_14 
REMARK    5  A    between atoms: S2_14  and  C8_15 
REMARK    6  A    between atoms: C8_15  and  C9_16 
REMARK       I    between atoms: C9_16  and  N3_18 
REMARK    7  A    between atoms: N3_18  and  C10_20 
REMARK    8  A    between atoms: C13_25  and  C14_26 
REMARK    9  A    between atoms: C14_26  and  O3_28 
REMARK   10  A    between atoms: O3_28  and  C15_29 
ROOT
HETATM    1  C9  UNL     1       4.516  34.188  26.106  1.00  0.00     0.233 C 
HETATM    2  O1  UNL     1       4.076  33.216  26.809  1.00  0.00    -0.272 OA
HETATM    3  N3  UNL     1       5.899  34.418  26.146  1.00  0.00    -0.306 N 
ATOM      4  H3  UNL     1       6.288  35.107  26.790  1.00  0.00     0.171 HD
ENDROOT
BRANCH   1   5
HETATM    5  C8  UNL     1       3.557  34.976  25.325  1.00  0.00     0.183 C 
BRANCH   5   6
HETATM    6  S2  UNL     1       2.865  34.018  23.976  1.00  0.00    -0.110 SA
BRANCH   6   7
HETATM    7  C7  UNL     1       1.413  33.123  24.583  1.00  0.00     0.080 A 
HETATM    8  C5  UNL     1       1.319  31.818  24.998  1.00  0.00     0.112 A 
HETATM    9  N1  UNL     1       0.154  31.394  25.396  1.00  0.00    -0.328 N 
HETATM   10  C6  UNL     1      -0.878  32.239  25.379  1.00  0.00     0.144 A 
ATOM     11  H1  UNL     1       0.033  30.433  25.715  1.00  0.00     0.168 HD
HETATM   12  S1  UNL     1      -0.186  33.681  24.784  1.00  0.00    -0.044 SA
BRANCH   8  13
HETATM   13  C4  UNL     1       2.519  30.963  24.979  1.00  0.00    -0.047 C 
HETATM   14  C3  UNL     1       3.502  30.243  24.948  1.00  0.00    -0.100 C 
BRANCH  14  15
HETATM   15  C2  UNL     1       4.660  29.363  24.913  1.00  0.00     0.090 C 
HETATM   16  C1  UNL     1       4.833  28.732  23.530  1.00  0.00     0.018 C 
ENDBRANCH  14  15
ENDBRANCH   8  13
BRANCH  10  17
HETATM   17  N2  UNL     1      -2.125  32.009  25.738  1.00  0.00    -0.380 N 
ATOM     18  H22 UNL     1      -2.770  31.300  25.388  1.00  0.00     0.158 HD
ATOM     19  H21 UNL     1      -2.682  32.503  26.436  1.00  0.00     0.158 HD
ENDBRANCH  10  17
ENDBRANCH   6   7
ENDBRANCH   5   6
ENDBRANCH   1   5
BRANCH   3  20
HETATM   20  C10 UNL     1       6.687  33.735  25.345  1.00  0.00     0.152 A 
HETATM   21  N4  UNL     1       6.360  32.760  24.494  1.00  0.00    -0.339 N 
HETATM   22  C11 UNL     1       7.303  32.210  23.787  1.00  0.00     0.030 A 
ATOM     23  H4  UNL     1       5.392  32.452  24.400  1.00  0.00     0.168 HD
HETATM   24  C12 UNL     1       7.042  31.093  22.790  1.00  0.00     0.070 C 
HETATM   25  C13 UNL     1       8.581  32.668  23.958  1.00  0.00     0.105 A 
HETATM   26  S3  UNL     1       8.372  33.881  25.140  1.00  0.00    -0.046 SA
BRANCH  25  27
HETATM   27  C14 UNL     1       9.812  32.213  23.279  1.00  0.00     0.302 C 
HETATM   28  O2  UNL     1       9.968  32.447  22.060  1.00  0.00    -0.259 OA
BRANCH  27  29
HETATM   29  O3  UNL     1      10.801  31.535  23.959  1.00  0.00    -0.317 OA
BRANCH  29  30
HETATM   30  C15 UNL     1      11.603  30.532  23.314  1.00  0.00     0.174 C 
HETATM   31  C16 UNL     1      10.788  29.332  22.961  1.00  0.00     0.034 C 
ENDBRANCH  29  30
ENDBRANCH  27  29
ENDBRANCH  25  27
ENDBRANCH   3  20
TORSDOF 10
ENDMDL
MODEL 3
REMARK VINA RESULT: -7.989552735      1.727      2.302
REMARK  10 active torsions:
REMARK  status: ('A' for Active; 'I' for Inactive)
REMARK    1  A    between atoms: C2_2  and  C3_3 
REMARK    2  A    between atoms: C4_4  and  C5_5 
REMARK    3  A    between atoms: C6_8  and  N2_9 
REMARK    4  A    between atoms: C7_13  and  S2_14 
REMARK    5  A    between atoms: S2_14  and  C8_15 
REMARK    6  A    between atoms: C8_15  and  C9_16 
REMARK       I    between atoms: C9_16  and  N3_18 
REMARK    7  A    between atoms: N3_18  and  C10_20 
REMARK    8  A    between atoms: C13_25  and  C14_26 
REMARK    9  A    between atoms: C14_26  and  O3_28 
REMARK   10  A    between atoms: O3_28  and  C15_29 
ROOT
HETATM    1  C9  UNL     1       4.145  33.994  25.572  1.00  0.00     0.233 C 
HETATM    2  O1  UNL     1       4.229  34.101  26.842  1.00  0.00    -0.272 OA
HETATM    3  N3  UNL     1       5.353  33.991  24.860  1.00  0.00    -0.306 N 
ATOM      4  H3  UNL     1       5.715  34.855  24.457  1.00  0.00     0.171 HD
ENDROOT
BRANCH   1   5
HETATM    5  C8  UNL     1       2.814  33.884  24.967  1.00  0.00     0.183 C 
BRANCH   5   6
HETATM    6  S2  UNL     1       2.317  32.171  24.782  1.00  0.00    -0.110 SA
BRANCH   6   7
HETATM    7  C7  UNL     1       0.692  31.949  25.551  1.00  0.00     0.080 A 
HETATM    8  C5  UNL     1      -0.542  32.310  25.072  1.00  0.00     0.112 A 
HETATM    9  N1  UNL     1      -1.578  32.043  25.814  1.00  0.00    -0.328 N 
HETATM   10  C6  UNL     1      -1.390  31.440  26.988  1.00  0.00     0.144 A 
ATOM     11  H1  UNL     1      -2.517  32.291  25.502  1.00  0.00     0.168 HD
HETATM   12  S1  UNL     1       0.304  31.240  27.052  1.00  0.00    -0.044 SA
BRANCH   8  13
HETATM   13  C4  UNL     1      -0.645  32.974  23.760  1.00  0.00    -0.047 C 
HETATM   14  C3  UNL     1      -0.719  33.507  22.667  1.00  0.00    -0.100 C 
BRANCH  14  15
HETATM   15  C2  UNL     1      -0.781  34.141  21.359  1.00  0.00     0.090 C 
HETATM   16  C1  UNL     1      -0.092  35.507  21.375  1.00  0.00     0.018 C 
ENDBRANCH  14  15
ENDBRANCH   8  13
BRANCH  10  17
HETATM   17  N2  UNL     1      -2.297  31.086  27.877  1.00  0.00    -0.380 N 
ATOM     18  H22 UNL     1      -2.717  31.647  28.619  1.00  0.00     0.158 HD
ATOM     19  H21 UNL     1      -2.749  30.179  27.990  1.00  0.00     0.158 HD
ENDBRANCH  10  17
ENDBRANCH   6   7
ENDBRANCH   5   6
ENDBRANCH   1   5
BRANCH   3  20
HETATM   20  C10 UNL     1       6.012  32.863  24.718  1.00  0.00     0.152 A 
HETATM   21  N4  UNL     1       5.528  31.619  24.674  1.00  0.00    -0.339 N 
HETATM   22  C11 UNL     1       6.362  30.633  24.526  1.00  0.00     0.030 A 
ATOM     23  H4  UNL     1       4.526  31.447  24.754  1.00  0.00     0.168 HD
HETATM   24  C12 UNL     1       5.919  29.180  24.463  1.00  0.00     0.070 C 
HETATM   25  C13 UNL     1       7.694  30.930  24.423  1.00  0.00     0.105 A 
HETATM   26  S3  UNL     1       7.691  32.632  24.545  1.00  0.00    -0.046 SA
BRANCH  25  27
HETATM   27  C14 UNL     1       8.827  29.998  24.249  1.00  0.00     0.302 C 
HETATM   28  O2  UNL     1       9.326  29.438  25.251  1.00  0.00    -0.259 OA
BRANCH  27  29
HETATM   29  O3  UNL     1       9.353  29.726  23.004  1.00  0.00    -0.317 OA
BRANCH  29  30
HETATM   30  C15 UNL     1      10.761  29.520  22.813  1.00  0.00     0.174 C 
HETATM   31  C16 UNL     1      11.500  30.818  22.795  1.00  0.00     0.034 C 
ENDBRANCH  29  30
ENDBRANCH  27  29
ENDBRANCH  25  27
ENDBRANCH   3  20
TORSDOF 10
ENDMDL
MODEL 4
REMARK VINA RESULT: -7.793212123      3.504      5.228
REMARK  10 active torsions:
REMARK  status: ('A' for Active; 'I' for Inactive)
REMARK    1  A    between atoms: C2_2  and  C3_3 
REMARK    2  A    between atoms: C4_4  and  C5_5 
REMARK    3  A    between atoms: C6_8  and  N2_9 
REMARK    4  A    between atoms: C7_13  and  S2_14 
REMARK    5  A    between atoms: S2_14  and  C8_15 
REMARK    6  A    between atoms: C8_15  and  C9_16 
REMARK       I    between atoms: C9_16  and  N3_18 
REMARK    7  A    between atoms: N3_18  and  C10_20 
REMARK    8  A    between atoms: C13_25  and  C14_26 
REMARK    9  A    between atoms: C14_26  and  O3_28 
REMARK   10  A    between atoms: O3_28  and  C15_29 
ROOT
HETATM    1  C9  UNL     1       2.148  32.629  25.766  1.00  0.00     0.233 C 
HETATM    2  O1  UNL     1       1.672  32.040  26.795  1.00  0.00    -0.272 OA
HETATM    3  N3  UNL     1       3.499  33.000  25.822  1.00  0.00    -0.306 N 
ATOM      4  H3  UNL     1       3.762  33.944  26.106  1.00  0.00     0.171 HD
ENDROOT
BRANCH   1   5
HETATM    5  C8  UNL     1       1.259  32.867  24.624  1.00  0.00     0.183 C 
BRANCH   5   6
HETATM    6  S2  UNL     1       0.606  34.537  24.637  1.00  0.00    -0.110 SA
BRANCH   6   7
HETATM    7  C7  UNL     1       1.021  35.337  23.067  1.00  0.00     0.080 A 
HETATM    8  C5  UNL     1       2.174  35.992  22.714  1.00  0.00     0.112 A 
HETATM    9  N1  UNL     1       2.241  36.490  21.513  1.00  0.00    -0.328 N 
HETATM   10  C6  UNL     1       1.196  36.343  20.696  1.00  0.00     0.144 A 
ATOM     11  H1  UNL     1       3.077  36.986  21.202  1.00  0.00     0.168 HD
HETATM   12  S1  UNL     1       0.082  35.471  21.649  1.00  0.00    -0.044 SA
BRANCH   8  13
HETATM   13  C4  UNL     1       3.274  36.102  23.689  1.00  0.00    -0.047 C 
HETATM   14  C3  UNL     1       4.182  36.171  24.498  1.00  0.00    -0.100 C 
BRANCH  14  15
HETATM   15  C2  UNL     1       5.253  36.240  25.481  1.00  0.00     0.090 C 
HETATM   16  C1  UNL     1       6.467  36.986  24.922  1.00  0.00     0.018 C 
ENDBRANCH  14  15
ENDBRANCH   8  13
BRANCH  10  17
HETATM   17  N2  UNL     1       1.066  36.769  19.456  1.00  0.00    -0.380 N 
ATOM     18  H22 UNL     1       0.512  36.370  18.698  1.00  0.00     0.158 HD
ATOM     19  H21 UNL     1       1.499  37.584  19.020  1.00  0.00     0.158 HD
ENDBRANCH  10  17
ENDBRANCH   6   7
ENDBRANCH   5   6
ENDBRANCH   1   5
BRANCH   3  20
HETATM   20  C10 UNL     1       4.421  32.119  25.504  1.00  0.00     0.152 A 
HETATM   21  N4  UNL     1       4.262  30.835  25.173  1.00  0.00    -0.339 N 
HETATM   22  C11 UNL     1       5.318  30.131  24.892  1.00  0.00     0.030 A 
ATOM     23  H4  UNL     1       3.332  30.417  25.140  1.00  0.00     0.168 HD
HETATM   24  C12 UNL     1       5.252  28.663  24.503  1.00  0.00     0.070 C 
HETATM   25  C13 UNL     1       6.537  30.751  24.952  1.00  0.00     0.105 A 
HETATM   26  S3  UNL     1       6.109  32.337  25.415  1.00  0.00    -0.046 SA
BRANCH  25  27
HETATM   27  C14 UNL     1       7.869  30.175  24.679  1.00  0.00     0.302 C 
HETATM   28  O2  UNL     1       8.511  29.635  25.608  1.00  0.00    -0.259 OA
BRANCH  27  29
HETATM   29  O3  UNL     1       8.429  30.216  23.420  1.00  0.00    -0.317 OA
BRANCH  29  30
HETATM   30  C15 UNL     1       9.736  30.767  23.197  1.00  0.00     0.174 C 
HETATM   31  C16 UNL     1      10.735  29.693  22.918  1.00  0.00     0.034 C 
ENDBRANCH  29  30
ENDBRANCH  27  29
ENDBRANCH  25  27
ENDBRANCH   3  20
TORSDOF 10
ENDMDL
MODEL 5
REMARK VINA RESULT: -7.772402956      2.741      4.176
REMARK  10 active torsions:
REMARK  status: ('A' for Active; 'I' for Inactive)
REMARK    1  A    between atoms: C2_2  and  C3_3 
REMARK    2  A    between atoms: C4_4  and  C5_5 
REMARK    3  A    between atoms: C6_8  and  N2_9 
REMARK    4  A    between atoms: C7_13  and  S2_14 
REMARK    5  A    between atoms: S2_14  and  C8_15 
REMARK    6  A    between atoms: C8_15  and  C9_16 
REMARK       I    between atoms: C9_16  and  N3_18 
REMARK    7  A    between atoms: N3_18  and  C10_20 
REMARK    8  A    between atoms: C13_25  and  C14_26 
REMARK    9  A    between atoms: C14_26  and  O3_28 
REMARK   10  A    between atoms: O3_28  and  C15_29 
ROOT
HETATM    1  C9  UNL     1       4.618  34.199  25.812  1.00  0.00     0.233 C 
HETATM    2  O1  UNL     1       3.772  33.651  26.597  1.00  0.00    -0.272 OA
HETATM    3  N3  UNL     1       5.959  33.823  25.971  1.00  0.00    -0.306 N 
ATOM      4  H3  UNL     1       6.587  34.385  26.545  1.00  0.00     0.171 HD
ENDROOT
BRANCH   1   5
HETATM    5  C8  UNL     1       4.128  35.163  24.822  1.00  0.00     0.183 C 
BRANCH   5   6
HETATM    6  S2  UNL     1       2.470  35.721  25.213  1.00  0.00    -0.110 SA
BRANCH   6   7
HETATM    7  C7  UNL     1       1.362  35.251  23.860  1.00  0.00     0.080 A 
HETATM    8  C5  UNL     1       0.757  34.042  23.626  1.00  0.00     0.112 A 
HETATM    9  N1  UNL     1      -0.006  33.943  22.575  1.00  0.00    -0.328 N 
HETATM   10  C6  UNL     1      -0.158  35.009  21.788  1.00  0.00     0.144 A 
ATOM     11  H1  UNL     1      -0.478  33.066  22.358  1.00  0.00     0.168 HD
HETATM   12  S1  UNL     1       0.804  36.193  22.552  1.00  0.00    -0.044 SA
BRANCH   8  13
HETATM   13  C4  UNL     1       0.988  32.922  24.556  1.00  0.00    -0.047 C 
HETATM   14  C3  UNL     1       1.193  31.987  25.310  1.00  0.00    -0.100 C 
BRANCH  14  15
HETATM   15  C2  UNL     1       1.432  30.855  26.192  1.00  0.00     0.090 C 
HETATM   16  C1  UNL     1       2.376  29.840  25.543  1.00  0.00     0.018 C 
ENDBRANCH  14  15
ENDBRANCH   8  13
BRANCH  10  17
HETATM   17  N2  UNL     1      -0.879  35.115  20.689  1.00  0.00    -0.380 N 
ATOM     18  H22 UNL     1      -0.988  34.443  19.930  1.00  0.00     0.158 HD
ATOM     19  H21 UNL     1      -1.464  35.895  20.392  1.00  0.00     0.158 HD
ENDBRANCH  10  17
ENDBRANCH   6   7
ENDBRANCH   5   6
ENDBRANCH   1   5
BRANCH   3  20
HETATM   20  C10 UNL     1       6.398  32.738  25.372  1.00  0.00     0.152 A 
HETATM   21  N4  UNL     1       5.873  31.510  25.391  1.00  0.00    -0.339 N 
HETATM   22  C11 UNL     1       6.470  30.568  24.723  1.00  0.00     0.030 A 
ATOM     23  H4  UNL     1       5.022  31.316  25.919  1.00  0.00     0.168 HD
HETATM   24  C12 UNL     1       5.960  29.138  24.677  1.00  0.00     0.070 C 
HETATM   25  C13 UNL     1       7.607  30.894  24.034  1.00  0.00     0.105 A 
HETATM   26  S3  UNL     1       7.772  32.557  24.381  1.00  0.00    -0.046 SA
BRANCH  25  27
HETATM   27  C14 UNL     1       8.458  30.014  23.207  1.00  0.00     0.302 C 
HETATM   28  O2  UNL     1       8.070  29.672  22.068  1.00  0.00    -0.259 OA
BRANCH  27  29
HETATM   29  O3  UNL     1       9.676  29.555  23.661  1.00  0.00    -0.317 OA
BRANCH  29  30
HETATM   30  C15 UNL     1      10.888  29.791  22.927  1.00  0.00     0.174 C 
HETATM   31  C16 UNL     1      11.636  30.959  23.477  1.00  0.00     0.034 C 
ENDBRANCH  29  30
ENDBRANCH  27  29
ENDBRANCH  25  27
ENDBRANCH   3  20
TORSDOF 10
ENDMDL
