MODEL 1
REMARK VINA RESULT: -7.681567682      0.000      0.000
REMARK  9 active torsions:
REMARK  status: ('A' for Active; 'I' for Inactive)
REMARK    1  A    between atoms: C4_5  and  N1_6 
REMARK    2  A    between atoms: C7_12  and  N3_13 
REMARK    3  A    between atoms: N3_13  and  C8_15 
REMARK    4  A    between atoms: C8_15  and  C9_16 
REMARK    5  A    between atoms: C9_16  and  C10_17 
REMARK    6  A    between atoms: C10_17  and  C11_18 
REMARK    7  A    between atoms: C12_22  and  N5_23 
REMARK    8  A    between atoms: N5_23  and  C13_25 
REMARK    9  A    between atoms: C18_32  and  O2_33 
ROOT
HETATM    1  N1  UNL     1       5.449  36.379  24.992  1.00  0.00    -0.303 N 
HETATM    2  C5  UNL     1       6.776  36.632  24.893  1.00  0.00     0.160 A 
HETATM    3  S1  UNL     1       7.552  38.254  24.716  1.00  0.00    -0.013 SA
HETATM    4  N2  UNL     1       7.480  35.508  24.943  1.00  0.00    -0.330 N 
ATOM      5  H2  UNL     1       8.495  35.431  24.888  1.00  0.00     0.168 HD
HETATM    6  C6  UNL     1       6.607  34.484  25.079  1.00  0.00     0.124 A 
HETATM    7  C7  UNL     1       6.737  33.117  25.181  1.00  0.00     0.147 A 
HETATM    8  N4  UNL     1       5.598  32.395  25.307  1.00  0.00    -0.175 N 
ATOM      9  H4  UNL     1       5.676  31.381  25.385  1.00  0.00     0.186 HD
HETATM   10  C12 UNL     1       4.372  32.943  25.336  1.00  0.00     0.681 A 
HETATM   11  N6  UNL     1       4.236  34.277  25.236  1.00  0.00    -0.174 N 
ATOM     12  H6  UNL     1       3.310  34.706  25.256  1.00  0.00     0.186 HD
HETATM   13  C16 UNL     1       5.337  35.035  25.109  1.00  0.00     0.156 A 
ENDROOT
BRANCH   1  14
HETATM   14  C4  UNL     1       4.444  37.381  24.971  1.00  0.00     0.121 C 
HETATM   15  C3  UNL     1       3.498  37.385  23.822  1.00  0.00     0.201 C 
HETATM   16  O1  UNL     1       3.024  38.741  23.689  1.00  0.00    -0.352 OA
HETATM   17  C2  UNL     1       3.043  39.470  24.877  1.00  0.00     0.065 C 
HETATM   18  C1  UNL     1       3.147  40.787  24.861  1.00  0.00     0.048 C 
HETATM   19  C18 UNL     1       2.947  38.828  26.213  1.00  0.00     0.175 C 
HETATM   20  C17 UNL     1       3.607  37.454  26.250  1.00  0.00     0.066 C 
BRANCH  19  21
HETATM   21  O2  UNL     1       1.628  38.728  26.647  1.00  0.00    -0.389 OA
ATOM     22  H2  UNL     1       1.515  39.084  27.520  1.00  0.00     0.210 HD
ENDBRANCH  19  21
ENDBRANCH   1  14
BRANCH   7  23
HETATM   23  N3  UNL     1       7.885  32.583  25.157  1.00  0.00    -0.374 N 
ATOM     24  H3  UNL     1       8.351  32.462  26.057  1.00  0.00     0.161 HD
BRANCH  23  25
HETATM   25  C8  UNL     1       8.603  32.129  23.998  1.00  0.00     0.121 C 
BRANCH  25  26
HETATM   26  C9  UNL     1       8.359  30.651  23.745  1.00  0.00     0.021 C 
BRANCH  26  27
HETATM   27  C10 UNL     1       7.621  30.490  22.417  1.00  0.00     0.017 C 
BRANCH  27  28
HETATM   28  C11 UNL     1       6.213  29.996  22.649  1.00  0.00     0.114 C 
HETATM   29 CL1  UNL     1       6.053  29.093  24.148  1.00  0.00    -0.130 Cl
ENDBRANCH  27  28
ENDBRANCH  26  27
ENDBRANCH  25  26
ENDBRANCH  23  25
ENDBRANCH   7  23
BRANCH  10  30
HETATM   30  N5  UNL     1       3.313  32.234  25.457  1.00  0.00    -0.221 N 
ATOM     31  H5  UNL     1       2.670  32.465  26.213  1.00  0.00     0.178 HD
BRANCH  30  32
HETATM   32  C13 UNL     1       2.966  31.132  24.597  1.00  0.00     0.099 A 
HETATM   33  C14 UNL     1       1.492  30.687  24.687  1.00  0.00     0.028 A 
HETATM   34  C15 UNL     1       2.617  29.805  25.114  1.00  0.00     0.028 A 
ENDBRANCH  30  32
ENDBRANCH  10  30
TORSDOF 9
ENDMDL
MODEL 2
REMARK VINA RESULT: -7.409556474      2.254      3.394
REMARK  9 active torsions:
REMARK  status: ('A' for Active; 'I' for Inactive)
REMARK    1  A    between atoms: C4_5  and  N1_6 
REMARK    2  A    between atoms: C7_12  and  N3_13 
REMARK    3  A    between atoms: N3_13  and  C8_15 
REMARK    4  A    between atoms: C8_15  and  C9_16 
REMARK    5  A    between atoms: C9_16  and  C10_17 
REMARK    6  A    between atoms: C10_17  and  C11_18 
REMARK    7  A    between atoms: C12_22  and  N5_23 
REMARK    8  A    between atoms: N5_23  and  C13_25 
REMARK    9  A    between atoms: C18_32  and  O2_33 
ROOT
HETATM    1  N1  UNL     1       5.073  34.227  25.781  1.00  0.00    -0.303 N 
HETATM    2  C5  UNL     1       6.235  33.556  25.600  1.00  0.00     0.160 A 
HETATM    3  S1  UNL     1       7.901  34.189  25.902  1.00  0.00    -0.013 SA
HETATM    4  N2  UNL     1       6.010  32.326  25.156  1.00  0.00    -0.330 N 
ATOM      5  H2  UNL     1       6.719  31.625  24.941  1.00  0.00     0.168 HD
HETATM    6  C6  UNL     1       4.672  32.171  25.038  1.00  0.00     0.124 A 
HETATM    7  C7  UNL     1       3.855  31.138  24.635  1.00  0.00     0.147 A 
HETATM    8  N4  UNL     1       2.520  31.364  24.651  1.00  0.00    -0.175 N 
ATOM      9  H4  UNL     1       1.900  30.609  24.356  1.00  0.00     0.186 HD
HETATM   10  C12 UNL     1       1.967  32.527  25.034  1.00  0.00     0.681 A 
HETATM   11  N6  UNL     1       2.758  33.541  25.430  1.00  0.00    -0.174 N 
ATOM     12  H6  UNL     1       2.352  34.429  25.724  1.00  0.00     0.186 HD
HETATM   13  C16 UNL     1       4.090  33.365  25.431  1.00  0.00     0.156 A 
ENDROOT
BRANCH   1  14
HETATM   14  C4  UNL     1       4.989  35.565  26.248  1.00  0.00     0.121 C 
HETATM   15  C3  UNL     1       5.242  35.808  27.694  1.00  0.00     0.201 C 
HETATM   16  O1  UNL     1       4.535  37.019  28.035  1.00  0.00    -0.352 OA
HETATM   17  C2  UNL     1       4.357  37.894  26.964  1.00  0.00     0.065 C 
HETATM   18  C1  UNL     1       3.347  38.745  26.946  1.00  0.00     0.048 C 
HETATM   19  C18 UNL     1       5.275  37.929  25.797  1.00  0.00     0.175 C 
HETATM   20  C17 UNL     1       5.849  36.557  25.463  1.00  0.00     0.066 C 
BRANCH  19  21
HETATM   21  O2  UNL     1       6.312  38.840  25.980  1.00  0.00    -0.389 OA
ATOM     22  H2  UNL     1       6.065  39.716  25.707  1.00  0.00     0.210 HD
ENDBRANCH  19  21
ENDBRANCH   1  14
BRANCH   7  23
HETATM   23  N3  UNL     1       4.357  30.034  24.270  1.00  0.00    -0.374 N 
ATOM     24  H3  UNL     1       4.358  29.283  24.961  1.00  0.00     0.161 HD
BRANCH  23  25
HETATM   25  C8  UNL     1       4.927  29.726  22.988  1.00  0.00     0.121 C 
BRANCH  25  26
HETATM   26  C9  UNL     1       6.422  29.477  23.096  1.00  0.00     0.021 C 
BRANCH  26  27
HETATM   27  C10 UNL     1       7.157  30.486  22.215  1.00  0.00     0.017 C 
BRANCH  27  28
HETATM   28  C11 UNL     1       8.483  30.862  22.833  1.00  0.00     0.114 C 
HETATM   29 CL1  UNL     1       8.634  30.310  24.494  1.00  0.00    -0.130 Cl
ENDBRANCH  27  28
ENDBRANCH  26  27
ENDBRANCH  25  26
ENDBRANCH  23  25
ENDBRANCH   7  23
BRANCH  10  30
HETATM   30  N5  UNL     1       0.701  32.710  25.039  1.00  0.00    -0.221 N 
ATOM     31  H5  UNL     1       0.132  32.080  25.604  1.00  0.00     0.178 HD
BRANCH  30  32
HETATM   32  C13 UNL     1       0.024  33.744  24.301  1.00  0.00     0.099 A 
HETATM   33  C14 UNL     1      -1.485  33.498  24.087  1.00  0.00     0.028 A 
HETATM   34  C15 UNL     1      -0.515  33.530  22.954  1.00  0.00     0.028 A 
ENDBRANCH  30  32
ENDBRANCH  10  30
TORSDOF 9
ENDMDL
MODEL 3
REMARK VINA RESULT: -7.374025788      3.546      5.748
REMARK  9 active torsions:
REMARK  status: ('A' for Active; 'I' for Inactive)
REMARK    1  A    between atoms: C4_5  and  N1_6 
REMARK    2  A    between atoms: C7_12  and  N3_13 
REMARK    3  A    between atoms: N3_13  and  C8_15 
REMARK    4  A    between atoms: C8_15  and  C9_16 
REMARK    5  A    between atoms: C9_16  and  C10_17 
REMARK    6  A    between atoms: C10_17  and  C11_18 
REMARK    7  A    between atoms: C12_22  and  N5_23 
REMARK    8  A    between atoms: N5_23  and  C13_25 
REMARK    9  A    between atoms: C18_32  and  O2_33 
ROOT
HETATM    1  N1  UNL     1       4.310  35.093  25.318  1.00  0.00    -0.303 N 
HETATM    2  C5  UNL     1       3.329  36.013  25.473  1.00  0.00     0.160 A 
HETATM    3  S1  UNL     1       3.546  37.759  25.886  1.00  0.00    -0.013 SA
HETATM    4  N2  UNL     1       2.133  35.471  25.280  1.00  0.00    -0.330 N 
ATOM      5  H2  UNL     1       1.237  35.953  25.340  1.00  0.00     0.168 HD
HETATM    6  C6  UNL     1       2.318  34.163  24.989  1.00  0.00     0.124 A 
HETATM    7  C7  UNL     1       1.475  33.114  24.700  1.00  0.00     0.147 A 
HETATM    8  N4  UNL     1       2.046  31.910  24.457  1.00  0.00    -0.175 N 
ATOM      9  H4  UNL     1       1.437  31.122  24.241  1.00  0.00     0.186 HD
HETATM   10  C12 UNL     1       3.373  31.699  24.485  1.00  0.00     0.681 A 
HETATM   11  N6  UNL     1       4.204  32.719  24.767  1.00  0.00    -0.174 N 
ATOM     12  H6  UNL     1       5.213  32.573  24.791  1.00  0.00     0.186 HD
HETATM   13  C16 UNL     1       3.684  33.932  25.015  1.00  0.00     0.156 A 
ENDROOT
BRANCH   1  14
HETATM   14  C4  UNL     1       5.694  35.372  25.462  1.00  0.00     0.121 C 
HETATM   15  C3  UNL     1       6.245  36.534  24.715  1.00  0.00     0.201 C 
HETATM   16  O1  UNL     1       7.648  36.263  24.515  1.00  0.00    -0.352 OA
HETATM   17  C2  UNL     1       8.211  35.432  25.482  1.00  0.00     0.065 C 
HETATM   18  C1  UNL     1       9.266  34.688  25.203  1.00  0.00     0.048 C 
HETATM   19  C18 UNL     1       7.673  35.329  26.862  1.00  0.00     0.175 C 
HETATM   20  C17 UNL     1       6.159  35.502  26.914  1.00  0.00     0.066 C 
BRANCH  19  21
HETATM   21  O2  UNL     1       8.279  36.239  27.724  1.00  0.00    -0.389 OA
ATOM     22  H2  UNL     1       8.128  37.137  27.454  1.00  0.00     0.210 HD
ENDBRANCH  19  21
ENDBRANCH   1  14
BRANCH   7  23
HETATM   23  N3  UNL     1       0.222  33.294  24.669  1.00  0.00    -0.374 N 
ATOM     24  H3  UNL     1      -0.329  32.785  25.361  1.00  0.00     0.161 HD
BRANCH  23  25
HETATM   25  C8  UNL     1      -0.508  34.138  23.763  1.00  0.00     0.121 C 
BRANCH  25  26
HETATM   26  C9  UNL     1      -0.888  33.387  22.499  1.00  0.00     0.021 C 
BRANCH  26  27
HETATM   27  C10 UNL     1      -0.429  34.195  21.286  1.00  0.00     0.017 C 
BRANCH  27  28
HETATM   28  C11 UNL     1       0.444  35.349  21.716  1.00  0.00     0.114 C 
HETATM   29 CL1  UNL     1       0.145  36.806  20.780  1.00  0.00    -0.130 Cl
ENDBRANCH  27  28
ENDBRANCH  26  27
ENDBRANCH  25  26
ENDBRANCH  23  25
ENDBRANCH   7  23
BRANCH  10  30
HETATM   30  N5  UNL     1       3.884  30.549  24.250  1.00  0.00    -0.221 N 
ATOM     31  H5  UNL     1       3.348  29.726  24.523  1.00  0.00     0.178 HD
BRANCH  30  32
HETATM   32  C13 UNL     1       5.164  30.338  23.627  1.00  0.00     0.099 A 
HETATM   33  C14 UNL     1       5.299  28.997  22.875  1.00  0.00     0.028 A 
HETATM   34  C15 UNL     1       6.109  29.315  24.087  1.00  0.00     0.028 A 
ENDBRANCH  30  32
ENDBRANCH  10  30
TORSDOF 9
ENDMDL
MODEL 4
REMARK VINA RESULT: -7.352605395      1.636      2.264
REMARK  9 active torsions:
REMARK  status: ('A' for Active; 'I' for Inactive)
REMARK    1  A    between atoms: C4_5  and  N1_6 
REMARK    2  A    between atoms: C7_12  and  N3_13 
REMARK    3  A    between atoms: N3_13  and  C8_15 
REMARK    4  A    between atoms: C8_15  and  C9_16 
REMARK    5  A    between atoms: C9_16  and  C10_17 
REMARK    6  A    between atoms: C10_17  and  C11_18 
REMARK    7  A    between atoms: C12_22  and  N5_23 
REMARK    8  A    between atoms: N5_23  and  C13_25 
REMARK    9  A    between atoms: C18_32  and  O2_33 
ROOT
HETATM    1  N1  UNL     1       4.408  35.678  24.686  1.00  0.00    -0.303 N 
HETATM    2  C5  UNL     1       5.723  35.379  24.810  1.00  0.00     0.160 A 
HETATM    3  S1  UNL     1       7.089  36.558  24.900  1.00  0.00    -0.013 SA
HETATM    4  N2  UNL     1       5.910  34.066  24.859  1.00  0.00    -0.330 N 
ATOM      5  H2  UNL     1       6.807  33.590  24.949  1.00  0.00     0.168 HD
HETATM    6  C6  UNL     1       4.697  33.475  24.768  1.00  0.00     0.124 A 
HETATM    7  C7  UNL     1       4.262  32.169  24.762  1.00  0.00     0.147 A 
HETATM    8  N4  UNL     1       2.929  31.962  24.650  1.00  0.00    -0.175 N 
ATOM      9  H4  UNL     1       2.589  31.000  24.644  1.00  0.00     0.186 HD
HETATM   10  C12 UNL     1       2.029  32.954  24.546  1.00  0.00     0.681 A 
HETATM   11  N6  UNL     1       2.446  34.233  24.551  1.00  0.00    -0.174 N 
ATOM     12  H6  UNL     1       1.774  34.997  24.473  1.00  0.00     0.186 HD
HETATM   13  C16 UNL     1       3.760  34.489  24.660  1.00  0.00     0.156 A 
ENDROOT
BRANCH   1  14
HETATM   14  C4  UNL     1       3.894  36.998  24.608  1.00  0.00     0.121 C 
HETATM   15  C3  UNL     1       3.223  37.404  23.344  1.00  0.00     0.201 C 
HETATM   16  O1  UNL     1       3.348  38.839  23.258  1.00  0.00    -0.352 OA
HETATM   17  C2  UNL     1       3.462  39.475  24.493  1.00  0.00     0.065 C 
HETATM   18  C1  UNL     1       4.077  40.640  24.600  1.00  0.00     0.048 C 
HETATM   19  C18 UNL     1       2.910  38.899  25.746  1.00  0.00     0.175 C 
HETATM   20  C17 UNL     1       2.961  37.376  25.761  1.00  0.00     0.066 C 
BRANCH  19  21
HETATM   21  O2  UNL     1       1.607  39.328  25.984  1.00  0.00    -0.389 OA
ATOM     22  H2  UNL     1       1.095  38.669  26.436  1.00  0.00     0.210 HD
ENDBRANCH  19  21
ENDBRANCH   1  14
BRANCH   7  23
HETATM   23  N3  UNL     1       5.095  31.220  24.859  1.00  0.00    -0.374 N 
ATOM     24  H3  UNL     1       5.948  31.414  25.386  1.00  0.00     0.161 HD
BRANCH  23  25
HETATM   25  C8  UNL     1       4.969  29.899  24.308  1.00  0.00     0.121 C 
BRANCH  25  26
HETATM   26  C9  UNL     1       6.313  29.367  23.842  1.00  0.00     0.021 C 
BRANCH  26  27
HETATM   27  C10 UNL     1       7.418  30.279  24.374  1.00  0.00     0.017 C 
BRANCH  27  28
HETATM   28  C11 UNL     1       8.401  30.618  23.278  1.00  0.00     0.114 C 
HETATM   29 CL1  UNL     1       7.669  30.577  21.681  1.00  0.00    -0.130 Cl
ENDBRANCH  27  28
ENDBRANCH  26  27
ENDBRANCH  25  26
ENDBRANCH  23  25
ENDBRANCH   7  23
BRANCH  10  30
HETATM   30  N5  UNL     1       0.774  32.727  24.441  1.00  0.00    -0.221 N 
ATOM     31  H5  UNL     1       0.228  33.342  23.837  1.00  0.00     0.178 HD
BRANCH  30  32
HETATM   32  C13 UNL     1       0.079  31.663  25.118  1.00  0.00     0.099 A 
HETATM   33  C14 UNL     1      -1.304  32.056  25.679  1.00  0.00     0.028 A 
HETATM   34  C15 UNL     1      -0.165  31.673  26.564  1.00  0.00     0.028 A 
ENDBRANCH  30  32
ENDBRANCH  10  30
TORSDOF 9
ENDMDL
MODEL 5
REMARK VINA RESULT: -7.279270671      2.080      2.728
REMARK  9 active torsions:
REMARK  status: ('A' for Active; 'I' for Inactive)
REMARK    1  A    between atoms: C4_5  and  N1_6 
REMARK    2  A    between atoms: C7_12  and  N3_13 
REMARK    3  A    between atoms: N3_13  and  C8_15 
REMARK    4  A    between atoms: C8_15  and  C9_16 
REMARK    5  A    between atoms: C9_16  and  C10_17 
REMARK    6  A    between atoms: C10_17  and  C11_18 
REMARK    7  A    between atoms: C12_22  and  N5_23 
REMARK    8  A    between atoms: N5_23  and  C13_25 
REMARK    9  A    between atoms: C18_32  and  O2_33 
ROOT
HETATM    1  N1  UNL     1       5.445  34.426  25.536  1.00  0.00    -0.303 N 
HETATM    2  C5  UNL     1       6.744  34.255  25.197  1.00  0.00     0.160 A 
HETATM    3  S1  UNL     1       8.040  35.514  25.235  1.00  0.00    -0.013 SA
HETATM    4  N2  UNL     1       6.976  33.006  24.815  1.00  0.00    -0.330 N 
ATOM      5  H2  UNL     1       7.873  32.626  24.510  1.00  0.00     0.168 HD
HETATM    6  C6  UNL     1       5.810  32.327  24.901  1.00  0.00     0.124 A 
HETATM    7  C7  UNL     1       5.431  31.029  24.644  1.00  0.00     0.147 A 
HETATM    8  N4  UNL     1       4.132  30.710  24.854  1.00  0.00    -0.175 N 
ATOM      9  H4  UNL     1       3.835  29.752  24.669  1.00  0.00     0.186 HD
HETATM   10  C12 UNL     1       3.214  31.587  25.294  1.00  0.00     0.681 A 
HETATM   11  N6  UNL     1       3.575  32.858  25.547  1.00  0.00    -0.174 N 
ATOM     12  H6  UNL     1       2.889  33.534  25.882  1.00  0.00     0.186 HD
HETATM   13  C16 UNL     1       4.854  33.221  25.354  1.00  0.00     0.156 A 
ENDROOT
BRANCH   1  14
HETATM   14  C4  UNL     1       4.893  35.654  25.986  1.00  0.00     0.121 C 
HETATM   15  C3  UNL     1       3.486  35.957  25.608  1.00  0.00     0.201 C 
HETATM   16  O1  UNL     1       3.362  37.395  25.617  1.00  0.00    -0.352 OA
HETATM   17  C2  UNL     1       4.251  38.037  26.478  1.00  0.00     0.065 C 
HETATM   18  C1  UNL     1       4.633  39.281  26.251  1.00  0.00     0.048 C 
HETATM   19  C18 UNL     1       4.813  37.380  27.685  1.00  0.00     0.175 C 
HETATM   20  C17 UNL     1       5.019  35.882  27.494  1.00  0.00     0.066 C 
BRANCH  19  21
HETATM   21  O2  UNL     1       4.028  37.606  28.813  1.00  0.00    -0.389 OA
ATOM     22  H2  UNL     1       3.120  37.371  28.664  1.00  0.00     0.210 HD
ENDBRANCH  19  21
ENDBRANCH   1  14
BRANCH   7  23
HETATM   23  N3  UNL     1       6.283  30.187  24.229  1.00  0.00    -0.374 N 
ATOM     24  H3  UNL     1       6.878  29.755  24.936  1.00  0.00     0.161 HD
BRANCH  23  25
HETATM   25  C8  UNL     1       6.500  29.776  22.870  1.00  0.00     0.121 C 
BRANCH  25  26
HETATM   26  C9  UNL     1       7.685  30.504  22.259  1.00  0.00     0.021 C 
BRANCH  26  27
HETATM   27  C10 UNL     1       8.819  30.553  23.283  1.00  0.00     0.017 C 
BRANCH  27  28
HETATM   28  C11 UNL     1      10.081  31.092  22.653  1.00  0.00     0.114 C 
HETATM   29 CL1  UNL     1      11.394  29.924  22.666  1.00  0.00    -0.130 Cl
ENDBRANCH  27  28
ENDBRANCH  26  27
ENDBRANCH  25  26
ENDBRANCH  23  25
ENDBRANCH   7  23
BRANCH  10  30
HETATM   30  N5  UNL     1       1.993  31.256  25.484  1.00  0.00    -0.221 N 
ATOM     31  H5  UNL     1       1.733  30.283  25.323  1.00  0.00     0.178 HD
BRANCH  30  32
HETATM   32  C13 UNL     1       0.959  32.163  25.909  1.00  0.00     0.099 A 
HETATM   33  C14 UNL     1      -0.040  31.568  26.924  1.00  0.00     0.028 A 
HETATM   34  C15 UNL     1      -0.451  31.979  25.550  1.00  0.00     0.028 A 
ENDBRANCH  30  32
ENDBRANCH  10  30
TORSDOF 9
ENDMDL
