MODEL 1
REMARK VINA RESULT: -8.601250962      0.000      0.000
REMARK  10 active torsions:
REMARK  status: ('A' for Active; 'I' for Inactive)
REMARK    1  A    between atoms: O1_2  and  C2_3 
REMARK    2  A    between atoms: C3_6  and  N2_7 
REMARK    3  A    between atoms: C4_12  and  N4_13 
REMARK    4  A    between atoms: C9_19  and  C10_20 
REMARK    5  A    between atoms: C10_20  and  N5_21 
REMARK    6  A    between atoms: N5_21  and  C11_23 
REMARK    7  A    between atoms: C11_23  and  O3_24 
REMARK    8  A    between atoms: C11_23  and  C12_26 
REMARK    9  A    between atoms: C15_29  and  O4_31 
REMARK   10  A    between atoms: O4_31  and  C16_32 
ROOT
HETATM    1  C2  UNL     1       0.939  35.315  22.564  1.00  0.00     0.168 A 
HETATM    2  N1  UNL     1       0.126  34.989  21.538  1.00  0.00    -0.170 N 
ATOM      3  H1  UNL     1       0.114  35.590  20.714  1.00  0.00     0.186 HD
HETATM    4  C3  UNL     1      -0.659  33.921  21.556  1.00  0.00     0.679 A 
HETATM    5  N3  UNL     1      -0.650  33.122  22.634  1.00  0.00    -0.176 N 
ATOM      6  H3  UNL     1      -1.248  32.296  22.655  1.00  0.00     0.186 HD
HETATM    7  C4  UNL     1       0.152  33.406  23.701  1.00  0.00     0.131 A 
HETATM    8  C9  UNL     1       0.967  34.513  23.685  1.00  0.00     0.055 A 
ENDROOT
BRANCH   8   9
HETATM    9  C10 UNL     1       1.779  34.869  24.848  1.00  0.00     0.168 C 
BRANCH   9  10
HETATM   10  N5  UNL     1       3.173  35.180  24.524  1.00  0.00    -0.370 N 
ATOM     11  H5  UNL     1       3.397  35.947  23.890  1.00  0.00     0.161 HD
BRANCH  10  12
HETATM   12  C11 UNL     1       4.184  34.417  25.091  1.00  0.00     0.115 C 
BRANCH  12  13
HETATM   13  O3  UNL     1       3.984  34.048  26.343  1.00  0.00    -0.349 OA
ATOM     14  H3  UNL     1       4.522  33.326  26.648  1.00  0.00     0.219 HD
ENDBRANCH  12  13
BRANCH  12  15
HETATM   15  C12 UNL     1       5.452  33.950  24.559  1.00  0.00     0.065 C 
HETATM   16  C13 UNL     1       6.612  34.885  24.758  1.00  0.00     0.018 C 
HETATM   17  C14 UNL     1       7.741  34.056  25.361  1.00  0.00     0.074 C 
HETATM   18  C15 UNL     1       7.356  32.663  24.964  1.00  0.00     0.206 C 
HETATM   19  F1  UNL     1       7.953  31.750  25.872  1.00  0.00    -0.212 F 
HETATM   20  C20 UNL     1       5.888  32.665  25.286  1.00  0.00     0.086 C 
BRANCH  18  21
HETATM   21  O4  UNL     1       7.526  32.261  23.701  1.00  0.00    -0.341 OA
BRANCH  21  22
HETATM   22  C16 UNL     1       7.943  31.037  23.349  1.00  0.00     0.054 C 
HETATM   23  C17 UNL     1       7.828  30.971  21.801  1.00  0.00     0.045 C 
HETATM   24  C18 UNL     1       6.964  29.941  23.821  1.00  0.00     0.045 C 
HETATM   25  C19 UNL     1       9.319  30.582  23.676  1.00  0.00     0.045 C 
ENDBRANCH  21  22
ENDBRANCH  18  21
ENDBRANCH  12  15
ENDBRANCH  10  12
ENDBRANCH   9  10
ENDBRANCH   8   9
BRANCH   1  26
HETATM   26  O1  UNL     1       1.727  36.449  22.462  1.00  0.00    -0.340 OA
HETATM   27  C1  UNL     1       2.464  36.755  21.296  1.00  0.00     0.211 C 
ENDBRANCH   1  26
BRANCH   7  28
HETATM   28  N4  UNL     1       0.022  32.561  24.821  1.00  0.00    -0.362 N 
HETATM   29  C5  UNL     1      -1.150  32.569  25.652  1.00  0.00     0.150 C 
HETATM   30  C6  UNL     1      -1.088  31.484  26.711  1.00  0.00     0.187 C 
HETATM   31  O2  UNL     1       0.092  31.469  27.400  1.00  0.00    -0.388 OA
HETATM   32  C7  UNL     1       1.236  31.756  26.720  1.00  0.00     0.187 C 
HETATM   33  C8  UNL     1       1.091  31.646  25.193  1.00  0.00     0.150 C 
ENDBRANCH   7  28
BRANCH   4  34
HETATM   34  N2  UNL     1      -1.448  33.595  20.586  1.00  0.00    -0.234 N 
ATOM     35  H22 UNL     1      -1.654  32.603  20.466  1.00  0.00     0.174 HD
ATOM     36  H21 UNL     1      -1.869  34.270  19.948  1.00  0.00     0.174 HD
ENDBRANCH   4  34
TORSDOF 10
ENDMDL
MODEL 2
REMARK VINA RESULT: -8.600599453      1.302      3.712
REMARK  10 active torsions:
REMARK  status: ('A' for Active; 'I' for Inactive)
REMARK    1  A    between atoms: O1_2  and  C2_3 
REMARK    2  A    between atoms: C3_6  and  N2_7 
REMARK    3  A    between atoms: C4_12  and  N4_13 
REMARK    4  A    between atoms: C9_19  and  C10_20 
REMARK    5  A    between atoms: C10_20  and  N5_21 
REMARK    6  A    between atoms: N5_21  and  C11_23 
REMARK    7  A    between atoms: C11_23  and  O3_24 
REMARK    8  A    between atoms: C11_23  and  C12_26 
REMARK    9  A    between atoms: C15_29  and  O4_31 
REMARK   10  A    between atoms: O4_31  and  C16_32 
ROOT
HETATM    1  C2  UNL     1       1.422  32.236  25.297  1.00  0.00     0.168 A 
HETATM    2  N1  UNL     1       0.226  31.708  25.628  1.00  0.00    -0.170 N 
ATOM      3  H1  UNL     1       0.205  30.875  26.216  1.00  0.00     0.186 HD
HETATM    4  C3  UNL     1      -0.925  32.227  25.221  1.00  0.00     0.679 A 
HETATM    5  N3  UNL     1      -0.910  33.324  24.449  1.00  0.00    -0.176 N 
ATOM      6  H3  UNL     1      -1.790  33.732  24.134  1.00  0.00     0.186 HD
HETATM    7  C4  UNL     1       0.274  33.898  24.082  1.00  0.00     0.131 A 
HETATM    8  C9  UNL     1       1.468  33.363  24.503  1.00  0.00     0.055 A 
ENDROOT
BRANCH   8   9
HETATM    9  C10 UNL     1       2.743  33.924  24.061  1.00  0.00     0.168 C 
BRANCH   9  10
HETATM   10  N5  UNL     1       3.326  34.883  25.003  1.00  0.00    -0.370 N 
ATOM     11  H5  UNL     1       2.784  35.685  25.326  1.00  0.00     0.161 HD
BRANCH  10  12
HETATM   12  C11 UNL     1       4.625  34.685  25.451  1.00  0.00     0.115 C 
BRANCH  12  13
HETATM   13  O3  UNL     1       4.867  35.081  26.687  1.00  0.00    -0.349 OA
ATOM     14  H3  UNL     1       5.627  35.640  26.796  1.00  0.00     0.219 HD
ENDBRANCH  12  13
BRANCH  12  15
HETATM   15  C12 UNL     1       5.793  34.125  24.796  1.00  0.00     0.065 C 
HETATM   16  C13 UNL     1       7.058  34.921  24.955  1.00  0.00     0.018 C 
HETATM   17  C14 UNL     1       8.132  33.944  25.421  1.00  0.00     0.074 C 
HETATM   18  C15 UNL     1       7.573  32.625  24.980  1.00  0.00     0.206 C 
HETATM   19  F1  UNL     1       8.132  31.601  25.788  1.00  0.00    -0.212 F 
HETATM   20  C20 UNL     1       6.140  32.758  25.416  1.00  0.00     0.086 C 
BRANCH  18  21
HETATM   21  O4  UNL     1       7.606  32.288  23.687  1.00  0.00    -0.341 OA
BRANCH  21  22
HETATM   22  C16 UNL     1       8.018  31.098  23.230  1.00  0.00     0.054 C 
HETATM   23  C17 UNL     1       7.984  31.196  21.680  1.00  0.00     0.045 C 
HETATM   24  C18 UNL     1       6.996  29.982  23.534  1.00  0.00     0.045 C 
HETATM   25  C19 UNL     1       9.367  30.578  23.576  1.00  0.00     0.045 C 
ENDBRANCH  21  22
ENDBRANCH  18  21
ENDBRANCH  12  15
ENDBRANCH  10  12
ENDBRANCH   9  10
ENDBRANCH   8   9
BRANCH   1  26
HETATM   26  O1  UNL     1       2.575  31.631  25.767  1.00  0.00    -0.340 OA
HETATM   27  C1  UNL     1       3.134  30.488  25.153  1.00  0.00     0.211 C 
ENDBRANCH   1  26
BRANCH   7  28
HETATM   28  N4  UNL     1       0.188  34.989  23.196  1.00  0.00    -0.362 N 
HETATM   29  C5  UNL     1       0.125  34.813  21.771  1.00  0.00     0.150 C 
HETATM   30  C6  UNL     1      -0.085  36.135  21.056  1.00  0.00     0.187 C 
HETATM   31  O2  UNL     1       0.778  37.113  21.466  1.00  0.00    -0.388 OA
HETATM   32  C7  UNL     1       1.123  37.153  22.782  1.00  0.00     0.187 C 
HETATM   33  C8  UNL     1       0.176  36.357  23.694  1.00  0.00     0.150 C 
ENDBRANCH   7  28
BRANCH   4  34
HETATM   34  N2  UNL     1      -2.080  31.734  25.524  1.00  0.00    -0.234 N 
ATOM     35  H22 UNL     1      -2.663  32.271  26.165  1.00  0.00     0.174 HD
ATOM     36  H21 UNL     1      -2.431  30.849  25.155  1.00  0.00     0.174 HD
ENDBRANCH   4  34
TORSDOF 10
ENDMDL
MODEL 3
REMARK VINA RESULT: -8.425245535      2.405      4.132
REMARK  10 active torsions:
REMARK  status: ('A' for Active; 'I' for Inactive)
REMARK    1  A    between atoms: O1_2  and  C2_3 
REMARK    2  A    between atoms: C3_6  and  N2_7 
REMARK    3  A    between atoms: C4_12  and  N4_13 
REMARK    4  A    between atoms: C9_19  and  C10_20 
REMARK    5  A    between atoms: C10_20  and  N5_21 
REMARK    6  A    between atoms: N5_21  and  C11_23 
REMARK    7  A    between atoms: C11_23  and  O3_24 
REMARK    8  A    between atoms: C11_23  and  C12_26 
REMARK    9  A    between atoms: C15_29  and  O4_31 
REMARK   10  A    between atoms: O4_31  and  C16_32 
ROOT
HETATM    1  C2  UNL     1       3.576  36.175  25.393  1.00  0.00     0.168 A 
HETATM    2  N1  UNL     1       2.942  37.266  25.873  1.00  0.00    -0.170 N 
ATOM      3  H1  UNL     1       3.472  37.932  26.435  1.00  0.00     0.186 HD
HETATM    4  C3  UNL     1       1.659  37.507  25.646  1.00  0.00     0.679 A 
HETATM    5  N3  UNL     1       0.952  36.639  24.908  1.00  0.00    -0.176 N 
ATOM      6  H3  UNL     1      -0.036  36.818  24.725  1.00  0.00     0.186 HD
HETATM    7  C4  UNL     1       1.543  35.518  24.399  1.00  0.00     0.131 A 
HETATM    8  C9  UNL     1       2.874  35.266  24.632  1.00  0.00     0.055 A 
ENDROOT
BRANCH   8   9
HETATM    9  C10 UNL     1       3.503  34.036  24.154  1.00  0.00     0.168 C 
BRANCH   9  10
HETATM   10  N5  UNL     1       3.782  33.063  25.212  1.00  0.00    -0.370 N 
ATOM     11  H5  UNL     1       3.842  33.362  26.186  1.00  0.00     0.161 HD
BRANCH  10  12
HETATM   12  C11 UNL     1       3.964  31.729  24.873  1.00  0.00     0.115 C 
BRANCH  12  13
HETATM   13  O3  UNL     1       2.861  31.009  24.788  1.00  0.00    -0.349 OA
ATOM     14  H3  UNL     1       2.726  30.382  25.489  1.00  0.00     0.219 HD
ENDBRANCH  12  13
BRANCH  12  15
HETATM   15  C12 UNL     1       5.165  30.960  24.601  1.00  0.00     0.065 C 
HETATM   16  C13 UNL     1       4.965  29.474  24.509  1.00  0.00     0.018 C 
HETATM   17  C14 UNL     1       5.632  29.025  23.213  1.00  0.00     0.074 C 
HETATM   18  C15 UNL     1       6.597  30.141  22.951  1.00  0.00     0.206 C 
HETATM   19  F1  UNL     1       6.887  30.174  21.562  1.00  0.00    -0.212 F 
HETATM   20  C20 UNL     1       5.734  31.341  23.221  1.00  0.00     0.086 C 
BRANCH  18  21
HETATM   21  O4  UNL     1       7.716  30.235  23.676  1.00  0.00    -0.341 OA
BRANCH  21  22
HETATM   22  C16 UNL     1       8.715  31.087  23.411  1.00  0.00     0.054 C 
HETATM   23  C17 UNL     1      10.026  30.351  23.805  1.00  0.00     0.045 C 
HETATM   24  C18 UNL     1       8.697  32.304  24.359  1.00  0.00     0.045 C 
HETATM   25  C19 UNL     1       8.933  31.595  22.031  1.00  0.00     0.045 C 
ENDBRANCH  21  22
ENDBRANCH  18  21
ENDBRANCH  12  15
ENDBRANCH  10  12
ENDBRANCH   9  10
ENDBRANCH   8   9
BRANCH   1  26
HETATM   26  O1  UNL     1       4.920  36.002  25.677  1.00  0.00    -0.340 OA
HETATM   27  C1  UNL     1       5.405  35.881  26.999  1.00  0.00     0.211 C 
ENDBRANCH   1  26
BRANCH   7  28
HETATM   28  N4  UNL     1       0.697  34.623  23.716  1.00  0.00    -0.362 N 
HETATM   29  C5  UNL     1       0.299  34.837  22.352  1.00  0.00     0.150 C 
HETATM   30  C6  UNL     1      -0.509  33.669  21.818  1.00  0.00     0.187 C 
HETATM   31  O2  UNL     1      -1.527  33.292  22.649  1.00  0.00    -0.388 OA
HETATM   32  C7  UNL     1      -1.314  33.353  23.992  1.00  0.00     0.187 C 
HETATM   33  C8  UNL     1       0.171  33.438  24.380  1.00  0.00     0.150 C 
ENDBRANCH   7  28
BRANCH   4  34
HETATM   34  N2  UNL     1       1.033  38.542  26.101  1.00  0.00    -0.234 N 
ATOM     35  H22 UNL     1       1.591  39.370  26.311  1.00  0.00     0.174 HD
ATOM     36  H21 UNL     1       0.025  38.570  26.256  1.00  0.00     0.174 HD
ENDBRANCH   4  34
TORSDOF 10
ENDMDL
MODEL 4
REMARK VINA RESULT: -8.185445341      0.530      1.008
REMARK  10 active torsions:
REMARK  status: ('A' for Active; 'I' for Inactive)
REMARK    1  A    between atoms: O1_2  and  C2_3 
REMARK    2  A    between atoms: C3_6  and  N2_7 
REMARK    3  A    between atoms: C4_12  and  N4_13 
REMARK    4  A    between atoms: C9_19  and  C10_20 
REMARK    5  A    between atoms: C10_20  and  N5_21 
REMARK    6  A    between atoms: N5_21  and  C11_23 
REMARK    7  A    between atoms: C11_23  and  O3_24 
REMARK    8  A    between atoms: C11_23  and  C12_26 
REMARK    9  A    between atoms: C15_29  and  O4_31 
REMARK   10  A    between atoms: O4_31  and  C16_32 
ROOT
HETATM    1  C2  UNL     1       1.190  35.807  22.498  1.00  0.00     0.168 A 
HETATM    2  N1  UNL     1       0.408  35.353  21.496  1.00  0.00    -0.170 N 
ATOM      3  H1  UNL     1       0.350  35.897  20.636  1.00  0.00     0.186 HD
HETATM    4  C3  UNL     1      -0.289  34.228  21.583  1.00  0.00     0.679 A 
HETATM    5  N3  UNL     1      -0.219  33.502  22.709  1.00  0.00    -0.176 N 
ATOM      6  H3  UNL     1      -0.749  32.634  22.784  1.00  0.00     0.186 HD
HETATM    7  C4  UNL     1       0.555  33.916  23.755  1.00  0.00     0.131 A 
HETATM    8  C9  UNL     1       1.279  35.082  23.667  1.00  0.00     0.055 A 
ENDROOT
BRANCH   8   9
HETATM    9  C10 UNL     1       2.056  35.573  24.803  1.00  0.00     0.168 C 
BRANCH   9  10
HETATM   10  N5  UNL     1       3.475  35.778  24.505  1.00  0.00    -0.370 N 
ATOM     11  H5  UNL     1       3.768  36.518  23.867  1.00  0.00     0.161 HD
BRANCH  10  12
HETATM   12  C11 UNL     1       4.417  34.951  25.103  1.00  0.00     0.115 C 
BRANCH  12  13
HETATM   13  O3  UNL     1       4.239  34.727  26.392  1.00  0.00    -0.349 OA
ATOM     14  H3  UNL     1       4.181  33.812  26.645  1.00  0.00     0.219 HD
ENDBRANCH  12  13
BRANCH  12  15
HETATM   15  C12 UNL     1       5.590  34.284  24.568  1.00  0.00     0.065 C 
HETATM   16  C13 UNL     1       6.875  35.054  24.690  1.00  0.00     0.018 C 
HETATM   17  C14 UNL     1       7.895  34.105  25.311  1.00  0.00     0.074 C 
HETATM   18  C15 UNL     1       7.307  32.763  24.999  1.00  0.00     0.206 C 
HETATM   19  F1  UNL     1       7.797  31.821  25.942  1.00  0.00    -0.212 F 
HETATM   20  C20 UNL     1       5.864  32.988  25.354  1.00  0.00     0.086 C 
BRANCH  18  21
HETATM   21  O4  UNL     1       7.380  32.277  23.756  1.00  0.00    -0.341 OA
BRANCH  21  22
HETATM   22  C16 UNL     1       7.810  31.045  23.453  1.00  0.00     0.054 C 
HETATM   23  C17 UNL     1       7.800  30.955  21.902  1.00  0.00     0.045 C 
HETATM   24  C18 UNL     1       6.793  29.964  23.873  1.00  0.00     0.045 C 
HETATM   25  C19 UNL     1       9.157  30.586  23.879  1.00  0.00     0.045 C 
ENDBRANCH  21  22
ENDBRANCH  18  21
ENDBRANCH  12  15
ENDBRANCH  10  12
ENDBRANCH   9  10
ENDBRANCH   8   9
BRANCH   1  26
HETATM   26  O1  UNL     1       1.884  36.991  22.322  1.00  0.00    -0.340 OA
HETATM   27  C1  UNL     1       2.703  37.228  21.195  1.00  0.00     0.211 C 
ENDBRANCH   1  26
BRANCH   7  28
HETATM   28  N4  UNL     1       0.490  33.136  24.925  1.00  0.00    -0.362 N 
HETATM   29  C5  UNL     1       1.648  32.488  25.477  1.00  0.00     0.150 C 
HETATM   30  C6  UNL     1       1.332  31.815  26.800  1.00  0.00     0.187 C 
HETATM   31  O2  UNL     1       0.215  31.029  26.752  1.00  0.00    -0.388 OA
HETATM   32  C7  UNL     1      -0.832  31.447  25.989  1.00  0.00     0.187 C 
HETATM   33  C8  UNL     1      -0.773  32.938  25.623  1.00  0.00     0.150 C 
ENDBRANCH   7  28
BRANCH   4  34
HETATM   34  N2  UNL     1      -1.046  33.780  20.638  1.00  0.00    -0.234 N 
ATOM     35  H22 UNL     1      -2.010  33.551  20.881  1.00  0.00     0.174 HD
ATOM     36  H21 UNL     1      -0.732  33.648  19.676  1.00  0.00     0.174 HD
ENDBRANCH   4  34
TORSDOF 10
ENDMDL
MODEL 5
REMARK VINA RESULT: -8.167822400      2.626      4.910
REMARK  10 active torsions:
REMARK  status: ('A' for Active; 'I' for Inactive)
REMARK    1  A    between atoms: O1_2  and  C2_3 
REMARK    2  A    between atoms: C3_6  and  N2_7 
REMARK    3  A    between atoms: C4_12  and  N4_13 
REMARK    4  A    between atoms: C9_19  and  C10_20 
REMARK    5  A    between atoms: C10_20  and  N5_21 
REMARK    6  A    between atoms: N5_21  and  C11_23 
REMARK    7  A    between atoms: C11_23  and  O3_24 
REMARK    8  A    between atoms: C11_23  and  C12_26 
REMARK    9  A    between atoms: C15_29  and  O4_31 
REMARK   10  A    between atoms: O4_31  and  C16_32 
ROOT
HETATM    1  C2  UNL     1       1.674  34.588  24.425  1.00  0.00     0.168 A 
HETATM    2  N1  UNL     1       0.757  35.577  24.388  1.00  0.00    -0.170 N 
ATOM      3  H1  UNL     1      -0.178  35.364  24.041  1.00  0.00     0.186 HD
HETATM    4  C3  UNL     1       1.021  36.815  24.783  1.00  0.00     0.679 A 
HETATM    5  N3  UNL     1       2.247  37.106  25.243  1.00  0.00    -0.176 N 
ATOM      6  H3  UNL     1       2.458  38.055  25.553  1.00  0.00     0.186 HD
HETATM    7  C4  UNL     1       3.213  36.143  25.300  1.00  0.00     0.131 A 
HETATM    8  C9  UNL     1       2.942  34.859  24.892  1.00  0.00     0.055 A 
ENDROOT
BRANCH   8   9
HETATM    9  C10 UNL     1       3.985  33.835  24.881  1.00  0.00     0.168 C 
BRANCH   9  10
HETATM   10  N5  UNL     1       3.585  32.576  25.513  1.00  0.00    -0.370 N 
ATOM     11  H5  UNL     1       3.120  32.578  26.421  1.00  0.00     0.161 HD
BRANCH  10  12
HETATM   12  C11 UNL     1       3.847  31.380  24.858  1.00  0.00     0.115 C 
BRANCH  12  13
HETATM   13  O3  UNL     1       2.785  30.709  24.454  1.00  0.00    -0.349 OA
ATOM     14  H3  UNL     1       2.871  30.273  23.613  1.00  0.00     0.219 HD
ENDBRANCH  12  13
BRANCH  12  15
HETATM   15  C12 UNL     1       5.095  30.709  24.542  1.00  0.00     0.065 C 
HETATM   16  C13 UNL     1       4.986  29.227  24.317  1.00  0.00     0.018 C 
HETATM   17  C14 UNL     1       5.693  28.933  22.999  1.00  0.00     0.074 C 
HETATM   18  C15 UNL     1       6.593  30.122  22.851  1.00  0.00     0.206 C 
HETATM   19  F1  UNL     1       6.897  30.294  21.475  1.00  0.00    -0.212 F 
HETATM   20  C20 UNL     1       5.657  31.241  23.210  1.00  0.00     0.086 C 
BRANCH  18  21
HETATM   21  O4  UNL     1       7.696  30.218  23.601  1.00  0.00    -0.341 OA
BRANCH  21  22
HETATM   22  C16 UNL     1       8.686  31.092  23.376  1.00  0.00     0.054 C 
HETATM   23  C17 UNL     1       9.994  30.390  23.837  1.00  0.00     0.045 C 
HETATM   24  C18 UNL     1       8.595  32.314  24.312  1.00  0.00     0.045 C 
HETATM   25  C19 UNL     1       8.956  31.595  22.004  1.00  0.00     0.045 C 
ENDBRANCH  21  22
ENDBRANCH  18  21
ENDBRANCH  12  15
ENDBRANCH  10  12
ENDBRANCH   9  10
ENDBRANCH   8   9
BRANCH   1  26
HETATM   26  O1  UNL     1       1.313  33.323  23.994  1.00  0.00    -0.340 OA
HETATM   27  C1  UNL     1      -0.008  32.834  24.105  1.00  0.00     0.211 C 
ENDBRANCH   1  26
BRANCH   7  28
HETATM   28  N4  UNL     1       4.492  36.568  25.710  1.00  0.00    -0.362 N 
HETATM   29  C5  UNL     1       5.412  37.204  24.807  1.00  0.00     0.150 C 
HETATM   30  C6  UNL     1       6.664  37.670  25.526  1.00  0.00     0.187 C 
HETATM   31  O2  UNL     1       7.225  36.705  26.315  1.00  0.00    -0.388 OA
HETATM   32  C7  UNL     1       6.393  35.857  26.979  1.00  0.00     0.187 C 
HETATM   33  C8  UNL     1       4.944  36.362  27.079  1.00  0.00     0.150 C 
ENDBRANCH   7  28
BRANCH   4  34
HETATM   34  N2  UNL     1       0.159  37.777  24.751  1.00  0.00    -0.234 N 
ATOM     35  H22 UNL     1      -0.815  37.536  24.938  1.00  0.00     0.174 HD
ATOM     36  H21 UNL     1       0.402  38.748  24.553  1.00  0.00     0.174 HD
ENDBRANCH   4  34
TORSDOF 10
ENDMDL
