MODEL 1
REMARK VINA RESULT: -9.092841499      0.000      0.000
REMARK  9 active torsions:
REMARK  status: ('A' for Active; 'I' for Inactive)
REMARK    1  A    between atoms: O1_1  and  C1_3 
REMARK    2  A    between atoms: C1_3  and  C2_4 
REMARK    3  A    between atoms: C4_6  and  N1_7 
REMARK    4  A    between atoms: C7_12  and  N3_13 
REMARK    5  A    between atoms: N3_13  and  C8_15 
REMARK    6  A    between atoms: C8_15  and  C9_16 
REMARK    7  A    between atoms: C9_16  and  C10_17 
REMARK    8  A    between atoms: C13_22  and  N5_23 
REMARK    9  A    between atoms: C22_35  and  O2_36 
ROOT
HETATM    1  N1  UNL     1       3.881  36.706  25.840  1.00  0.00    -0.319 N 
HETATM    2  C5  UNL     1       2.820  37.516  25.683  1.00  0.00     0.185 A 
HETATM    3  N2  UNL     1       1.793  36.836  25.141  1.00  0.00    -0.346 N 
ATOM      4  H2  UNL     1       0.874  37.218  24.918  1.00  0.00     0.167 HD
HETATM    5  C6  UNL     1       2.187  35.568  24.942  1.00  0.00     0.123 A 
HETATM    6  C7  UNL     1       1.626  34.414  24.436  1.00  0.00     0.147 A 
HETATM    7  N4  UNL     1       2.315  33.238  24.366  1.00  0.00    -0.174 N 
ATOM      8  H4  UNL     1       1.871  32.401  23.986  1.00  0.00     0.186 HD
HETATM    9  C13 UNL     1       3.558  33.195  24.791  1.00  0.00     0.684 A 
HETATM   10  N6  UNL     1       4.110  34.337  25.290  1.00  0.00    -0.174 N 
ATOM     11  H6  UNL     1       5.075  34.289  25.619  1.00  0.00     0.186 HD
HETATM   12  C20 UNL     1       3.493  35.502  25.383  1.00  0.00     0.155 A 
ENDROOT
BRANCH   1  13
HETATM   13  C4  UNL     1       5.159  37.101  26.394  1.00  0.00     0.129 C 
HETATM   14  C3  UNL     1       6.004  35.898  26.762  1.00  0.00     0.038 C 
HETATM   15  C2  UNL     1       7.367  36.530  26.936  1.00  0.00     0.043 C 
HETATM   16  C22 UNL     1       7.456  37.409  25.707  1.00  0.00     0.160 C 
HETATM   17  C21 UNL     1       6.025  37.844  25.432  1.00  0.00     0.222 C 
HETATM   18  F1  UNL     1       5.720  37.549  24.137  1.00  0.00    -0.244 F 
BRANCH  15  19
HETATM   19  C1  UNL     1       8.433  35.461  26.941  1.00  0.00     0.171 C 
BRANCH  19  20
HETATM   20  O1  UNL     1       7.894  34.319  26.350  1.00  0.00    -0.400 OA
ATOM     21  H1  UNL     1       8.266  33.563  26.787  1.00  0.00     0.209 HD
ENDBRANCH  19  20
ENDBRANCH  15  19
BRANCH  16  22
HETATM   22  O2  UNL     1       7.983  36.690  24.651  1.00  0.00    -0.392 OA
ATOM     23  H2  UNL     1       7.439  36.801  23.881  1.00  0.00     0.210 HD
ENDBRANCH  16  22
ENDBRANCH   1  13
BRANCH   6  24
HETATM   24  N3  UNL     1       0.421  34.412  24.013  1.00  0.00    -0.374 N 
ATOM     25  H3  UNL     1       0.025  35.323  23.782  1.00  0.00     0.161 HD
BRANCH  24  26
HETATM   26  C8  UNL     1      -0.434  33.293  23.824  1.00  0.00     0.121 C 
BRANCH  26  27
HETATM   27  C9  UNL     1      -1.221  32.928  25.061  1.00  0.00     0.024 C 
BRANCH  27  28
HETATM   28  C10 UNL     1      -0.863  31.605  25.637  1.00  0.00    -0.013 A 
HETATM   29  C11 UNL     1      -1.219  31.192  26.999  1.00  0.00     0.005 A 
HETATM   30  C12 UNL     1       0.193  31.658  26.760  1.00  0.00     0.005 A 
ENDBRANCH  27  28
ENDBRANCH  26  27
ENDBRANCH  24  26
ENDBRANCH   6  24
BRANCH   9  31
HETATM   31  N5  UNL     1       4.362  32.056  24.772  1.00  0.00    -0.208 N 
HETATM   32  C14 UNL     1       5.803  32.085  24.915  1.00  0.00     0.142 C 
HETATM   33  C15 UNL     1       6.631  31.403  23.898  1.00  0.00     0.021 C 
HETATM   34  C16 UNL     1       6.985  29.948  24.012  1.00  0.00     0.013 C 
HETATM   35  C17 UNL     1       5.736  29.007  23.922  1.00  0.00     0.081 C 
HETATM   36  C18 UNL     1       4.595  29.764  24.242  1.00  0.00    -0.163 C 
HETATM   37  C19 UNL     1       3.633  30.743  24.592  1.00  0.00     0.221 C 
ENDBRANCH   9  31
TORSDOF 9
ENDMDL
MODEL 2
REMARK VINA RESULT: -8.931249652      3.569      8.131
REMARK  9 active torsions:
REMARK  status: ('A' for Active; 'I' for Inactive)
REMARK    1  A    between atoms: O1_1  and  C1_3 
REMARK    2  A    between atoms: C1_3  and  C2_4 
REMARK    3  A    between atoms: C4_6  and  N1_7 
REMARK    4  A    between atoms: C7_12  and  N3_13 
REMARK    5  A    between atoms: N3_13  and  C8_15 
REMARK    6  A    between atoms: C8_15  and  C9_16 
REMARK    7  A    between atoms: C9_16  and  C10_17 
REMARK    8  A    between atoms: C13_22  and  N5_23 
REMARK    9  A    between atoms: C22_35  and  O2_36 
ROOT
HETATM    1  N1  UNL     1       3.587  31.375  24.503  1.00  0.00    -0.319 N 
HETATM    2  C5  UNL     1       3.721  30.043  24.377  1.00  0.00     0.185 A 
HETATM    3  N2  UNL     1       5.024  29.707  24.353  1.00  0.00    -0.346 N 
ATOM      4  H2  UNL     1       5.396  28.762  24.265  1.00  0.00     0.167 HD
HETATM    5  C6  UNL     1       5.749  30.831  24.465  1.00  0.00     0.123 A 
HETATM    6  C7  UNL     1       7.089  31.157  24.504  1.00  0.00     0.147 A 
HETATM    7  N4  UNL     1       7.523  32.445  24.629  1.00  0.00    -0.174 N 
ATOM      8  H4  UNL     1       8.522  32.653  24.655  1.00  0.00     0.186 HD
HETATM    9  C13 UNL     1       6.641  33.415  24.715  1.00  0.00     0.684 A 
HETATM   10  N6  UNL     1       5.317  33.090  24.677  1.00  0.00    -0.174 N 
ATOM     11  H6  UNL     1       4.643  33.853  24.747  1.00  0.00     0.186 HD
HETATM   12  C20 UNL     1       4.839  31.864  24.557  1.00  0.00     0.155 A 
ENDROOT
BRANCH   1  13
HETATM   13  C4  UNL     1       2.328  32.087  24.562  1.00  0.00     0.129 C 
HETATM   14  C3  UNL     1       1.149  31.154  24.371  1.00  0.00     0.038 C 
HETATM   15  C2  UNL     1       0.002  32.017  24.846  1.00  0.00     0.043 C 
HETATM   16  C22 UNL     1       0.559  32.587  26.133  1.00  0.00     0.160 C 
HETATM   17  C21 UNL     1       2.055  32.711  25.890  1.00  0.00     0.222 C 
HETATM   18  F1  UNL     1       2.716  32.076  26.898  1.00  0.00    -0.244 F 
BRANCH  15  19
HETATM   19  C1  UNL     1      -1.219  31.163  25.091  1.00  0.00     0.171 C 
BRANCH  19  20
HETATM   20  O1  UNL     1      -2.133  31.925  25.818  1.00  0.00    -0.400 OA
ATOM     21  H1  UNL     1      -2.989  31.801  25.427  1.00  0.00     0.209 HD
ENDBRANCH  19  20
ENDBRANCH  15  19
BRANCH  16  22
HETATM   22  O2  UNL     1       0.282  31.732  27.184  1.00  0.00    -0.392 OA
ATOM     23  H2  UNL     1      -0.430  32.082  27.706  1.00  0.00     0.210 HD
ENDBRANCH  16  22
ENDBRANCH   1  13
BRANCH   6  24
HETATM   24  N3  UNL     1       7.979  30.246  24.423  1.00  0.00    -0.374 N 
ATOM     25  H3  UNL     1       7.639  29.284  24.431  1.00  0.00     0.161 HD
BRANCH  24  26
HETATM   26  C8  UNL     1       9.388  30.409  24.324  1.00  0.00     0.121 C 
BRANCH  26  27
HETATM   27  C9  UNL     1       9.886  30.429  22.898  1.00  0.00     0.024 C 
BRANCH  27  28
HETATM   28  C10 UNL     1      11.365  30.524  22.776  1.00  0.00    -0.013 A 
HETATM   29  C11 UNL     1      12.149  31.647  23.302  1.00  0.00     0.005 A 
HETATM   30  C12 UNL     1      11.860  31.632  21.823  1.00  0.00     0.005 A 
ENDBRANCH  27  28
ENDBRANCH  26  27
ENDBRANCH  24  26
ENDBRANCH   6  24
BRANCH   9  31
HETATM   31  N5  UNL     1       6.960  34.766  24.846  1.00  0.00    -0.208 N 
HETATM   32  C14 UNL     1       8.241  35.248  25.319  1.00  0.00     0.142 C 
HETATM   33  C15 UNL     1       8.266  36.216  26.436  1.00  0.00     0.021 C 
HETATM   34  C16 UNL     1       8.173  37.697  26.204  1.00  0.00     0.013 C 
HETATM   35  C17 UNL     1       6.799  38.132  25.589  1.00  0.00     0.081 C 
HETATM   36  C18 UNL     1       6.219  37.007  24.977  1.00  0.00    -0.163 C 
HETATM   37  C19 UNL     1       5.868  35.737  24.455  1.00  0.00     0.221 C 
ENDBRANCH   9  31
TORSDOF 9
ENDMDL
MODEL 3
REMARK VINA RESULT: -8.867026185      3.562      8.003
REMARK  9 active torsions:
REMARK  status: ('A' for Active; 'I' for Inactive)
REMARK    1  A    between atoms: O1_1  and  C1_3 
REMARK    2  A    between atoms: C1_3  and  C2_4 
REMARK    3  A    between atoms: C4_6  and  N1_7 
REMARK    4  A    between atoms: C7_12  and  N3_13 
REMARK    5  A    between atoms: N3_13  and  C8_15 
REMARK    6  A    between atoms: C8_15  and  C9_16 
REMARK    7  A    between atoms: C9_16  and  C10_17 
REMARK    8  A    between atoms: C13_22  and  N5_23 
REMARK    9  A    between atoms: C22_35  and  O2_36 
ROOT
HETATM    1  N1  UNL     1       2.639  31.920  25.093  1.00  0.00    -0.319 N 
HETATM    2  C5  UNL     1       2.662  30.600  24.835  1.00  0.00     0.185 A 
HETATM    3  N2  UNL     1       3.927  30.189  24.635  1.00  0.00    -0.346 N 
ATOM      4  H2  UNL     1       4.219  29.235  24.421  1.00  0.00     0.167 HD
HETATM    5  C6  UNL     1       4.740  31.249  24.765  1.00  0.00     0.123 A 
HETATM    6  C7  UNL     1       6.097  31.486  24.682  1.00  0.00     0.147 A 
HETATM    7  N4  UNL     1       6.634  32.727  24.873  1.00  0.00    -0.174 N 
ATOM      8  H4  UNL     1       7.642  32.868  24.805  1.00  0.00     0.186 HD
HETATM    9  C13 UNL     1       5.838  33.736  25.144  1.00  0.00     0.684 A 
HETATM   10  N6  UNL     1       4.497  33.499  25.226  1.00  0.00    -0.174 N 
ATOM     11  H6  UNL     1       3.891  34.292  25.439  1.00  0.00     0.186 HD
HETATM   12  C20 UNL     1       3.922  32.322  25.051  1.00  0.00     0.155 A 
ENDROOT
BRANCH   1  13
HETATM   13  C4  UNL     1       1.448  32.699  25.357  1.00  0.00     0.129 C 
HETATM   14  C3  UNL     1       0.693  33.016  24.082  1.00  0.00     0.038 C 
HETATM   15  C2  UNL     1      -0.643  33.467  24.627  1.00  0.00     0.043 C 
HETATM   16  C22 UNL     1      -0.932  32.395  25.656  1.00  0.00     0.160 C 
HETATM   17  C21 UNL     1       0.433  31.980  26.183  1.00  0.00     0.222 C 
HETATM   18  F1  UNL     1       0.552  30.627  26.073  1.00  0.00    -0.244 F 
BRANCH  15  19
HETATM   19  C1  UNL     1      -1.672  33.479  23.522  1.00  0.00     0.171 C 
BRANCH  19  20
HETATM   20  O1  UNL     1      -1.049  33.036  22.356  1.00  0.00    -0.400 OA
ATOM     21  H1  UNL     1      -1.588  32.349  21.983  1.00  0.00     0.209 HD
ENDBRANCH  19  20
ENDBRANCH  15  19
BRANCH  16  22
HETATM   22  O2  UNL     1      -1.592  31.336  25.059  1.00  0.00    -0.392 OA
ATOM     23  H2  UNL     1      -1.372  30.526  25.504  1.00  0.00     0.210 HD
ENDBRANCH  16  22
ENDBRANCH   1  13
BRANCH   6  24
HETATM   24  N3  UNL     1       6.905  30.533  24.421  1.00  0.00    -0.374 N 
ATOM     25  H3  UNL     1       6.835  29.708  25.017  1.00  0.00     0.161 HD
BRANCH  24  26
HETATM   26  C8  UNL     1       7.892  30.482  23.399  1.00  0.00     0.121 C 
BRANCH  26  27
HETATM   27  C9  UNL     1       9.305  30.512  23.933  1.00  0.00     0.024 C 
BRANCH  27  28
HETATM   28  C10 UNL     1      10.333  30.824  22.905  1.00  0.00    -0.013 A 
HETATM   29  C11 UNL     1      11.412  29.902  22.535  1.00  0.00     0.005 A 
HETATM   30  C12 UNL     1      11.755  31.038  23.463  1.00  0.00     0.005 A 
ENDBRANCH  27  28
ENDBRANCH  26  27
ENDBRANCH  24  26
ENDBRANCH   6  24
BRANCH   9  31
HETATM   31  N5  UNL     1       6.266  35.046  25.359  1.00  0.00    -0.208 N 
HETATM   32  C14 UNL     1       5.368  36.156  25.603  1.00  0.00     0.142 C 
HETATM   33  C15 UNL     1       5.497  37.369  24.767  1.00  0.00     0.021 C 
HETATM   34  C16 UNL     1       6.436  38.484  25.129  1.00  0.00     0.013 C 
HETATM   35  C17 UNL     1       7.941  38.050  25.092  1.00  0.00     0.081 C 
HETATM   36  C18 UNL     1       7.995  36.650  25.206  1.00  0.00    -0.163 C 
HETATM   37  C19 UNL     1       7.763  35.258  25.329  1.00  0.00     0.221 C 
ENDBRANCH   9  31
TORSDOF 9
ENDMDL
MODEL 4
REMARK VINA RESULT: -8.800264703      1.312      1.483
REMARK  9 active torsions:
REMARK  status: ('A' for Active; 'I' for Inactive)
REMARK    1  A    between atoms: O1_1  and  C1_3 
REMARK    2  A    between atoms: C1_3  and  C2_4 
REMARK    3  A    between atoms: C4_6  and  N1_7 
REMARK    4  A    between atoms: C7_12  and  N3_13 
REMARK    5  A    between atoms: N3_13  and  C8_15 
REMARK    6  A    between atoms: C8_15  and  C9_16 
REMARK    7  A    between atoms: C9_16  and  C10_17 
REMARK    8  A    between atoms: C13_22  and  N5_23 
REMARK    9  A    between atoms: C22_35  and  O2_36 
ROOT
HETATM    1  N1  UNL     1       2.888  36.717  25.335  1.00  0.00    -0.319 N 
HETATM    2  C5  UNL     1       1.739  37.377  25.105  1.00  0.00     0.185 A 
HETATM    3  N2  UNL     1       0.808  36.534  24.622  1.00  0.00    -0.346 N 
ATOM      4  H2  UNL     1      -0.147  36.782  24.364  1.00  0.00     0.167 HD
HETATM    5  C6  UNL     1       1.353  35.310  24.536  1.00  0.00     0.123 A 
HETATM    6  C7  UNL     1       0.941  34.057  24.133  1.00  0.00     0.147 A 
HETATM    7  N4  UNL     1       1.767  32.971  24.167  1.00  0.00    -0.174 N 
ATOM      8  H4  UNL     1       1.430  32.057  23.862  1.00  0.00     0.186 HD
HETATM    9  C13 UNL     1       3.000  33.115  24.598  1.00  0.00     0.684 A 
HETATM   10  N6  UNL     1       3.405  34.354  24.997  1.00  0.00    -0.174 N 
ATOM     11  H6  UNL     1       4.364  34.451  25.330  1.00  0.00     0.186 HD
HETATM   12  C20 UNL     1       2.652  35.440  24.985  1.00  0.00     0.155 A 
ENDROOT
BRANCH   1  13
HETATM   13  C4  UNL     1       4.102  37.309  25.856  1.00  0.00     0.129 C 
HETATM   14  C3  UNL     1       5.335  36.570  25.376  1.00  0.00     0.038 C 
HETATM   15  C2  UNL     1       6.428  37.560  25.710  1.00  0.00     0.043 C 
HETATM   16  C22 UNL     1       5.838  38.854  25.191  1.00  0.00     0.160 C 
HETATM   17  C21 UNL     1       4.337  38.706  25.385  1.00  0.00     0.222 C 
HETATM   18  F1  UNL     1       3.716  38.955  24.198  1.00  0.00    -0.244 F 
BRANCH  15  19
HETATM   19  C1  UNL     1       7.698  37.190  24.982  1.00  0.00     0.171 C 
BRANCH  19  20
HETATM   20  O1  UNL     1       8.562  38.282  25.050  1.00  0.00    -0.400 OA
ATOM     21  H1  UNL     1       8.227  38.953  24.467  1.00  0.00     0.209 HD
ENDBRANCH  19  20
ENDBRANCH  15  19
BRANCH  16  22
HETATM   22  O2  UNL     1       6.167  39.021  23.859  1.00  0.00    -0.392 OA
ATOM     23  H2  UNL     1       5.382  38.992  23.326  1.00  0.00     0.210 HD
ENDBRANCH  16  22
ENDBRANCH   1  13
BRANCH   6  24
HETATM   24  N3  UNL     1      -0.249  33.874  23.708  1.00  0.00    -0.374 N 
ATOM     25  H3  UNL     1      -0.651  34.632  23.157  1.00  0.00     0.161 HD
BRANCH  24  26
HETATM   26  C8  UNL     1      -1.082  32.740  23.909  1.00  0.00     0.121 C 
BRANCH  26  27
HETATM   27  C9  UNL     1      -1.515  32.567  25.346  1.00  0.00     0.024 C 
BRANCH  27  28
HETATM   28  C10 UNL     1      -0.982  31.339  25.994  1.00  0.00    -0.013 A 
HETATM   29  C11 UNL     1      -1.226  30.994  27.399  1.00  0.00     0.005 A 
HETATM   30  C12 UNL     1       0.111  31.594  27.052  1.00  0.00     0.005 A 
ENDBRANCH  27  28
ENDBRANCH  26  27
ENDBRANCH  24  26
ENDBRANCH   6  24
BRANCH   9  31
HETATM   31  N5  UNL     1       3.934  32.083  24.681  1.00  0.00    -0.208 N 
HETATM   32  C14 UNL     1       5.338  32.290  24.971  1.00  0.00     0.142 C 
HETATM   33  C15 UNL     1       6.344  31.710  24.056  1.00  0.00     0.021 C 
HETATM   34  C16 UNL     1       6.859  30.311  24.231  1.00  0.00     0.013 C 
HETATM   35  C17 UNL     1       5.750  29.223  24.029  1.00  0.00     0.081 C 
HETATM   36  C18 UNL     1       4.499  29.835  24.217  1.00  0.00    -0.163 C 
HETATM   37  C19 UNL     1       3.393  30.690  24.449  1.00  0.00     0.221 C 
ENDBRANCH   9  31
TORSDOF 9
ENDMDL
MODEL 5
REMARK VINA RESULT: -8.733345268      1.941      2.604
REMARK  9 active torsions:
REMARK  status: ('A' for Active; 'I' for Inactive)
REMARK    1  A    between atoms: O1_1  and  C1_3 
REMARK    2  A    between atoms: C1_3  and  C2_4 
REMARK    3  A    between atoms: C4_6  and  N1_7 
REMARK    4  A    between atoms: C7_12  and  N3_13 
REMARK    5  A    between atoms: N3_13  and  C8_15 
REMARK    6  A    between atoms: C8_15  and  C9_16 
REMARK    7  A    between atoms: C9_16  and  C10_17 
REMARK    8  A    between atoms: C13_22  and  N5_23 
REMARK    9  A    between atoms: C22_35  and  O2_36 
ROOT
HETATM    1  N1  UNL     1       2.970  36.675  24.459  1.00  0.00    -0.319 N 
HETATM    2  C5  UNL     1       1.770  37.282  24.429  1.00  0.00     0.185 A 
HETATM    3  N2  UNL     1       0.785  36.367  24.479  1.00  0.00    -0.346 N 
ATOM      4  H2  UNL     1      -0.215  36.565  24.470  1.00  0.00     0.167 HD
HETATM    5  C6  UNL     1       1.346  35.149  24.543  1.00  0.00     0.123 A 
HETATM    6  C7  UNL     1       0.901  33.845  24.612  1.00  0.00     0.147 A 
HETATM    7  N4  UNL     1       1.757  32.783  24.666  1.00  0.00    -0.174 N 
ATOM      8  H4  UNL     1       1.395  31.831  24.717  1.00  0.00     0.186 HD
HETATM    9  C13 UNL     1       3.053  33.002  24.651  1.00  0.00     0.684 A 
HETATM   10  N6  UNL     1       3.491  34.292  24.583  1.00  0.00    -0.174 N 
ATOM     11  H6  UNL     1       4.499  34.447  24.575  1.00  0.00     0.186 HD
HETATM   12  C20 UNL     1       2.710  35.357  24.528  1.00  0.00     0.155 A 
ENDROOT
BRANCH   1  13
HETATM   13  C4  UNL     1       4.250  37.350  24.420  1.00  0.00     0.129 C 
HETATM   14  C3  UNL     1       4.092  38.832  24.145  1.00  0.00     0.038 C 
HETATM   15  C2  UNL     1       5.458  39.356  24.529  1.00  0.00     0.043 C 
HETATM   16  C22 UNL     1       5.693  38.659  25.852  1.00  0.00     0.160 C 
HETATM   17  C21 UNL     1       4.981  37.322  25.721  1.00  0.00     0.222 C 
HETATM   18  F1  UNL     1       4.135  37.172  26.779  1.00  0.00    -0.244 F 
BRANCH  15  19
HETATM   19  C1  UNL     1       5.407  40.857  24.685  1.00  0.00     0.171 C 
BRANCH  19  20
HETATM   20  O1  UNL     1       4.069  41.227  24.809  1.00  0.00    -0.400 OA
ATOM     21  H1  UNL     1       3.998  42.144  24.571  1.00  0.00     0.209 HD
ENDBRANCH  19  20
ENDBRANCH  15  19
BRANCH  16  22
HETATM   22  O2  UNL     1       5.171  39.417  26.883  1.00  0.00    -0.392 OA
ATOM     23  H2  UNL     1       4.751  40.194  26.532  1.00  0.00     0.210 HD
ENDBRANCH  16  22
ENDBRANCH   1  13
BRANCH   6  24
HETATM   24  N3  UNL     1      -0.350  33.589  24.628  1.00  0.00    -0.374 N 
ATOM     25  H3  UNL     1      -0.939  34.258  25.123  1.00  0.00     0.161 HD
BRANCH  24  26
HETATM   26  C8  UNL     1      -1.021  32.482  24.041  1.00  0.00     0.121 C 
BRANCH  26  27
HETATM   27  C9  UNL     1      -1.358  31.394  25.033  1.00  0.00     0.024 C 
BRANCH  27  28
HETATM   28  C10 UNL     1      -1.299  31.832  26.453  1.00  0.00    -0.013 A 
HETATM   29  C11 UNL     1      -0.248  31.411  27.386  1.00  0.00     0.005 A 
HETATM   30  C12 UNL     1      -1.582  30.717  27.481  1.00  0.00     0.005 A 
ENDBRANCH  27  28
ENDBRANCH  26  27
ENDBRANCH  24  26
ENDBRANCH   6  24
BRANCH   9  31
HETATM   31  N5  UNL     1       4.025  32.003  24.703  1.00  0.00    -0.208 N 
HETATM   32  C14 UNL     1       5.425  32.256  24.972  1.00  0.00     0.142 C 
HETATM   33  C15 UNL     1       6.435  31.725  24.032  1.00  0.00     0.021 C 
HETATM   34  C16 UNL     1       7.002  30.342  24.177  1.00  0.00     0.013 C 
HETATM   35  C17 UNL     1       5.928  29.219  23.978  1.00  0.00     0.081 C 
HETATM   36  C18 UNL     1       4.659  29.784  24.197  1.00  0.00    -0.163 C 
HETATM   37  C19 UNL     1       3.529  30.595  24.461  1.00  0.00     0.221 C 
ENDBRANCH   9  31
TORSDOF 9
ENDMDL
