MODEL 1
REMARK VINA RESULT: -6.308438466      0.000      0.000
REMARK  3 active torsions:
REMARK  status: ('A' for Active; 'I' for Inactive)
REMARK    1  A    between atoms: S1_2  and  C2_3 
REMARK    2  A    between atoms: C4_9  and  N3_10 
REMARK    3  A    between atoms: N5_16  and  C6_18 
ROOT
HETATM    1  C2  UNL     1       1.657  10.548  26.000  1.00  0.00     0.094 A 
HETATM    2  N1  UNL     1       0.501  10.032  26.420  1.00  0.00    -0.334 N 
ATOM      3  H1  UNL     1       0.116  10.309  27.323  1.00  0.00     0.168 HD
HETATM    4  C3  UNL     1      -0.161   9.136  25.641  1.00  0.00     0.137 A 
HETATM    5  N2  UNL     1      -1.327   8.632  26.093  1.00  0.00    -0.176 N 
ATOM      6  H2  UNL     1      -1.681   8.934  27.001  1.00  0.00     0.186 HD
HETATM    7  C4  UNL     1      -2.033   7.745  25.377  1.00  0.00     0.679 A 
HETATM    8  N4  UNL     1      -1.543   7.359  24.173  1.00  0.00    -0.176 N 
ATOM      9  H4  UNL     1      -2.087   6.683  23.637  1.00  0.00     0.186 HD
HETATM   10  C5  UNL     1      -0.400   7.799  23.637  1.00  0.00     0.133 A 
HETATM   11  N5  UNL     1       0.100   7.479  22.533  1.00  0.00    -0.370 N 
ATOM     12  H5  UNL     1       0.986   7.935  22.313  1.00  0.00     0.161 HD
HETATM   13  C11 UNL     1       0.307   8.732  24.430  1.00  0.00     0.076 A 
HETATM   14  C12 UNL     1       1.500   9.257  23.983  1.00  0.00     0.076 A 
HETATM   15 CL1  UNL     1       2.139   8.778  22.453  1.00  0.00    -0.081 Cl
HETATM   16  C13 UNL     1       2.184  10.178  24.779  1.00  0.00     0.090 A 
HETATM   17 CL2  UNL     1       3.693  10.869  24.262  1.00  0.00    -0.080 Cl
ENDROOT
BRANCH  11  18
HETATM   18  C6  UNL     1      -0.364   6.597  21.557  1.00  0.00     0.087 C 
HETATM   19  C7  UNL     1       0.615   6.128  20.523  1.00  0.00     0.051 C 
HETATM   20  C8  UNL     1       0.014   6.073  19.140  1.00  0.00     0.169 C 
HETATM   21  O1  UNL     1      -1.219   5.487  19.067  1.00  0.00    -0.391 OA
HETATM   22  C9  UNL     1      -2.074   5.707  20.113  1.00  0.00     0.169 C 
HETATM   23  C10 UNL     1      -1.625   7.006  20.811  1.00  0.00     0.051 C 
ENDBRANCH  11  18
BRANCH   7  24
HETATM   24  N3  UNL     1      -3.144   7.263  25.805  1.00  0.00    -0.234 N 
ATOM     25  H32 UNL     1      -3.414   7.389  26.780  1.00  0.00     0.174 HD
ATOM     26  H31 UNL     1      -3.778   6.749  25.192  1.00  0.00     0.174 HD
ENDBRANCH   7  24
BRANCH   1  27
HETATM   27  S1  UNL     1       2.495  11.725  27.061  1.00  0.00    -0.115 SA
HETATM   28  C1  UNL     1       1.295  12.669  28.029  1.00  0.00     0.097 C 
ENDBRANCH   1  27
TORSDOF 3
ENDMDL
MODEL 2
REMARK VINA RESULT: -6.131289678      7.567     10.221
REMARK  3 active torsions:
REMARK  status: ('A' for Active; 'I' for Inactive)
REMARK    1  A    between atoms: S1_2  and  C2_3 
REMARK    2  A    between atoms: C4_9  and  N3_10 
REMARK    3  A    between atoms: N5_16  and  C6_18 
ROOT
HETATM    1  C2  UNL     1      -5.428   3.057  26.339  1.00  0.00     0.094 A 
HETATM    2  N1  UNL     1      -4.777   4.165  25.989  1.00  0.00    -0.334 N 
ATOM      3  H1  UNL     1      -4.900   4.556  25.054  1.00  0.00     0.168 HD
HETATM    4  C3  UNL     1      -3.950   4.774  26.880  1.00  0.00     0.137 A 
HETATM    5  N2  UNL     1      -3.306   5.894  26.495  1.00  0.00    -0.176 N 
ATOM      6  H2  UNL     1      -3.454   6.255  25.552  1.00  0.00     0.186 HD
HETATM    7  C4  UNL     1      -2.476   6.545  27.323  1.00  0.00     0.679 A 
HETATM    8  N4  UNL     1      -2.295   6.048  28.571  1.00  0.00    -0.176 N 
ATOM      9  H4  UNL     1      -1.661   6.550  29.193  1.00  0.00     0.186 HD
HETATM   10  C5  UNL     1      -2.887   4.947  29.047  1.00  0.00     0.133 A 
HETATM   11  N5  UNL     1      -2.757   4.443  30.188  1.00  0.00    -0.370 N 
ATOM     12  H5  UNL     1      -3.302   3.595  30.347  1.00  0.00     0.161 HD
HETATM   13  C11 UNL     1      -3.751   4.296  28.138  1.00  0.00     0.076 A 
HETATM   14  C12 UNL     1      -4.417   3.151  28.514  1.00  0.00     0.076 A 
HETATM   15 CL1  UNL     1      -4.200   2.502  30.099  1.00  0.00    -0.081 Cl
HETATM   16  C13 UNL     1      -5.268   2.522  27.602  1.00  0.00     0.090 A 
HETATM   17 CL2  UNL     1      -6.132   1.075  28.027  1.00  0.00    -0.080 Cl
ENDROOT
BRANCH  11  18
HETATM   18  C6  UNL     1      -1.986   4.858  31.273  1.00  0.00     0.087 C 
HETATM   19  C7  UNL     1      -1.219   3.808  32.022  1.00  0.00     0.051 C 
HETATM   20  C8  UNL     1      -1.260   4.018  33.515  1.00  0.00     0.169 C 
HETATM   21  O1  UNL     1      -1.025   5.300  33.927  1.00  0.00    -0.391 OA
HETATM   22  C9  UNL     1      -1.518   6.305  33.140  1.00  0.00     0.169 C 
HETATM   23  C10 UNL     1      -2.681   5.717  32.316  1.00  0.00     0.051 C 
ENDBRANCH  11  18
BRANCH   7  24
HETATM   24  N3  UNL     1      -1.860   7.613  26.960  1.00  0.00    -0.234 N 
ATOM     25  H32 UNL     1      -0.954   7.549  26.497  1.00  0.00     0.174 HD
ATOM     26  H31 UNL     1      -2.254   8.540  27.121  1.00  0.00     0.174 HD
ENDBRANCH   7  24
BRANCH   1  27
HETATM   27  S1  UNL     1      -6.507   2.288  25.131  1.00  0.00    -0.115 SA
HETATM   28  C1  UNL     1      -6.318   3.085  23.519  1.00  0.00     0.097 C 
ENDBRANCH   1  27
TORSDOF 3
ENDMDL
MODEL 3
REMARK VINA RESULT: -6.130321665      4.187      6.072
REMARK  3 active torsions:
REMARK  status: ('A' for Active; 'I' for Inactive)
REMARK    1  A    between atoms: S1_2  and  C2_3 
REMARK    2  A    between atoms: C4_9  and  N3_10 
REMARK    3  A    between atoms: N5_16  and  C6_18 
ROOT
HETATM    1  C2  UNL     1      -2.658   5.006  28.155  1.00  0.00     0.094 A 
HETATM    2  N1  UNL     1      -3.125   6.253  28.123  1.00  0.00    -0.334 N 
ATOM      3  H1  UNL     1      -4.002   6.483  28.591  1.00  0.00     0.168 HD
HETATM    4  C3  UNL     1      -2.429   7.219  27.466  1.00  0.00     0.137 A 
HETATM    5  N2  UNL     1      -2.927   8.471  27.452  1.00  0.00    -0.176 N 
ATOM      6  H2  UNL     1      -3.808   8.663  27.931  1.00  0.00     0.186 HD
HETATM    7  C4  UNL     1      -2.293   9.472  26.823  1.00  0.00     0.679 A 
HETATM    8  N4  UNL     1      -1.125   9.195  26.193  1.00  0.00    -0.176 N 
ATOM      9  H4  UNL     1      -0.651   9.962  25.717  1.00  0.00     0.186 HD
HETATM   10  C5  UNL     1      -0.549   7.989  26.150  1.00  0.00     0.133 A 
HETATM   11  N5  UNL     1       0.526   7.675  25.585  1.00  0.00    -0.370 N 
ATOM     12  H5  UNL     1       0.787   6.693  25.674  1.00  0.00     0.161 HD
HETATM   13  C11 UNL     1      -1.255   6.968  26.826  1.00  0.00     0.076 A 
HETATM   14  C12 UNL     1      -0.761   5.683  26.851  1.00  0.00     0.076 A 
HETATM   15 CL1  UNL     1       0.725   5.310  26.055  1.00  0.00    -0.081 Cl
HETATM   16  C13 UNL     1      -1.471   4.687  27.525  1.00  0.00     0.090 A 
HETATM   17 CL2  UNL     1      -0.890   3.050  27.585  1.00  0.00    -0.080 Cl
ENDROOT
BRANCH  11  18
HETATM   18  C6  UNL     1       1.420   8.457  24.855  1.00  0.00     0.087 C 
HETATM   19  C7  UNL     1       1.955   9.697  25.510  1.00  0.00     0.051 C 
HETATM   20  C8  UNL     1       2.030  10.866  24.559  1.00  0.00     0.169 C 
HETATM   21  O1  UNL     1       2.575  10.584  23.337  1.00  0.00    -0.391 OA
HETATM   22  C9  UNL     1       2.294   9.358  22.800  1.00  0.00     0.169 C 
HETATM   23  C10 UNL     1       0.990   8.855  23.452  1.00  0.00     0.051 C 
ENDBRANCH  11  18
BRANCH   7  24
HETATM   24  N3  UNL     1      -2.765  10.667  26.808  1.00  0.00    -0.234 N 
ATOM     25  H32 UNL     1      -2.580  11.280  26.014  1.00  0.00     0.174 HD
ATOM     26  H31 UNL     1      -3.329  11.031  27.576  1.00  0.00     0.174 HD
ENDBRANCH   7  24
BRANCH   1  27
HETATM   27  S1  UNL     1      -3.610   3.766  29.033  1.00  0.00    -0.115 SA
HETATM   28  C1  UNL     1      -5.179   3.459  28.187  1.00  0.00     0.097 C 
ENDBRANCH   1  27
TORSDOF 3
ENDMDL
MODEL 4
REMARK VINA RESULT: -6.127659642      7.519      9.423
REMARK  3 active torsions:
REMARK  status: ('A' for Active; 'I' for Inactive)
REMARK    1  A    between atoms: S1_2  and  C2_3 
REMARK    2  A    between atoms: C4_9  and  N3_10 
REMARK    3  A    between atoms: N5_16  and  C6_18 
ROOT
HETATM    1  C2  UNL     1      -4.606   1.692  31.251  1.00  0.00     0.094 A 
HETATM    2  N1  UNL     1      -3.891   2.463  32.070  1.00  0.00    -0.334 N 
ATOM      3  H1  UNL     1      -3.967   2.344  33.080  1.00  0.00     0.168 HD
HETATM    4  C3  UNL     1      -3.061   3.408  31.554  1.00  0.00     0.137 A 
HETATM    5  N2  UNL     1      -2.351   4.172  32.408  1.00  0.00    -0.176 N 
ATOM      6  H2  UNL     1      -2.453   4.024  33.412  1.00  0.00     0.186 HD
HETATM    7  C4  UNL     1      -1.514   5.123  31.968  1.00  0.00     0.679 A 
HETATM    8  N4  UNL     1      -1.394   5.303  30.631  1.00  0.00    -0.176 N 
ATOM      9  H4  UNL     1      -0.755   6.029  30.306  1.00  0.00     0.186 HD
HETATM   10  C5  UNL     1      -2.052   4.598  29.704  1.00  0.00     0.133 A 
HETATM   11  N5  UNL     1      -1.981   4.719  28.458  1.00  0.00    -0.370 N 
ATOM     12  H5  UNL     1      -2.571   4.077  27.929  1.00  0.00     0.161 HD
HETATM   13  C11 UNL     1      -2.922   3.609  30.216  1.00  0.00     0.076 A 
HETATM   14  C12 UNL     1      -3.655   2.819  29.358  1.00  0.00     0.076 A 
HETATM   15 CL1  UNL     1      -3.516   3.033  27.651  1.00  0.00    -0.081 Cl
HETATM   16  C13 UNL     1      -4.509   1.846  29.883  1.00  0.00     0.090 A 
HETATM   17 CL2  UNL     1      -5.456   0.824  28.843  1.00  0.00    -0.080 Cl
ENDROOT
BRANCH  11  18
HETATM   18  C6  UNL     1      -1.222   5.594  27.681  1.00  0.00     0.087 C 
HETATM   19  C7  UNL     1      -1.892   6.841  27.184  1.00  0.00     0.051 C 
HETATM   20  C8  UNL     1      -1.519   7.169  25.759  1.00  0.00     0.169 C 
HETATM   21  O1  UNL     1      -0.184   7.085  25.476  1.00  0.00    -0.391 OA
HETATM   22  C9  UNL     1       0.521   6.088  26.095  1.00  0.00     0.169 C 
HETATM   23  C10 UNL     1      -0.486   4.992  26.496  1.00  0.00     0.051 C 
ENDBRANCH  11  18
BRANCH   7  24
HETATM   24  N3  UNL     1      -0.835   5.853  32.780  1.00  0.00    -0.234 N 
ATOM     25  H32 UNL     1      -0.570   5.490  33.695  1.00  0.00     0.174 HD
ATOM     26  H31 UNL     1      -0.548   6.801  32.536  1.00  0.00     0.174 HD
ENDBRANCH   7  24
BRANCH   1  27
HETATM   27  S1  UNL     1      -5.688   0.460  31.976  1.00  0.00    -0.115 SA
HETATM   28  C1  UNL     1      -7.420   0.929  31.752  1.00  0.00     0.097 C 
ENDBRANCH   1  27
TORSDOF 3
ENDMDL
MODEL 5
REMARK VINA RESULT: -6.099767744      5.705      7.445
REMARK  3 active torsions:
REMARK  status: ('A' for Active; 'I' for Inactive)
REMARK    1  A    between atoms: S1_2  and  C2_3 
REMARK    2  A    between atoms: C4_9  and  N3_10 
REMARK    3  A    between atoms: N5_16  and  C6_18 
ROOT
HETATM    1  C2  UNL     1      -2.617   2.282  29.609  1.00  0.00     0.094 A 
HETATM    2  N1  UNL     1      -3.183   3.399  30.065  1.00  0.00    -0.334 N 
ATOM      3  H1  UNL     1      -3.797   3.366  30.878  1.00  0.00     0.168 HD
HETATM    4  C3  UNL     1      -2.938   4.583  29.442  1.00  0.00     0.137 A 
HETATM    5  N2  UNL     1      -3.525   5.695  29.927  1.00  0.00    -0.176 N 
ATOM      6  H2  UNL     1      -4.133   5.622  30.743  1.00  0.00     0.186 HD
HETATM    7  C4  UNL     1      -3.327   6.896  29.363  1.00  0.00     0.679 A 
HETATM    8  N4  UNL     1      -2.516   6.969  28.280  1.00  0.00    -0.176 N 
ATOM      9  H4  UNL     1      -2.373   7.886  27.857  1.00  0.00     0.186 HD
HETATM   10  C5  UNL     1      -1.888   5.927  27.725  1.00  0.00     0.133 A 
HETATM   11  N5  UNL     1      -1.128   5.935  26.728  1.00  0.00    -0.370 N 
ATOM     12  H5  UNL     1      -0.751   5.023  26.467  1.00  0.00     0.161 HD
HETATM   13  C11 UNL     1      -2.128   4.684  28.355  1.00  0.00     0.076 A 
HETATM   14  C12 UNL     1      -1.536   3.537  27.873  1.00  0.00     0.076 A 
HETATM   15 CL1  UNL     1      -0.499   3.610  26.495  1.00  0.00    -0.081 Cl
HETATM   16  C13 UNL     1      -1.784   2.319  28.509  1.00  0.00     0.090 A 
HETATM   17 CL2  UNL     1      -1.063   0.843  27.940  1.00  0.00    -0.080 Cl
ENDROOT
BRANCH  11  18
HETATM   18  C6  UNL     1      -0.717   6.993  25.918  1.00  0.00     0.087 C 
HETATM   19  C7  UNL     1      -1.505   7.260  24.669  1.00  0.00     0.051 C 
HETATM   20  C8  UNL     1      -0.624   7.602  23.493  1.00  0.00     0.169 C 
HETATM   21  O1  UNL     1       0.362   8.513  23.753  1.00  0.00    -0.391 OA
HETATM   22  C9  UNL     1       0.957   8.450  24.983  1.00  0.00     0.169 C 
HETATM   23  C10 UNL     1       0.751   7.021  25.523  1.00  0.00     0.051 C 
ENDBRANCH  11  18
BRANCH   7  24
HETATM   24  N3  UNL     1      -3.885   7.958  29.822  1.00  0.00    -0.234 N 
ATOM     25  H32 UNL     1      -4.367   7.935  30.721  1.00  0.00     0.174 HD
ATOM     26  H31 UNL     1      -3.863   8.840  29.311  1.00  0.00     0.174 HD
ENDBRANCH   7  24
BRANCH   1  27
HETATM   27  S1  UNL     1      -2.969   0.744  30.461  1.00  0.00    -0.115 SA
HETATM   28  C1  UNL     1      -4.169   1.017  31.786  1.00  0.00     0.097 C 
ENDBRANCH   1  27
TORSDOF 3
ENDMDL
