MODEL 1
REMARK VINA RESULT: -7.624918278      0.000      0.000
REMARK  4 active torsions:
REMARK  status: ('A' for Active; 'I' for Inactive)
REMARK    1  A    between atoms: C2_2  and  O1_3 
REMARK    2  A    between atoms: O1_3  and  C3_4 
REMARK    3  A    between atoms: C3_4  and  C4_6 
REMARK    4  A    between atoms: C13_24  and  N5_25 
ROOT
HETATM    1  C4  UNL     1      -1.234   6.250  25.949  1.00  0.00     0.133 C 
HETATM    2  C5  UNL     1      -1.278   4.727  26.210  1.00  0.00     0.051 C 
HETATM    3  N1  UNL     1      -2.093   6.834  26.897  1.00  0.00    -0.399 N 
ATOM      4  H1  UNL     1      -2.579   6.265  27.590  1.00  0.00     0.154 HD
HETATM    5  C6  UNL     1      -2.264   8.276  26.855  1.00  0.00     0.157 C 
HETATM    6  C7  UNL     1      -0.996   8.894  26.512  1.00  0.00    -0.000 A 
HETATM    7  C8  UNL     1       0.167   8.151  26.264  1.00  0.00     0.040 A 
HETATM    8  N2  UNL     1       1.346   8.697  25.949  1.00  0.00    -0.359 N 
ATOM      9  H2  UNL     1       2.141   8.080  25.783  1.00  0.00     0.165 HD
HETATM   10  C9  UNL     1       1.526   9.999  25.843  1.00  0.00     0.033 A 
HETATM   11  C10 UNL     1       2.832  10.634  25.494  1.00  0.00     0.070 C 
HETATM   12  C11 UNL     1       0.431  10.802  26.073  1.00  0.00     0.071 A 
HETATM   13  N3  UNL     1       0.561  12.134  25.978  1.00  0.00    -0.330 N 
ATOM     14  H3  UNL     1       1.468  12.534  25.737  1.00  0.00     0.168 HD
HETATM   15  C12 UNL     1      -0.478  12.943  26.193  1.00  0.00     0.181 A 
HETATM   16 CL1  UNL     1      -0.341  14.697  26.077  1.00  0.00    -0.045 Cl
HETATM   17  N4  UNL     1      -1.687  12.455  26.513  1.00  0.00    -0.318 N 
ATOM     18  H4  UNL     1      -2.466  13.094  26.673  1.00  0.00     0.170 HD
HETATM   19  C13 UNL     1      -1.878  11.113  26.623  1.00  0.00     0.114 A 
HETATM   20  C14 UNL     1      -0.829  10.271  26.405  1.00  0.00     0.046 A 
HETATM   21  C15 UNL     1       0.178   6.651  26.329  1.00  0.00     0.170 C 
HETATM   22 CL2  UNL     1       1.388   5.989  25.244  1.00  0.00    -0.115 Cl
ENDROOT
BRANCH   1  23
HETATM   23  C3  UNL     1      -1.529   6.423  24.539  1.00  0.00     0.288 C 
HETATM   24  O2  UNL     1      -2.167   5.557  23.912  1.00  0.00    -0.262 OA
BRANCH  23  25
HETATM   25  O1  UNL     1      -1.119   7.542  23.836  1.00  0.00    -0.320 OA
BRANCH  25  26
HETATM   26  C2  UNL     1      -0.611   7.465  22.528  1.00  0.00     0.174 C 
HETATM   27  C1  UNL     1       0.877   7.717  22.457  1.00  0.00     0.034 C 
ENDBRANCH  25  26
ENDBRANCH  23  25
ENDBRANCH   1  23
BRANCH  19  28
HETATM   28  N5  UNL     1      -3.034  10.651  26.929  1.00  0.00    -0.385 N 
ATOM     29  H52 UNL     1      -3.341  10.622  27.902  1.00  0.00     0.157 HD
ATOM     30  H51 UNL     1      -3.658  10.309  26.198  1.00  0.00     0.157 HD
ENDBRANCH  19  28
TORSDOF 4
ENDMDL
MODEL 2
REMARK VINA RESULT: -7.134436927      2.223      4.111
REMARK  4 active torsions:
REMARK  status: ('A' for Active; 'I' for Inactive)
REMARK    1  A    between atoms: C2_2  and  O1_3 
REMARK    2  A    between atoms: O1_3  and  C3_4 
REMARK    3  A    between atoms: C3_4  and  C4_6 
REMARK    4  A    between atoms: C13_24  and  N5_25 
ROOT
HETATM    1  C4  UNL     1       0.876   7.677  22.764  1.00  0.00     0.133 C 
HETATM    2  C5  UNL     1       0.522   6.881  21.485  1.00  0.00     0.051 C 
HETATM    3  N1  UNL     1       1.855   8.611  22.384  1.00  0.00    -0.399 N 
ATOM      4  H1  UNL     1       2.176   8.677  21.418  1.00  0.00     0.154 HD
HETATM    5  C6  UNL     1       2.395   9.480  23.416  1.00  0.00     0.157 C 
HETATM    6  C7  UNL     1       1.331   9.841  24.335  1.00  0.00    -0.000 A 
HETATM    7  C8  UNL     1       0.015   9.377  24.192  1.00  0.00     0.040 A 
HETATM    8  N2  UNL     1      -0.981   9.698  25.025  1.00  0.00    -0.359 N 
ATOM      9  H2  UNL     1      -1.908   9.313  24.846  1.00  0.00     0.165 HD
HETATM   10  C9  UNL     1      -0.817  10.489  26.066  1.00  0.00     0.033 A 
HETATM   11  C10 UNL     1      -1.912  10.862  27.009  1.00  0.00     0.070 C 
HETATM   12  C11 UNL     1       0.449  10.989  26.278  1.00  0.00     0.071 A 
HETATM   13  N3  UNL     1       0.669  11.800  27.325  1.00  0.00    -0.330 N 
ATOM     14  H3  UNL     1      -0.103  12.034  27.949  1.00  0.00     0.168 HD
HETATM   15  C12 UNL     1       1.882  12.303  27.560  1.00  0.00     0.181 A 
HETATM   16 CL1  UNL     1       2.206  13.370  28.926  1.00  0.00    -0.045 Cl
HETATM   17  N4  UNL     1       2.923  12.018  26.762  1.00  0.00    -0.318 N 
ATOM     18  H4  UNL     1       3.841  12.416  26.963  1.00  0.00     0.170 HD
HETATM   19  C13 UNL     1       2.758  11.202  25.686  1.00  0.00     0.114 A 
HETATM   20  C14 UNL     1       1.527  10.678  25.429  1.00  0.00     0.046 A 
HETATM   21  C15 UNL     1      -0.384   8.461  23.073  1.00  0.00     0.170 C 
HETATM   22 CL2  UNL     1      -1.723   7.434  23.555  1.00  0.00    -0.115 Cl
ENDROOT
BRANCH   1  23
HETATM   23  C3  UNL     1       1.208   6.687  23.770  1.00  0.00     0.288 C 
HETATM   24  O2  UNL     1       2.270   6.041  23.702  1.00  0.00    -0.262 OA
BRANCH  23  25
HETATM   25  O1  UNL     1       0.369   6.418  24.838  1.00  0.00    -0.320 OA
BRANCH  25  26
HETATM   26  C2  UNL     1       0.813   6.448  26.170  1.00  0.00     0.174 C 
HETATM   27  C1  UNL     1      -0.320   6.489  27.170  1.00  0.00     0.034 C 
ENDBRANCH  25  26
ENDBRANCH  23  25
ENDBRANCH   1  23
BRANCH  19  28
HETATM   28  N5  UNL     1       3.755  10.934  24.924  1.00  0.00    -0.385 N 
ATOM     29  H52 UNL     1       4.541  10.384  25.271  1.00  0.00     0.157 HD
ATOM     30  H51 UNL     1       3.767  11.269  23.961  1.00  0.00     0.157 HD
ENDBRANCH  19  28
TORSDOF 4
ENDMDL
MODEL 3
REMARK VINA RESULT: -6.381980630      0.943      1.297
REMARK  4 active torsions:
REMARK  status: ('A' for Active; 'I' for Inactive)
REMARK    1  A    between atoms: C2_2  and  O1_3 
REMARK    2  A    between atoms: O1_3  and  C3_4 
REMARK    3  A    between atoms: C3_4  and  C4_6 
REMARK    4  A    between atoms: C13_24  and  N5_25 
ROOT
HETATM    1  C4  UNL     1      -1.234   6.621  25.404  1.00  0.00     0.133 C 
HETATM    2  C5  UNL     1      -1.343   5.080  25.493  1.00  0.00     0.051 C 
HETATM    3  N1  UNL     1      -2.115   7.131  26.374  1.00  0.00    -0.399 N 
ATOM      4  H1  UNL     1      -2.651   6.510  26.979  1.00  0.00     0.154 HD
HETATM    5  C6  UNL     1      -2.233   8.575  26.484  1.00  0.00     0.157 C 
HETATM    6  C7  UNL     1      -0.929   9.175  26.264  1.00  0.00    -0.000 A 
HETATM    7  C8  UNL     1       0.217   8.418  25.985  1.00  0.00     0.040 A 
HETATM    8  N2  UNL     1       1.428   8.949  25.782  1.00  0.00    -0.359 N 
ATOM      9  H2  UNL     1       2.207   8.322  25.583  1.00  0.00     0.165 HD
HETATM   10  C9  UNL     1       1.658  10.246  25.828  1.00  0.00     0.033 A 
HETATM   11  C10 UNL     1       2.999  10.862  25.606  1.00  0.00     0.070 C 
HETATM   12  C11 UNL     1       0.581  11.062  26.098  1.00  0.00     0.071 A 
HETATM   13  N3  UNL     1       0.763  12.390  26.156  1.00  0.00    -0.330 N 
ATOM     14  H3  UNL     1       1.693  12.778  25.999  1.00  0.00     0.168 HD
HETATM   15  C12 UNL     1      -0.257  13.211  26.416  1.00  0.00     0.181 A 
HETATM   16 CL1  UNL     1      -0.054  14.961  26.499  1.00  0.00    -0.045 Cl
HETATM   17  N4  UNL     1      -1.495  12.741  26.628  1.00  0.00    -0.318 N 
ATOM     18  H4  UNL     1      -2.258  13.389  26.825  1.00  0.00     0.170 HD
HETATM   19  C13 UNL     1      -1.738  11.403  26.582  1.00  0.00     0.114 A 
HETATM   20  C14 UNL     1      -0.710  10.548  26.317  1.00  0.00     0.046 A 
HETATM   21  C15 UNL     1       0.173   6.921  25.885  1.00  0.00     0.170 C 
HETATM   22 CL2  UNL     1       1.407   6.334  24.786  1.00  0.00    -0.115 Cl
ENDROOT
BRANCH   1  23
HETATM   23  C3  UNL     1      -1.457   6.956  24.011  1.00  0.00     0.288 C 
HETATM   24  O2  UNL     1      -1.260   8.113  23.596  1.00  0.00    -0.262 OA
BRANCH  23  25
HETATM   25  O1  UNL     1      -1.895   6.018  23.092  1.00  0.00    -0.320 OA
BRANCH  25  26
HETATM   26  C2  UNL     1      -1.833   6.237  21.706  1.00  0.00     0.174 C 
HETATM   27  C1  UNL     1      -2.730   5.308  20.921  1.00  0.00     0.034 C 
ENDBRANCH  25  26
ENDBRANCH  23  25
ENDBRANCH   1  23
BRANCH  19  28
HETATM   28  N5  UNL     1      -2.923  10.957  26.787  1.00  0.00    -0.385 N 
ATOM     29  H52 UNL     1      -3.070   9.993  27.089  1.00  0.00     0.157 HD
ATOM     30  H51 UNL     1      -3.729  11.566  26.649  1.00  0.00     0.157 HD
ENDBRANCH  19  28
TORSDOF 4
ENDMDL
MODEL 4
REMARK VINA RESULT: -5.845030146      5.237      7.258
REMARK  4 active torsions:
REMARK  status: ('A' for Active; 'I' for Inactive)
REMARK    1  A    between atoms: C2_2  and  O1_3 
REMARK    2  A    between atoms: O1_3  and  C3_4 
REMARK    3  A    between atoms: C3_4  and  C4_6 
REMARK    4  A    between atoms: C13_24  and  N5_25 
ROOT
HETATM    1  C4  UNL     1      -3.776   3.246  25.950  1.00  0.00     0.133 C 
HETATM    2  C5  UNL     1      -4.460   2.746  24.656  1.00  0.00     0.051 C 
HETATM    3  N1  UNL     1      -4.518   4.360  26.380  1.00  0.00    -0.399 N 
ATOM      4  H1  UNL     1      -5.345   4.672  25.870  1.00  0.00     0.154 HD
HETATM    5  C6  UNL     1      -4.067   5.051  27.575  1.00  0.00     0.157 C 
HETATM    6  C7  UNL     1      -3.562   4.075  28.524  1.00  0.00    -0.000 A 
HETATM    7  C8  UNL     1      -3.536   2.699  28.256  1.00  0.00     0.040 A 
HETATM    8  N2  UNL     1      -3.079   1.783  29.115  1.00  0.00    -0.359 N 
ATOM      9  H2  UNL     1      -3.096   0.802  28.836  1.00  0.00     0.165 HD
HETATM   10  C9  UNL     1      -2.606   2.091  30.307  1.00  0.00     0.033 A 
HETATM   11  C10 UNL     1      -2.091   1.087  31.284  1.00  0.00     0.070 C 
HETATM   12  C11 UNL     1      -2.598   3.425  30.649  1.00  0.00     0.071 A 
HETATM   13  N3  UNL     1      -2.127   3.791  31.852  1.00  0.00    -0.330 N 
ATOM     14  H3  UNL     1      -1.782   3.079  32.495  1.00  0.00     0.168 HD
HETATM   15  C12 UNL     1      -2.104   5.075  32.217  1.00  0.00     0.181 A 
HETATM   16 CL1  UNL     1      -1.493   5.591  33.788  1.00  0.00    -0.045 Cl
HETATM   17  N4  UNL     1      -2.549   6.042  31.400  1.00  0.00    -0.318 N 
ATOM     18  H4  UNL     1      -2.520   7.015  31.703  1.00  0.00     0.170 HD
HETATM   19  C13 UNL     1      -3.036   5.728  30.170  1.00  0.00     0.114 A 
HETATM   20  C14 UNL     1      -3.068   4.423  29.777  1.00  0.00     0.046 A 
HETATM   21  C15 UNL     1      -4.025   2.137  26.954  1.00  0.00     0.170 C 
HETATM   22 CL2  UNL     1      -3.174   0.655  26.556  1.00  0.00    -0.115 Cl
ENDROOT
BRANCH   1  23
HETATM   23  C3  UNL     1      -2.375   3.425  25.617  1.00  0.00     0.288 C 
HETATM   24  O2  UNL     1      -1.708   2.486  25.147  1.00  0.00    -0.262 OA
BRANCH  23  25
HETATM   25  O1  UNL     1      -1.726   4.633  25.807  1.00  0.00    -0.320 OA
BRANCH  25  26
HETATM   26  C2  UNL     1      -0.516   4.735  26.513  1.00  0.00     0.174 C 
HETATM   27  C1  UNL     1      -0.455   5.952  27.406  1.00  0.00     0.034 C 
ENDBRANCH  25  26
ENDBRANCH  23  25
ENDBRANCH   1  23
BRANCH  19  28
HETATM   28  N5  UNL     1      -3.462   6.655  29.391  1.00  0.00    -0.385 N 
ATOM     29  H52 UNL     1      -2.812   7.321  28.972  1.00  0.00     0.157 HD
ATOM     30  H51 UNL     1      -4.458   6.732  29.185  1.00  0.00     0.157 HD
ENDBRANCH  19  28
TORSDOF 4
ENDMDL
MODEL 5
REMARK VINA RESULT: -5.623528941      2.924      5.836
REMARK  4 active torsions:
REMARK  status: ('A' for Active; 'I' for Inactive)
REMARK    1  A    between atoms: C2_2  and  O1_3 
REMARK    2  A    between atoms: O1_3  and  C3_4 
REMARK    3  A    between atoms: C3_4  and  C4_6 
REMARK    4  A    between atoms: C13_24  and  N5_25 
ROOT
HETATM    1  C4  UNL     1      -0.184  12.303  26.330  1.00  0.00     0.133 C 
HETATM    2  C5  UNL     1       0.081  13.734  25.804  1.00  0.00     0.051 C 
HETATM    3  N1  UNL     1      -1.580  12.136  26.319  1.00  0.00    -0.399 N 
ATOM      4  H1  UNL     1      -2.198  12.875  25.985  1.00  0.00     0.154 HD
HETATM    5  C6  UNL     1      -2.112  10.873  26.802  1.00  0.00     0.157 C 
HETATM    6  C7  UNL     1      -1.225   9.799  26.392  1.00  0.00    -0.000 A 
HETATM    7  C8  UNL     1      -0.052  10.022  25.658  1.00  0.00     0.040 A 
HETATM    8  N2  UNL     1       0.778   9.049  25.268  1.00  0.00    -0.359 N 
ATOM      9  H2  UNL     1       1.612   9.302  24.737  1.00  0.00     0.165 HD
HETATM   10  C9  UNL     1       0.568   7.776  25.540  1.00  0.00     0.033 A 
HETATM   11  C10 UNL     1       1.479   6.672  25.116  1.00  0.00     0.070 C 
HETATM   12  C11 UNL     1      -0.566   7.471  26.260  1.00  0.00     0.071 A 
HETATM   13  N3  UNL     1      -0.827   6.190  26.562  1.00  0.00    -0.330 N 
ATOM     14  H3  UNL     1      -0.183   5.460  26.257  1.00  0.00     0.168 HD
HETATM   15  C12 UNL     1      -1.916   5.857  27.258  1.00  0.00     0.181 A 
HETATM   16 CL1  UNL     1      -2.288   4.184  27.673  1.00  0.00    -0.045 Cl
HETATM   17  N4  UNL     1      -2.788   6.787  27.678  1.00  0.00    -0.318 N 
ATOM     18  H4  UNL     1      -3.613   6.507  28.208  1.00  0.00     0.170 HD
HETATM   19  C13 UNL     1      -2.574   8.101  27.400  1.00  0.00     0.114 A 
HETATM   20  C14 UNL     1      -1.467   8.462  26.691  1.00  0.00     0.046 A 
HETATM   21  C15 UNL     1       0.375  11.401  25.247  1.00  0.00     0.170 C 
HETATM   22 CL2  UNL     1       2.122  11.499  25.115  1.00  0.00    -0.115 Cl
ENDROOT
BRANCH   1  23
HETATM   23  C3  UNL     1       0.522  12.205  27.592  1.00  0.00     0.288 C 
HETATM   24  O2  UNL     1      -0.058  12.447  28.667  1.00  0.00    -0.262 OA
BRANCH  23  25
HETATM   25  O1  UNL     1       1.857  11.843  27.659  1.00  0.00    -0.320 OA
BRANCH  25  26
HETATM   26  C2  UNL     1       2.785  12.535  28.455  1.00  0.00     0.174 C 
HETATM   27  C1  UNL     1       3.581  13.558  27.679  1.00  0.00     0.034 C 
ENDBRANCH  25  26
ENDBRANCH  23  25
ENDBRANCH   1  23
BRANCH  19  28
HETATM   28  N5  UNL     1      -3.410   8.988  27.801  1.00  0.00    -0.385 N 
ATOM     29  H52 UNL     1      -4.408   8.880  27.621  1.00  0.00     0.157 HD
ATOM     30  H51 UNL     1      -3.080   9.810  28.307  1.00  0.00     0.157 HD
ENDBRANCH  19  28
TORSDOF 4
ENDMDL
