MODEL 1
REMARK VINA RESULT: -7.574311614      0.000      0.000
REMARK  5 active torsions:
REMARK  status: ('A' for Active; 'I' for Inactive)
REMARK       I    between atoms: N1_5  and  C5_6 
REMARK    1  A    between atoms: C5_6  and  O2_8 
REMARK    2  A    between atoms: O2_8  and  C6_9 
REMARK    3  A    between atoms: C9_14  and  N2_15 
REMARK    4  A    between atoms: N2_15  and  C10_17 
REMARK    5  A    between atoms: C14_23  and  N4_24 
ROOT
HETATM    1  N2  UNL     1      -0.227   9.170  26.222  1.00  0.00    -0.391 N 
ATOM      2  H2  UNL     1      -0.271   9.108  27.239  1.00  0.00     0.159 HD
ENDROOT
BRANCH   1   3
HETATM    3  C9  UNL     1      -1.030   8.350  25.438  1.00  0.00    -0.006 C 
HETATM    4  C2  UNL     1      -0.566   7.184  24.689  1.00  0.00     0.007 C 
HETATM    5  C1  UNL     1      -1.551   7.043  23.485  1.00  0.00     0.023 C 
HETATM    6  C3  UNL     1       0.780   7.196  24.048  1.00  0.00     0.023 C 
HETATM    7  C4  UNL     1      -0.736   5.873  25.456  1.00  0.00     0.142 C 
HETATM    8  N1  UNL     1      -1.381   5.986  26.715  1.00  0.00    -0.327 N 
HETATM    9  C5  UNL     1      -1.354   4.826  27.577  1.00  0.00     0.367 C 
HETATM   10  C7  UNL     1      -2.050   7.134  27.248  1.00  0.00     0.134 C 
HETATM   11  O1  UNL     1      -1.933   4.909  28.680  1.00  0.00    -0.238 OA
HETATM   12  C8  UNL     1      -2.358   8.093  26.139  1.00  0.00     0.073 C 
BRANCH   9  13
HETATM   13  O2  UNL     1      -0.713   3.645  27.230  1.00  0.00    -0.240 OA
BRANCH  13  14
HETATM   14  C6  UNL     1      -1.553   2.582  26.774  1.00  0.00     0.508 C 
HETATM   15  F1  UNL     1      -2.744   3.042  26.277  1.00  0.00    -0.184 F 
HETATM   16  F2  UNL     1      -0.807   1.922  25.770  1.00  0.00    -0.184 F 
ENDBRANCH  13  14
ENDBRANCH   9  13
ENDBRANCH   1   3
BRANCH   1  17
HETATM   17  C10 UNL     1       0.664  10.105  25.594  1.00  0.00     0.086 C 
HETATM   18  C11 UNL     1       2.104   9.889  25.760  1.00  0.00     0.031 C 
HETATM   19  C12 UNL     1       2.849  11.234  25.585  1.00  0.00     0.060 C 
HETATM   20  C13 UNL     1       2.511  11.979  26.821  1.00  0.00     0.034 A 
HETATM   21  N3  UNL     1       3.380  12.518  27.648  1.00  0.00    -0.195 N 
HETATM   22  C16 UNL     1       1.133  12.034  27.082  1.00  0.00    -0.017 A 
HETATM   23  C14 UNL     1       2.995  13.149  28.799  1.00  0.00     0.675 A 
ATOM     24  H3  UNL     1       4.373  12.463  27.424  1.00  0.00     0.184 HD
HETATM   25  N5  UNL     1       1.683  13.207  29.063  1.00  0.00    -0.202 N 
HETATM   26  C15 UNL     1       0.746  12.662  28.228  1.00  0.00     0.115 A 
ATOM     27  H5  UNL     1       1.372  13.672  29.916  1.00  0.00     0.183 HD
HETATM   28  C17 UNL     1       0.190  11.461  26.116  1.00  0.00     0.067 C 
BRANCH  23  29
HETATM   29  N4  UNL     1       3.902  13.686  29.573  1.00  0.00    -0.234 N 
ATOM     30  H42 UNL     1       4.902  13.610  29.392  1.00  0.00     0.174 HD
ATOM     31  H41 UNL     1       3.612  14.189  30.412  1.00  0.00     0.174 HD
ENDBRANCH  23  29
ENDBRANCH   1  17
TORSDOF 5
ENDMDL
MODEL 2
REMARK VINA RESULT: -7.522874011      3.233      4.597
REMARK  5 active torsions:
REMARK  status: ('A' for Active; 'I' for Inactive)
REMARK       I    between atoms: N1_5  and  C5_6 
REMARK    1  A    between atoms: C5_6  and  O2_8 
REMARK    2  A    between atoms: O2_8  and  C6_9 
REMARK    3  A    between atoms: C9_14  and  N2_15 
REMARK    4  A    between atoms: N2_15  and  C10_17 
REMARK    5  A    between atoms: C14_23  and  N4_24 
ROOT
HETATM    1  N2  UNL     1      -1.579   6.811  27.561  1.00  0.00    -0.391 N 
ATOM      2  H2  UNL     1      -1.317   7.424  28.333  1.00  0.00     0.159 HD
ENDROOT
BRANCH   1   3
HETATM    3  C9  UNL     1      -2.629   5.912  27.709  1.00  0.00    -0.006 C 
HETATM    4  C2  UNL     1      -2.490   4.514  28.113  1.00  0.00     0.007 C 
HETATM    5  C1  UNL     1      -3.709   3.774  27.476  1.00  0.00     0.023 C 
HETATM    6  C3  UNL     1      -1.314   3.719  27.659  1.00  0.00     0.023 C 
HETATM    7  C4  UNL     1      -2.678   4.304  29.616  1.00  0.00     0.142 C 
HETATM    8  N1  UNL     1      -3.033   5.464  30.351  1.00  0.00    -0.327 N 
HETATM    9  C5  UNL     1      -2.991   5.371  31.792  1.00  0.00     0.367 C 
HETATM   10  C7  UNL     1      -3.416   6.740  29.828  1.00  0.00     0.134 C 
HETATM   11  O1  UNL     1      -3.317   6.381  32.449  1.00  0.00    -0.238 OA
HETATM   12  C8  UNL     1      -3.810   6.594  28.389  1.00  0.00     0.073 C 
BRANCH   9  13
HETATM   13  O2  UNL     1      -2.601   4.219  32.461  1.00  0.00    -0.240 OA
BRANCH  13  14
HETATM   14  C6  UNL     1      -1.253   4.191  32.937  1.00  0.00     0.508 C 
HETATM   15  F1  UNL     1      -0.400   4.879  32.113  1.00  0.00    -0.184 F 
HETATM   16  F2  UNL     1      -1.298   4.778  34.223  1.00  0.00    -0.184 F 
ENDBRANCH  13  14
ENDBRANCH   9  13
ENDBRANCH   1   3
BRANCH   1  17
HETATM   17  C10 UNL     1      -0.866   6.873  26.315  1.00  0.00     0.086 C 
HETATM   18  C11 UNL     1       0.570   6.581  26.338  1.00  0.00     0.031 C 
HETATM   19  C12 UNL     1       1.254   7.269  25.133  1.00  0.00     0.060 C 
HETATM   20  C13 UNL     1       1.234   8.705  25.500  1.00  0.00     0.034 A 
HETATM   21  N3  UNL     1       2.281   9.499  25.531  1.00  0.00    -0.195 N 
HETATM   22  C16 UNL     1      -0.038   9.170  25.871  1.00  0.00    -0.017 A 
HETATM   23  C14 UNL     1       2.194  10.806  25.928  1.00  0.00     0.675 A 
ATOM     24  H3  UNL     1       3.189   9.129  25.249  1.00  0.00     0.184 HD
HETATM   25  N5  UNL     1       0.987  11.262  26.289  1.00  0.00    -0.202 N 
HETATM   26  C15 UNL     1      -0.129  10.471  26.268  1.00  0.00     0.115 A 
ATOM     27  H5  UNL     1       0.898  12.232  26.589  1.00  0.00     0.183 HD
HETATM   28  C17 UNL     1      -1.192   8.269  25.784  1.00  0.00     0.067 C 
BRANCH  23  29
HETATM   29  N4  UNL     1       3.265  11.555  25.918  1.00  0.00    -0.234 N 
ATOM     30  H42 UNL     1       4.067  11.387  26.525  1.00  0.00     0.174 HD
ATOM     31  H41 UNL     1       3.309  12.360  25.293  1.00  0.00     0.174 HD
ENDBRANCH  23  29
ENDBRANCH   1  17
TORSDOF 5
ENDMDL
MODEL 3
REMARK VINA RESULT: -7.479428090      2.425      2.880
REMARK  5 active torsions:
REMARK  status: ('A' for Active; 'I' for Inactive)
REMARK       I    between atoms: N1_5  and  C5_6 
REMARK    1  A    between atoms: C5_6  and  O2_8 
REMARK    2  A    between atoms: O2_8  and  C6_9 
REMARK    3  A    between atoms: C9_14  and  N2_15 
REMARK    4  A    between atoms: N2_15  and  C10_17 
REMARK    5  A    between atoms: C14_23  and  N4_24 
ROOT
HETATM    1  N2  UNL     1      -0.823   8.182  26.608  1.00  0.00    -0.391 N 
ATOM      2  H2  UNL     1      -0.740   8.498  27.574  1.00  0.00     0.159 HD
ENDROOT
BRANCH   1   3
HETATM    3  C9  UNL     1      -1.587   7.061  26.302  1.00  0.00    -0.006 C 
HETATM    4  C2  UNL     1      -1.157   5.675  26.479  1.00  0.00     0.007 C 
HETATM    5  C1  UNL     1      -1.949   4.855  25.413  1.00  0.00     0.023 C 
HETATM    6  C3  UNL     1       0.264   5.298  26.235  1.00  0.00     0.023 C 
HETATM    7  C4  UNL     1      -1.605   5.075  27.811  1.00  0.00     0.142 C 
HETATM    8  N1  UNL     1      -2.422   5.915  28.611  1.00  0.00    -0.327 N 
HETATM    9  C5  UNL     1      -2.675   5.491  29.969  1.00  0.00     0.367 C 
HETATM   10  C7  UNL     1      -3.021   7.159  28.233  1.00  0.00     0.134 C 
HETATM   11  O1  UNL     1      -3.406   6.215  30.677  1.00  0.00    -0.238 OA
HETATM   12  C8  UNL     1      -3.030   7.276  26.739  1.00  0.00     0.073 C 
BRANCH   9  13
HETATM   13  O2  UNL     1      -2.137   4.331  30.508  1.00  0.00    -0.240 OA
BRANCH  13  14
HETATM   14  C6  UNL     1      -1.731   4.401  31.877  1.00  0.00     0.508 C 
HETATM   15  F1  UNL     1      -1.492   3.161  32.408  1.00  0.00    -0.184 F 
HETATM   16  F2  UNL     1      -0.555   5.187  31.878  1.00  0.00    -0.184 F 
ENDBRANCH  13  14
ENDBRANCH   9  13
ENDBRANCH   1   3
BRANCH   1  17
HETATM   17  C10 UNL     1      -0.153   8.894  25.555  1.00  0.00     0.086 C 
HETATM   18  C11 UNL     1       1.287   8.670  25.393  1.00  0.00     0.031 C 
HETATM   19  C12 UNL     1       1.922   9.898  24.698  1.00  0.00     0.060 C 
HETATM   20  C13 UNL     1       1.897  10.942  25.750  1.00  0.00     0.034 A 
HETATM   21  N3  UNL     1       2.935  11.636  26.161  1.00  0.00    -0.195 N 
HETATM   22  C16 UNL     1       0.632  11.115  26.335  1.00  0.00    -0.017 A 
HETATM   23  C14 UNL     1       2.845  12.550  27.175  1.00  0.00     0.675 A 
ATOM     24  H3  UNL     1       3.837  11.487  25.710  1.00  0.00     0.184 HD
HETATM   25  N5  UNL     1       1.645  12.724  27.746  1.00  0.00    -0.202 N 
HETATM   26  C15 UNL     1       0.539  12.025  27.346  1.00  0.00     0.115 A 
ATOM     27  H5  UNL     1       1.554  13.399  28.504  1.00  0.00     0.183 HD
HETATM   28  C17 UNL     1      -0.512  10.355  25.823  1.00  0.00     0.067 C 
BRANCH  23  29
HETATM   29  N4  UNL     1       3.906  13.227  27.528  1.00  0.00    -0.234 N 
ATOM     30  H42 UNL     1       4.853  12.856  27.452  1.00  0.00     0.174 HD
ATOM     31  H41 UNL     1       3.798  14.164  27.916  1.00  0.00     0.174 HD
ENDBRANCH  23  29
ENDBRANCH   1  17
TORSDOF 5
ENDMDL
MODEL 4
REMARK VINA RESULT: -7.398760971      1.749      1.983
REMARK  5 active torsions:
REMARK  status: ('A' for Active; 'I' for Inactive)
REMARK       I    between atoms: N1_5  and  C5_6 
REMARK    1  A    between atoms: C5_6  and  O2_8 
REMARK    2  A    between atoms: O2_8  and  C6_9 
REMARK    3  A    between atoms: C9_14  and  N2_15 
REMARK    4  A    between atoms: N2_15  and  C10_17 
REMARK    5  A    between atoms: C14_23  and  N4_24 
ROOT
HETATM    1  N2  UNL     1      -0.409   9.093  26.446  1.00  0.00    -0.391 N 
ATOM      2  H2  UNL     1      -0.552   9.232  27.446  1.00  0.00     0.159 HD
ENDROOT
BRANCH   1   3
HETATM    3  C9  UNL     1      -1.049   8.049  25.787  1.00  0.00    -0.006 C 
HETATM    4  C2  UNL     1      -0.566   6.671  25.724  1.00  0.00     0.007 C 
HETATM    5  C1  UNL     1      -1.141   6.090  24.393  1.00  0.00     0.023 C 
HETATM    6  C3  UNL     1       0.896   6.396  25.630  1.00  0.00     0.023 C 
HETATM    7  C4  UNL     1      -1.169   5.775  26.805  1.00  0.00     0.142 C 
HETATM    8  N1  UNL     1      -2.145   6.392  27.630  1.00  0.00    -0.327 N 
HETATM    9  C5  UNL     1      -2.569   5.668  28.806  1.00  0.00     0.367 C 
HETATM   10  C7  UNL     1      -2.756   7.673  27.442  1.00  0.00     0.134 C 
HETATM   11  O1  UNL     1      -3.440   6.194  29.529  1.00  0.00    -0.238 OA
HETATM   12  C8  UNL     1      -2.552   8.122  26.027  1.00  0.00     0.073 C 
BRANCH   9  13
HETATM   13  O2  UNL     1      -2.047   4.431  29.157  1.00  0.00    -0.240 OA
BRANCH  13  14
HETATM   14  C6  UNL     1      -2.140   4.076  30.539  1.00  0.00     0.508 C 
HETATM   15  F1  UNL     1      -1.874   2.749  30.750  1.00  0.00    -0.184 F 
HETATM   16  F2  UNL     1      -1.195   4.894  31.199  1.00  0.00    -0.184 F 
ENDBRANCH  13  14
ENDBRANCH   9  13
ENDBRANCH   1   3
BRANCH   1  17
HETATM   17  C10 UNL     1       0.454   9.975  25.710  1.00  0.00     0.086 C 
HETATM   18  C11 UNL     1       1.898   9.732  25.785  1.00  0.00     0.031 C 
HETATM   19  C12 UNL     1       2.656  11.049  25.492  1.00  0.00     0.060 C 
HETATM   20  C13 UNL     1       2.423  11.860  26.710  1.00  0.00     0.034 A 
HETATM   21  N3  UNL     1       3.360  12.416  27.446  1.00  0.00    -0.195 N 
HETATM   22  C16 UNL     1       1.069  11.961  27.064  1.00  0.00    -0.017 A 
HETATM   23  C14 UNL     1       3.072  13.112  28.589  1.00  0.00     0.675 A 
ATOM     24  H3  UNL     1       4.334  12.327  27.156  1.00  0.00     0.184 HD
HETATM   25  N5  UNL     1       1.784  13.214  28.942  1.00  0.00    -0.202 N 
HETATM   26  C15 UNL     1       0.778  12.653  28.202  1.00  0.00     0.115 A 
ATOM     27  H5  UNL     1       1.544  13.726  29.790  1.00  0.00     0.183 HD
HETATM   28  C17 UNL     1       0.047  11.365  26.197  1.00  0.00     0.067 C 
BRANCH  23  29
HETATM   29  N4  UNL     1       4.043  13.662  29.270  1.00  0.00    -0.234 N 
ATOM     30  H42 UNL     1       5.028  13.499  29.064  1.00  0.00     0.174 HD
ATOM     31  H41 UNL     1       3.821  14.270  30.059  1.00  0.00     0.174 HD
ENDBRANCH  23  29
ENDBRANCH   1  17
TORSDOF 5
ENDMDL
MODEL 5
REMARK VINA RESULT: -7.365892364      2.981      4.628
REMARK  5 active torsions:
REMARK  status: ('A' for Active; 'I' for Inactive)
REMARK       I    between atoms: N1_5  and  C5_6 
REMARK    1  A    between atoms: C5_6  and  O2_8 
REMARK    2  A    between atoms: O2_8  and  C6_9 
REMARK    3  A    between atoms: C9_14  and  N2_15 
REMARK    4  A    between atoms: N2_15  and  C10_17 
REMARK    5  A    between atoms: C14_23  and  N4_24 
ROOT
HETATM    1  N2  UNL     1      -2.119   6.633  26.303  1.00  0.00    -0.391 N 
ATOM      2  H2  UNL     1      -2.886   7.304  26.287  1.00  0.00     0.159 HD
ENDROOT
BRANCH   1   3
HETATM    3  C9  UNL     1      -2.117   5.596  27.230  1.00  0.00    -0.006 C 
HETATM    4  C2  UNL     1      -2.923   5.554  28.448  1.00  0.00     0.007 C 
HETATM    5  C1  UNL     1      -2.119   4.664  29.448  1.00  0.00     0.023 C 
HETATM    6  C3  UNL     1      -3.183   6.805  29.215  1.00  0.00     0.023 C 
HETATM    7  C4  UNL     1      -4.242   4.803  28.268  1.00  0.00     0.142 C 
HETATM    8  N1  UNL     1      -4.431   4.207  26.994  1.00  0.00    -0.327 N 
HETATM    9  C5  UNL     1      -5.748   3.693  26.695  1.00  0.00     0.367 C 
HETATM   10  C7  UNL     1      -3.464   4.067  25.948  1.00  0.00     0.134 C 
HETATM   11  O1  UNL     1      -5.922   3.151  25.584  1.00  0.00    -0.238 OA
HETATM   12  C8  UNL     1      -2.088   4.253  26.512  1.00  0.00     0.073 C 
BRANCH   9  13
HETATM   13  O2  UNL     1      -6.812   3.784  27.582  1.00  0.00    -0.240 OA
BRANCH  13  14
HETATM   14  C6  UNL     1      -7.112   2.604  28.331  1.00  0.00     0.508 C 
HETATM   15  F1  UNL     1      -5.989   2.042  28.881  1.00  0.00    -0.184 F 
HETATM   16  F2  UNL     1      -8.015   3.019  29.337  1.00  0.00    -0.184 F 
ENDBRANCH  13  14
ENDBRANCH   9  13
ENDBRANCH   1   3
BRANCH   1  17
HETATM   17  C10 UNL     1      -1.034   6.753  25.369  1.00  0.00     0.086 C 
HETATM   18  C11 UNL     1       0.319   6.475  25.858  1.00  0.00     0.031 C 
HETATM   19  C12 UNL     1       1.348   7.220  24.974  1.00  0.00     0.060 C 
HETATM   20  C13 UNL     1       1.173   8.639  25.362  1.00  0.00     0.034 A 
HETATM   21  N3  UNL     1       2.132   9.442  25.767  1.00  0.00    -0.195 N 
HETATM   22  C16 UNL     1      -0.160   9.074  25.305  1.00  0.00    -0.017 A 
HETATM   23  C14 UNL     1       1.886  10.731  26.158  1.00  0.00     0.675 A 
ATOM     24  H3  UNL     1       3.090   9.094  25.791  1.00  0.00     0.184 HD
HETATM   25  N5  UNL     1       0.618  11.159  26.113  1.00  0.00    -0.202 N 
HETATM   26  C15 UNL     1      -0.409  10.357  25.694  1.00  0.00     0.115 A 
ATOM     27  H5  UNL     1       0.411  12.115  26.400  1.00  0.00     0.183 HD
HETATM   28  C17 UNL     1      -1.198   8.166  24.808  1.00  0.00     0.067 C 
BRANCH  23  29
HETATM   29  N4  UNL     1       2.883  11.491  26.531  1.00  0.00    -0.234 N 
ATOM     30  H42 UNL     1       3.182  12.313  26.006  1.00  0.00     0.174 HD
ATOM     31  H41 UNL     1       3.408  11.254  27.373  1.00  0.00     0.174 HD
ENDBRANCH  23  29
ENDBRANCH   1  17
TORSDOF 5
ENDMDL
