MODEL 1
REMARK VINA RESULT: -5.296015324      0.000      0.000
REMARK  7 active torsions:
REMARK  status: ('A' for Active; 'I' for Inactive)
REMARK    1  A    between atoms: O1_2  and  C2_3 
REMARK    2  A    between atoms: C2_3  and  C3_5 
REMARK    3  A    between atoms: C3_5  and  C4_6 
REMARK    4  A    between atoms: C8_10  and  O3_11 
REMARK    5  A    between atoms: C11_15  and  C12_16 
REMARK    6  A    between atoms: C14_19  and  O4_20 
REMARK    7  A    between atoms: C15_22  and  O5_23 
ROOT
HETATM    1  C4  UNL     1      -1.890   5.097  27.208  1.00  0.00     0.006 C 
HETATM    2  C5  UNL     1      -2.610   5.956  26.227  1.00  0.00     0.019 C 
HETATM    3  C6  UNL     1      -2.341   5.642  28.583  1.00  0.00     0.016 C 
HETATM    4  C7  UNL     1      -3.797   5.400  28.779  1.00  0.00     0.033 C 
HETATM    5  C8  UNL     1      -4.414   4.190  28.240  1.00  0.00     0.130 C 
HETATM    6  C9  UNL     1      -3.671   3.285  27.313  1.00  0.00     0.032 C 
HETATM    7  C10 UNL     1      -3.673   1.878  27.874  1.00  0.00     0.022 C 
HETATM    8  C11 UNL     1      -4.283   3.200  25.945  1.00  0.00     0.069 C 
HETATM    9  C14 UNL     1      -3.372   2.629  24.889  1.00  0.00     0.182 C 
HETATM   10  C15 UNL     1      -2.015   2.312  25.319  1.00  0.00     0.077 C 
HETATM   11  C16 UNL     1      -1.421   2.755  26.412  1.00  0.00    -0.011 C 
HETATM   12  C17 UNL     1      -0.008   2.320  26.705  1.00  0.00     0.050 C 
HETATM   13  C18 UNL     1      -2.208   3.658  27.281  1.00  0.00     0.147 C 
HETATM   14  F2  UNL     1      -1.744   3.289  28.574  1.00  0.00    -0.236 F 
ENDROOT
BRANCH   1  15
HETATM   15  C3  UNL     1      -0.407   5.338  27.148  1.00  0.00     0.123 C 
BRANCH  15  16
HETATM   16  C2  UNL     1       0.016   6.388  26.186  1.00  0.00     0.259 C 
HETATM   17  O2  UNL     1       0.320   6.154  24.976  1.00  0.00    -0.265 OA
BRANCH  16  18
HETATM   18  O1  UNL     1       0.108   7.729  26.556  1.00  0.00    -0.326 OA
HETATM   19  C1  UNL     1       0.765   8.717  25.827  1.00  0.00     0.213 C 
ENDBRANCH  16  18
ENDBRANCH  15  16
ENDBRANCH   1  15
BRANCH   5  20
HETATM   20  O3  UNL     1      -5.680   4.588  27.752  1.00  0.00    -0.395 OA
ATOM     21  H3  UNL     1      -6.109   3.791  27.463  1.00  0.00     0.210 HD
ENDBRANCH   5  20
BRANCH   8  22
HETATM   22  C12 UNL     1      -5.564   2.453  25.818  1.00  0.00     0.173 C 
HETATM   23  C13 UNL     1      -6.449   3.083  24.711  1.00  0.00     0.045 C 
HETATM   24  F1  UNL     1      -5.400   1.147  25.304  1.00  0.00    -0.249 F 
ENDBRANCH   8  22
BRANCH  10  25
HETATM   25  O5  UNL     1      -1.240   1.451  24.508  1.00  0.00    -0.362 OA
ATOM     26  H5  UNL     1      -0.790   0.725  24.925  1.00  0.00     0.217 HD
ENDBRANCH  10  25
BRANCH   9  27
HETATM   27  O4  UNL     1      -3.300   3.411  23.743  1.00  0.00    -0.388 OA
ATOM     28  H4  UNL     1      -2.673   4.121  23.811  1.00  0.00     0.210 HD
ENDBRANCH   9  27
TORSDOF 7
ENDMDL
MODEL 2
REMARK VINA RESULT: -5.272051717      2.486      4.680
REMARK  7 active torsions:
REMARK  status: ('A' for Active; 'I' for Inactive)
REMARK    1  A    between atoms: O1_2  and  C2_3 
REMARK    2  A    between atoms: C2_3  and  C3_5 
REMARK    3  A    between atoms: C3_5  and  C4_6 
REMARK    4  A    between atoms: C8_10  and  O3_11 
REMARK    5  A    between atoms: C11_15  and  C12_16 
REMARK    6  A    between atoms: C14_19  and  O4_20 
REMARK    7  A    between atoms: C15_22  and  O5_23 
ROOT
HETATM    1  C4  UNL     1      -1.730   6.064  27.229  1.00  0.00     0.006 C 
HETATM    2  C5  UNL     1      -0.397   5.516  27.604  1.00  0.00     0.019 C 
HETATM    3  C6  UNL     1      -1.999   5.465  25.829  1.00  0.00     0.016 C 
HETATM    4  C7  UNL     1      -2.146   3.987  25.923  1.00  0.00     0.033 C 
HETATM    5  C8  UNL     1      -2.773   3.389  27.101  1.00  0.00     0.130 C 
HETATM    6  C9  UNL     1      -3.082   4.204  28.314  1.00  0.00     0.032 C 
HETATM    7  C10 UNL     1      -4.553   4.065  28.652  1.00  0.00     0.022 C 
HETATM    8  C11 UNL     1      -2.321   3.770  29.532  1.00  0.00     0.069 C 
HETATM    9  C14 UNL     1      -2.302   4.782  30.649  1.00  0.00     0.182 C 
HETATM   10  C15 UNL     1      -2.953   6.057  30.366  1.00  0.00     0.077 C 
HETATM   11  C16 UNL     1      -3.264   6.524  29.172  1.00  0.00    -0.011 C 
HETATM   12  C17 UNL     1      -3.942   7.866  29.064  1.00  0.00     0.050 C 
HETATM   13  C18 UNL     1      -2.919   5.674  28.011  1.00  0.00     0.147 C 
HETATM   14  F2  UNL     1      -3.996   5.950  27.122  1.00  0.00    -0.236 F 
ENDROOT
BRANCH   1  15
HETATM   15  C3  UNL     1      -1.662   7.552  27.023  1.00  0.00     0.123 C 
BRANCH  15  16
HETATM   16  C2  UNL     1      -0.756   7.989  25.930  1.00  0.00     0.259 C 
HETATM   17  O2  UNL     1      -1.139   8.195  24.738  1.00  0.00    -0.265 OA
BRANCH  16  18
HETATM   18  O1  UNL     1       0.604   8.206  26.145  1.00  0.00    -0.326 OA
HETATM   19  C1  UNL     1       1.331   9.285  25.648  1.00  0.00     0.213 C 
ENDBRANCH  16  18
ENDBRANCH  15  16
ENDBRANCH   1  15
BRANCH   5  20
HETATM   20  O3  UNL     1      -2.033   2.216  27.377  1.00  0.00    -0.395 OA
ATOM     21  H3  UNL     1      -1.654   2.346  28.239  1.00  0.00     0.210 HD
ENDBRANCH   5  20
BRANCH   8  22
HETATM   22  C12 UNL     1      -2.723   2.483  30.164  1.00  0.00     0.173 C 
HETATM   23  C13 UNL     1      -1.472   1.702  30.642  1.00  0.00     0.045 C 
HETATM   24  F1  UNL     1      -3.405   2.652  31.389  1.00  0.00    -0.249 F 
ENDBRANCH   8  22
BRANCH  10  25
HETATM   25  O5  UNL     1      -3.295   6.889  31.457  1.00  0.00    -0.362 OA
ATOM     26  H5  UNL     1      -3.852   6.532  32.139  1.00  0.00     0.217 HD
ENDBRANCH  10  25
BRANCH   9  27
HETATM   27  O4  UNL     1      -1.029   5.037  31.139  1.00  0.00    -0.388 OA
ATOM     28  H4  UNL     1      -0.717   5.912  30.940  1.00  0.00     0.210 HD
ENDBRANCH   9  27
TORSDOF 7
ENDMDL
MODEL 3
REMARK VINA RESULT: -4.995078412      2.346      4.269
REMARK  7 active torsions:
REMARK  status: ('A' for Active; 'I' for Inactive)
REMARK    1  A    between atoms: O1_2  and  C2_3 
REMARK    2  A    between atoms: C2_3  and  C3_5 
REMARK    3  A    between atoms: C3_5  and  C4_6 
REMARK    4  A    between atoms: C8_10  and  O3_11 
REMARK    5  A    between atoms: C11_15  and  C12_16 
REMARK    6  A    between atoms: C14_19  and  O4_20 
REMARK    7  A    between atoms: C15_22  and  O5_23 
ROOT
HETATM    1  C4  UNL     1      -2.132   4.249  26.584  1.00  0.00     0.006 C 
HETATM    2  C5  UNL     1      -1.030   3.304  26.914  1.00  0.00     0.019 C 
HETATM    3  C6  UNL     1      -2.771   3.648  25.311  1.00  0.00     0.016 C 
HETATM    4  C7  UNL     1      -3.401   2.336  25.622  1.00  0.00     0.033 C 
HETATM    5  C8  UNL     1      -4.034   2.121  26.923  1.00  0.00     0.130 C 
HETATM    6  C9  UNL     1      -3.883   3.109  28.032  1.00  0.00     0.032 C 
HETATM    7  C10 UNL     1      -5.255   3.536  28.514  1.00  0.00     0.022 C 
HETATM    8  C11 UNL     1      -3.164   2.557  29.228  1.00  0.00     0.069 C 
HETATM    9  C14 UNL     1      -2.654   3.603  30.186  1.00  0.00     0.182 C 
HETATM   10  C15 UNL     1      -2.861   4.991  29.787  1.00  0.00     0.077 C 
HETATM   11  C16 UNL     1      -3.147   5.416  28.571  1.00  0.00    -0.011 C 
HETATM   12  C17 UNL     1      -3.334   6.894  28.337  1.00  0.00     0.050 C 
HETATM   13  C18 UNL     1      -3.269   4.388  27.514  1.00  0.00     0.147 C 
HETATM   14  F2  UNL     1      -4.293   4.938  26.693  1.00  0.00    -0.236 F 
ENDROOT
BRANCH   1  15
HETATM   15  C3  UNL     1      -1.588   5.588  26.167  1.00  0.00     0.123 C 
BRANCH  15  16
HETATM   16  C2  UNL     1      -0.179   5.840  26.567  1.00  0.00     0.259 C 
HETATM   17  O2  UNL     1       0.177   6.115  27.753  1.00  0.00    -0.265 OA
BRANCH  16  18
HETATM   18  O1  UNL     1       0.866   5.791  25.646  1.00  0.00    -0.326 OA
HETATM   19  C1  UNL     1       1.311   6.866  24.881  1.00  0.00     0.213 C 
ENDBRANCH  16  18
ENDBRANCH  15  16
ENDBRANCH   1  15
BRANCH   5  20
HETATM   20  O3  UNL     1      -3.710   0.796  27.294  1.00  0.00    -0.395 OA
ATOM     21  H3  UNL     1      -4.061   0.241  26.607  1.00  0.00     0.210 HD
ENDBRANCH   5  20
BRANCH   8  22
HETATM   22  C12 UNL     1      -3.895   1.567  30.066  1.00  0.00     0.173 C 
HETATM   23  C13 UNL     1      -2.929   0.460  30.561  1.00  0.00     0.045 C 
HETATM   24  F1  UNL     1      -4.334   2.097  31.300  1.00  0.00    -0.249 F 
ENDBRANCH   8  22
BRANCH  10  25
HETATM   25  O5  UNL     1      -2.751   5.995  30.776  1.00  0.00    -0.362 OA
ATOM     26  H5  UNL     1      -2.723   6.902  30.495  1.00  0.00     0.217 HD
ENDBRANCH  10  25
BRANCH   9  27
HETATM   27  O4  UNL     1      -1.317   3.436  30.522  1.00  0.00    -0.388 OA
ATOM     28  H4  UNL     1      -0.990   4.108  31.109  1.00  0.00     0.210 HD
ENDBRANCH   9  27
TORSDOF 7
ENDMDL
MODEL 4
REMARK VINA RESULT: -4.993340410      2.336      4.287
REMARK  7 active torsions:
REMARK  status: ('A' for Active; 'I' for Inactive)
REMARK    1  A    between atoms: O1_2  and  C2_3 
REMARK    2  A    between atoms: C2_3  and  C3_5 
REMARK    3  A    between atoms: C3_5  and  C4_6 
REMARK    4  A    between atoms: C8_10  and  O3_11 
REMARK    5  A    between atoms: C11_15  and  C12_16 
REMARK    6  A    between atoms: C14_19  and  O4_20 
REMARK    7  A    between atoms: C15_22  and  O5_23 
ROOT
HETATM    1  C4  UNL     1      -1.898   4.974  26.833  1.00  0.00     0.006 C 
HETATM    2  C5  UNL     1      -0.743   4.076  27.113  1.00  0.00     0.019 C 
HETATM    3  C6  UNL     1      -2.396   4.519  25.442  1.00  0.00     0.016 C 
HETATM    4  C7  UNL     1      -2.932   3.132  25.516  1.00  0.00     0.033 C 
HETATM    5  C8  UNL     1      -3.629   2.683  26.720  1.00  0.00     0.130 C 
HETATM    6  C9  UNL     1      -3.639   3.507  27.965  1.00  0.00     0.032 C 
HETATM    7  C10 UNL     1      -5.071   3.754  28.393  1.00  0.00     0.022 C 
HETATM    8  C11 UNL     1      -2.956   2.841  29.124  1.00  0.00     0.069 C 
HETATM    9  C14 UNL     1      -2.603   3.771  30.257  1.00  0.00     0.182 C 
HETATM   10  C15 UNL     1      -2.901   5.183  30.041  1.00  0.00     0.077 C 
HETATM   11  C16 UNL     1      -3.141   5.759  28.878  1.00  0.00    -0.011 C 
HETATM   12  C17 UNL     1      -3.437   7.236  28.839  1.00  0.00     0.050 C 
HETATM   13  C18 UNL     1      -3.103   4.889  27.681  1.00  0.00     0.147 C 
HETATM   14  F2  UNL     1      -4.113   5.475  26.868  1.00  0.00    -0.236 F 
ENDROOT
BRANCH   1  15
HETATM   15  C3  UNL     1      -1.444   6.396  26.652  1.00  0.00     0.123 C 
BRANCH  15  16
HETATM   16  C2  UNL     1      -1.098   6.766  25.255  1.00  0.00     0.259 C 
HETATM   17  O2  UNL     1      -1.873   7.411  24.485  1.00  0.00    -0.265 OA
BRANCH  16  18
HETATM   18  O1  UNL     1       0.127   6.422  24.686  1.00  0.00    -0.326 OA
HETATM   19  C1  UNL     1       1.369   6.600  25.291  1.00  0.00     0.213 C 
ENDBRANCH  16  18
ENDBRANCH  15  16
ENDBRANCH   1  15
BRANCH   5  20
HETATM   20  O3  UNL     1      -3.219   1.345  26.926  1.00  0.00    -0.395 OA
ATOM     21  H3  UNL     1      -3.263   0.926  26.074  1.00  0.00     0.210 HD
ENDBRANCH   5  20
BRANCH   8  22
HETATM   22  C12 UNL     1      -3.654   1.687  29.755  1.00  0.00     0.173 C 
HETATM   23  C13 UNL     1      -2.637   0.578  30.127  1.00  0.00     0.045 C 
HETATM   24  F1  UNL     1      -4.187   1.986  31.029  1.00  0.00    -0.249 F 
ENDBRANCH   8  22
BRANCH  10  25
HETATM   25  O5  UNL     1      -2.944   6.037  31.167  1.00  0.00    -0.362 OA
ATOM     26  H5  UNL     1      -2.842   5.651  32.028  1.00  0.00     0.217 HD
ENDBRANCH  10  25
BRANCH   9  27
HETATM   27  O4  UNL     1      -1.283   3.658  30.670  1.00  0.00    -0.388 OA
ATOM     28  H4  UNL     1      -1.093   4.147  31.463  1.00  0.00     0.210 HD
ENDBRANCH   9  27
TORSDOF 7
ENDMDL
MODEL 5
REMARK VINA RESULT: -4.505928566      2.223      3.394
REMARK  7 active torsions:
REMARK  status: ('A' for Active; 'I' for Inactive)
REMARK    1  A    between atoms: O1_2  and  C2_3 
REMARK    2  A    between atoms: C2_3  and  C3_5 
REMARK    3  A    between atoms: C3_5  and  C4_6 
REMARK    4  A    between atoms: C8_10  and  O3_11 
REMARK    5  A    between atoms: C11_15  and  C12_16 
REMARK    6  A    between atoms: C14_19  and  O4_20 
REMARK    7  A    between atoms: C15_22  and  O5_23 
ROOT
HETATM    1  C4  UNL     1      -2.934   3.836  27.875  1.00  0.00     0.006 C 
HETATM    2  C5  UNL     1      -3.646   4.686  28.869  1.00  0.00     0.019 C 
HETATM    3  C6  UNL     1      -1.816   3.155  28.700  1.00  0.00     0.016 C 
HETATM    4  C7  UNL     1      -2.411   2.237  29.711  1.00  0.00     0.033 C 
HETATM    5  C8  UNL     1      -3.634   1.501  29.397  1.00  0.00     0.130 C 
HETATM    6  C9  UNL     1      -4.427   1.799  28.168  1.00  0.00     0.032 C 
HETATM    7  C10 UNL     1      -4.601   0.528  27.361  1.00  0.00     0.022 C 
HETATM    8  C11 UNL     1      -5.807   2.312  28.459  1.00  0.00     0.069 C 
HETATM    9  C14 UNL     1      -6.482   2.983  27.290  1.00  0.00     0.182 C 
HETATM   10  C15 UNL     1      -5.684   3.105  26.075  1.00  0.00     0.077 C 
HETATM   11  C16 UNL     1      -4.372   2.988  25.991  1.00  0.00    -0.011 C 
HETATM   12  C17 UNL     1      -3.707   3.140  24.646  1.00  0.00     0.050 C 
HETATM   13  C18 UNL     1      -3.644   2.705  27.247  1.00  0.00     0.147 C 
HETATM   14  F2  UNL     1      -2.585   1.873  26.786  1.00  0.00    -0.236 F 
ENDROOT
BRANCH   1  15
HETATM   15  C3  UNL     1      -2.221   4.681  26.856  1.00  0.00     0.123 C 
BRANCH  15  16
HETATM   16  C2  UNL     1      -1.579   5.905  27.400  1.00  0.00     0.259 C 
HETATM   17  O2  UNL     1      -0.397   5.934  27.861  1.00  0.00    -0.265 OA
BRANCH  16  18
HETATM   18  O1  UNL     1      -2.246   7.128  27.440  1.00  0.00    -0.326 OA
HETATM   19  C1  UNL     1      -1.911   8.248  26.684  1.00  0.00     0.213 C 
ENDBRANCH  16  18
ENDBRANCH  15  16
ENDBRANCH   1  15
BRANCH   5  20
HETATM   20  O3  UNL     1      -4.402   1.507  30.584  1.00  0.00    -0.395 OA
ATOM     21  H3  UNL     1      -5.306   1.604  30.308  1.00  0.00     0.210 HD
ENDBRANCH   5  20
BRANCH   8  22
HETATM   22  C12 UNL     1      -6.798   1.337  28.991  1.00  0.00     0.173 C 
HETATM   23  C13 UNL     1      -7.892   2.071  29.809  1.00  0.00     0.045 C 
HETATM   24  F1  UNL     1      -7.587   0.738  27.983  1.00  0.00    -0.249 F 
ENDBRANCH   8  22
BRANCH  10  25
HETATM   25  O5  UNL     1      -6.353   3.374  24.859  1.00  0.00    -0.362 OA
ATOM     26  H5  UNL     1      -7.284   3.558  24.889  1.00  0.00     0.217 HD
ENDBRANCH  10  25
BRANCH   9  27
HETATM   27  O4  UNL     1      -7.008   4.230  27.599  1.00  0.00    -0.388 OA
ATOM     28  H4  UNL     1      -6.790   4.899  26.960  1.00  0.00     0.210 HD
ENDBRANCH   9  27
TORSDOF 7
ENDMDL
