MODEL 1
REMARK VINA RESULT: -7.898750626      0.000      0.000
REMARK  5 active torsions:
REMARK  status: ('A' for Active; 'I' for Inactive)
REMARK    1  A    between atoms: C2_2  and  O2_4 
REMARK    2  A    between atoms: O2_4  and  N1_5 
REMARK    3  A    between atoms: C10_18  and  N3_19 
REMARK    4  A    between atoms: C11_24  and  N5_25 
REMARK    5  A    between atoms: N5_25  and  C12_27 
ROOT
HETATM    1  N1  UNL     1      -0.802   7.313  22.248  1.00  0.00    -0.260 N 
ATOM      2  H1  UNL     1      -0.318   7.797  21.491  1.00  0.00     0.194 HD
HETATM    3  C3  UNL     1      -0.586   7.620  23.477  1.00  0.00     0.064 C 
HETATM    4  C4  UNL     1      -1.261   6.947  24.611  1.00  0.00     0.106 C 
HETATM    5  C5  UNL     1      -1.198   7.777  25.872  1.00  0.00     0.126 C 
HETATM    6  C6  UNL     1      -0.029   7.346  26.697  1.00  0.00     0.054 C 
HETATM    7  F1  UNL     1      -2.348   7.610  26.616  1.00  0.00    -0.241 F 
HETATM    8  C7  UNL     1      -1.139   9.269  25.502  1.00  0.00     0.161 C 
HETATM    9 CL1  UNL     1      -1.682  10.326  26.737  1.00  0.00    -0.116 Cl
HETATM   10  C8  UNL     1       0.117   9.532  24.820  1.00  0.00     0.037 A 
HETATM   11  C9  UNL     1       0.383   8.680  23.741  1.00  0.00     0.085 A 
HETATM   12  N2  UNL     1       1.492   8.824  22.994  1.00  0.00    -0.189 N 
ATOM     13  H2  UNL     1       1.679   8.199  22.209  1.00  0.00     0.184 HD
HETATM   14  C10 UNL     1       2.341   9.805  23.305  1.00  0.00     0.677 A 
HETATM   15  N4  UNL     1       2.095  10.630  24.343  1.00  0.00    -0.177 N 
ATOM     16  H4  UNL     1       2.779  11.361  24.536  1.00  0.00     0.186 HD
HETATM   17  C11 UNL     1       1.017  10.561  25.144  1.00  0.00     0.127 A 
ENDROOT
BRANCH  17  18
HETATM   18  N5  UNL     1       0.733  11.272  26.119  1.00  0.00    -0.371 N 
ATOM     19  H5  UNL     1      -0.195  11.673  25.983  1.00  0.00     0.161 HD
BRANCH  18  20
HETATM   20  C12 UNL     1       1.241  11.706  27.323  1.00  0.00     0.083 C 
HETATM   21  C13 UNL     1       0.543  12.819  28.070  1.00  0.00     0.025 C 
HETATM   22  C14 UNL     1       1.597  13.243  29.109  1.00  0.00     0.002 C 
HETATM   23  C15 UNL     1       2.911  12.751  28.595  1.00  0.00     0.002 C 
HETATM   24  C16 UNL     1       2.594  12.441  27.128  1.00  0.00     0.025 C 
ENDBRANCH  18  20
ENDBRANCH  17  18
BRANCH  14  25
HETATM   25  N3  UNL     1       3.417   9.957  22.591  1.00  0.00    -0.234 N 
ATOM     26  H32 UNL     1       4.111   9.211  22.544  1.00  0.00     0.174 HD
ATOM     27  H31 UNL     1       3.553  10.831  22.082  1.00  0.00     0.174 HD
ENDBRANCH  14  25
BRANCH   1  28
HETATM   28  O2  UNL     1      -1.707   6.307  21.985  1.00  0.00    -0.200 OA
BRANCH  28  29
HETATM   29  C2  UNL     1      -1.998   5.893  20.694  1.00  0.00     0.277 C 
HETATM   30  C1  UNL     1      -0.933   5.724  19.671  1.00  0.00     0.128 C 
HETATM   31  O1  UNL     1      -3.185   5.655  20.376  1.00  0.00    -0.264 OA
ENDBRANCH  28  29
ENDBRANCH   1  28
TORSDOF 5
ENDMDL
MODEL 2
REMARK VINA RESULT: -7.813675686      1.170      1.256
REMARK  5 active torsions:
REMARK  status: ('A' for Active; 'I' for Inactive)
REMARK    1  A    between atoms: C2_2  and  O2_4 
REMARK    2  A    between atoms: O2_4  and  N1_5 
REMARK    3  A    between atoms: C10_18  and  N3_19 
REMARK    4  A    between atoms: C11_24  and  N5_25 
REMARK    5  A    between atoms: N5_25  and  C12_27 
ROOT
HETATM    1  N1  UNL     1       0.530   7.470  21.600  1.00  0.00    -0.260 N 
ATOM      2  H1  UNL     1       1.117   8.010  20.965  1.00  0.00     0.194 HD
HETATM    3  C3  UNL     1       0.513   7.719  22.860  1.00  0.00     0.064 C 
HETATM    4  C4  UNL     1      -0.321   6.963  23.825  1.00  0.00     0.106 C 
HETATM    5  C5  UNL     1      -0.517   7.728  25.114  1.00  0.00     0.126 C 
HETATM    6  C6  UNL     1       0.506   7.296  26.113  1.00  0.00     0.054 C 
HETATM    7  F1  UNL     1      -1.772   7.481  25.633  1.00  0.00    -0.241 F 
HETATM    8  C7  UNL     1      -0.461   9.238  24.828  1.00  0.00     0.161 C 
HETATM    9 CL1  UNL     1      -1.258  10.209  25.994  1.00  0.00    -0.116 Cl
HETATM   10  C8  UNL     1       0.884   9.581  24.393  1.00  0.00     0.037 A 
HETATM   11  C9  UNL     1       1.372   8.797  23.341  1.00  0.00     0.085 A 
HETATM   12  N2  UNL     1       2.587   9.020  22.810  1.00  0.00    -0.189 N 
ATOM     13  H2  UNL     1       2.937   8.445  22.043  1.00  0.00     0.184 HD
HETATM   14  C10 UNL     1       3.325  10.012  23.311  1.00  0.00     0.677 A 
HETATM   15  N4  UNL     1       2.864  10.772  24.326  1.00  0.00    -0.177 N 
ATOM     16  H4  UNL     1       3.470  11.516  24.670  1.00  0.00     0.186 HD
HETATM   17  C11 UNL     1       1.666  10.623  24.919  1.00  0.00     0.127 A 
ENDROOT
BRANCH  17  18
HETATM   18  N5  UNL     1       1.183  11.271  25.859  1.00  0.00    -0.371 N 
ATOM     19  H5  UNL     1       0.265  11.622  25.588  1.00  0.00     0.161 HD
BRANCH  18  20
HETATM   20  C12 UNL     1       1.463  11.679  27.144  1.00  0.00     0.083 C 
HETATM   21  C13 UNL     1       0.555  12.678  27.824  1.00  0.00     0.025 C 
HETATM   22  C14 UNL     1       1.397  13.136  29.029  1.00  0.00     0.002 C 
HETATM   23  C15 UNL     1       2.815  12.799  28.700  1.00  0.00     0.002 C 
HETATM   24  C16 UNL     1       2.749  12.547  27.189  1.00  0.00     0.025 C 
ENDBRANCH  18  20
ENDBRANCH  17  18
BRANCH  14  25
HETATM   25  N3  UNL     1       4.501  10.241  22.808  1.00  0.00    -0.234 N 
ATOM     26  H32 UNL     1       4.752  11.180  22.497  1.00  0.00     0.174 HD
ATOM     27  H31 UNL     1       5.164   9.469  22.729  1.00  0.00     0.174 HD
ENDBRANCH  14  25
BRANCH   1  28
HETATM   28  O2  UNL     1      -0.270   6.448  21.135  1.00  0.00    -0.200 OA
BRANCH  28  29
HETATM   29  C2  UNL     1       0.091   5.661  20.052  1.00  0.00     0.277 C 
HETATM   30  C1  UNL     1       0.716   6.246  18.837  1.00  0.00     0.128 C 
HETATM   31  O1  UNL     1      -0.115   4.427  20.092  1.00  0.00    -0.264 OA
ENDBRANCH  28  29
ENDBRANCH   1  28
TORSDOF 5
ENDMDL
MODEL 3
REMARK VINA RESULT: -7.025376663      3.702      7.173
REMARK  5 active torsions:
REMARK  status: ('A' for Active; 'I' for Inactive)
REMARK    1  A    between atoms: C2_2  and  O2_4 
REMARK    2  A    between atoms: O2_4  and  N1_5 
REMARK    3  A    between atoms: C10_18  and  N3_19 
REMARK    4  A    between atoms: C11_24  and  N5_25 
REMARK    5  A    between atoms: N5_25  and  C12_27 
ROOT
HETATM    1  N1  UNL     1       3.201  11.818  27.622  1.00  0.00    -0.260 N 
ATOM      2  H1  UNL     1       4.093  11.412  27.342  1.00  0.00     0.194 HD
HETATM    3  C3  UNL     1       2.148  11.664  26.902  1.00  0.00     0.064 C 
HETATM    4  C4  UNL     1       0.828  12.234  27.264  1.00  0.00     0.106 C 
HETATM    5  C5  UNL     1      -0.300  11.539  26.536  1.00  0.00     0.126 C 
HETATM    6  C6  UNL     1      -0.641  12.303  25.297  1.00  0.00     0.054 C 
HETATM    7  F1  UNL     1      -1.422  11.475  27.337  1.00  0.00    -0.241 F 
HETATM    8  C7  UNL     1       0.100  10.084  26.240  1.00  0.00     0.161 C 
HETATM    9 CL1  UNL     1      -1.224   9.021  26.006  1.00  0.00    -0.116 Cl
HETATM   10  C8  UNL     1       1.207  10.086  25.296  1.00  0.00     0.037 A 
HETATM   11  C9  UNL     1       2.287  10.895  25.668  1.00  0.00     0.085 A 
HETATM   12  N2  UNL     1       3.396  10.971  24.912  1.00  0.00    -0.189 N 
ATOM     13  H2  UNL     1       4.180  11.563  25.190  1.00  0.00     0.184 HD
HETATM   14  C10 UNL     1       3.446  10.254  23.788  1.00  0.00     0.677 A 
HETATM   15  N4  UNL     1       2.410   9.473  23.420  1.00  0.00    -0.177 N 
ATOM     16  H4  UNL     1       2.502   8.947  22.551  1.00  0.00     0.186 HD
HETATM   17  C11 UNL     1       1.264   9.335  24.111  1.00  0.00     0.127 A 
ENDROOT
BRANCH  17  18
HETATM   18  N5  UNL     1       0.270   8.650  23.829  1.00  0.00    -0.371 N 
ATOM     19  H5  UNL     1      -0.200   8.370  24.690  1.00  0.00     0.161 HD
BRANCH  18  20
HETATM   20  C12 UNL     1      -0.417   8.138  22.751  1.00  0.00     0.083 C 
HETATM   21  C13 UNL     1      -1.474   7.080  22.974  1.00  0.00     0.025 C 
HETATM   22  C14 UNL     1      -1.706   6.528  21.555  1.00  0.00     0.002 C 
HETATM   23  C15 UNL     1      -0.497   6.900  20.760  1.00  0.00     0.002 C 
HETATM   24  C16 UNL     1       0.510   7.277  21.852  1.00  0.00     0.025 C 
ENDBRANCH  18  20
ENDBRANCH  17  18
BRANCH  14  25
HETATM   25  N3  UNL     1       4.512  10.316  23.047  1.00  0.00    -0.234 N 
ATOM     26  H32 UNL     1       4.648  11.101  22.410  1.00  0.00     0.174 HD
ATOM     27  H31 UNL     1       5.204   9.570  23.113  1.00  0.00     0.174 HD
ENDBRANCH  14  25
BRANCH   1  28
HETATM   28  O2  UNL     1       3.085  12.549  28.785  1.00  0.00    -0.200 OA
BRANCH  28  29
HETATM   29  C2  UNL     1       3.683  13.790  28.941  1.00  0.00     0.277 C 
HETATM   30  C1  UNL     1       4.527  14.388  27.872  1.00  0.00     0.128 C 
HETATM   31  O1  UNL     1       3.514  14.426  30.005  1.00  0.00    -0.264 OA
ENDBRANCH  28  29
ENDBRANCH   1  28
TORSDOF 5
ENDMDL
MODEL 4
REMARK VINA RESULT: -6.871400069      1.364      1.651
REMARK  5 active torsions:
REMARK  status: ('A' for Active; 'I' for Inactive)
REMARK    1  A    between atoms: C2_2  and  O2_4 
REMARK    2  A    between atoms: O2_4  and  N1_5 
REMARK    3  A    between atoms: C10_18  and  N3_19 
REMARK    4  A    between atoms: C11_24  and  N5_25 
REMARK    5  A    between atoms: N5_25  and  C12_27 
ROOT
HETATM    1  N1  UNL     1       0.194   7.583  21.190  1.00  0.00    -0.260 N 
ATOM      2  H1  UNL     1       0.717   8.272  20.650  1.00  0.00     0.194 HD
HETATM    3  C3  UNL     1       0.242   7.569  22.474  1.00  0.00     0.064 C 
HETATM    4  C4  UNL     1      -0.498   6.589  23.303  1.00  0.00     0.106 C 
HETATM    5  C5  UNL     1      -0.647   7.063  24.730  1.00  0.00     0.126 C 
HETATM    6  C6  UNL     1       0.453   6.492  25.565  1.00  0.00     0.054 C 
HETATM    7  F1  UNL     1      -1.856   6.648  25.251  1.00  0.00    -0.241 F 
HETATM    8  C7  UNL     1      -0.673   8.600  24.760  1.00  0.00     0.161 C 
HETATM    9 CL1  UNL     1      -1.438   9.269  26.140  1.00  0.00    -0.116 Cl
HETATM   10  C8  UNL     1       0.627   9.097  24.337  1.00  0.00     0.037 A 
HETATM   11  C9  UNL     1       1.083   8.572  23.122  1.00  0.00     0.085 A 
HETATM   12  N2  UNL     1       2.253   8.963  22.587  1.00  0.00    -0.189 N 
ATOM     13  H2  UNL     1       2.579   8.576  21.701  1.00  0.00     0.184 HD
HETATM   14  C10 UNL     1       2.977   9.871  23.244  1.00  0.00     0.677 A 
HETATM   15  N4  UNL     1       2.547  10.382  24.416  1.00  0.00    -0.177 N 
ATOM     16  H4  UNL     1       3.141  11.073  24.875  1.00  0.00     0.186 HD
HETATM   17  C11 UNL     1       1.394  10.051  25.025  1.00  0.00     0.127 A 
ENDROOT
BRANCH  17  18
HETATM   18  N5  UNL     1       0.943  10.467  26.102  1.00  0.00    -0.371 N 
ATOM     19  H5  UNL     1       1.028   9.735  26.807  1.00  0.00     0.161 HD
BRANCH  18  20
HETATM   20  C12 UNL     1       0.366  11.580  26.673  1.00  0.00     0.083 C 
HETATM   21  C13 UNL     1      -0.124  12.703  25.789  1.00  0.00     0.025 C 
HETATM   22  C14 UNL     1      -0.326  13.858  26.788  1.00  0.00     0.002 C 
HETATM   23  C15 UNL     1       0.492  13.516  27.991  1.00  0.00     0.002 C 
HETATM   24  C16 UNL     1       1.414  12.413  27.458  1.00  0.00     0.025 C 
ENDBRANCH  18  20
ENDBRANCH  17  18
BRANCH  14  25
HETATM   25  N3  UNL     1       4.109  10.261  22.739  1.00  0.00    -0.234 N 
ATOM     26  H32 UNL     1       4.262  10.219  21.731  1.00  0.00     0.174 HD
ATOM     27  H31 UNL     1       4.837  10.607  23.364  1.00  0.00     0.174 HD
ENDBRANCH  14  25
BRANCH   1  28
HETATM   28  O2  UNL     1      -0.589   6.635  20.565  1.00  0.00    -0.200 OA
BRANCH  28  29
HETATM   29  C2  UNL     1      -0.047   5.625  19.785  1.00  0.00     0.277 C 
HETATM   30  C1  UNL     1       0.775   5.925  18.584  1.00  0.00     0.128 C 
HETATM   31  O1  UNL     1      -0.253   4.430  20.095  1.00  0.00    -0.264 OA
ENDBRANCH  28  29
ENDBRANCH   1  28
TORSDOF 5
ENDMDL
MODEL 5
REMARK VINA RESULT: -6.745462130      4.278      7.729
REMARK  5 active torsions:
REMARK  status: ('A' for Active; 'I' for Inactive)
REMARK    1  A    between atoms: C2_2  and  O2_4 
REMARK    2  A    between atoms: O2_4  and  N1_5 
REMARK    3  A    between atoms: C10_18  and  N3_19 
REMARK    4  A    between atoms: C11_24  and  N5_25 
REMARK    5  A    between atoms: N5_25  and  C12_27 
ROOT
HETATM    1  N1  UNL     1      -1.727  10.409  26.320  1.00  0.00    -0.260 N 
ATOM      2  H1  UNL     1      -2.521  10.459  26.958  1.00  0.00     0.194 HD
HETATM    3  C3  UNL     1      -1.258   9.278  25.932  1.00  0.00     0.064 C 
HETATM    4  C4  UNL     1      -0.106   9.152  25.008  1.00  0.00     0.106 C 
HETATM    5  C5  UNL     1      -0.056   7.787  24.359  1.00  0.00     0.126 C 
HETATM    6  C6  UNL     1       0.854   6.896  25.141  1.00  0.00     0.054 C 
HETATM    7  F1  UNL     1       0.424   7.885  23.069  1.00  0.00    -0.241 F 
HETATM    8  C7  UNL     1      -1.481   7.221  24.245  1.00  0.00     0.161 C 
HETATM    9 CL1  UNL     1      -1.674   6.033  23.024  1.00  0.00    -0.116 Cl
HETATM   10  C8  UNL     1      -1.996   6.978  25.583  1.00  0.00     0.037 A 
HETATM   11  C9  UNL     1      -1.900   8.073  26.450  1.00  0.00     0.085 A 
HETATM   12  N2  UNL     1      -2.366   8.009  27.710  1.00  0.00    -0.189 N 
ATOM     13  H2  UNL     1      -2.293   8.812  28.337  1.00  0.00     0.184 HD
HETATM   14  C10 UNL     1      -2.926   6.870  28.121  1.00  0.00     0.677 A 
HETATM   15  N4  UNL     1      -3.022   5.809  27.293  1.00  0.00    -0.177 N 
ATOM     16  H4  UNL     1      -3.459   4.964  27.661  1.00  0.00     0.186 HD
HETATM   17  C11 UNL     1      -2.584   5.781  26.022  1.00  0.00     0.127 A 
ENDROOT
BRANCH  17  18
HETATM   18  N5  UNL     1      -2.626   4.843  25.212  1.00  0.00    -0.371 N 
ATOM     19  H5  UNL     1      -2.508   5.210  24.268  1.00  0.00     0.161 HD
BRANCH  18  20
HETATM   20  C12 UNL     1      -2.777   3.476  25.151  1.00  0.00     0.083 C 
HETATM   21  C13 UNL     1      -3.966   2.826  25.819  1.00  0.00     0.025 C 
HETATM   22  C14 UNL     1      -3.567   1.339  25.850  1.00  0.00     0.002 C 
HETATM   23  C15 UNL     1      -2.082   1.302  25.692  1.00  0.00     0.002 C 
HETATM   24  C16 UNL     1      -1.685   2.754  25.984  1.00  0.00     0.025 C 
ENDBRANCH  18  20
ENDBRANCH  17  18
BRANCH  14  25
HETATM   25  N3  UNL     1      -3.383   6.794  29.335  1.00  0.00    -0.234 N 
ATOM     26  H32 UNL     1      -4.378   6.642  29.500  1.00  0.00     0.174 HD
ATOM     27  H31 UNL     1      -2.732   6.887  30.115  1.00  0.00     0.174 HD
ENDBRANCH  14  25
BRANCH   1  28
HETATM   28  O2  UNL     1      -1.123  11.554  25.845  1.00  0.00    -0.200 OA
BRANCH  28  29
HETATM   29  C2  UNL     1      -0.639  12.540  26.691  1.00  0.00     0.277 C 
HETATM   30  C1  UNL     1      -0.422  13.933  26.220  1.00  0.00     0.128 C 
HETATM   31  O1  UNL     1      -0.375  12.256  27.881  1.00  0.00    -0.264 OA
ENDBRANCH  28  29
ENDBRANCH   1  28
TORSDOF 5
ENDMDL
