MODEL 1
REMARK VINA RESULT: -7.119497135      0.000      0.000
REMARK  2 active torsions:
REMARK  status: ('A' for Active; 'I' for Inactive)
REMARK    1  A    between atoms: C2_2  and  C3_3 
REMARK    2  A    between atoms: C6_6  and  C7_7 
ROOT
HETATM    1  C7  UNL     1     -38.724   9.791  24.267  1.00  0.00     0.258 C 
HETATM    2  O1  UNL     1     -37.816  10.268  23.293  1.00  0.00    -0.220 OA
HETATM    3  O2  UNL     1     -37.156   9.267  22.785  1.00  0.00    -0.168 OA
HETATM    4  C8  UNL     1     -37.840   8.635  21.744  1.00  0.00     0.335 C 
HETATM    5  C9  UNL     1     -37.071   8.586  20.469  1.00  0.00     0.120 C 
HETATM    6  O3  UNL     1     -39.021   9.338  21.552  1.00  0.00    -0.168 OA
HETATM    7  O4  UNL     1     -39.945   9.010  22.394  1.00  0.00    -0.218 OA
HETATM    8  C10 UNL     1     -39.455   8.650  23.653  1.00  0.00     0.160 C 
HETATM    9  C11 UNL     1     -40.587   8.111  24.452  1.00  0.00     0.025 C 
HETATM   10  C12 UNL     1     -41.648   7.481  23.564  1.00  0.00     0.013 C 
HETATM   11  C13 UNL     1     -39.969   6.974  25.250  1.00  0.00     0.010 C 
HETATM   12  C14 UNL     1     -39.099   6.316  24.187  1.00  0.00     0.036 C 
HETATM   13  C15 UNL     1     -38.457   7.493  23.539  1.00  0.00     0.169 C 
HETATM   14  O5  UNL     1     -38.198   7.342  22.197  1.00  0.00    -0.321 OA
ENDROOT
BRANCH   1  15
HETATM   15  C6  UNL     1     -39.562  10.856  24.803  1.00  0.00     0.088 A 
HETATM   16  C5  UNL     1     -40.831  10.697  25.312  1.00  0.00     0.038 A 
HETATM   17  C4  UNL     1     -41.248  11.951  25.703  1.00  0.00     0.035 A 
HETATM   18  C3  UNL     1     -40.223  12.811  25.419  1.00  0.00     0.053 A 
HETATM   19  O6  UNL     1     -39.246  12.123  24.888  1.00  0.00    -0.317 OA
BRANCH  18  20
HETATM   20  C2  UNL     1     -40.262  14.291  25.689  1.00  0.00     0.060 C 
HETATM   21  C1  UNL     1     -40.291  14.568  27.175  1.00  0.00     0.012 C 
ENDBRANCH  18  20
ENDBRANCH   1  15
TORSDOF 2
ENDMDL
MODEL 2
REMARK VINA RESULT: -6.896062333      1.697      3.127
REMARK  2 active torsions:
REMARK  status: ('A' for Active; 'I' for Inactive)
REMARK    1  A    between atoms: C2_2  and  C3_3 
REMARK    2  A    between atoms: C6_6  and  C7_7 
ROOT
HETATM    1  C7  UNL     1     -40.689   9.641  24.056  1.00  0.00     0.258 C 
HETATM    2  O1  UNL     1     -41.075   8.294  24.252  1.00  0.00    -0.220 OA
HETATM    3  O2  UNL     1     -40.886   7.621  23.154  1.00  0.00    -0.168 OA
HETATM    4  C8  UNL     1     -39.576   7.158  23.016  1.00  0.00     0.335 C 
HETATM    5  C9  UNL     1     -39.481   5.682  22.839  1.00  0.00     0.120 C 
HETATM    6  O3  UNL     1     -38.891   7.538  24.160  1.00  0.00    -0.168 OA
HETATM    7  O4  UNL     1     -38.489   8.766  24.123  1.00  0.00    -0.218 OA
HETATM    8  C10 UNL     1     -39.346   9.615  23.417  1.00  0.00     0.160 C 
HETATM    9  C11 UNL     1     -38.676  10.936  23.280  1.00  0.00     0.025 C 
HETATM   10  C12 UNL     1     -37.162  10.799  23.277  1.00  0.00     0.013 C 
HETATM   11  C13 UNL     1     -39.066  11.407  21.888  1.00  0.00     0.010 C 
HETATM   12  C14 UNL     1     -38.897  10.120  21.092  1.00  0.00     0.036 C 
HETATM   13  C15 UNL     1     -39.545   9.117  21.981  1.00  0.00     0.169 C 
HETATM   14  O5  UNL     1     -38.992   7.859  21.933  1.00  0.00    -0.321 OA
ENDROOT
BRANCH   1  15
HETATM   15  C6  UNL     1     -40.785  10.424  25.281  1.00  0.00     0.088 A 
HETATM   16  C5  UNL     1     -40.548   9.952  26.552  1.00  0.00     0.038 A 
HETATM   17  C4  UNL     1     -40.752  11.019  27.401  1.00  0.00     0.035 A 
HETATM   18  C3  UNL     1     -41.100  12.084  26.616  1.00  0.00     0.053 A 
HETATM   19  O6  UNL     1     -41.108  11.689  25.369  1.00  0.00    -0.317 OA
BRANCH  18  20
HETATM   20  C2  UNL     1     -41.412  13.457  27.145  1.00  0.00     0.060 C 
HETATM   21  C1  UNL     1     -40.325  14.439  26.773  1.00  0.00     0.012 C 
ENDBRANCH  18  20
ENDBRANCH   1  15
TORSDOF 2
ENDMDL
MODEL 3
REMARK VINA RESULT: -6.555136304      3.400      7.610
REMARK  2 active torsions:
REMARK  status: ('A' for Active; 'I' for Inactive)
REMARK    1  A    between atoms: C2_2  and  C3_3 
REMARK    2  A    between atoms: C6_6  and  C7_7 
ROOT
HETATM    1  C7  UNL     1     -36.488   7.229  20.946  1.00  0.00     0.258 C 
HETATM    2  O1  UNL     1     -37.824   7.516  21.314  1.00  0.00    -0.220 OA
HETATM    3  O2  UNL     1     -37.831   8.332  22.328  1.00  0.00    -0.168 OA
HETATM    4  C8  UNL     1     -37.716   9.672  21.950  1.00  0.00     0.335 C 
HETATM    5  C9  UNL     1     -38.832  10.528  22.441  1.00  0.00     0.120 C 
HETATM    6  O3  UNL     1     -37.680   9.699  20.564  1.00  0.00    -0.168 OA
HETATM    7  O4  UNL     1     -36.508   9.435  20.085  1.00  0.00    -0.218 OA
HETATM    8  C10 UNL     1     -35.776   8.532  20.860  1.00  0.00     0.160 C 
HETATM    9  C11 UNL     1     -34.393   8.472  20.315  1.00  0.00     0.025 C 
HETATM   10  C12 UNL     1     -33.999   9.777  19.643  1.00  0.00     0.013 C 
HETATM   11  C13 UNL     1     -33.514   8.343  21.549  1.00  0.00     0.010 C 
HETATM   12  C14 UNL     1     -34.173   9.354  22.478  1.00  0.00     0.036 C 
HETATM   13  C15 UNL     1     -35.619   9.048  22.295  1.00  0.00     0.169 C 
HETATM   14  O5  UNL     1     -36.457  10.133  22.405  1.00  0.00    -0.321 OA
ENDROOT
BRANCH   1  15
HETATM   15  C6  UNL     1     -36.415   6.395  19.753  1.00  0.00     0.088 A 
HETATM   16  C5  UNL     1     -35.960   5.097  19.710  1.00  0.00     0.038 A 
HETATM   17  C4  UNL     1     -36.064   4.697  18.396  1.00  0.00     0.035 A 
HETATM   18  C3  UNL     1     -36.574   5.759  17.702  1.00  0.00     0.053 A 
HETATM   19  O6  UNL     1     -36.767   6.743  18.542  1.00  0.00    -0.317 OA
BRANCH  18  20
HETATM   20  C2  UNL     1     -36.850   5.748  16.222  1.00  0.00     0.060 C 
HETATM   21  C1  UNL     1     -35.641   6.218  15.445  1.00  0.00     0.012 C 
ENDBRANCH  18  20
ENDBRANCH   1  15
TORSDOF 2
ENDMDL
MODEL 4
REMARK VINA RESULT: -6.509705622      2.086      5.424
REMARK  2 active torsions:
REMARK  status: ('A' for Active; 'I' for Inactive)
REMARK    1  A    between atoms: C2_2  and  C3_3 
REMARK    2  A    between atoms: C6_6  and  C7_7 
ROOT
HETATM    1  C7  UNL     1     -39.875   9.463  24.996  1.00  0.00     0.258 C 
HETATM    2  O1  UNL     1     -40.565  10.173  26.007  1.00  0.00    -0.220 OA
HETATM    3  O2  UNL     1     -39.926  11.274  26.280  1.00  0.00    -0.168 OA
HETATM    4  C8  UNL     1     -40.249  12.321  25.414  1.00  0.00     0.335 C 
HETATM    5  C9  UNL     1     -40.756  13.537  26.111  1.00  0.00     0.120 C 
HETATM    6  O3  UNL     1     -41.218  11.842  24.545  1.00  0.00    -0.168 OA
HETATM    7  O4  UNL     1     -40.724  11.152  23.569  1.00  0.00    -0.218 OA
HETATM    8  C10 UNL     1     -39.573  10.438  23.914  1.00  0.00     0.160 C 
HETATM    9  C11 UNL     1     -39.000   9.858  22.671  1.00  0.00     0.025 C 
HETATM   10  C12 UNL     1     -39.338  10.702  21.452  1.00  0.00     0.013 C 
HETATM   11  C13 UNL     1     -37.496   9.972  22.867  1.00  0.00     0.010 C 
HETATM   12  C14 UNL     1     -37.389  11.374  23.451  1.00  0.00     0.036 C 
HETATM   13  C15 UNL     1     -38.490  11.379  24.454  1.00  0.00     0.169 C 
HETATM   14  O5  UNL     1     -39.098  12.598  24.637  1.00  0.00    -0.321 OA
ENDROOT
BRANCH   1  15
HETATM   15  C6  UNL     1     -40.595   8.267  24.578  1.00  0.00     0.088 A 
HETATM   16  C5  UNL     1     -40.027   7.040  24.317  1.00  0.00     0.038 A 
HETATM   17  C4  UNL     1     -41.063   6.206  23.957  1.00  0.00     0.035 A 
HETATM   18  C3  UNL     1     -42.207   6.954  24.015  1.00  0.00     0.053 A 
HETATM   19  O6  UNL     1     -41.886   8.166  24.386  1.00  0.00    -0.317 OA
BRANCH  18  20
HETATM   20  C2  UNL     1     -43.579   6.425  23.696  1.00  0.00     0.060 C 
HETATM   21  C1  UNL     1     -43.579   4.914  23.652  1.00  0.00     0.012 C 
ENDBRANCH  18  20
ENDBRANCH   1  15
TORSDOF 2
ENDMDL
MODEL 5
REMARK VINA RESULT: -6.329371063      1.985      5.522
REMARK  2 active torsions:
REMARK  status: ('A' for Active; 'I' for Inactive)
REMARK    1  A    between atoms: C2_2  and  C3_3 
REMARK    2  A    between atoms: C6_6  and  C7_7 
ROOT
HETATM    1  C7  UNL     1     -39.855   9.371  24.961  1.00  0.00     0.258 C 
HETATM    2  O1  UNL     1     -40.577  10.052  25.970  1.00  0.00    -0.220 OA
HETATM    3  O2  UNL     1     -39.969  11.166  26.265  1.00  0.00    -0.168 OA
HETATM    4  C8  UNL     1     -40.306  12.215  25.406  1.00  0.00     0.335 C 
HETATM    5  C9  UNL     1     -40.852  13.409  26.109  1.00  0.00     0.120 C 
HETATM    6  O3  UNL     1     -41.250  11.721  24.517  1.00  0.00    -0.168 OA
HETATM    7  O4  UNL     1     -40.725  11.055  23.542  1.00  0.00    -0.218 OA
HETATM    8  C10 UNL     1     -39.562  10.366  23.895  1.00  0.00     0.160 C 
HETATM    9  C11 UNL     1     -38.957   9.815  22.654  1.00  0.00     0.025 C 
HETATM   10  C12 UNL     1     -39.298  10.665  21.440  1.00  0.00     0.013 C 
HETATM   11  C13 UNL     1     -37.459   9.964  22.873  1.00  0.00     0.010 C 
HETATM   12  C14 UNL     1     -37.395  11.361  23.475  1.00  0.00     0.036 C 
HETATM   13  C15 UNL     1     -38.510  11.327  24.461  1.00  0.00     0.169 C 
HETATM   14  O5  UNL     1     -39.151  12.529  24.649  1.00  0.00    -0.321 OA
ENDROOT
BRANCH   1  15
HETATM   15  C6  UNL     1     -40.539   8.163  24.519  1.00  0.00     0.088 A 
HETATM   16  C5  UNL     1     -41.901   8.020  24.377  1.00  0.00     0.038 A 
HETATM   17  C4  UNL     1     -42.107   6.729  23.941  1.00  0.00     0.035 A 
HETATM   18  C3  UNL     1     -40.874   6.148  23.837  1.00  0.00     0.053 A 
HETATM   19  O6  UNL     1     -39.974   7.030  24.188  1.00  0.00    -0.317 OA
BRANCH  18  20
HETATM   20  C2  UNL     1     -40.643   4.730  23.389  1.00  0.00     0.060 C 
HETATM   21  C1  UNL     1     -39.553   4.664  22.344  1.00  0.00     0.012 C 
ENDBRANCH  18  20
ENDBRANCH   1  15
TORSDOF 2
ENDMDL
