MODEL 1
REMARK VINA RESULT: -6.200738736      0.000      0.000
REMARK  4 active torsions:
REMARK  status: ('A' for Active; 'I' for Inactive)
REMARK    1  A    between atoms: C6_9  and  C7_10 
REMARK       I    between atoms: C7_10  and  N2_12 
REMARK    2  A    between atoms: N2_12  and  N3_14 
REMARK    3  A    between atoms: N3_14  and  C8_16 
REMARK    4  A    between atoms: C8_16  and  S2_18 
ROOT
HETATM    1  C7  UNL     1      -1.898  10.002  25.583  1.00  0.00     0.272 C 
HETATM    2  O1  UNL     1      -2.456  10.427  26.665  1.00  0.00    -0.266 OA
HETATM    3  N2  UNL     1      -1.206   8.799  25.693  1.00  0.00    -0.264 N 
ATOM      4  H2  UNL     1      -0.747   8.390  24.879  1.00  0.00     0.190 HD
ENDROOT
BRANCH   1   5
HETATM    5  C6  UNL     1      -2.055  10.811  24.391  1.00  0.00     0.056 A 
HETATM    6  C2  UNL     1      -1.056  11.447  23.715  1.00  0.00    -0.022 A 
HETATM    7  C1  UNL     1       0.357  11.474  24.205  1.00  0.00     0.051 C 
HETATM    8  C3  UNL     1      -1.360  12.154  22.537  1.00  0.00     0.056 A 
HETATM    9 CL1  UNL     1      -0.056  12.951  21.709  1.00  0.00    -0.082 Cl
HETATM   10  C4  UNL     1      -2.638  12.215  22.059  1.00  0.00     0.112 A 
HETATM   11  N1  UNL     1      -3.600  11.591  22.729  1.00  0.00    -0.373 N 
HETATM   12  C5  UNL     1      -3.350  10.913  23.846  1.00  0.00     0.105 A 
ATOM     13  H1  UNL     1      -4.558  11.632  22.379  1.00  0.00     0.164 HD
ENDBRANCH   1   5
BRANCH   3  14
HETATM   14  N3  UNL     1      -1.149   8.152  26.953  1.00  0.00    -0.281 N 
ATOM     15  H3  UNL     1      -1.988   8.114  27.532  1.00  0.00     0.188 HD
BRANCH  14  16
HETATM   16  C8  UNL     1       0.042   7.560  27.427  1.00  0.00     0.164 C 
HETATM   17  S1  UNL     1       1.283   7.328  26.389  1.00  0.00    -0.050 SA
BRANCH  16  18
HETATM   18  S2  UNL     1       0.147   7.090  29.140  1.00  0.00    -0.014 SA
HETATM   19  S3  UNL     1       1.988   6.049  29.420  1.00  0.00    -0.005 SA
ENDBRANCH  16  18
ENDBRANCH  14  16
ENDBRANCH   3  14
TORSDOF 4
ENDMDL
MODEL 2
REMARK VINA RESULT: -6.131592718      2.590      2.917
REMARK  4 active torsions:
REMARK  status: ('A' for Active; 'I' for Inactive)
REMARK    1  A    between atoms: C6_9  and  C7_10 
REMARK       I    between atoms: C7_10  and  N2_12 
REMARK    2  A    between atoms: N2_12  and  N3_14 
REMARK    3  A    between atoms: N3_14  and  C8_16 
REMARK    4  A    between atoms: C8_16  and  S2_18 
ROOT
HETATM    1  C7  UNL     1      -1.209   8.531  24.552  1.00  0.00     0.272 C 
HETATM    2  O1  UNL     1      -1.035   8.296  25.808  1.00  0.00    -0.266 OA
HETATM    3  N2  UNL     1      -1.011   7.447  23.701  1.00  0.00    -0.264 N 
ATOM      4  H2  UNL     1      -1.141   7.549  22.694  1.00  0.00     0.190 HD
ENDROOT
BRANCH   1   5
HETATM    5  C6  UNL     1      -1.592   9.878  24.174  1.00  0.00     0.056 A 
HETATM    6  C2  UNL     1      -0.741  10.913  23.923  1.00  0.00    -0.022 A 
HETATM    7  C1  UNL     1       0.738  10.805  24.120  1.00  0.00     0.051 C 
HETATM    8  C3  UNL     1      -1.263  12.152  23.511  1.00  0.00     0.056 A 
HETATM    9 CL1  UNL     1      -0.142  13.444  23.204  1.00  0.00    -0.082 Cl
HETATM   10  C4  UNL     1      -2.608  12.338  23.360  1.00  0.00     0.112 A 
HETATM   11  N1  UNL     1      -3.424  11.319  23.609  1.00  0.00    -0.373 N 
HETATM   12  C5  UNL     1      -2.966  10.134  24.000  1.00  0.00     0.105 A 
ATOM     13  H1  UNL     1      -4.430  11.450  23.499  1.00  0.00     0.164 HD
ENDBRANCH   1   5
BRANCH   3  14
HETATM   14  N3  UNL     1      -0.624   6.201  24.255  1.00  0.00    -0.281 N 
ATOM     15  H3  UNL     1      -1.277   5.700  24.858  1.00  0.00     0.188 HD
BRANCH  14  16
HETATM   16  C8  UNL     1       0.643   5.637  23.993  1.00  0.00     0.164 C 
HETATM   17  S1  UNL     1       1.981   6.550  24.209  1.00  0.00    -0.050 SA
BRANCH  16  18
HETATM   18  S2  UNL     1       0.735   3.949  23.436  1.00  0.00    -0.014 SA
HETATM   19  S3  UNL     1       2.412   3.038  24.388  1.00  0.00    -0.005 SA
ENDBRANCH  16  18
ENDBRANCH  14  16
ENDBRANCH   3  14
TORSDOF 4
ENDMDL
MODEL 3
REMARK VINA RESULT: -6.131449382      3.426      3.991
REMARK  4 active torsions:
REMARK  status: ('A' for Active; 'I' for Inactive)
REMARK    1  A    between atoms: C6_9  and  C7_10 
REMARK       I    between atoms: C7_10  and  N2_12 
REMARK    2  A    between atoms: N2_12  and  N3_14 
REMARK    3  A    between atoms: N3_14  and  C8_16 
REMARK    4  A    between atoms: C8_16  and  S2_18 
ROOT
HETATM    1  C7  UNL     1       1.265   8.671  23.706  1.00  0.00     0.272 C 
HETATM    2  O1  UNL     1       1.945   8.671  22.610  1.00  0.00    -0.266 OA
HETATM    3  N2  UNL     1       1.669   7.748  24.667  1.00  0.00    -0.264 N 
ATOM      4  H2  UNL     1       1.191   7.693  25.566  1.00  0.00     0.190 HD
ENDROOT
BRANCH   1   5
HETATM    5  C6  UNL     1       0.176   9.622  23.815  1.00  0.00     0.056 A 
HETATM    6  C2  UNL     1       0.279  10.976  23.702  1.00  0.00    -0.022 A 
HETATM    7  C1  UNL     1       1.594  11.674  23.555  1.00  0.00     0.051 C 
HETATM    8  C3  UNL     1      -0.882  11.766  23.778  1.00  0.00     0.056 A 
HETATM    9 CL1  UNL     1      -0.704  13.488  23.630  1.00  0.00    -0.082 Cl
HETATM   10  C4  UNL     1      -2.112  11.200  23.963  1.00  0.00     0.112 A 
HETATM   11  N1  UNL     1      -2.195   9.878  24.071  1.00  0.00    -0.373 N 
HETATM   12  C5  UNL     1      -1.119   9.100  24.005  1.00  0.00     0.105 A 
ATOM     13  H1  UNL     1      -3.110   9.448  24.210  1.00  0.00     0.164 HD
ENDBRANCH   1   5
BRANCH   3  14
HETATM   14  N3  UNL     1       2.756   6.885  24.376  1.00  0.00    -0.281 N 
ATOM     15  H3  UNL     1       3.704   7.186  24.599  1.00  0.00     0.188 HD
BRANCH  14  16
HETATM   16  C8  UNL     1       2.556   5.618  23.786  1.00  0.00     0.164 C 
HETATM   17  S1  UNL     1       3.850   4.779  23.245  1.00  0.00    -0.050 SA
BRANCH  16  18
HETATM   18  S2  UNL     1       0.899   4.983  23.653  1.00  0.00    -0.014 SA
HETATM   19  S3  UNL     1       1.031   2.884  23.299  1.00  0.00    -0.005 SA
ENDBRANCH  16  18
ENDBRANCH  14  16
ENDBRANCH   3  14
TORSDOF 4
ENDMDL
MODEL 4
REMARK VINA RESULT: -6.093854404      2.834      3.322
REMARK  4 active torsions:
REMARK  status: ('A' for Active; 'I' for Inactive)
REMARK    1  A    between atoms: C6_9  and  C7_10 
REMARK       I    between atoms: C7_10  and  N2_12 
REMARK    2  A    between atoms: N2_12  and  N3_14 
REMARK    3  A    between atoms: N3_14  and  C8_16 
REMARK    4  A    between atoms: C8_16  and  S2_18 
ROOT
HETATM    1  C7  UNL     1      -1.163   8.464  24.497  1.00  0.00     0.272 C 
HETATM    2  O1  UNL     1      -1.073   8.172  25.750  1.00  0.00    -0.266 OA
HETATM    3  N2  UNL     1      -0.878   7.427  23.613  1.00  0.00    -0.264 N 
ATOM      4  H2  UNL     1      -0.938   7.574  22.605  1.00  0.00     0.190 HD
ENDROOT
BRANCH   1   5
HETATM    5  C6  UNL     1      -1.550   9.819  24.155  1.00  0.00     0.056 A 
HETATM    6  C2  UNL     1      -0.703  10.858  23.910  1.00  0.00    -0.022 A 
HETATM    7  C1  UNL     1       0.779  10.745  24.077  1.00  0.00     0.051 C 
HETATM    8  C3  UNL     1      -1.231  12.107  23.536  1.00  0.00     0.056 A 
HETATM    9 CL1  UNL     1      -0.114  13.404  23.235  1.00  0.00    -0.082 Cl
HETATM   10  C4  UNL     1      -2.579  12.297  23.414  1.00  0.00     0.112 A 
HETATM   11  N1  UNL     1      -3.391  11.275  23.657  1.00  0.00    -0.373 N 
HETATM   12  C5  UNL     1      -2.927  10.080  24.013  1.00  0.00     0.105 A 
ATOM     13  H1  UNL     1      -4.399  11.409  23.568  1.00  0.00     0.164 HD
ENDBRANCH   1   5
BRANCH   3  14
HETATM   14  N3  UNL     1      -0.501   6.164  24.135  1.00  0.00    -0.281 N 
ATOM     15  H3  UNL     1      -1.108   5.704  24.813  1.00  0.00     0.188 HD
BRANCH  14  16
HETATM   16  C8  UNL     1       0.695   5.528  23.738  1.00  0.00     0.164 C 
HETATM   17  S1  UNL     1       0.685   3.917  23.461  1.00  0.00    -0.050 SA
BRANCH  16  18
HETATM   18  S2  UNL     1       2.170   6.505  23.555  1.00  0.00    -0.014 SA
HETATM   19  S3  UNL     1       2.977   6.116  21.619  1.00  0.00    -0.005 SA
ENDBRANCH  16  18
ENDBRANCH  14  16
ENDBRANCH   3  14
TORSDOF 4
ENDMDL
MODEL 5
REMARK VINA RESULT: -6.077604039      3.647      4.415
REMARK  4 active torsions:
REMARK  status: ('A' for Active; 'I' for Inactive)
REMARK    1  A    between atoms: C6_9  and  C7_10 
REMARK       I    between atoms: C7_10  and  N2_12 
REMARK    2  A    between atoms: N2_12  and  N3_14 
REMARK    3  A    between atoms: N3_14  and  C8_16 
REMARK    4  A    between atoms: C8_16  and  S2_18 
ROOT
HETATM    1  C7  UNL     1       1.317   8.564  23.692  1.00  0.00     0.272 C 
HETATM    2  O1  UNL     1       2.012   8.606  22.608  1.00  0.00    -0.266 OA
HETATM    3  N2  UNL     1       1.703   7.602  24.621  1.00  0.00    -0.264 N 
ATOM      4  H2  UNL     1       1.211   7.513  25.510  1.00  0.00     0.190 HD
ENDROOT
BRANCH   1   5
HETATM    5  C6  UNL     1       0.230   9.515  23.823  1.00  0.00     0.056 A 
HETATM    6  C2  UNL     1       0.329  10.869  23.708  1.00  0.00    -0.022 A 
HETATM    7  C1  UNL     1       1.641  11.567  23.534  1.00  0.00     0.051 C 
HETATM    8  C3  UNL     1      -0.830  11.658  23.807  1.00  0.00     0.056 A 
HETATM    9 CL1  UNL     1      -0.656  13.381  23.656  1.00  0.00    -0.082 Cl
HETATM   10  C4  UNL     1      -2.056  11.092  24.018  1.00  0.00     0.112 A 
HETATM   11  N1  UNL     1      -2.136   9.770  24.128  1.00  0.00    -0.373 N 
HETATM   12  C5  UNL     1      -1.061   8.993  24.040  1.00  0.00     0.105 A 
ATOM     13  H1  UNL     1      -3.048   9.339  24.286  1.00  0.00     0.164 HD
ENDBRANCH   1   5
BRANCH   3  14
HETATM   14  N3  UNL     1       2.791   6.746  24.312  1.00  0.00    -0.281 N 
ATOM     15  H3  UNL     1       3.731   7.010  24.606  1.00  0.00     0.188 HD
BRANCH  14  16
HETATM   16  C8  UNL     1       2.603   5.538  23.606  1.00  0.00     0.164 C 
HETATM   17  S1  UNL     1       1.169   4.763  23.723  1.00  0.00    -0.050 SA
BRANCH  16  18
HETATM   18  S2  UNL     1       3.938   4.905  22.614  1.00  0.00    -0.014 SA
HETATM   19  S3  UNL     1       3.142   4.381  20.705  1.00  0.00    -0.005 SA
ENDBRANCH  16  18
ENDBRANCH  14  16
ENDBRANCH   3  14
TORSDOF 4
ENDMDL
