MODEL 1
REMARK VINA RESULT: -6.096012807      0.000      0.000
REMARK  3 active torsions:
REMARK  status: ('A' for Active; 'I' for Inactive)
REMARK    1  A    between atoms: C2_2  and  C3_3 
REMARK    2  A    between atoms: C5_7  and  N1_8 
REMARK    3  A    between atoms: N1_8  and  C6_10 
ROOT
HETATM    1  N1  UNL     1      -0.631   9.917  25.084  1.00  0.00    -0.368 N 
ATOM      2  H1  UNL     1      -0.906   9.971  26.064  1.00  0.00     0.161 HD
ENDROOT
BRANCH   1   3
HETATM    3  C5  UNL     1       0.535   9.177  24.814  1.00  0.00     0.147 C 
HETATM    4  C4  UNL     1       0.311   8.175  23.685  1.00  0.00     0.067 C 
HETATM    5  C2  UNL     1       0.069   6.984  24.563  1.00  0.00     0.097 C 
HETATM    6  C1  UNL     1      -1.401   6.704  24.854  1.00  0.00     0.039 C 
HETATM    7  S2  UNL     1       0.834   7.786  25.987  1.00  0.00    -0.123 SA
BRANCH   5   8
HETATM    8  C3  UNL     1       0.786   5.793  24.060  1.00  0.00     0.192 C 
HETATM    9  O1  UNL     1       0.198   4.690  24.022  1.00  0.00    -0.647 OA
HETATM   10  O2  UNL     1       2.093   5.849  23.626  1.00  0.00    -0.647 OA
ENDBRANCH   5   8
ENDBRANCH   1   3
BRANCH   1  11
HETATM   11  C6  UNL     1      -1.394  10.532  24.257  1.00  0.00     0.113 A 
HETATM   12  S1  UNL     1      -3.121  10.350  24.143  1.00  0.00     0.006 SA
HETATM   13  N2  UNL     1      -3.408  11.426  22.886  1.00  0.00    -0.312 N 
HETATM   14  C7  UNL     1      -2.206  11.903  22.574  1.00  0.00     0.147 A 
ATOM     15  H2  UNL     1      -4.304  11.662  22.458  1.00  0.00     0.175 HD
HETATM   16  N3  UNL     1      -2.104  12.859  21.524  1.00  0.00    -0.080 NA
HETATM   17  C8  UNL     1      -1.160  11.438  23.286  1.00  0.00     0.110 A 
HETATM   18 CL1  UNL     1       0.510  11.992  22.971  1.00  0.00    -0.078 Cl
ENDBRANCH   1  11
TORSDOF 3
ENDMDL
MODEL 2
REMARK VINA RESULT: -6.058087707      1.170      1.710
REMARK  3 active torsions:
REMARK  status: ('A' for Active; 'I' for Inactive)
REMARK    1  A    between atoms: C2_2  and  C3_3 
REMARK    2  A    between atoms: C5_7  and  N1_8 
REMARK    3  A    between atoms: N1_8  and  C6_10 
ROOT
HETATM    1  N1  UNL     1      -0.327   9.560  25.247  1.00  0.00    -0.368 N 
ATOM      2  H1  UNL     1       0.334  10.073  25.829  1.00  0.00     0.161 HD
ENDROOT
BRANCH   1   3
HETATM    3  C5  UNL     1      -0.332   8.162  25.410  1.00  0.00     0.147 C 
HETATM    4  C4  UNL     1       1.082   7.617  25.577  1.00  0.00     0.067 C 
HETATM    5  C2  UNL     1       1.267   7.189  24.151  1.00  0.00     0.097 C 
HETATM    6  C1  UNL     1       1.967   8.219  23.271  1.00  0.00     0.039 C 
HETATM    7  S2  UNL     1      -0.509   7.219  23.836  1.00  0.00    -0.123 SA
BRANCH   5   8
HETATM    8  C3  UNL     1       1.891   5.853  24.068  1.00  0.00     0.192 C 
HETATM    9  O1  UNL     1       3.045   5.738  23.600  1.00  0.00    -0.647 OA
HETATM   10  O2  UNL     1       1.245   4.710  24.492  1.00  0.00    -0.647 OA
ENDBRANCH   5   8
ENDBRANCH   1   3
BRANCH   1  11
HETATM   11  C6  UNL     1      -1.047  10.274  24.460  1.00  0.00     0.113 A 
HETATM   12  S1  UNL     1      -2.784  10.246  24.371  1.00  0.00     0.006 SA
HETATM   13  N2  UNL     1      -2.996  11.397  23.166  1.00  0.00    -0.312 N 
HETATM   14  C7  UNL     1      -1.762  11.782  22.852  1.00  0.00     0.147 A 
ATOM     15  H2  UNL     1      -3.874  11.726  22.765  1.00  0.00     0.175 HD
HETATM   16  N3  UNL     1      -1.593  12.771  21.842  1.00  0.00    -0.080 NA
HETATM   17  C8  UNL     1      -0.749  11.199  23.524  1.00  0.00     0.110 A 
HETATM   18 CL1  UNL     1       0.957  11.621  23.203  1.00  0.00    -0.078 Cl
ENDBRANCH   1  11
TORSDOF 3
ENDMDL
MODEL 3
REMARK VINA RESULT: -5.910561141      1.588      1.708
REMARK  3 active torsions:
REMARK  status: ('A' for Active; 'I' for Inactive)
REMARK    1  A    between atoms: C2_2  and  C3_3 
REMARK    2  A    between atoms: C5_7  and  N1_8 
REMARK    3  A    between atoms: N1_8  and  C6_10 
ROOT
HETATM    1  N1  UNL     1      -0.343  10.101  24.856  1.00  0.00    -0.368 N 
ATOM      2  H1  UNL     1      -0.860  10.061  25.733  1.00  0.00     0.161 HD
ENDROOT
BRANCH   1   3
HETATM    3  C5  UNL     1       0.771   9.245  24.761  1.00  0.00     0.147 C 
HETATM    4  C4  UNL     1       0.593   8.221  23.645  1.00  0.00     0.067 C 
HETATM    5  C2  UNL     1       0.129   7.096  24.521  1.00  0.00     0.097 C 
HETATM    6  C1  UNL     1      -1.386   6.965  24.629  1.00  0.00     0.039 C 
HETATM    7  S2  UNL     1       0.784   7.884  26.005  1.00  0.00    -0.123 SA
BRANCH   5   8
HETATM    8  C3  UNL     1       0.784   5.824  24.151  1.00  0.00     0.192 C 
HETATM    9  O1  UNL     1       0.088   4.799  23.979  1.00  0.00    -0.647 OA
HETATM   10  O2  UNL     1       2.149   5.718  23.987  1.00  0.00    -0.647 OA
ENDBRANCH   5   8
ENDBRANCH   1   3
BRANCH   1  11
HETATM   11  C6  UNL     1      -0.793  10.923  23.981  1.00  0.00     0.113 A 
HETATM   12  S1  UNL     1       0.158  12.075  23.089  1.00  0.00     0.006 SA
HETATM   13  N2  UNL     1      -1.070  12.768  22.176  1.00  0.00    -0.312 N 
HETATM   14  C7  UNL     1      -2.171  12.124  22.555  1.00  0.00     0.147 A 
ATOM     15  H2  UNL     1      -0.989  13.514  21.486  1.00  0.00     0.175 HD
HETATM   16  N3  UNL     1      -3.411  12.483  21.954  1.00  0.00    -0.080 NA
HETATM   17  C8  UNL     1      -2.027  11.166  23.493  1.00  0.00     0.110 A 
HETATM   18 CL1  UNL     1      -3.422  10.224  24.094  1.00  0.00    -0.078 Cl
ENDBRANCH   1  11
TORSDOF 3
ENDMDL
MODEL 4
REMARK VINA RESULT: -5.862441918      2.886      3.444
REMARK  3 active torsions:
REMARK  status: ('A' for Active; 'I' for Inactive)
REMARK    1  A    between atoms: C2_2  and  C3_3 
REMARK    2  A    between atoms: C5_7  and  N1_8 
REMARK    3  A    between atoms: N1_8  and  C6_10 
ROOT
HETATM    1  N1  UNL     1      -0.120   8.271  23.842  1.00  0.00    -0.368 N 
ATOM      2  H1  UNL     1      -0.542   7.796  23.044  1.00  0.00     0.161 HD
ENDROOT
BRANCH   1   3
HETATM    3  C5  UNL     1       1.237   7.983  24.079  1.00  0.00     0.147 C 
HETATM    4  C4  UNL     1       1.985   7.716  22.776  1.00  0.00     0.067 C 
HETATM    5  C2  UNL     1       1.923   6.220  22.850  1.00  0.00     0.097 C 
HETATM    6  C1  UNL     1       0.755   5.600  22.091  1.00  0.00     0.039 C 
HETATM    7  S2  UNL     1       1.558   6.250  24.617  1.00  0.00    -0.123 SA
BRANCH   5   8
HETATM    8  C3  UNL     1       3.221   5.611  22.493  1.00  0.00     0.192 C 
HETATM    9  O1  UNL     1       3.511   5.439  21.289  1.00  0.00    -0.647 OA
HETATM   10  O2  UNL     1       4.137   5.218  23.446  1.00  0.00    -0.647 OA
ENDBRANCH   5   8
ENDBRANCH   1   3
BRANCH   1  11
HETATM   11  C6  UNL     1      -0.897   9.052  24.499  1.00  0.00     0.113 A 
HETATM   12  S1  UNL     1      -1.388  10.645  24.003  1.00  0.00     0.006 SA
HETATM   13  N2  UNL     1      -2.359  11.034  25.317  1.00  0.00    -0.312 N 
HETATM   14  C7  UNL     1      -2.300   9.962  26.104  1.00  0.00     0.147 A 
ATOM     15  H2  UNL     1      -2.879  11.897  25.476  1.00  0.00     0.175 HD
HETATM   16  N3  UNL     1      -3.031   9.973  27.325  1.00  0.00    -0.080 NA
HETATM   17  C8  UNL     1      -1.540   8.933  25.679  1.00  0.00     0.110 A 
HETATM   18 CL1  UNL     1      -1.369   7.434  26.637  1.00  0.00    -0.078 Cl
ENDBRANCH   1  11
TORSDOF 3
ENDMDL
MODEL 5
REMARK VINA RESULT: -5.846697341      3.030      3.707
REMARK  3 active torsions:
REMARK  status: ('A' for Active; 'I' for Inactive)
REMARK    1  A    between atoms: C2_2  and  C3_3 
REMARK    2  A    between atoms: C5_7  and  N1_8 
REMARK    3  A    between atoms: N1_8  and  C6_10 
ROOT
HETATM    1  N1  UNL     1       0.465   8.198  25.403  1.00  0.00    -0.368 N 
ATOM      2  H1  UNL     1       1.363   8.584  25.694  1.00  0.00     0.161 HD
ENDROOT
BRANCH   1   3
HETATM    3  C5  UNL     1       0.502   6.895  24.872  1.00  0.00     0.147 C 
HETATM    4  C4  UNL     1       1.922   6.493  24.484  1.00  0.00     0.067 C 
HETATM    5  C2  UNL     1       1.792   6.806  23.023  1.00  0.00     0.097 C 
HETATM    6  C1  UNL     1       2.278   8.197  22.632  1.00  0.00     0.039 C 
HETATM    7  S2  UNL     1      -0.010   6.786  23.105  1.00  0.00    -0.123 SA
BRANCH   5   8
HETATM    8  C3  UNL     1       2.389   5.740  22.191  1.00  0.00     0.192 C 
HETATM    9  O1  UNL     1       3.096   6.049  21.207  1.00  0.00    -0.647 OA
HETATM   10  O2  UNL     1       2.197   4.401  22.460  1.00  0.00    -0.647 OA
ENDBRANCH   5   8
ENDBRANCH   1   3
BRANCH   1  11
HETATM   11  C6  UNL     1      -0.551   8.963  25.569  1.00  0.00     0.113 A 
HETATM   12  S1  UNL     1      -0.953  10.341  24.588  1.00  0.00     0.006 SA
HETATM   13  N2  UNL     1      -2.355  10.819  25.381  1.00  0.00    -0.312 N 
HETATM   14  C7  UNL     1      -2.497   9.937  26.367  1.00  0.00     0.147 A 
ATOM     15  H2  UNL     1      -2.961  11.608  25.157  1.00  0.00     0.175 HD
HETATM   16  N3  UNL     1      -3.613  10.067  27.241  1.00  0.00    -0.080 NA
HETATM   17  C8  UNL     1      -1.560   8.973  26.465  1.00  0.00     0.110 A 
HETATM   18 CL1  UNL     1      -1.627   7.725  27.743  1.00  0.00    -0.078 Cl
ENDBRANCH   1  11
TORSDOF 3
ENDMDL
