MODEL 1
REMARK VINA RESULT: -7.493563033      0.000      0.000
REMARK  11 active torsions:
REMARK  status: ('A' for Active; 'I' for Inactive)
REMARK       I    between atoms: N1_2  and  C2_4 
REMARK    1  A    between atoms: C2_4  and  C3_6 
REMARK    2  A    between atoms: C3_6  and  N2_8 
REMARK    3  A    between atoms: N2_8  and  C5_10 
REMARK    4  A    between atoms: C5_10  and  O2_11 
REMARK    5  A    between atoms: C5_10  and  C6_13 
REMARK    6  A    between atoms: C6_13  and  C7_14 
REMARK    7  A    between atoms: C6_13  and  N3_19 
REMARK    8  A    between atoms: C7_14  and  C8_15 
REMARK    9  A    between atoms: C8_15  and  C9_16 
REMARK       I    between atoms: N3_19  and  C10_21 
REMARK   10  A    between atoms: C10_21  and  C11_23 
REMARK   11  A    between atoms: C23_38  and  O8_39 
ROOT
HETATM    1  N3  UNL     1     -64.039  11.561   7.669  1.00  0.00    -0.349 N 
ATOM      2  H3  UNL     1     -64.093  11.722   8.675  1.00  0.00     0.163 HD
HETATM    3  C10 UNL     1     -64.969  10.642   7.119  1.00  0.00     0.223 C 
HETATM    4  O5  UNL     1     -64.790  10.543   5.882  1.00  0.00    -0.273 OA
ENDROOT
BRANCH   1   5
HETATM    5  C6  UNL     1     -63.031  12.288   6.954  1.00  0.00     0.159 C 
BRANCH   5   6
HETATM    6  C5  UNL     1     -61.743  12.190   7.664  1.00  0.00     0.135 C 
BRANCH   6   7
HETATM    7  N2  UNL     1     -61.504  11.935   9.016  1.00  0.00    -0.360 N 
ATOM      8  H2  UNL     1     -61.722  12.651   9.709  1.00  0.00     0.162 HD
BRANCH   7   9
HETATM    9  C3  UNL     1     -60.949  10.663   9.447  1.00  0.00     0.171 C 
HETATM   10  C4  UNL     1     -61.460  10.294  10.832  1.00  0.00     0.042 C 
BRANCH   9  11
HETATM   11  C2  UNL     1     -59.464  10.764   9.579  1.00  0.00     0.239 C 
HETATM   12  N1  UNL     1     -58.891  10.996  10.847  1.00  0.00    -0.364 N 
HETATM   13  C1  UNL     1     -57.469  11.099  11.002  1.00  0.00     0.149 C 
ATOM     14  H1  UNL     1     -59.495  11.092  11.663  1.00  0.00     0.161 HD
HETATM   15  O1  UNL     1     -58.760  10.638   8.541  1.00  0.00    -0.271 OA
ENDBRANCH   9  11
ENDBRANCH   7   9
ENDBRANCH   6   7
BRANCH   6  16
HETATM   16  O2  UNL     1     -60.650  12.350   6.962  1.00  0.00    -0.348 OA
ATOM     17  H2  UNL     1     -60.812  12.600   6.059  1.00  0.00     0.219 HD
ENDBRANCH   6  16
ENDBRANCH   5   6
BRANCH   5  18
HETATM   18  C7  UNL     1     -63.412  13.617   6.480  1.00  0.00     0.044 C 
BRANCH  18  19
HETATM   19  C8  UNL     1     -64.333  14.311   7.447  1.00  0.00     0.116 C 
BRANCH  19  20
HETATM   20  C9  UNL     1     -63.598  15.413   8.138  1.00  0.00     0.172 C 
HETATM   21  O3  UNL     1     -63.324  16.439   7.470  1.00  0.00    -0.648 OA
HETATM   22  O4  UNL     1     -63.233  15.310   9.467  1.00  0.00    -0.648 OA
ENDBRANCH  19  20
ENDBRANCH  18  19
ENDBRANCH   5  18
ENDBRANCH   1   5
BRANCH   3  23
HETATM   23  C11 UNL     1     -65.920   9.992   7.976  1.00  0.00     0.088 C 
HETATM   24  C12 UNL     1     -67.417  10.261   7.802  1.00  0.00     0.006 C 
HETATM   25  C13 UNL     1     -67.806  10.728   6.442  1.00  0.00     0.011 C 
HETATM   26  C14 UNL     1     -67.447  11.165   8.953  1.00  0.00    -0.002 C 
HETATM   27  C15 UNL     1     -67.538  12.523   8.522  1.00  0.00     0.019 C 
HETATM   28  C16 UNL     1     -66.250  10.340   9.305  1.00  0.00     0.019 C 
HETATM   29  C23 UNL     1     -68.136  10.970  10.249  1.00  0.00     0.084 C 
HETATM   30  C17 UNL     1     -65.685  10.997  10.433  1.00  0.00    -0.035 C 
HETATM   31  C18 UNL     1     -64.910  12.215  10.366  1.00  0.00     0.016 C 
HETATM   32  C19 UNL     1     -64.810   9.996  11.218  1.00  0.00     0.016 C 
HETATM   33  C20 UNL     1     -66.988  11.101  11.249  1.00  0.00     0.044 C 
HETATM   34  C21 UNL     1     -67.138  12.306  12.051  1.00  0.00     0.148 C 
HETATM   35  S1  UNL     1     -68.913  12.210  12.354  1.00  0.00     0.147 S 
HETATM   36  O6  UNL     1     -69.253  11.081  13.236  1.00  0.00    -0.228 OA
HETATM   37  O7  UNL     1     -69.466  13.517  12.765  1.00  0.00    -0.228 OA
HETATM   38  C22 UNL     1     -69.252  11.846  10.620  1.00  0.00     0.179 C 
BRANCH  29  39
HETATM   39  O8  UNL     1     -68.634   9.643  10.236  1.00  0.00    -0.388 OA
ATOM     40  H8  UNL     1     -67.993   9.114  10.698  1.00  0.00     0.210 HD
ENDBRANCH  29  39
ENDBRANCH   3  23
TORSDOF 11
ENDMDL
MODEL 2
REMARK VINA RESULT: -7.380691085      2.102      3.310
REMARK  11 active torsions:
REMARK  status: ('A' for Active; 'I' for Inactive)
REMARK       I    between atoms: N1_2  and  C2_4 
REMARK    1  A    between atoms: C2_4  and  C3_6 
REMARK    2  A    between atoms: C3_6  and  N2_8 
REMARK    3  A    between atoms: N2_8  and  C5_10 
REMARK    4  A    between atoms: C5_10  and  O2_11 
REMARK    5  A    between atoms: C5_10  and  C6_13 
REMARK    6  A    between atoms: C6_13  and  C7_14 
REMARK    7  A    between atoms: C6_13  and  N3_19 
REMARK    8  A    between atoms: C7_14  and  C8_15 
REMARK    9  A    between atoms: C8_15  and  C9_16 
REMARK       I    between atoms: N3_19  and  C10_21 
REMARK   10  A    between atoms: C10_21  and  C11_23 
REMARK   11  A    between atoms: C23_38  and  O8_39 
ROOT
HETATM    1  N3  UNL     1     -64.999  13.353   8.578  1.00  0.00    -0.349 N 
ATOM      2  H3  UNL     1     -65.294  14.137   7.996  1.00  0.00     0.163 HD
HETATM    3  C10 UNL     1     -65.922  12.904   9.557  1.00  0.00     0.223 C 
HETATM    4  O5  UNL     1     -65.432  11.941  10.194  1.00  0.00    -0.273 OA
ENDROOT
BRANCH   1   5
HETATM    5  C6  UNL     1     -63.694  12.817   8.324  1.00  0.00     0.159 C 
BRANCH   5   6
HETATM    6  C5  UNL     1     -62.778  13.186   9.418  1.00  0.00     0.135 C 
BRANCH   6   7
HETATM    7  N2  UNL     1     -62.082  12.355  10.297  1.00  0.00    -0.360 N 
ATOM      8  H2  UNL     1     -61.851  12.691  11.231  1.00  0.00     0.162 HD
BRANCH   7   9
HETATM    9  C3  UNL     1     -61.682  11.016   9.896  1.00  0.00     0.171 C 
HETATM   10  C4  UNL     1     -62.034  10.003  10.976  1.00  0.00     0.042 C 
BRANCH   9  11
HETATM   11  C2  UNL     1     -60.197  10.943   9.743  1.00  0.00     0.239 C 
HETATM   12  N1  UNL     1     -59.372  11.086  10.878  1.00  0.00    -0.364 N 
HETATM   13  C1  UNL     1     -57.944  11.021  10.759  1.00  0.00     0.149 C 
ATOM     14  H1  UNL     1     -59.796  11.237  11.793  1.00  0.00     0.161 HD
HETATM   15  O1  UNL     1     -59.722  10.754   8.591  1.00  0.00    -0.271 OA
ENDBRANCH   9  11
ENDBRANCH   7   9
ENDBRANCH   6   7
BRANCH   6  16
HETATM   16  O2  UNL     1     -62.556  14.460   9.617  1.00  0.00    -0.348 OA
ATOM     17  H2  UNL     1     -63.253  15.022   9.298  1.00  0.00     0.219 HD
ENDBRANCH   6  16
ENDBRANCH   5   6
BRANCH   5  18
HETATM   18  C7  UNL     1     -63.184  12.986   6.964  1.00  0.00     0.044 C 
BRANCH  18  19
HETATM   19  C8  UNL     1     -64.027  13.945   6.167  1.00  0.00     0.116 C 
BRANCH  19  20
HETATM   20  C9  UNL     1     -63.455  15.321   6.270  1.00  0.00     0.172 C 
HETATM   21  O3  UNL     1     -62.813  15.760   5.287  1.00  0.00    -0.648 OA
HETATM   22  O4  UNL     1     -63.627  16.086   7.408  1.00  0.00    -0.648 OA
ENDBRANCH  19  20
ENDBRANCH  18  19
ENDBRANCH   5  18
ENDBRANCH   1   5
BRANCH   3  23
HETATM   23  C11 UNL     1     -67.196  13.553   9.687  1.00  0.00     0.088 C 
HETATM   24  C12 UNL     1     -67.445  14.527  10.842  1.00  0.00     0.006 C 
HETATM   25  C13 UNL     1     -66.212  15.140  11.408  1.00  0.00     0.011 C 
HETATM   26  C14 UNL     1     -68.210  13.530  11.593  1.00  0.00    -0.002 C 
HETATM   27  C15 UNL     1     -67.441  13.024  12.685  1.00  0.00     0.019 C 
HETATM   28  C16 UNL     1     -68.387  12.999  10.206  1.00  0.00     0.019 C 
HETATM   29  C23 UNL     1     -69.654  13.545  11.921  1.00  0.00     0.084 C 
HETATM   30  C17 UNL     1     -69.014  11.735  10.387  1.00  0.00    -0.035 C 
HETATM   31  C18 UNL     1     -68.332  10.540  10.831  1.00  0.00     0.016 C 
HETATM   32  C19 UNL     1     -69.737  11.334   9.083  1.00  0.00     0.016 C 
HETATM   33  C20 UNL     1     -70.136  12.225  11.322  1.00  0.00     0.044 C 
HETATM   34  C21 UNL     1     -70.537  11.299  12.371  1.00  0.00     0.148 C 
HETATM   35  S1  UNL     1     -71.414  12.459  13.436  1.00  0.00     0.147 S 
HETATM   36  O6  UNL     1     -72.658  12.938  12.810  1.00  0.00    -0.228 OA
HETATM   37  O7  UNL     1     -71.565  11.931  14.808  1.00  0.00    -0.228 OA
HETATM   38  C22 UNL     1     -70.083  13.670  13.318  1.00  0.00     0.179 C 
BRANCH  29  39
HETATM   39  O8  UNL     1     -70.208  14.642  11.215  1.00  0.00    -0.388 OA
ATOM     40  H8  UNL     1     -70.808  15.069  11.817  1.00  0.00     0.210 HD
ENDBRANCH  29  39
ENDBRANCH   3  23
TORSDOF 11
ENDMDL
MODEL 3
REMARK VINA RESULT: -7.319211756      1.985      3.858
REMARK  11 active torsions:
REMARK  status: ('A' for Active; 'I' for Inactive)
REMARK       I    between atoms: N1_2  and  C2_4 
REMARK    1  A    between atoms: C2_4  and  C3_6 
REMARK    2  A    between atoms: C3_6  and  N2_8 
REMARK    3  A    between atoms: N2_8  and  C5_10 
REMARK    4  A    between atoms: C5_10  and  O2_11 
REMARK    5  A    between atoms: C5_10  and  C6_13 
REMARK    6  A    between atoms: C6_13  and  C7_14 
REMARK    7  A    between atoms: C6_13  and  N3_19 
REMARK    8  A    between atoms: C7_14  and  C8_15 
REMARK    9  A    between atoms: C8_15  and  C9_16 
REMARK       I    between atoms: N3_19  and  C10_21 
REMARK   10  A    between atoms: C10_21  and  C11_23 
REMARK   11  A    between atoms: C23_38  and  O8_39 
ROOT
HETATM    1  N3  UNL     1     -65.133  12.883   8.723  1.00  0.00    -0.349 N 
ATOM      2  H3  UNL     1     -65.308  13.686   8.119  1.00  0.00     0.163 HD
HETATM    3  C10 UNL     1     -66.134  12.574   9.680  1.00  0.00     0.223 C 
HETATM    4  O5  UNL     1     -65.790  11.571  10.349  1.00  0.00    -0.273 OA
ENDROOT
BRANCH   1   5
HETATM    5  C6  UNL     1     -63.900  12.180   8.520  1.00  0.00     0.159 C 
BRANCH   5   6
HETATM    6  C5  UNL     1     -62.804  12.878   9.215  1.00  0.00     0.135 C 
BRANCH   6   7
HETATM    7  N2  UNL     1     -61.759  12.339   9.967  1.00  0.00    -0.360 N 
ATOM      8  H2  UNL     1     -61.254  12.932  10.626  1.00  0.00     0.162 HD
BRANCH   7   9
HETATM    9  C3  UNL     1     -61.381  10.942   9.823  1.00  0.00     0.171 C 
HETATM   10  C4  UNL     1     -61.829  10.136  11.033  1.00  0.00     0.042 C 
BRANCH   9  11
HETATM   11  C2  UNL     1     -59.893  10.811   9.779  1.00  0.00     0.239 C 
HETATM   12  N1  UNL     1     -59.133  11.104  10.930  1.00  0.00    -0.364 N 
HETATM   13  C1  UNL     1     -57.703  10.987  10.915  1.00  0.00     0.149 C 
ATOM     14  H1  UNL     1     -59.605  11.404  11.783  1.00  0.00     0.161 HD
HETATM   15  O1  UNL     1     -59.356  10.437   8.701  1.00  0.00    -0.271 OA
ENDBRANCH   9  11
ENDBRANCH   7   9
ENDBRANCH   6   7
BRANCH   6  16
HETATM   16  O2  UNL     1     -62.768  14.184   9.131  1.00  0.00    -0.348 OA
ATOM     17  H2  UNL     1     -63.445  14.616   9.638  1.00  0.00     0.219 HD
ENDBRANCH   6  16
ENDBRANCH   5   6
BRANCH   5  18
HETATM   18  C7  UNL     1     -63.628  11.744   7.151  1.00  0.00     0.044 C 
BRANCH  18  19
HETATM   19  C8  UNL     1     -64.406  10.506   6.795  1.00  0.00     0.116 C 
BRANCH  19  20
HETATM   20  C9  UNL     1     -65.502  10.859   5.843  1.00  0.00     0.172 C 
HETATM   21  O3  UNL     1     -65.596  10.187   4.788  1.00  0.00    -0.648 OA
HETATM   22  O4  UNL     1     -66.385  11.888   6.113  1.00  0.00    -0.648 OA
ENDBRANCH  19  20
ENDBRANCH  18  19
ENDBRANCH   5  18
ENDBRANCH   1   5
BRANCH   3  23
HETATM   23  C11 UNL     1     -67.318  13.382   9.759  1.00  0.00     0.088 C 
HETATM   24  C12 UNL     1     -67.468  14.414  10.881  1.00  0.00     0.006 C 
HETATM   25  C13 UNL     1     -66.181  14.884  11.463  1.00  0.00     0.011 C 
HETATM   26  C14 UNL     1     -68.371  13.544  11.637  1.00  0.00    -0.002 C 
HETATM   27  C15 UNL     1     -67.698  12.979  12.762  1.00  0.00     0.019 C 
HETATM   28  C16 UNL     1     -68.582  12.999  10.260  1.00  0.00     0.019 C 
HETATM   29  C23 UNL     1     -69.809  13.751  11.926  1.00  0.00     0.084 C 
HETATM   30  C17 UNL     1     -69.368  11.830  10.458  1.00  0.00    -0.035 C 
HETATM   31  C18 UNL     1     -68.853  10.573  10.951  1.00  0.00     0.016 C 
HETATM   32  C19 UNL     1     -70.105  11.484   9.146  1.00  0.00     0.016 C 
HETATM   33  C20 UNL     1     -70.440  12.485  11.349  1.00  0.00     0.044 C 
HETATM   34  C21 UNL     1     -70.979  11.648  12.411  1.00  0.00     0.148 C 
HETATM   35  S1  UNL     1     -71.727  12.941  13.421  1.00  0.00     0.147 S 
HETATM   36  O6  UNL     1     -72.885  13.554  12.749  1.00  0.00    -0.228 OA
HETATM   37  O7  UNL     1     -71.975  12.477  14.802  1.00  0.00    -0.228 OA
HETATM   38  C22 UNL     1     -70.250  13.970  13.307  1.00  0.00     0.179 C 
BRANCH  29  39
HETATM   39  O8  UNL     1     -70.203  14.888  11.176  1.00  0.00    -0.388 OA
ATOM     40  H8  UNL     1     -70.365  15.579  11.809  1.00  0.00     0.210 HD
ENDBRANCH  29  39
ENDBRANCH   3  23
TORSDOF 11
ENDMDL
MODEL 4
REMARK VINA RESULT: -7.199649954      1.978      2.470
REMARK  11 active torsions:
REMARK  status: ('A' for Active; 'I' for Inactive)
REMARK       I    between atoms: N1_2  and  C2_4 
REMARK    1  A    between atoms: C2_4  and  C3_6 
REMARK    2  A    between atoms: C3_6  and  N2_8 
REMARK    3  A    between atoms: N2_8  and  C5_10 
REMARK    4  A    between atoms: C5_10  and  O2_11 
REMARK    5  A    between atoms: C5_10  and  C6_13 
REMARK    6  A    between atoms: C6_13  and  C7_14 
REMARK    7  A    between atoms: C6_13  and  N3_19 
REMARK    8  A    between atoms: C7_14  and  C8_15 
REMARK    9  A    between atoms: C8_15  and  C9_16 
REMARK       I    between atoms: N3_19  and  C10_21 
REMARK   10  A    between atoms: C10_21  and  C11_23 
REMARK   11  A    between atoms: C23_38  and  O8_39 
ROOT
HETATM    1  N3  UNL     1     -63.886  10.888   9.592  1.00  0.00    -0.349 N 
ATOM      2  H3  UNL     1     -64.410  10.846  10.466  1.00  0.00     0.163 HD
HETATM    3  C10 UNL     1     -64.582  10.513   8.413  1.00  0.00     0.223 C 
HETATM    4  O5  UNL     1     -63.822  10.612   7.420  1.00  0.00    -0.273 OA
ENDROOT
BRANCH   1   5
HETATM    5  C6  UNL     1     -62.522  11.320   9.677  1.00  0.00     0.159 C 
BRANCH   5   6
HETATM    6  C5  UNL     1     -61.752  10.388  10.520  1.00  0.00     0.135 C 
BRANCH   6   7
HETATM    7  N2  UNL     1     -60.372  10.323  10.721  1.00  0.00    -0.360 N 
ATOM      8  H2  UNL     1     -60.003   9.810  11.521  1.00  0.00     0.162 HD
BRANCH   7   9
HETATM    9  C3  UNL     1     -59.454  10.978   9.803  1.00  0.00     0.171 C 
HETATM   10  C4  UNL     1     -59.376  10.217   8.487  1.00  0.00     0.042 C 
BRANCH   9  11
HETATM   11  C2  UNL     1     -58.068  10.965  10.359  1.00  0.00     0.239 C 
HETATM   12  N1  UNL     1     -57.771  10.150  11.472  1.00  0.00    -0.364 N 
HETATM   13  C1  UNL     1     -56.449  10.120  12.027  1.00  0.00     0.149 C 
ATOM     14  H1  UNL     1     -58.505   9.577  11.886  1.00  0.00     0.161 HD
HETATM   15  O1  UNL     1     -57.195  11.692   9.812  1.00  0.00    -0.271 OA
ENDBRANCH   9  11
ENDBRANCH   7   9
ENDBRANCH   6   7
BRANCH   6  16
HETATM   16  O2  UNL     1     -62.421   9.489  11.195  1.00  0.00    -0.348 OA
ATOM     17  H2  UNL     1     -63.201   9.181  10.749  1.00  0.00     0.219 HD
ENDBRANCH   6  16
ENDBRANCH   5   6
BRANCH   5  18
HETATM   18  C7  UNL     1     -62.315  12.745   9.928  1.00  0.00     0.044 C 
BRANCH  18  19
HETATM   19  C8  UNL     1     -62.824  13.592   8.792  1.00  0.00     0.116 C 
BRANCH  19  20
HETATM   20  C9  UNL     1     -63.398  14.861   9.331  1.00  0.00     0.172 C 
HETATM   21  O3  UNL     1     -63.557  15.815   8.531  1.00  0.00    -0.648 OA
HETATM   22  O4  UNL     1     -63.746  14.984  10.663  1.00  0.00    -0.648 OA
ENDBRANCH  19  20
ENDBRANCH  18  19
ENDBRANCH   5  18
ENDBRANCH   1   5
BRANCH   3  23
HETATM   23  C11 UNL     1     -65.954  10.099   8.497  1.00  0.00     0.088 C 
HETATM   24  C12 UNL     1     -66.904  10.357   7.324  1.00  0.00     0.006 C 
HETATM   25  C13 UNL     1     -66.230  10.510   6.005  1.00  0.00     0.011 C 
HETATM   26  C14 UNL     1     -67.519  11.502   7.999  1.00  0.00    -0.002 C 
HETATM   27  C15 UNL     1     -67.075  12.726   7.416  1.00  0.00     0.019 C 
HETATM   28  C16 UNL     1     -67.002  10.750   9.185  1.00  0.00     0.019 C 
HETATM   29  C23 UNL     1     -68.904  11.625   8.508  1.00  0.00     0.084 C 
HETATM   30  C17 UNL     1     -67.203  11.634  10.281  1.00  0.00    -0.035 C 
HETATM   31  C18 UNL     1     -66.377  12.786  10.564  1.00  0.00     0.016 C 
HETATM   32  C19 UNL     1     -67.236  10.820  11.592  1.00  0.00     0.016 C 
HETATM   33  C20 UNL     1     -68.680  11.954   9.982  1.00  0.00     0.044 C 
HETATM   34  C21 UNL     1     -69.106  13.315  10.277  1.00  0.00     0.148 C 
HETATM   35  S1  UNL     1     -70.634  13.333   9.321  1.00  0.00     0.147 S 
HETATM   36  O6  UNL     1     -71.653  12.444   9.906  1.00  0.00    -0.228 OA
HETATM   37  O7  UNL     1     -71.088  14.713   9.047  1.00  0.00    -0.228 OA
HETATM   38  C22 UNL     1     -69.822  12.589   7.892  1.00  0.00     0.179 C 
BRANCH  29  39
HETATM   39  O8  UNL     1     -69.493  10.343   8.368  1.00  0.00    -0.388 OA
ATOM     40  H8  UNL     1     -69.522   9.968   9.241  1.00  0.00     0.210 HD
ENDBRANCH  29  39
ENDBRANCH   3  23
TORSDOF 11
ENDMDL
MODEL 5
REMARK VINA RESULT: -7.046637240      1.052      1.248
REMARK  11 active torsions:
REMARK  status: ('A' for Active; 'I' for Inactive)
REMARK       I    between atoms: N1_2  and  C2_4 
REMARK    1  A    between atoms: C2_4  and  C3_6 
REMARK    2  A    between atoms: C3_6  and  N2_8 
REMARK    3  A    between atoms: N2_8  and  C5_10 
REMARK    4  A    between atoms: C5_10  and  O2_11 
REMARK    5  A    between atoms: C5_10  and  C6_13 
REMARK    6  A    between atoms: C6_13  and  C7_14 
REMARK    7  A    between atoms: C6_13  and  N3_19 
REMARK    8  A    between atoms: C7_14  and  C8_15 
REMARK    9  A    between atoms: C8_15  and  C9_16 
REMARK       I    between atoms: N3_19  and  C10_21 
REMARK   10  A    between atoms: C10_21  and  C11_23 
REMARK   11  A    between atoms: C23_38  and  O8_39 
ROOT
HETATM    1  N3  UNL     1     -64.087  11.639   7.683  1.00  0.00    -0.349 N 
ATOM      2  H3  UNL     1     -64.191  11.844   8.677  1.00  0.00     0.163 HD
HETATM    3  C10 UNL     1     -64.953  10.654   7.142  1.00  0.00     0.223 C 
HETATM    4  O5  UNL     1     -64.717  10.504   5.919  1.00  0.00    -0.273 OA
ENDROOT
BRANCH   1   5
HETATM    5  C6  UNL     1     -63.082  12.374   6.974  1.00  0.00     0.159 C 
BRANCH   5   6
HETATM    6  C5  UNL     1     -61.785  12.242   7.663  1.00  0.00     0.135 C 
BRANCH   6   7
HETATM    7  N2  UNL     1     -61.530  11.965   9.007  1.00  0.00    -0.360 N 
ATOM      8  H2  UNL     1     -61.730  12.673   9.714  1.00  0.00     0.162 HD
BRANCH   7   9
HETATM    9  C3  UNL     1     -60.984  10.680   9.412  1.00  0.00     0.171 C 
HETATM   10  C4  UNL     1     -61.501  10.285  10.787  1.00  0.00     0.042 C 
BRANCH   9  11
HETATM   11  C2  UNL     1     -59.499  10.769   9.549  1.00  0.00     0.239 C 
HETATM   12  N1  UNL     1     -58.929  11.010  10.816  1.00  0.00    -0.364 N 
HETATM   13  C1  UNL     1     -57.506  11.102  10.976  1.00  0.00     0.149 C 
ATOM     14  H1  UNL     1     -59.536  11.121  11.628  1.00  0.00     0.161 HD
HETATM   15  O1  UNL     1     -58.791  10.625   8.515  1.00  0.00    -0.271 OA
ENDBRANCH   9  11
ENDBRANCH   7   9
ENDBRANCH   6   7
BRANCH   6  16
HETATM   16  O2  UNL     1     -60.701  12.391   6.945  1.00  0.00    -0.348 OA
ATOM     17  H2  UNL     1     -60.846  12.856   6.130  1.00  0.00     0.219 HD
ENDBRANCH   6  16
ENDBRANCH   5   6
BRANCH   5  18
HETATM   18  C7  UNL     1     -63.454  13.721   6.544  1.00  0.00     0.044 C 
BRANCH  18  19
HETATM   19  C8  UNL     1     -64.800  14.127   7.084  1.00  0.00     0.116 C 
BRANCH  19  20
HETATM   20  C9  UNL     1     -65.727  14.421   5.950  1.00  0.00     0.172 C 
HETATM   21  O3  UNL     1     -65.868  13.539   5.070  1.00  0.00    -0.648 OA
HETATM   22  O4  UNL     1     -66.408  15.621   5.872  1.00  0.00    -0.648 OA
ENDBRANCH  19  20
ENDBRANCH  18  19
ENDBRANCH   5  18
ENDBRANCH   1   5
BRANCH   3  23
HETATM   23  C11 UNL     1     -65.911  10.003   7.990  1.00  0.00     0.088 C 
HETATM   24  C12 UNL     1     -67.408  10.263   7.795  1.00  0.00     0.006 C 
HETATM   25  C13 UNL     1     -67.782  10.719   6.428  1.00  0.00     0.011 C 
HETATM   26  C14 UNL     1     -67.458  11.174   8.940  1.00  0.00    -0.002 C 
HETATM   27  C15 UNL     1     -67.551  12.529   8.500  1.00  0.00     0.019 C 
HETATM   28  C16 UNL     1     -66.261  10.358   9.313  1.00  0.00     0.019 C 
HETATM   29  C23 UNL     1     -68.162  10.983  10.229  1.00  0.00     0.084 C 
HETATM   30  C17 UNL     1     -65.714  11.025  10.444  1.00  0.00    -0.035 C 
HETATM   31  C18 UNL     1     -64.946  12.247  10.379  1.00  0.00     0.016 C 
HETATM   32  C19 UNL     1     -64.843  10.034  11.247  1.00  0.00     0.016 C 
HETATM   33  C20 UNL     1     -67.028  11.127  11.242  1.00  0.00     0.044 C 
HETATM   34  C21 UNL     1     -67.195  12.336  12.035  1.00  0.00     0.148 C 
HETATM   35  S1  UNL     1     -68.973  12.232  12.315  1.00  0.00     0.147 S 
HETATM   36  O6  UNL     1     -69.319  11.106  13.200  1.00  0.00    -0.228 OA
HETATM   37  O7  UNL     1     -69.539  13.539  12.711  1.00  0.00    -0.228 OA
HETATM   38  C22 UNL     1     -69.288  11.855  10.580  1.00  0.00     0.179 C 
BRANCH  29  39
HETATM   39  O8  UNL     1     -68.653   9.653  10.218  1.00  0.00    -0.388 OA
ATOM     40  H8  UNL     1     -69.207   9.582   9.449  1.00  0.00     0.210 HD
ENDBRANCH  29  39
ENDBRANCH   3  23
TORSDOF 11
ENDMDL
