MODEL 1
REMARK VINA RESULT: -6.510031413      0.000      0.000
REMARK  8 active torsions:
REMARK  status: ('A' for Active; 'I' for Inactive)
REMARK    1  A    between atoms: C2_2  and  C3_3 
REMARK    2  A    between atoms: C3_3  and  C4_4 
REMARK    3  A    between atoms: C4_4  and  C5_5 
REMARK    4  A    between atoms: C8_11  and  C9_12 
REMARK       I    between atoms: C9_12  and  N2_14 
REMARK    5  A    between atoms: C11_19  and  O3_20 
REMARK    6  A    between atoms: C12_22  and  C13_23 
REMARK    7  A    between atoms: C13_23  and  C14_24 
REMARK    8  A    between atoms: C23_36  and  C24_37 
ROOT
HETATM    1  C5  UNL     1     -64.453  13.080   9.407  1.00  0.00     0.176 C 
HETATM    2  N1  UNL     1     -64.883  11.705   9.577  1.00  0.00    -0.348 N 
ATOM      3  H1  UNL     1     -64.945  11.343  10.528  1.00  0.00     0.163 HD
HETATM    4  C6  UNL     1     -65.225  10.830   8.521  1.00  0.00     0.220 C 
HETATM    5  O1  UNL     1     -65.227   9.595   8.803  1.00  0.00    -0.274 OA
HETATM    6  C7  UNL     1     -65.576  11.130   7.146  1.00  0.00     0.137 C 
HETATM    7  C8  UNL     1     -67.016  11.443   6.850  1.00  0.00     0.184 C 
HETATM    8  N3  UNL     1     -67.820  10.241   6.798  1.00  0.00    -0.360 N 
ATOM      9  H3  UNL     1     -67.812   9.780   5.889  1.00  0.00     0.162 HD
HETATM   10  C11 UNL     1     -68.595   9.599   7.742  1.00  0.00     0.130 C 
HETATM   11  C12 UNL     1     -69.770  10.018   8.530  1.00  0.00     0.108 C 
HETATM   12  C16 UNL     1     -69.814   9.361   9.883  1.00  0.00     0.054 C 
HETATM   13  C17 UNL     1     -68.821   9.850  10.856  1.00  0.00    -0.028 C 
HETATM   14  C18 UNL     1     -68.192  10.927  11.256  1.00  0.00    -0.022 C 
HETATM   15  C19 UNL     1     -68.137  12.402  10.905  1.00  0.00     0.060 C 
HETATM   16  C20 UNL     1     -69.519  12.875  10.868  1.00  0.00     0.090 C 
HETATM   17  C21 UNL     1     -69.857  14.265  11.243  1.00  0.00     0.033 C 
HETATM   18  N4  UNL     1     -70.055  12.545   9.531  1.00  0.00    -0.355 N 
ATOM     19  H4  UNL     1     -70.629  13.311   9.176  1.00  0.00     0.162 HD
HETATM   20  C22 UNL     1     -70.011  11.481   8.594  1.00  0.00     0.235 C 
HETATM   21  O4  UNL     1     -70.253  11.864   7.397  1.00  0.00    -0.272 OA
HETATM   22  C23 UNL     1     -67.091  13.114  11.663  1.00  0.00     0.155 C 
HETATM   23  N5  UNL     1     -66.319  14.075  10.912  1.00  0.00    -0.348 N 
ATOM     24  H5  UNL     1     -66.804  14.953  10.727  1.00  0.00     0.163 HD
HETATM   25  C25 UNL     1     -65.021  14.010  10.393  1.00  0.00     0.241 C 
HETATM   26  O6  UNL     1     -64.192  14.903  10.843  1.00  0.00    -0.271 OA
ENDROOT
BRANCH   7  27
HETATM   27  C9  UNL     1     -66.977  12.088   5.472  1.00  0.00     0.240 C 
HETATM   28  O2  UNL     1     -67.187  13.331   5.362  1.00  0.00    -0.271 OA
HETATM   29  N2  UNL     1     -66.707  11.305   4.333  1.00  0.00    -0.364 N 
HETATM   30  C10 UNL     1     -66.659  11.869   3.007  1.00  0.00     0.149 C 
ATOM     31  H2  UNL     1     -66.541  10.305   4.450  1.00  0.00     0.161 HD
ENDBRANCH   7  27
BRANCH  10  32
HETATM   32  O3  UNL     1     -68.259   8.374   8.023  1.00  0.00    -0.349 OA
ATOM     33  H3  UNL     1     -68.669   7.697   7.499  1.00  0.00     0.219 HD
ENDBRANCH  10  32
BRANCH  11  34
HETATM   34  C13 UNL     1     -71.051   9.507   7.830  1.00  0.00     0.028 C 
BRANCH  34  35
HETATM   35  C14 UNL     1     -71.775   8.468   8.592  1.00  0.00    -0.003 C 
HETATM   36  C15 UNL     1     -71.744   7.192   7.735  1.00  0.00     0.005 C 
ENDBRANCH  34  35
ENDBRANCH  11  34
BRANCH   1  37
HETATM   37  C4  UNL     1     -62.922  13.147   9.414  1.00  0.00     0.035 C 
BRANCH  37  38
HETATM   38  C3  UNL     1     -62.266  11.949   9.995  1.00  0.00     0.002 C 
BRANCH  38  39
HETATM   39  C2  UNL     1     -61.342  11.343   8.930  1.00  0.00    -0.004 C 
HETATM   40  C1  UNL     1     -61.618   9.886   8.731  1.00  0.00     0.005 C 
ENDBRANCH  38  39
ENDBRANCH  37  38
ENDBRANCH   1  37
BRANCH  22  41
HETATM   41  C24 UNL     1     -67.645  13.799  12.900  1.00  0.00     0.257 C 
HETATM   42  O5  UNL     1     -67.882  13.187  13.912  1.00  0.00    -0.305 OA
ENDBRANCH  22  41
TORSDOF 8
ENDMDL
MODEL 2
REMARK VINA RESULT: -6.368664667      1.900      7.345
REMARK  8 active torsions:
REMARK  status: ('A' for Active; 'I' for Inactive)
REMARK    1  A    between atoms: C2_2  and  C3_3 
REMARK    2  A    between atoms: C3_3  and  C4_4 
REMARK    3  A    between atoms: C4_4  and  C5_5 
REMARK    4  A    between atoms: C8_11  and  C9_12 
REMARK       I    between atoms: C9_12  and  N2_14 
REMARK    5  A    between atoms: C11_19  and  O3_20 
REMARK    6  A    between atoms: C12_22  and  C13_23 
REMARK    7  A    between atoms: C13_23  and  C14_24 
REMARK    8  A    between atoms: C23_36  and  C24_37 
ROOT
HETATM    1  C5  UNL     1     -69.473  12.286   7.197  1.00  0.00     0.176 C 
HETATM    2  N1  UNL     1     -68.615  11.124   7.326  1.00  0.00    -0.348 N 
ATOM      3  H1  UNL     1     -68.307  10.667   6.468  1.00  0.00     0.163 HD
HETATM    4  C6  UNL     1     -68.174  10.577   8.552  1.00  0.00     0.220 C 
HETATM    5  O1  UNL     1     -67.745   9.386   8.507  1.00  0.00    -0.274 OA
HETATM    6  C7  UNL     1     -68.136  11.176   9.873  1.00  0.00     0.137 C 
HETATM    7  C8  UNL     1     -66.926  11.990  10.233  1.00  0.00     0.184 C 
HETATM    8  N3  UNL     1     -65.803  11.145  10.578  1.00  0.00    -0.360 N 
ATOM      9  H3  UNL     1     -65.797  10.846  11.554  1.00  0.00     0.162 HD
HETATM   10  C11 UNL     1     -64.738  10.666   9.844  1.00  0.00     0.130 C 
HETATM   11  C12 UNL     1     -63.652  11.331   9.099  1.00  0.00     0.108 C 
HETATM   12  C16 UNL     1     -63.209  10.535   7.901  1.00  0.00     0.054 C 
HETATM   13  C17 UNL     1     -64.153  10.517   6.770  1.00  0.00    -0.028 C 
HETATM   14  C18 UNL     1     -65.022  11.252   6.122  1.00  0.00    -0.022 C 
HETATM   15  C19 UNL     1     -65.585  12.659   6.186  1.00  0.00     0.060 C 
HETATM   16  C20 UNL     1     -64.441  13.565   6.256  1.00  0.00     0.090 C 
HETATM   17  C21 UNL     1     -64.504  14.917   5.661  1.00  0.00     0.033 C 
HETATM   18  N4  UNL     1     -64.028  13.633   7.674  1.00  0.00    -0.355 N 
ATOM     19  H4  UNL     1     -63.780  14.589   7.929  1.00  0.00     0.162 HD
HETATM   20  C22 UNL     1     -63.873  12.764   8.786  1.00  0.00     0.235 C 
HETATM   21  O4  UNL     1     -63.938  13.377   9.907  1.00  0.00    -0.272 OA
HETATM   22  C23 UNL     1     -66.680  12.863   5.218  1.00  0.00     0.155 C 
HETATM   23  N5  UNL     1     -67.814  13.612   5.706  1.00  0.00    -0.348 N 
ATOM     24  H5  UNL     1     -67.660  14.618   5.766  1.00  0.00     0.163 HD
HETATM   25  C25 UNL     1     -69.087  13.196   6.110  1.00  0.00     0.241 C 
HETATM   26  O6  UNL     1     -70.079  13.686   5.430  1.00  0.00    -0.271 OA
ENDROOT
BRANCH   7  27
HETATM   27  C9  UNL     1     -67.363  12.780  11.457  1.00  0.00     0.240 C 
HETATM   28  O2  UNL     1     -66.724  13.822  11.784  1.00  0.00    -0.271 OA
HETATM   29  N2  UNL     1     -68.471  12.353  12.215  1.00  0.00    -0.364 N 
HETATM   30  C10 UNL     1     -68.924  13.068  13.382  1.00  0.00     0.149 C 
ATOM     31  H2  UNL     1     -68.969  11.510  11.928  1.00  0.00     0.161 HD
ENDBRANCH   7  27
BRANCH  10  32
HETATM   32  O3  UNL     1     -64.631   9.371   9.767  1.00  0.00    -0.349 OA
ATOM     33  H3  UNL     1     -63.762   9.014   9.909  1.00  0.00     0.219 HD
ENDBRANCH  10  32
BRANCH  11  34
HETATM   34  C13 UNL     1     -62.390  11.384   9.993  1.00  0.00     0.028 C 
BRANCH  34  35
HETATM   35  C14 UNL     1     -61.273  10.551   9.501  1.00  0.00    -0.003 C 
HETATM   36  C15 UNL     1     -60.049  10.905  10.362  1.00  0.00     0.005 C 
ENDBRANCH  34  35
ENDBRANCH  11  34
BRANCH   1  37
HETATM   37  C4  UNL     1     -70.930  11.838   7.042  1.00  0.00     0.035 C 
BRANCH  37  38
HETATM   38  C3  UNL     1     -71.088  10.465   6.502  1.00  0.00     0.002 C 
BRANCH  38  39
HETATM   39  C2  UNL     1     -71.787   9.607   7.566  1.00  0.00    -0.004 C 
HETATM   40  C1  UNL     1     -71.081   8.303   7.767  1.00  0.00     0.005 C 
ENDBRANCH  38  39
ENDBRANCH  37  38
ENDBRANCH   1  37
BRANCH  22  41
HETATM   41  C24 UNL     1     -66.195  13.504   3.930  1.00  0.00     0.257 C 
HETATM   42  O5  UNL     1     -66.202  12.905   2.883  1.00  0.00    -0.305 OA
ENDBRANCH  22  41
TORSDOF 8
ENDMDL
MODEL 3
REMARK VINA RESULT: -6.331439791      1.379      1.483
REMARK  8 active torsions:
REMARK  status: ('A' for Active; 'I' for Inactive)
REMARK    1  A    between atoms: C2_2  and  C3_3 
REMARK    2  A    between atoms: C3_3  and  C4_4 
REMARK    3  A    between atoms: C4_4  and  C5_5 
REMARK    4  A    between atoms: C8_11  and  C9_12 
REMARK       I    between atoms: C9_12  and  N2_14 
REMARK    5  A    between atoms: C11_19  and  O3_20 
REMARK    6  A    between atoms: C12_22  and  C13_23 
REMARK    7  A    between atoms: C13_23  and  C14_24 
REMARK    8  A    between atoms: C23_36  and  C24_37 
ROOT
HETATM    1  C5  UNL     1     -63.538  12.733   8.530  1.00  0.00     0.176 C 
HETATM    2  N1  UNL     1     -64.221  11.562   9.046  1.00  0.00    -0.348 N 
ATOM      3  H1  UNL     1     -64.354  11.500  10.056  1.00  0.00     0.163 HD
HETATM    4  C6  UNL     1     -64.715  10.502   8.255  1.00  0.00     0.220 C 
HETATM    5  O1  UNL     1     -64.953   9.417   8.866  1.00  0.00    -0.274 OA
HETATM    6  C7  UNL     1     -64.997  10.460   6.832  1.00  0.00     0.137 C 
HETATM    7  C8  UNL     1     -66.350  10.930   6.378  1.00  0.00     0.184 C 
HETATM    8  N3  UNL     1     -67.366   9.927   6.613  1.00  0.00    -0.360 N 
ATOM      9  H3  UNL     1     -67.441   9.235   5.868  1.00  0.00     0.162 HD
HETATM   10  C11 UNL     1     -68.254   9.727   7.650  1.00  0.00     0.130 C 
HETATM   11  C12 UNL     1     -69.332  10.555   8.223  1.00  0.00     0.108 C 
HETATM   12  C16 UNL     1     -69.507  10.325   9.700  1.00  0.00     0.054 C 
HETATM   13  C17 UNL     1     -68.444  10.882  10.557  1.00  0.00    -0.028 C 
HETATM   14  C18 UNL     1     -67.626  11.897  10.680  1.00  0.00    -0.022 C 
HETATM   15  C19 UNL     1     -67.291  13.177   9.939  1.00  0.00     0.060 C 
HETATM   16  C20 UNL     1     -68.558  13.861   9.694  1.00  0.00     0.090 C 
HETATM   17  C21 UNL     1     -68.630  15.337   9.650  1.00  0.00     0.033 C 
HETATM   18  N4  UNL     1     -69.141  13.271   8.471  1.00  0.00    -0.355 N 
ATOM     19  H4  UNL     1     -69.558  13.995   7.886  1.00  0.00     0.162 HD
HETATM   20  C22 UNL     1     -69.293  11.995   7.867  1.00  0.00     0.235 C 
HETATM   21  O4  UNL     1     -69.452  12.062   6.599  1.00  0.00    -0.272 OA
HETATM   22  C23 UNL     1     -66.134  13.875  10.532  1.00  0.00     0.155 C 
HETATM   23  N5  UNL     1     -65.190  14.430   9.591  1.00  0.00    -0.348 N 
ATOM     24  H5  UNL     1     -65.499  15.292   9.143  1.00  0.00     0.163 HD
HETATM   25  C25 UNL     1     -63.925  13.989   9.186  1.00  0.00     0.241 C 
HETATM   26  O6  UNL     1     -62.945  14.808   9.420  1.00  0.00    -0.271 OA
ENDROOT
BRANCH   7  27
HETATM   27  C9  UNL     1     -66.182  11.143   4.881  1.00  0.00     0.240 C 
HETATM   28  O2  UNL     1     -65.755  10.193   4.163  1.00  0.00    -0.271 OA
HETATM   29  N2  UNL     1     -66.503  12.386   4.304  1.00  0.00    -0.364 N 
HETATM   30  C10 UNL     1     -66.363  12.638   2.891  1.00  0.00     0.149 C 
ATOM     31  H2  UNL     1     -66.846  13.135   4.906  1.00  0.00     0.161 HD
ENDBRANCH   7  27
BRANCH  10  32
HETATM   32  O3  UNL     1     -68.156   8.591   8.278  1.00  0.00    -0.349 OA
ATOM     33  H3  UNL     1     -68.908   8.334   8.797  1.00  0.00     0.219 HD
ENDBRANCH  10  32
BRANCH  11  34
HETATM   34  C13 UNL     1     -70.683  10.106   7.618  1.00  0.00     0.028 C 
BRANCH  34  35
HETATM   35  C14 UNL     1     -71.528   9.329   8.549  1.00  0.00    -0.003 C 
HETATM   36  C15 UNL     1     -71.662   7.920   7.950  1.00  0.00     0.005 C 
ENDBRANCH  34  35
ENDBRANCH  11  34
BRANCH   1  37
HETATM   37  C4  UNL     1     -62.022  12.523   8.607  1.00  0.00     0.035 C 
BRANCH  37  38
HETATM   38  C3  UNL     1     -61.420  11.988   7.360  1.00  0.00     0.002 C 
BRANCH  38  39
HETATM   39  C2  UNL     1     -60.400  10.907   7.743  1.00  0.00    -0.004 C 
HETATM   40  C1  UNL     1     -61.076   9.628   8.125  1.00  0.00     0.005 C 
ENDBRANCH  38  39
ENDBRANCH  37  38
ENDBRANCH   1  37
BRANCH  22  41
HETATM   41  C24 UNL     1     -66.554  14.968  11.497  1.00  0.00     0.257 C 
HETATM   42  O5  UNL     1     -66.921  14.717  12.619  1.00  0.00    -0.305 OA
ENDBRANCH  22  41
TORSDOF 8
ENDMDL
MODEL 4
REMARK VINA RESULT: -6.294955016      2.750      6.179
REMARK  8 active torsions:
REMARK  status: ('A' for Active; 'I' for Inactive)
REMARK    1  A    between atoms: C2_2  and  C3_3 
REMARK    2  A    between atoms: C3_3  and  C4_4 
REMARK    3  A    between atoms: C4_4  and  C5_5 
REMARK    4  A    between atoms: C8_11  and  C9_12 
REMARK       I    between atoms: C9_12  and  N2_14 
REMARK    5  A    between atoms: C11_19  and  O3_20 
REMARK    6  A    between atoms: C12_22  and  C13_23 
REMARK    7  A    between atoms: C13_23  and  C14_24 
REMARK    8  A    between atoms: C23_36  and  C24_37 
ROOT
HETATM    1  C5  UNL     1     -68.831  14.130   7.029  1.00  0.00     0.176 C 
HETATM    2  N1  UNL     1     -67.546  14.782   7.194  1.00  0.00    -0.348 N 
ATOM      3  H1  UNL     1     -67.466  15.490   7.923  1.00  0.00     0.163 HD
HETATM    4  C6  UNL     1     -66.397  14.507   6.419  1.00  0.00     0.220 C 
HETATM    5  O1  UNL     1     -65.488  15.390   6.443  1.00  0.00    -0.274 OA
HETATM    6  C7  UNL     1     -66.091  13.357   5.590  1.00  0.00     0.137 C 
HETATM    7  C8  UNL     1     -65.465  12.166   6.257  1.00  0.00     0.184 C 
HETATM    8  N3  UNL     1     -64.053  12.374   6.496  1.00  0.00    -0.360 N 
ATOM      9  H3  UNL     1     -63.462  12.142   5.698  1.00  0.00     0.162 HD
HETATM   10  C11 UNL     1     -63.352  12.825   7.596  1.00  0.00     0.130 C 
HETATM   11  C12 UNL     1     -63.231  12.332   8.981  1.00  0.00     0.108 C 
HETATM   12  C16 UNL     1     -63.027  13.448   9.969  1.00  0.00     0.054 C 
HETATM   13  C17 UNL     1     -64.212  14.285  10.231  1.00  0.00    -0.028 C 
HETATM   14  C18 UNL     1     -65.516  14.242  10.350  1.00  0.00    -0.022 C 
HETATM   15  C19 UNL     1     -66.626  13.211  10.279  1.00  0.00     0.060 C 
HETATM   16  C20 UNL     1     -66.224  12.104  11.144  1.00  0.00     0.090 C 
HETATM   17  C21 UNL     1     -67.231  11.298  11.866  1.00  0.00     0.033 C 
HETATM   18  N4  UNL     1     -65.327  11.237  10.351  1.00  0.00    -0.355 N 
ATOM     19  H4  UNL     1     -65.525  10.253  10.535  1.00  0.00     0.162 HD
HETATM   20  C22 UNL     1     -64.271  11.366   9.411  1.00  0.00     0.235 C 
HETATM   21  O4  UNL     1     -64.138  10.331   8.671  1.00  0.00    -0.272 OA
HETATM   22  C23 UNL     1     -67.963  13.827  10.376  1.00  0.00     0.155 C 
HETATM   23  N5  UNL     1     -68.963  13.294   9.482  1.00  0.00    -0.348 N 
ATOM     24  H5  UNL     1     -69.342  12.391   9.766  1.00  0.00     0.163 HD
HETATM   25  C25 UNL     1     -69.502  13.801   8.295  1.00  0.00     0.241 C 
HETATM   26  O6  UNL     1     -70.783  14.012   8.305  1.00  0.00    -0.271 OA
ENDROOT
BRANCH   7  27
HETATM   27  C9  UNL     1     -65.649  11.040   5.250  1.00  0.00     0.240 C 
HETATM   28  O2  UNL     1     -65.029   9.950   5.418  1.00  0.00    -0.271 OA
HETATM   29  N2  UNL     1     -66.504  11.214   4.145  1.00  0.00    -0.364 N 
HETATM   30  C10 UNL     1     -66.712  10.177   3.164  1.00  0.00     0.149 C 
ATOM     31  H2  UNL     1     -66.992  12.103   4.034  1.00  0.00     0.161 HD
ENDBRANCH   7  27
BRANCH  10  32
HETATM   32  O3  UNL     1     -62.639  13.900   7.420  1.00  0.00    -0.349 OA
ATOM     33  H3  UNL     1     -62.946  14.682   7.864  1.00  0.00     0.219 HD
ENDBRANCH  10  32
BRANCH  11  34
HETATM   34  C13 UNL     1     -61.936  11.492   9.102  1.00  0.00     0.028 C 
BRANCH  34  35
HETATM   35  C14 UNL     1     -61.351  11.487  10.459  1.00  0.00    -0.003 C 
HETATM   36  C15 UNL     1     -59.936  10.902  10.325  1.00  0.00     0.005 C 
ENDBRANCH  34  35
ENDBRANCH  11  34
BRANCH   1  37
HETATM   37  C4  UNL     1     -69.737  14.990   6.141  1.00  0.00     0.035 C 
BRANCH  37  38
HETATM   38  C3  UNL     1     -69.740  14.589   4.712  1.00  0.00     0.002 C 
BRANCH  38  39
HETATM   39  C2  UNL     1     -69.719  13.056   4.642  1.00  0.00    -0.004 C 
HETATM   40  C1  UNL     1     -69.773  12.572   3.227  1.00  0.00     0.005 C 
ENDBRANCH  38  39
ENDBRANCH  37  38
ENDBRANCH   1  37
BRANCH  22  41
HETATM   41  C24 UNL     1     -68.510  13.790  11.792  1.00  0.00     0.257 C 
HETATM   42  O5  UNL     1     -69.695  13.829  12.015  1.00  0.00    -0.305 OA
ENDBRANCH  22  41
TORSDOF 8
ENDMDL
MODEL 5
REMARK VINA RESULT: -6.252724893      4.293      6.247
REMARK  8 active torsions:
REMARK  status: ('A' for Active; 'I' for Inactive)
REMARK    1  A    between atoms: C2_2  and  C3_3 
REMARK    2  A    between atoms: C3_3  and  C4_4 
REMARK    3  A    between atoms: C4_4  and  C5_5 
REMARK    4  A    between atoms: C8_11  and  C9_12 
REMARK       I    between atoms: C9_12  and  N2_14 
REMARK    5  A    between atoms: C11_19  and  O3_20 
REMARK    6  A    between atoms: C12_22  and  C13_23 
REMARK    7  A    between atoms: C13_23  and  C14_24 
REMARK    8  A    between atoms: C23_36  and  C24_37 
ROOT
HETATM    1  C5  UNL     1     -70.256  12.379  12.583  1.00  0.00     0.176 C 
HETATM    2  N1  UNL     1     -69.454  11.177  12.701  1.00  0.00    -0.348 N 
ATOM      3  H1  UNL     1     -69.087  10.943  13.624  1.00  0.00     0.163 HD
HETATM    4  C6  UNL     1     -69.142  10.306  11.633  1.00  0.00     0.220 C 
HETATM    5  O1  UNL     1     -68.161   9.526  11.822  1.00  0.00    -0.274 OA
HETATM    6  C7  UNL     1     -69.779  10.163  10.338  1.00  0.00     0.137 C 
HETATM    7  C8  UNL     1     -70.965   9.246  10.244  1.00  0.00     0.184 C 
HETATM    8  N3  UNL     1     -70.560   7.857  10.203  1.00  0.00    -0.360 N 
ATOM      9  H3  UNL     1     -70.325   7.525   9.267  1.00  0.00     0.162 HD
HETATM   10  C11 UNL     1     -70.430   6.896  11.184  1.00  0.00     0.130 C 
HETATM   11  C12 UNL     1     -71.384   6.302  12.139  1.00  0.00     0.108 C 
HETATM   12  C16 UNL     1     -70.727   5.910  13.435  1.00  0.00     0.054 C 
HETATM   13  C17 UNL     1     -70.344   7.030  14.313  1.00  0.00    -0.028 C 
HETATM   14  C18 UNL     1     -70.717   8.221  14.711  1.00  0.00    -0.022 C 
HETATM   15  C19 UNL     1     -71.857   9.191  14.465  1.00  0.00     0.060 C 
HETATM   16  C20 UNL     1     -73.095   8.433  14.634  1.00  0.00     0.090 C 
HETATM   17  C21 UNL     1     -74.320   9.081  15.148  1.00  0.00     0.033 C 
HETATM   18  N4  UNL     1     -73.361   7.747  13.352  1.00  0.00    -0.355 N 
ATOM     19  H4  UNL     1     -74.356   7.781  13.127  1.00  0.00     0.162 HD
HETATM   20  C22 UNL     1     -72.646   7.056  12.339  1.00  0.00     0.235 C 
HETATM   21  O4  UNL     1     -73.253   7.059  11.213  1.00  0.00    -0.272 OA
HETATM   22  C23 UNL     1     -71.640  10.485  15.141  1.00  0.00     0.155 C 
HETATM   23  N5  UNL     1     -71.990  11.656  14.374  1.00  0.00    -0.348 N 
ATOM     24  H5  UNL     1     -72.992  11.838  14.315  1.00  0.00     0.163 HD
HETATM   25  C25 UNL     1     -71.193  12.586  13.697  1.00  0.00     0.241 C 
HETATM   26  O6  UNL     1     -71.292  13.814  14.106  1.00  0.00    -0.271 OA
ENDROOT
BRANCH   7  27
HETATM   27  C9  UNL     1     -71.619   9.624   8.924  1.00  0.00     0.240 C 
HETATM   28  O2  UNL     1     -71.102  10.534   8.212  1.00  0.00    -0.271 OA
HETATM   29  N2  UNL     1     -72.789   8.964   8.500  1.00  0.00    -0.364 N 
HETATM   30  C10 UNL     1     -73.446   9.285   7.257  1.00  0.00     0.149 C 
ATOM     31  H2  UNL     1     -73.185   8.233   9.092  1.00  0.00     0.161 HD
ENDBRANCH   7  27
BRANCH  10  32
HETATM   32  O3  UNL     1     -69.243   6.383  11.331  1.00  0.00    -0.349 OA
ATOM     33  H3  UNL     1     -69.210   5.498  11.673  1.00  0.00     0.219 HD
ENDBRANCH  10  32
BRANCH  11  34
HETATM   34  C13 UNL     1     -71.895   4.958  11.565  1.00  0.00     0.028 C 
BRANCH  34  35
HETATM   35  C14 UNL     1     -71.556   3.784  12.396  1.00  0.00    -0.003 C 
HETATM   36  C15 UNL     1     -72.845   3.377  13.129  1.00  0.00     0.005 C 
ENDBRANCH  34  35
ENDBRANCH  11  34
BRANCH   1  37
HETATM   37  C4  UNL     1     -69.342  13.596  12.407  1.00  0.00     0.035 C 
BRANCH  37  38
HETATM   38  C3  UNL     1     -67.978  13.415  12.963  1.00  0.00     0.002 C 
BRANCH  38  39
HETATM   39  C2  UNL     1     -66.965  13.916  11.925  1.00  0.00    -0.004 C 
HETATM   40  C1  UNL     1     -66.453  12.797  11.075  1.00  0.00     0.005 C 
ENDBRANCH  38  39
ENDBRANCH  37  38
ENDBRANCH   1  37
BRANCH  22  41
HETATM   41  C24 UNL     1     -72.346  10.557  16.483  1.00  0.00     0.257 C 
HETATM   42  O5  UNL     1     -72.532  11.607  17.046  1.00  0.00    -0.305 OA
ENDBRANCH  22  41
TORSDOF 8
ENDMDL
