MODEL 1
REMARK VINA RESULT: -6.606071088      0.000      0.000
REMARK  7 active torsions:
REMARK  status: ('A' for Active; 'I' for Inactive)
REMARK    1  A    between atoms: C2_2  and  C3_3 
REMARK    2  A    between atoms: C3_3  and  C5_5 
REMARK    3  A    between atoms: C7_10  and  C8_11 
REMARK    4  A    between atoms: C8_11  and  C10_13 
REMARK    5  A    between atoms: C13_19  and  C14_20 
REMARK    6  A    between atoms: C16_26  and  C17_27 
REMARK    7  A    between atoms: C17_27  and  C18_28 
ROOT
HETATM    1  C5  UNL     1     -66.514  12.005   4.530  1.00  0.00     0.202 C 
HETATM    2  N1  UNL     1     -66.386  13.180   5.368  1.00  0.00    -0.076 NA
HETATM    3  O1  UNL     1     -66.398  12.793   6.655  1.00  0.00    -0.204 OA
HETATM    4  C6  UNL     1     -66.088  13.308   7.844  1.00  0.00     0.300 C 
HETATM    5  O2  UNL     1     -66.569  14.366   8.402  1.00  0.00    -0.261 OA
HETATM    6  C7  UNL     1     -65.056  12.643   8.722  1.00  0.00     0.189 C 
HETATM    7  N2  UNL     1     -65.362  12.943  10.108  1.00  0.00    -0.345 N 
ATOM      8  H2  UNL     1     -64.963  13.800  10.493  1.00  0.00     0.163 HD
HETATM    9  C12 UNL     1     -66.154  12.169  10.974  1.00  0.00     0.248 C 
HETATM   10  O3  UNL     1     -66.770  12.755  11.890  1.00  0.00    -0.271 OA
HETATM   11  C13 UNL     1     -66.298  10.712  10.865  1.00  0.00     0.238 C 
HETATM   12  N3  UNL     1     -67.369  10.182  11.679  1.00  0.00    -0.340 N 
ATOM     13  H3  UNL     1     -67.210  10.166  12.686  1.00  0.00     0.163 HD
HETATM   14  C15 UNL     1     -68.608   9.686  11.229  1.00  0.00     0.241 C 
HETATM   15  O5  UNL     1     -69.273   8.850  11.894  1.00  0.00    -0.271 OA
HETATM   16  C16 UNL     1     -69.228  10.112   9.924  1.00  0.00     0.177 C 
HETATM   17  N4  UNL     1     -70.017   9.086   9.340  1.00  0.00    -0.348 N 
ATOM     18  H4  UNL     1     -70.606   8.527   9.957  1.00  0.00     0.163 HD
HETATM   19  C21 UNL     1     -70.038   8.787   7.940  1.00  0.00     0.219 C 
HETATM   20  O6  UNL     1     -71.134   8.562   7.366  1.00  0.00    -0.274 OA
HETATM   21  C22 UNL     1     -68.809   8.724   7.108  1.00  0.00     0.122 C 
HETATM   22  C23 UNL     1     -68.588  10.074   6.402  1.00  0.00     0.132 C 
HETATM   23  N5  UNL     1     -67.172  10.355   6.419  1.00  0.00    -0.359 N 
ATOM     24  H5  UNL     1     -66.702  10.202   7.311  1.00  0.00     0.162 HD
HETATM   25  C24 UNL     1     -66.358  10.810   5.372  1.00  0.00     0.239 C 
HETATM   26  O7  UNL     1     -65.329  10.091   5.101  1.00  0.00    -0.272 OA
ENDROOT
BRANCH   1  27
HETATM   27  C3  UNL     1     -67.802  12.041   3.752  1.00  0.00     0.012 C 
HETATM   28  C4  UNL     1     -67.373  12.353   2.300  1.00  0.00     0.012 C 
BRANCH  27  29
HETATM   29  C2  UNL     1     -68.613  13.243   4.182  1.00  0.00     0.002 C 
HETATM   30  C1  UNL     1     -70.070  12.982   4.375  1.00  0.00     0.005 C 
ENDBRANCH  27  29
ENDBRANCH   1  27
BRANCH   6  31
HETATM   31  C8  UNL     1     -63.711  13.221   8.391  1.00  0.00     0.014 C 
HETATM   32  C9  UNL     1     -62.968  12.570   7.288  1.00  0.00     0.012 C 
BRANCH  31  33
HETATM   33  C10 UNL     1     -62.799  13.253   9.616  1.00  0.00     0.002 C 
HETATM   34  C11 UNL     1     -61.814  12.106   9.535  1.00  0.00     0.005 C 
ENDBRANCH  31  33
ENDBRANCH   6  31
BRANCH  11  35
HETATM   35  C14 UNL     1     -65.029  10.092  11.348  1.00  0.00     0.266 C 
HETATM   36  O4  UNL     1     -64.104   9.818  10.600  1.00  0.00    -0.304 OA
ENDBRANCH  11  35
BRANCH  16  37
HETATM   37  C17 UNL     1     -69.977  11.390  10.024  1.00  0.00     0.038 C 
BRANCH  37  38
HETATM   38  C18 UNL     1     -69.406  12.615   9.451  1.00  0.00    -0.020 C 
HETATM   39  C19 UNL     1     -69.689  13.832  10.284  1.00  0.00     0.009 C 
HETATM   40  C20 UNL     1     -70.072  12.892   8.087  1.00  0.00     0.009 C 
ENDBRANCH  37  38
ENDBRANCH  16  37
TORSDOF 7
ENDMDL
MODEL 2
REMARK VINA RESULT: -6.544552690      0.738      1.184
REMARK  7 active torsions:
REMARK  status: ('A' for Active; 'I' for Inactive)
REMARK    1  A    between atoms: C2_2  and  C3_3 
REMARK    2  A    between atoms: C3_3  and  C5_5 
REMARK    3  A    between atoms: C7_10  and  C8_11 
REMARK    4  A    between atoms: C8_11  and  C10_13 
REMARK    5  A    between atoms: C13_19  and  C14_20 
REMARK    6  A    between atoms: C16_26  and  C17_27 
REMARK    7  A    between atoms: C17_27  and  C18_28 
ROOT
HETATM    1  C5  UNL     1     -66.451  12.020   4.563  1.00  0.00     0.202 C 
HETATM    2  N1  UNL     1     -66.317  13.193   5.404  1.00  0.00    -0.076 NA
HETATM    3  O1  UNL     1     -66.345  12.805   6.690  1.00  0.00    -0.204 OA
HETATM    4  C6  UNL     1     -66.040  13.316   7.881  1.00  0.00     0.300 C 
HETATM    5  O2  UNL     1     -66.516  14.379   8.436  1.00  0.00    -0.261 OA
HETATM    6  C7  UNL     1     -65.023  12.640   8.768  1.00  0.00     0.189 C 
HETATM    7  N2  UNL     1     -65.338  12.943  10.152  1.00  0.00    -0.345 N 
ATOM      8  H2  UNL     1     -64.933  13.795  10.541  1.00  0.00     0.163 HD
HETATM    9  C12 UNL     1     -66.146  12.176  11.011  1.00  0.00     0.248 C 
HETATM   10  O3  UNL     1     -66.764  12.768  11.921  1.00  0.00    -0.271 OA
HETATM   11  C13 UNL     1     -66.304  10.721  10.899  1.00  0.00     0.238 C 
HETATM   12  N3  UNL     1     -67.387  10.202  11.703  1.00  0.00    -0.340 N 
ATOM     13  H3  UNL     1     -67.238  10.183  12.711  1.00  0.00     0.163 HD
HETATM   14  C15 UNL     1     -68.628   9.718  11.242  1.00  0.00     0.241 C 
HETATM   15  O5  UNL     1     -69.308   8.889  11.900  1.00  0.00    -0.271 OA
HETATM   16  C16 UNL     1     -69.232  10.152   9.932  1.00  0.00     0.177 C 
HETATM   17  N4  UNL     1     -70.026   9.135   9.340  1.00  0.00    -0.348 N 
ATOM     18  H4  UNL     1     -70.627   8.581   9.952  1.00  0.00     0.163 HD
HETATM   19  C21 UNL     1     -70.038   8.836   7.939  1.00  0.00     0.219 C 
HETATM   20  O6  UNL     1     -71.131   8.624   7.356  1.00  0.00    -0.274 OA
HETATM   21  C22 UNL     1     -68.803   8.761   7.118  1.00  0.00     0.122 C 
HETATM   22  C23 UNL     1     -68.561  10.109   6.415  1.00  0.00     0.132 C 
HETATM   23  N5  UNL     1     -67.143  10.375   6.446  1.00  0.00    -0.359 N 
ATOM     24  H5  UNL     1     -66.682  10.217   7.341  1.00  0.00     0.162 HD
HETATM   25  C24 UNL     1     -66.315  10.822   5.406  1.00  0.00     0.239 C 
HETATM   26  O7  UNL     1     -65.290  10.094   5.143  1.00  0.00    -0.272 OA
ENDROOT
BRANCH   1  27
HETATM   27  C3  UNL     1     -67.731  12.070   3.774  1.00  0.00     0.012 C 
HETATM   28  C4  UNL     1     -67.678  10.822   2.863  1.00  0.00     0.012 C 
BRANCH  27  29
HETATM   29  C2  UNL     1     -67.689  13.245   2.824  1.00  0.00     0.002 C 
HETATM   30  C1  UNL     1     -66.663  13.144   1.744  1.00  0.00     0.005 C 
ENDBRANCH  27  29
ENDBRANCH   1  27
BRANCH   6  31
HETATM   31  C8  UNL     1     -63.669  13.204   8.450  1.00  0.00     0.014 C 
HETATM   32  C9  UNL     1     -62.986  12.645   7.261  1.00  0.00     0.012 C 
BRANCH  31  33
HETATM   33  C10 UNL     1     -62.717  13.080   9.638  1.00  0.00     0.002 C 
HETATM   34  C11 UNL     1     -61.695  12.002   9.348  1.00  0.00     0.005 C 
ENDBRANCH  31  33
ENDBRANCH   6  31
BRANCH  11  35
HETATM   35  C14 UNL     1     -65.046  10.087  11.393  1.00  0.00     0.266 C 
HETATM   36  O4  UNL     1     -64.095   9.857  10.663  1.00  0.00    -0.304 OA
ENDBRANCH  11  35
BRANCH  16  37
HETATM   37  C17 UNL     1     -69.968  11.438  10.026  1.00  0.00     0.038 C 
BRANCH  37  38
HETATM   38  C18 UNL     1     -70.306  11.989  11.345  1.00  0.00    -0.020 C 
HETATM   39  C19 UNL     1     -71.729  11.719  11.739  1.00  0.00     0.009 C 
HETATM   40  C20 UNL     1     -70.180  13.526  11.297  1.00  0.00     0.009 C 
ENDBRANCH  37  38
ENDBRANCH  16  37
TORSDOF 7
ENDMDL
MODEL 3
REMARK VINA RESULT: -6.066796356      2.305      6.094
REMARK  7 active torsions:
REMARK  status: ('A' for Active; 'I' for Inactive)
REMARK    1  A    between atoms: C2_2  and  C3_3 
REMARK    2  A    between atoms: C3_3  and  C5_5 
REMARK    3  A    between atoms: C7_10  and  C8_11 
REMARK    4  A    between atoms: C8_11  and  C10_13 
REMARK    5  A    between atoms: C13_19  and  C14_20 
REMARK    6  A    between atoms: C16_26  and  C17_27 
REMARK    7  A    between atoms: C17_27  and  C18_28 
ROOT
HETATM    1  C5  UNL     1     -63.264  12.171   8.627  1.00  0.00     0.202 C 
HETATM    2  N1  UNL     1     -64.019  11.217   7.839  1.00  0.00    -0.076 NA
HETATM    3  O1  UNL     1     -65.267  11.689   7.674  1.00  0.00    -0.204 OA
HETATM    4  C6  UNL     1     -66.319  11.443   6.895  1.00  0.00     0.300 C 
HETATM    5  O2  UNL     1     -66.971  10.338   6.763  1.00  0.00    -0.261 OA
HETATM    6  C7  UNL     1     -66.894  12.530   6.018  1.00  0.00     0.189 C 
HETATM    7  N2  UNL     1     -68.307  12.265   5.817  1.00  0.00    -0.345 N 
ATOM      8  H2  UNL     1     -68.556  11.665   5.031  1.00  0.00     0.163 HD
HETATM    9  C12 UNL     1     -69.367  12.756   6.600  1.00  0.00     0.248 C 
HETATM   10  O3  UNL     1     -70.406  12.068   6.682  1.00  0.00    -0.271 OA
HETATM   11  C13 UNL     1     -69.322  14.032   7.326  1.00  0.00     0.238 C 
HETATM   12  N3  UNL     1     -70.404  14.187   8.272  1.00  0.00    -0.340 N 
ATOM     13  H3  UNL     1     -71.330  14.357   7.881  1.00  0.00     0.163 HD
HETATM   14  C15 UNL     1     -70.314  14.130   9.678  1.00  0.00     0.241 C 
HETATM   15  O5  UNL     1     -71.147  14.708  10.423  1.00  0.00    -0.271 OA
HETATM   16  C16 UNL     1     -69.220  13.381  10.392  1.00  0.00     0.177 C 
HETATM   17  N4  UNL     1     -68.887  13.971  11.640  1.00  0.00    -0.348 N 
ATOM     18  H4  UNL     1     -69.649  14.318  12.222  1.00  0.00     0.163 HD
HETATM   19  C21 UNL     1     -67.550  14.108  12.133  1.00  0.00     0.219 C 
HETATM   20  O6  UNL     1     -67.298  13.844  13.336  1.00  0.00    -0.274 OA
HETATM   21  C22 UNL     1     -66.417  14.556  11.283  1.00  0.00     0.122 C 
HETATM   22  C23 UNL     1     -65.657  13.333  10.739  1.00  0.00     0.132 C 
HETATM   23  N5  UNL     1     -65.286  13.615   9.373  1.00  0.00    -0.359 N 
ATOM     24  H5  UNL     1     -66.019  14.018   8.790  1.00  0.00     0.162 HD
HETATM   25  C24 UNL     1     -64.051  13.409   8.742  1.00  0.00     0.239 C 
HETATM   26  O7  UNL     1     -63.522  14.437   8.183  1.00  0.00    -0.272 OA
ENDROOT
BRANCH   1  27
HETATM   27  C3  UNL     1     -62.865  11.576   9.950  1.00  0.00     0.012 C 
HETATM   28  C4  UNL     1     -61.318  11.593   9.935  1.00  0.00     0.012 C 
BRANCH  27  29
HETATM   29  C2  UNL     1     -63.234  10.110   9.971  1.00  0.00     0.002 C 
HETATM   30  C1  UNL     1     -64.193   9.718  11.046  1.00  0.00     0.005 C 
ENDBRANCH  27  29
ENDBRANCH   1  27
BRANCH   6  31
HETATM   31  C8  UNL     1     -66.202  12.479   4.687  1.00  0.00     0.014 C 
HETATM   32  C9  UNL     1     -65.799  13.779   4.105  1.00  0.00     0.012 C 
BRANCH  31  33
HETATM   33  C10 UNL     1     -67.044  11.741   3.648  1.00  0.00     0.002 C 
HETATM   34  C11 UNL     1     -66.332  10.469   3.241  1.00  0.00     0.005 C 
ENDBRANCH  31  33
ENDBRANCH   6  31
BRANCH  11  35
HETATM   35  C14 UNL     1     -69.453  15.131   6.324  1.00  0.00     0.266 C 
HETATM   36  O4  UNL     1     -69.354  14.940   5.122  1.00  0.00    -0.304 OA
ENDBRANCH  11  35
BRANCH  16  37
HETATM   37  C17 UNL     1     -69.501  11.929  10.527  1.00  0.00     0.038 C 
BRANCH  37  38
HETATM   38  C18 UNL     1     -68.458  10.952  10.191  1.00  0.00    -0.020 C 
HETATM   39  C19 UNL     1     -69.005   9.733   9.507  1.00  0.00     0.009 C 
HETATM   40  C20 UNL     1     -67.813  10.433  11.494  1.00  0.00     0.009 C 
ENDBRANCH  37  38
ENDBRANCH  16  37
TORSDOF 7
ENDMDL
MODEL 4
REMARK VINA RESULT: -6.059164090      2.185      5.779
REMARK  7 active torsions:
REMARK  status: ('A' for Active; 'I' for Inactive)
REMARK    1  A    between atoms: C2_2  and  C3_3 
REMARK    2  A    between atoms: C3_3  and  C5_5 
REMARK    3  A    between atoms: C7_10  and  C8_11 
REMARK    4  A    between atoms: C8_11  and  C10_13 
REMARK    5  A    between atoms: C13_19  and  C14_20 
REMARK    6  A    between atoms: C16_26  and  C17_27 
REMARK    7  A    between atoms: C17_27  and  C18_28 
ROOT
HETATM    1  C5  UNL     1     -68.860  11.927   4.649  1.00  0.00     0.202 C 
HETATM    2  N1  UNL     1     -68.743  10.856   5.618  1.00  0.00    -0.076 NA
HETATM    3  O1  UNL     1     -68.166  11.344   6.730  1.00  0.00    -0.204 OA
HETATM    4  C6  UNL     1     -68.007  10.978   8.001  1.00  0.00     0.300 C 
HETATM    5  O2  UNL     1     -67.441   9.913   8.457  1.00  0.00    -0.261 OA
HETATM    6  C7  UNL     1     -68.518  11.853   9.120  1.00  0.00     0.189 C 
HETATM    7  N2  UNL     1     -67.699  11.629  10.297  1.00  0.00    -0.345 N 
ATOM      8  H2  UNL     1     -67.984  10.872  10.918  1.00  0.00     0.163 HD
HETATM    9  C12 UNL     1     -66.551  12.353  10.664  1.00  0.00     0.248 C 
HETATM   10  O3  UNL     1     -65.672  11.765  11.328  1.00  0.00    -0.271 OA
HETATM   11  C13 UNL     1     -66.328  13.761  10.313  1.00  0.00     0.238 C 
HETATM   12  N3  UNL     1     -64.972  14.201  10.555  1.00  0.00    -0.340 N 
ATOM     13  H3  UNL     1     -64.700  14.323  11.530  1.00  0.00     0.163 HD
HETATM   14  C15 UNL     1     -63.986  14.478   9.587  1.00  0.00     0.241 C 
HETATM   15  O5  UNL     1     -63.030  15.264   9.815  1.00  0.00    -0.271 OA
HETATM   16  C16 UNL     1     -64.001  13.862   8.213  1.00  0.00     0.177 C 
HETATM   17  N4  UNL     1     -63.429  14.714   7.232  1.00  0.00    -0.348 N 
ATOM     18  H4  UNL     1     -62.588  15.234   7.483  1.00  0.00     0.163 HD
HETATM   19  C21 UNL     1     -63.958  14.890   5.913  1.00  0.00     0.219 C 
HETATM   20  O6  UNL     1     -63.179  14.909   4.926  1.00  0.00    -0.274 OA
HETATM   21  C22 UNL     1     -65.408  15.056   5.638  1.00  0.00     0.122 C 
HETATM   22  C23 UNL     1     -66.027  13.696   5.265  1.00  0.00     0.132 C 
HETATM   23  N5  UNL     1     -67.330  13.620   5.882  1.00  0.00    -0.359 N 
ATOM     24  H5  UNL     1     -67.375  13.912   6.858  1.00  0.00     0.162 HD
HETATM   25  C24 UNL     1     -68.542  13.199   5.316  1.00  0.00     0.239 C 
HETATM   26  O7  UNL     1     -69.518  14.030   5.384  1.00  0.00    -0.272 OA
ENDROOT
BRANCH   1  27
HETATM   27  C3  UNL     1     -68.016  11.646   3.436  1.00  0.00     0.012 C 
HETATM   28  C4  UNL     1     -69.034  11.428   2.293  1.00  0.00     0.012 C 
BRANCH  27  29
HETATM   29  C2  UNL     1     -67.330  10.308   3.602  1.00  0.00     0.002 C 
HETATM   30  C1  UNL     1     -65.849  10.334   3.422  1.00  0.00     0.005 C 
ENDBRANCH  27  29
ENDBRANCH   1  27
BRANCH   6  31
HETATM   31  C8  UNL     1     -69.929  11.444   9.432  1.00  0.00     0.014 C 
HETATM   32  C9  UNL     1     -70.931  12.533   9.494  1.00  0.00     0.012 C 
BRANCH  31  33
HETATM   33  C10 UNL     1     -70.007  10.660  10.740  1.00  0.00     0.002 C 
HETATM   34  C11 UNL     1     -70.420   9.235  10.444  1.00  0.00     0.005 C 
ENDBRANCH  31  33
ENDBRANCH   6  31
BRANCH  11  35
HETATM   35  C14 UNL     1     -67.220  14.592  11.173  1.00  0.00     0.266 C 
HETATM   36  O4  UNL     1     -68.068  14.106  11.905  1.00  0.00    -0.304 OA
ENDBRANCH  11  35
BRANCH  16  37
HETATM   37  C17 UNL     1     -63.403  12.504   8.177  1.00  0.00     0.038 C 
BRANCH  37  38
HETATM   38  C18 UNL     1     -64.276  11.324   8.137  1.00  0.00    -0.020 C 
HETATM   39  C19 UNL     1     -63.715  10.162   8.905  1.00  0.00     0.009 C 
HETATM   40  C20 UNL     1     -64.393  10.831   6.680  1.00  0.00     0.009 C 
ENDBRANCH  37  38
ENDBRANCH  16  37
TORSDOF 7
ENDMDL
MODEL 5
REMARK VINA RESULT: -5.986929948      2.731      5.988
REMARK  7 active torsions:
REMARK  status: ('A' for Active; 'I' for Inactive)
REMARK    1  A    between atoms: C2_2  and  C3_3 
REMARK    2  A    between atoms: C3_3  and  C5_5 
REMARK    3  A    between atoms: C7_10  and  C8_11 
REMARK    4  A    between atoms: C8_11  and  C10_13 
REMARK    5  A    between atoms: C13_19  and  C14_20 
REMARK    6  A    between atoms: C16_26  and  C17_27 
REMARK    7  A    between atoms: C17_27  and  C18_28 
ROOT
HETATM    1  C5  UNL     1     -63.233  10.808   8.801  1.00  0.00     0.202 C 
HETATM    2  N1  UNL     1     -63.318  12.180   9.258  1.00  0.00    -0.076 NA
HETATM    3  O1  UNL     1     -64.539  12.658   8.961  1.00  0.00    -0.204 OA
HETATM    4  C6  UNL     1     -65.304  13.692   9.304  1.00  0.00     0.300 C 
HETATM    5  O2  UNL     1     -65.041  14.949   9.187  1.00  0.00    -0.261 OA
HETATM    6  C7  UNL     1     -66.667  13.469   9.914  1.00  0.00     0.189 C 
HETATM    7  N2  UNL     1     -67.514  14.601   9.588  1.00  0.00    -0.345 N 
ATOM      8  H2  UNL     1     -67.489  15.395  10.229  1.00  0.00     0.163 HD
HETATM    9  C12 UNL     1     -68.366  14.712   8.475  1.00  0.00     0.248 C 
HETATM   10  O3  UNL     1     -68.594  15.852   8.020  1.00  0.00    -0.271 OA
HETATM   11  C13 UNL     1     -69.003  13.564   7.818  1.00  0.00     0.238 C 
HETATM   12  N3  UNL     1     -69.600  13.895   6.544  1.00  0.00    -0.340 N 
ATOM     13  H3  UNL     1     -70.456  14.449   6.572  1.00  0.00     0.163 HD
HETATM   14  C15 UNL     1     -69.126  13.534   5.267  1.00  0.00     0.241 C 
HETATM   15  O5  UNL     1     -69.890  13.447   4.271  1.00  0.00    -0.271 OA
HETATM   16  C16 UNL     1     -67.677  13.223   4.997  1.00  0.00     0.177 C 
HETATM   17  N4  UNL     1     -67.514  12.271   3.956  1.00  0.00    -0.348 N 
ATOM     18  H4  UNL     1     -68.117  12.350   3.138  1.00  0.00     0.163 HD
HETATM   19  C21 UNL     1     -66.555  11.207   3.983  1.00  0.00     0.219 C 
HETATM   20  O6  UNL     1     -65.883  10.947   2.953  1.00  0.00    -0.274 OA
HETATM   21  C22 UNL     1     -66.305  10.374   5.187  1.00  0.00     0.122 C 
HETATM   22  C23 UNL     1     -65.101  10.934   5.967  1.00  0.00     0.132 C 
HETATM   23  N5  UNL     1     -65.400  10.829   7.375  1.00  0.00    -0.359 N 
ATOM     24  H5  UNL     1     -66.332  11.137   7.653  1.00  0.00     0.162 HD
HETATM   25  C24 UNL     1     -64.579  10.361   8.411  1.00  0.00     0.239 C 
HETATM   26  O7  UNL     1     -65.058   9.408   9.127  1.00  0.00    -0.272 OA
ENDROOT
BRANCH   1  27
HETATM   27  C3  UNL     1     -62.204  10.670   7.712  1.00  0.00     0.012 C 
HETATM   28  C4  UNL     1     -61.342   9.459   8.140  1.00  0.00     0.012 C 
BRANCH  27  29
HETATM   29  C2  UNL     1     -61.262  11.851   7.761  1.00  0.00     0.002 C 
HETATM   30  C1  UNL     1     -59.846  11.541   7.405  1.00  0.00     0.005 C 
ENDBRANCH  27  29
ENDBRANCH   1  27
BRANCH   6  31
HETATM   31  C8  UNL     1     -66.511  13.400  11.406  1.00  0.00     0.014 C 
HETATM   32  C9  UNL     1     -66.623  12.056  12.018  1.00  0.00     0.012 C 
BRANCH  31  33
HETATM   33  C10 UNL     1     -67.502  14.322  12.114  1.00  0.00     0.002 C 
HETATM   34  C11 UNL     1     -68.320  13.513  13.098  1.00  0.00     0.005 C 
ENDBRANCH  31  33
ENDBRANCH   6  31
BRANCH  11  35
HETATM   35  C14 UNL     1     -70.102  13.082   8.707  1.00  0.00     0.266 C 
HETATM   36  O4  UNL     1     -70.131  13.320   9.904  1.00  0.00    -0.304 OA
ENDBRANCH  11  35
BRANCH  16  37
HETATM   37  C17 UNL     1     -66.854  14.436   4.765  1.00  0.00     0.038 C 
BRANCH  37  38
HETATM   38  C18 UNL     1     -65.419  14.300   4.484  1.00  0.00    -0.020 C 
HETATM   39  C19 UNL     1     -64.562  14.623   5.674  1.00  0.00     0.009 C 
HETATM   40  C20 UNL     1     -65.017  15.325   3.403  1.00  0.00     0.009 C 
ENDBRANCH  37  38
ENDBRANCH  16  37
TORSDOF 7
ENDMDL
