MODEL 1
REMARK VINA RESULT: -7.934101361      0.000      0.000
REMARK  10 active torsions:
REMARK  status: ('A' for Active; 'I' for Inactive)
REMARK    1  A    between atoms: C5_5  and  C7_7 
REMARK    2  A    between atoms: C7_7  and  O1_8 
REMARK    3  A    between atoms: C11_13  and  O2_14 
REMARK    4  A    between atoms: O2_14  and  O3_15 
REMARK    5  A    between atoms: O3_15  and  C12_16 
REMARK    6  A    between atoms: C12_16  and  C13_17 
REMARK    7  A    between atoms: C12_16  and  C14_19 
REMARK    8  A    between atoms: C14_19  and  C15_21 
REMARK    9  A    between atoms: C15_21  and  N1_22 
REMARK   10  A    between atoms: C15_21  and  O5_26 
ROOT
HETATM    1  C1  UNL     1     -37.503 -12.998  24.018  1.00  0.00     0.015 C 
HETATM    2  C2  UNL     1     -38.294 -11.915  24.729  1.00  0.00     0.011 C 
HETATM    3  C3  UNL     1     -39.775 -12.103  24.561  1.00  0.00     0.010 C 
HETATM    4  C4  UNL     1     -40.154 -11.713  23.173  1.00  0.00     0.016 C 
HETATM    5  C5  UNL     1     -39.900 -10.270  22.865  1.00  0.00     0.001 C 
HETATM    6  C6  UNL     1     -39.839 -10.161  21.333  1.00  0.00     0.022 C 
HETATM    7  C8  UNL     1     -38.579  -9.850  23.397  1.00  0.00    -0.066 C 
HETATM    8  C9  UNL     1     -37.876 -10.599  24.230  1.00  0.00    -0.070 C 
HETATM    9  C10 UNL     1     -36.544 -10.270  24.826  1.00  0.00     0.070 C 
HETATM   10  C11 UNL     1     -35.793  -9.266  24.016  1.00  0.00     0.168 C 
HETATM   11  C16 UNL     1     -36.272  -7.872  24.341  1.00  0.00     0.018 C 
HETATM   12  C17 UNL     1     -35.265  -6.908  23.744  1.00  0.00     0.013 C 
HETATM   13  C18 UNL     1     -37.676  -7.597  23.934  1.00  0.00    -0.008 C 
HETATM   14  C19 UNL     1     -37.818  -6.181  23.409  1.00  0.00     0.011 C 
HETATM   15  C20 UNL     1     -38.190  -8.524  22.859  1.00  0.00     0.040 C 
ENDROOT
BRANCH  10  16
HETATM   16  O2  UNL     1     -34.449  -9.319  24.450  1.00  0.00    -0.234 OA
BRANCH  16  17
HETATM   17  O3  UNL     1     -34.067 -10.531  24.688  1.00  0.00    -0.226 OA
BRANCH  17  18
HETATM   18  C12 UNL     1     -32.683 -10.617  24.509  1.00  0.00     0.248 C 
BRANCH  18  19
HETATM   19  C13 UNL     1     -32.474 -11.872  23.672  1.00  0.00     0.157 C 
HETATM   20 CL1  UNL     1     -33.993 -12.357  22.904  1.00  0.00    -0.127 Cl
ENDBRANCH  18  19
BRANCH  18  21
HETATM   21  C14 UNL     1     -31.967 -10.682  25.796  1.00  0.00     0.215 C 
HETATM   22  O4  UNL     1     -30.815 -11.114  25.803  1.00  0.00    -0.290 OA
BRANCH  21  23
HETATM   23  C15 UNL     1     -32.554 -10.268  27.074  1.00  0.00     0.389 C 
BRANCH  23  24
HETATM   24  N1  UNL     1     -33.142  -8.962  27.104  1.00  0.00    -0.046 N 
ATOM     25  H13 UNL     1     -32.411  -8.257  27.201  1.00  0.00     0.277 HD
ATOM     26  H12 UNL     1     -33.505  -8.725  26.181  1.00  0.00     0.277 HD
ATOM     27  H11 UNL     1     -33.863  -8.810  27.809  1.00  0.00     0.277 HD
ENDBRANCH  23  24
BRANCH  23  28
HETATM   28  O5  UNL     1     -31.580 -10.318  28.088  1.00  0.00    -0.364 OA
ATOM     29  H5  UNL     1     -30.893  -9.687  27.910  1.00  0.00     0.212 HD
ENDBRANCH  23  28
ENDBRANCH  21  23
ENDBRANCH  18  21
ENDBRANCH  17  18
ENDBRANCH  16  17
ENDBRANCH  10  16
BRANCH   5  30
HETATM   30  C7  UNL     1     -41.027  -9.374  23.297  1.00  0.00     0.177 C 
BRANCH  30  31
HETATM   31  O1  UNL     1     -41.929  -9.058  22.307  1.00  0.00    -0.400 OA
ATOM     32  H1  UNL     1     -41.651  -8.367  21.717  1.00  0.00     0.209 HD
ENDBRANCH  30  31
ENDBRANCH   5  30
TORSDOF 10
ENDMDL
MODEL 2
REMARK VINA RESULT: -7.928049435      1.864      2.304
REMARK  10 active torsions:
REMARK  status: ('A' for Active; 'I' for Inactive)
REMARK    1  A    between atoms: C5_5  and  C7_7 
REMARK    2  A    between atoms: C7_7  and  O1_8 
REMARK    3  A    between atoms: C11_13  and  O2_14 
REMARK    4  A    between atoms: O2_14  and  O3_15 
REMARK    5  A    between atoms: O3_15  and  C12_16 
REMARK    6  A    between atoms: C12_16  and  C13_17 
REMARK    7  A    between atoms: C12_16  and  C14_19 
REMARK    8  A    between atoms: C14_19  and  C15_21 
REMARK    9  A    between atoms: C15_21  and  N1_22 
REMARK   10  A    between atoms: C15_21  and  O5_26 
ROOT
HETATM    1  C1  UNL     1     -37.724 -13.278  24.023  1.00  0.00     0.015 C 
HETATM    2  C2  UNL     1     -38.434 -12.152  24.753  1.00  0.00     0.011 C 
HETATM    3  C3  UNL     1     -39.923 -12.213  24.563  1.00  0.00     0.010 C 
HETATM    4  C4  UNL     1     -40.249 -11.758  23.181  1.00  0.00     0.016 C 
HETATM    5  C5  UNL     1     -39.873 -10.333  22.914  1.00  0.00     0.001 C 
HETATM    6  C6  UNL     1     -39.782 -10.191  21.387  1.00  0.00     0.022 C 
HETATM    7  C8  UNL     1     -38.530 -10.037  23.474  1.00  0.00    -0.066 C 
HETATM    8  C9  UNL     1     -37.903 -10.863  24.295  1.00  0.00    -0.070 C 
HETATM    9  C10 UNL     1     -36.557 -10.659  24.916  1.00  0.00     0.070 C 
HETATM   10  C11 UNL     1     -35.715  -9.701  24.142  1.00  0.00     0.168 C 
HETATM   11  C16 UNL     1     -36.083  -8.280  24.498  1.00  0.00     0.018 C 
HETATM   12  C17 UNL     1     -34.991  -7.388  23.939  1.00  0.00     0.013 C 
HETATM   13  C18 UNL     1     -37.453  -7.881  24.081  1.00  0.00    -0.008 C 
HETATM   14  C19 UNL     1     -37.471  -6.444  23.593  1.00  0.00     0.011 C 
HETATM   15  C20 UNL     1     -38.026  -8.734  22.976  1.00  0.00     0.040 C 
ENDROOT
BRANCH  10  16
HETATM   16  O2  UNL     1     -34.386  -9.875  24.590  1.00  0.00    -0.234 OA
BRANCH  16  17
HETATM   17  O3  UNL     1     -34.208 -11.036  25.131  1.00  0.00    -0.226 OA
BRANCH  17  18
HETATM   18  C12 UNL     1     -32.899 -11.118  25.616  1.00  0.00     0.248 C 
BRANCH  18  19
HETATM   19  C13 UNL     1     -32.666  -9.799  26.338  1.00  0.00     0.157 C 
HETATM   20 CL1  UNL     1     -31.935 -10.088  27.924  1.00  0.00    -0.127 Cl
ENDBRANCH  18  19
BRANCH  18  21
HETATM   21  C14 UNL     1     -31.925 -11.338  24.531  1.00  0.00     0.215 C 
HETATM   22  O4  UNL     1     -30.946 -10.596  24.466  1.00  0.00    -0.290 OA
BRANCH  21  23
HETATM   23  C15 UNL     1     -32.062 -12.388  23.518  1.00  0.00     0.389 C 
BRANCH  23  24
HETATM   24  N1  UNL     1     -31.031 -12.445  22.525  1.00  0.00    -0.046 N 
ATOM     25  H13 UNL     1     -30.161 -12.769  22.949  1.00  0.00     0.277 HD
ATOM     26  H12 UNL     1     -31.217 -13.212  21.878  1.00  0.00     0.277 HD
ATOM     27  H11 UNL     1     -30.861 -11.586  22.002  1.00  0.00     0.277 HD
ENDBRANCH  23  24
BRANCH  23  28
HETATM   28  O5  UNL     1     -33.290 -12.249  22.846  1.00  0.00    -0.364 OA
ATOM     29  H5  UNL     1     -33.147 -12.243  21.907  1.00  0.00     0.212 HD
ENDBRANCH  23  28
ENDBRANCH  21  23
ENDBRANCH  18  21
ENDBRANCH  17  18
ENDBRANCH  16  17
ENDBRANCH  10  16
BRANCH   5  30
HETATM   30  C7  UNL     1     -40.929  -9.359  23.357  1.00  0.00     0.177 C 
BRANCH  30  31
HETATM   31  O1  UNL     1     -41.869  -9.048  22.400  1.00  0.00    -0.400 OA
ATOM     32  H1  UNL     1     -42.701  -9.496  22.496  1.00  0.00     0.209 HD
ENDBRANCH  30  31
ENDBRANCH   5  30
TORSDOF 10
ENDMDL
MODEL 3
REMARK VINA RESULT: -7.903818196      1.048      1.328
REMARK  10 active torsions:
REMARK  status: ('A' for Active; 'I' for Inactive)
REMARK    1  A    between atoms: C5_5  and  C7_7 
REMARK    2  A    between atoms: C7_7  and  O1_8 
REMARK    3  A    between atoms: C11_13  and  O2_14 
REMARK    4  A    between atoms: O2_14  and  O3_15 
REMARK    5  A    between atoms: O3_15  and  C12_16 
REMARK    6  A    between atoms: C12_16  and  C13_17 
REMARK    7  A    between atoms: C12_16  and  C14_19 
REMARK    8  A    between atoms: C14_19  and  C15_21 
REMARK    9  A    between atoms: C15_21  and  N1_22 
REMARK   10  A    between atoms: C15_21  and  O5_26 
ROOT
HETATM    1  C1  UNL     1     -37.277 -12.744  24.009  1.00  0.00     0.015 C 
HETATM    2  C2  UNL     1     -38.164 -11.729  24.708  1.00  0.00     0.011 C 
HETATM    3  C3  UNL     1     -39.623 -12.020  24.493  1.00  0.00     0.010 C 
HETATM    4  C4  UNL     1     -39.987 -11.641  23.098  1.00  0.00     0.016 C 
HETATM    5  C5  UNL     1     -39.828 -10.180  22.813  1.00  0.00     0.001 C 
HETATM    6  C6  UNL     1     -39.730 -10.047  21.285  1.00  0.00     0.022 C 
HETATM    7  C8  UNL     1     -38.557  -9.673  23.390  1.00  0.00    -0.066 C 
HETATM    8  C9  UNL     1     -37.827 -10.381  24.236  1.00  0.00    -0.070 C 
HETATM    9  C10 UNL     1     -36.541  -9.965  24.876  1.00  0.00     0.070 C 
HETATM   10  C11 UNL     1     -35.840  -8.900  24.100  1.00  0.00     0.168 C 
HETATM   11  C16 UNL     1     -36.428  -7.548  24.424  1.00  0.00     0.018 C 
HETATM   12  C17 UNL     1     -35.475  -6.507  23.869  1.00  0.00     0.013 C 
HETATM   13  C18 UNL     1     -37.834  -7.369  23.978  1.00  0.00    -0.008 C 
HETATM   14  C19 UNL     1     -38.063  -5.959  23.464  1.00  0.00     0.011 C 
HETATM   15  C20 UNL     1     -38.249  -8.316  22.878  1.00  0.00     0.040 C 
ENDROOT
BRANCH  10  16
HETATM   16  O2  UNL     1     -34.509  -8.863  24.573  1.00  0.00    -0.234 OA
BRANCH  16  17
HETATM   17  O3  UNL     1     -34.205  -9.926  25.242  1.00  0.00    -0.226 OA
BRANCH  17  18
HETATM   18  C12 UNL     1     -32.879  -9.831  25.673  1.00  0.00     0.248 C 
BRANCH  18  19
HETATM   19  C13 UNL     1     -32.319 -11.240  25.532  1.00  0.00     0.157 C 
HETATM   20 CL1  UNL     1     -33.427 -12.249  24.590  1.00  0.00    -0.127 Cl
ENDBRANCH  18  19
BRANCH  18  21
HETATM   21  C14 UNL     1     -32.787  -9.334  27.058  1.00  0.00     0.215 C 
HETATM   22  O4  UNL     1     -32.121  -9.978  27.868  1.00  0.00    -0.290 OA
BRANCH  21  23
HETATM   23  C15 UNL     1     -33.453  -8.116  27.528  1.00  0.00     0.389 C 
BRANCH  23  24
HETATM   24  N1  UNL     1     -34.866  -8.210  27.740  1.00  0.00    -0.046 N 
ATOM     25  H13 UNL     1     -35.112  -9.161  28.014  1.00  0.00     0.277 HD
ATOM     26  H12 UNL     1     -35.124  -7.702  28.586  1.00  0.00     0.277 HD
ATOM     27  H11 UNL     1     -35.458  -7.911  26.965  1.00  0.00     0.277 HD
ENDBRANCH  23  24
BRANCH  23  28
HETATM   28  O5  UNL     1     -33.229  -7.065  26.620  1.00  0.00    -0.364 OA
ATOM     29  H5  UNL     1     -33.639  -6.270  26.937  1.00  0.00     0.212 HD
ENDBRANCH  23  28
ENDBRANCH  21  23
ENDBRANCH  18  21
ENDBRANCH  17  18
ENDBRANCH  16  17
ENDBRANCH  10  16
BRANCH   5  30
HETATM   30  C7  UNL     1     -41.029  -9.372  23.220  1.00  0.00     0.177 C 
BRANCH  30  31
HETATM   31  O1  UNL     1     -41.966  -9.186  22.230  1.00  0.00    -0.400 OA
ATOM     32  H1  UNL     1     -42.786  -9.648  22.362  1.00  0.00     0.209 HD
ENDBRANCH  30  31
ENDBRANCH   5  30
TORSDOF 10
ENDMDL
MODEL 4
REMARK VINA RESULT: -7.883052104      1.936      2.371
REMARK  10 active torsions:
REMARK  status: ('A' for Active; 'I' for Inactive)
REMARK    1  A    between atoms: C5_5  and  C7_7 
REMARK    2  A    between atoms: C7_7  and  O1_8 
REMARK    3  A    between atoms: C11_13  and  O2_14 
REMARK    4  A    between atoms: O2_14  and  O3_15 
REMARK    5  A    between atoms: O3_15  and  C12_16 
REMARK    6  A    between atoms: C12_16  and  C13_17 
REMARK    7  A    between atoms: C12_16  and  C14_19 
REMARK    8  A    between atoms: C14_19  and  C15_21 
REMARK    9  A    between atoms: C15_21  and  N1_22 
REMARK   10  A    between atoms: C15_21  and  O5_26 
ROOT
HETATM    1  C1  UNL     1     -37.941 -13.394  24.088  1.00  0.00     0.015 C 
HETATM    2  C2  UNL     1     -38.627 -12.243  24.801  1.00  0.00     0.011 C 
HETATM    3  C3  UNL     1     -40.093 -12.180  24.479  1.00  0.00     0.010 C 
HETATM    4  C4  UNL     1     -40.258 -11.652  23.094  1.00  0.00     0.016 C 
HETATM    5  C5  UNL     1     -39.755 -10.253  22.923  1.00  0.00     0.001 C 
HETATM    6  C6  UNL     1     -39.515 -10.063  21.417  1.00  0.00     0.022 C 
HETATM    7  C8  UNL     1     -38.449 -10.082  23.610  1.00  0.00    -0.066 C 
HETATM    8  C9  UNL     1     -37.962 -10.983  24.447  1.00  0.00    -0.070 C 
HETATM    9  C10 UNL     1     -36.667 -10.908  25.190  1.00  0.00     0.070 C 
HETATM   10  C11 UNL     1     -35.689  -9.991  24.535  1.00  0.00     0.168 C 
HETATM   11  C16 UNL     1     -35.980  -8.560  24.917  1.00  0.00     0.018 C 
HETATM   12  C17 UNL     1     -34.779  -7.736  24.495  1.00  0.00     0.013 C 
HETATM   13  C18 UNL     1     -37.274  -8.040  24.400  1.00  0.00    -0.008 C 
HETATM   14  C19 UNL     1     -37.141  -6.590  23.974  1.00  0.00     0.011 C 
HETATM   15  C20 UNL     1     -37.807  -8.806  23.214  1.00  0.00     0.040 C 
ENDROOT
BRANCH  10  16
HETATM   16  O2  UNL     1     -34.423 -10.285  25.089  1.00  0.00    -0.234 OA
BRANCH  16  17
HETATM   17  O3  UNL     1     -34.102 -11.527  24.928  1.00  0.00    -0.226 OA
BRANCH  17  18
HETATM   18  C12 UNL     1     -33.622 -11.710  23.628  1.00  0.00     0.248 C 
BRANCH  18  19
HETATM   19  C13 UNL     1     -34.442 -12.863  23.066  1.00  0.00     0.157 C 
HETATM   20 CL1  UNL     1     -34.590 -14.153  24.268  1.00  0.00    -0.127 Cl
ENDBRANCH  18  19
BRANCH  18  21
HETATM   21  C14 UNL     1     -32.175 -11.999  23.614  1.00  0.00     0.215 C 
HETATM   22  O4  UNL     1     -31.461 -11.447  24.451  1.00  0.00    -0.290 OA
BRANCH  21  23
HETATM   23  C15 UNL     1     -31.537 -12.903  22.654  1.00  0.00     0.389 C 
BRANCH  23  24
HETATM   24  N1  UNL     1     -30.407 -13.641  23.135  1.00  0.00    -0.046 N 
ATOM     25  H13 UNL     1     -29.804 -13.028  23.683  1.00  0.00     0.277 HD
ATOM     26  H12 UNL     1     -30.705 -14.299  23.855  1.00  0.00     0.277 HD
ATOM     27  H11 UNL     1     -29.854 -14.128  22.429  1.00  0.00     0.277 HD
ENDBRANCH  23  24
BRANCH  23  28
HETATM   28  O5  UNL     1     -31.121 -12.182  21.519  1.00  0.00    -0.364 OA
ATOM     29  H5  UNL     1     -30.791 -11.331  21.780  1.00  0.00     0.212 HD
ENDBRANCH  23  28
ENDBRANCH  21  23
ENDBRANCH  18  21
ENDBRANCH  17  18
ENDBRANCH  16  17
ENDBRANCH  10  16
BRANCH   5  30
HETATM   30  C7  UNL     1     -40.771  -9.215  23.313  1.00  0.00     0.177 C 
BRANCH  30  31
HETATM   31  O1  UNL     1     -42.063  -9.497  22.932  1.00  0.00    -0.400 OA
ATOM     32  H1  UNL     1     -42.284 -10.421  22.922  1.00  0.00     0.209 HD
ENDBRANCH  30  31
ENDBRANCH   5  30
TORSDOF 10
ENDMDL
MODEL 5
REMARK VINA RESULT: -7.684203564      1.741      2.123
REMARK  10 active torsions:
REMARK  status: ('A' for Active; 'I' for Inactive)
REMARK    1  A    between atoms: C5_5  and  C7_7 
REMARK    2  A    between atoms: C7_7  and  O1_8 
REMARK    3  A    between atoms: C11_13  and  O2_14 
REMARK    4  A    between atoms: O2_14  and  O3_15 
REMARK    5  A    between atoms: O3_15  and  C12_16 
REMARK    6  A    between atoms: C12_16  and  C13_17 
REMARK    7  A    between atoms: C12_16  and  C14_19 
REMARK    8  A    between atoms: C14_19  and  C15_21 
REMARK    9  A    between atoms: C15_21  and  N1_22 
REMARK   10  A    between atoms: C15_21  and  O5_26 
ROOT
HETATM    1  C1  UNL     1     -37.183 -12.604  24.012  1.00  0.00     0.015 C 
HETATM    2  C2  UNL     1     -38.149 -11.653  24.696  1.00  0.00     0.011 C 
HETATM    3  C3  UNL     1     -39.581 -12.018  24.422  1.00  0.00     0.010 C 
HETATM    4  C4  UNL     1     -39.915 -11.631  23.022  1.00  0.00     0.016 C 
HETATM    5  C5  UNL     1     -39.826 -10.158  22.770  1.00  0.00     0.001 C 
HETATM    6  C6  UNL     1     -39.681  -9.989  21.249  1.00  0.00     0.022 C 
HETATM    7  C8  UNL     1     -38.607  -9.595  23.402  1.00  0.00    -0.066 C 
HETATM    8  C9  UNL     1     -37.870 -10.279  24.261  1.00  0.00    -0.070 C 
HETATM    9  C10 UNL     1     -36.632  -9.807  24.955  1.00  0.00     0.070 C 
HETATM   10  C11 UNL     1     -35.963  -8.690  24.225  1.00  0.00     0.168 C 
HETATM   11  C16 UNL     1     -36.635  -7.379  24.552  1.00  0.00     0.018 C 
HETATM   12  C17 UNL     1     -35.721  -6.277  24.052  1.00  0.00     0.013 C 
HETATM   13  C18 UNL     1     -38.033  -7.267  24.057  1.00  0.00    -0.008 C 
HETATM   14  C19 UNL     1     -38.319  -5.862  23.562  1.00  0.00     0.011 C 
HETATM   15  C20 UNL     1     -38.355  -8.213  22.926  1.00  0.00     0.040 C 
ENDROOT
BRANCH  10  16
HETATM   16  O2  UNL     1     -34.654  -8.591  24.748  1.00  0.00    -0.234 OA
BRANCH  16  17
HETATM   17  O3  UNL     1     -34.204  -9.736  25.145  1.00  0.00    -0.226 OA
BRANCH  17  18
HETATM   18  C12 UNL     1     -33.547  -9.570  26.367  1.00  0.00     0.248 C 
BRANCH  18  19
HETATM   19  C13 UNL     1     -33.096  -8.116  26.376  1.00  0.00     0.157 C 
HETATM   20 CL1  UNL     1     -33.074  -7.490  28.031  1.00  0.00    -0.127 Cl
ENDBRANCH  18  19
BRANCH  18  21
HETATM   21  C14 UNL     1     -32.415 -10.504  26.511  1.00  0.00     0.215 C 
HETATM   22  O4  UNL     1     -31.892 -10.622  27.619  1.00  0.00    -0.290 OA
BRANCH  21  23
HETATM   23  C15 UNL     1     -31.870 -11.296  25.405  1.00  0.00     0.389 C 
BRANCH  23  24
HETATM   24  N1  UNL     1     -31.239 -10.559  24.351  1.00  0.00    -0.046 N 
ATOM     25  H13 UNL     1     -31.948 -10.108  23.773  1.00  0.00     0.277 HD
ATOM     26  H12 UNL     1     -30.768  -9.740  24.736  1.00  0.00     0.277 HD
ATOM     27  H11 UNL     1     -30.594 -11.082  23.759  1.00  0.00     0.277 HD
ENDBRANCH  23  24
BRANCH  23  28
HETATM   28  O5  UNL     1     -32.888 -12.076  24.827  1.00  0.00    -0.364 OA
ATOM     29  H5  UNL     1     -33.316 -12.597  25.495  1.00  0.00     0.212 HD
ENDBRANCH  23  28
ENDBRANCH  21  23
ENDBRANCH  18  21
ENDBRANCH  17  18
ENDBRANCH  16  17
ENDBRANCH  10  16
BRANCH   5  30
HETATM   30  C7  UNL     1     -41.084  -9.424  23.147  1.00  0.00     0.177 C 
BRANCH  30  31
HETATM   31  O1  UNL     1     -41.979  -9.241  22.118  1.00  0.00    -0.400 OA
ATOM     32  H1  UNL     1     -41.776  -9.716  21.321  1.00  0.00     0.209 HD
ENDBRANCH  30  31
ENDBRANCH   5  30
TORSDOF 10
ENDMDL
