MODEL 1
REMARK VINA RESULT: -8.377128733      0.000      0.000
REMARK  8 active torsions:
REMARK  status: ('A' for Active; 'I' for Inactive)
REMARK    1  A    between atoms: C2_2  and  C12_21 
REMARK    2  A    between atoms: N1_3  and  N2_5 
REMARK       I    between atoms: N2_5  and  C3_7 
REMARK    3  A    between atoms: C3_7  and  C4_9 
REMARK    4  A    between atoms: C4_9  and  C5_10 
REMARK       I    between atoms: C5_10  and  N3_12 
REMARK    5  A    between atoms: N3_12  and  C6_14 
REMARK    6  A    between atoms: C12_21  and  N4_23 
REMARK       I    between atoms: N4_23  and  C14_25 
REMARK    7  A    between atoms: C14_25  and  O4_27 
REMARK    8  A    between atoms: O4_27  and  C15_28 
ROOT
HETATM    1  C15 UNL     1     -40.265  -2.551  26.104  1.00  0.00     0.153 C 
HETATM    2  C16 UNL     1     -40.073  -4.025  26.377  1.00  0.00     0.063 C 
HETATM    3  C17 UNL     1     -39.273  -1.701  26.853  1.00  0.00     0.063 C 
HETATM    4  C18 UNL     1     -41.633  -2.142  26.443  1.00  0.00     0.097 C 
HETATM    5  N5  UNL     1     -42.726  -1.818  26.706  1.00  0.00    -0.194 NA
ENDROOT
BRANCH   1   6
HETATM    6  O4  UNL     1     -40.110  -2.373  24.697  1.00  0.00    -0.278 OA
BRANCH   6   7
HETATM    7  C14 UNL     1     -38.915  -2.743  24.112  1.00  0.00     0.362 C 
HETATM    8  N4  UNL     1     -38.691  -4.053  23.618  1.00  0.00    -0.327 N 
ATOM      9  H4  UNL     1     -39.436  -4.746  23.695  1.00  0.00     0.165 HD
HETATM   10  O3  UNL     1     -37.991  -1.867  24.020  1.00  0.00    -0.238 OA
BRANCH   8  11
HETATM   11  C12 UNL     1     -37.453  -4.427  23.015  1.00  0.00     0.129 C 
HETATM   12  C13 UNL     1     -37.597  -4.193  21.504  1.00  0.00     0.038 C 
BRANCH  11  13
HETATM   13  C2  UNL     1     -37.072  -5.835  23.287  1.00  0.00     0.022 C 
HETATM   14  C1  UNL     1     -38.067  -6.850  23.687  1.00  0.00     0.067 C 
HETATM   15  N1  UNL     1     -35.828  -6.153  23.163  1.00  0.00    -0.305 N 
ATOM     16  H1  UNL     1     -35.167  -5.427  22.886  1.00  0.00     0.186 HD
BRANCH  15  17
HETATM   17  N2  UNL     1     -35.344  -7.439  23.390  1.00  0.00    -0.270 N 
HETATM   18  C3  UNL     1     -34.164  -7.644  24.180  1.00  0.00     0.244 C 
HETATM   19  O1  UNL     1     -33.582  -6.658  24.657  1.00  0.00    -0.271 OA
ATOM     20  H2  UNL     1     -35.833  -8.241  22.992  1.00  0.00     0.190 HD
BRANCH  18  21
HETATM   21  C4  UNL     1     -33.701  -9.005  24.386  1.00  0.00     0.207 C 
BRANCH  21  22
HETATM   22  C5  UNL     1     -34.856  -9.899  24.743  1.00  0.00     0.231 C 
HETATM   23  O2  UNL     1     -35.693  -9.547  25.590  1.00  0.00    -0.273 OA
HETATM   24  N3  UNL     1     -34.943 -11.125  24.087  1.00  0.00    -0.327 N 
ATOM     25  H3  UNL     1     -34.203 -11.321  23.413  1.00  0.00     0.169 HD
BRANCH  24  26
HETATM   26  C6  UNL     1     -35.919 -12.130  24.235  1.00  0.00     0.034 A 
HETATM   27  C7  UNL     1     -37.257 -11.906  24.137  1.00  0.00     0.031 A 
HETATM   28  C8  UNL     1     -38.196 -12.938  24.309  1.00  0.00     0.026 A 
HETATM   29  C9  UNL     1     -37.795 -14.220  24.584  1.00  0.00     0.034 A 
HETATM   30 CL1  UNL     1     -38.970 -15.515  24.799  1.00  0.00    -0.084 Cl
HETATM   31  C10 UNL     1     -36.444 -14.446  24.683  1.00  0.00     0.026 A 
HETATM   32  C11 UNL     1     -35.517 -13.452  24.518  1.00  0.00     0.031 A 
ENDBRANCH  24  26
ENDBRANCH  21  22
ENDBRANCH  18  21
ENDBRANCH  15  17
ENDBRANCH  11  13
ENDBRANCH   8  11
ENDBRANCH   6   7
ENDBRANCH   1   6
TORSDOF 8
ENDMDL
MODEL 2
REMARK VINA RESULT: -8.357674630      2.899      4.042
REMARK  8 active torsions:
REMARK  status: ('A' for Active; 'I' for Inactive)
REMARK    1  A    between atoms: C2_2  and  C12_21 
REMARK    2  A    between atoms: N1_3  and  N2_5 
REMARK       I    between atoms: N2_5  and  C3_7 
REMARK    3  A    between atoms: C3_7  and  C4_9 
REMARK    4  A    between atoms: C4_9  and  C5_10 
REMARK       I    between atoms: C5_10  and  N3_12 
REMARK    5  A    between atoms: N3_12  and  C6_14 
REMARK    6  A    between atoms: C12_21  and  N4_23 
REMARK       I    between atoms: N4_23  and  C14_25 
REMARK    7  A    between atoms: C14_25  and  O4_27 
REMARK    8  A    between atoms: O4_27  and  C15_28 
ROOT
HETATM    1  C15 UNL     1     -38.018  -4.806  23.081  1.00  0.00     0.153 C 
HETATM    2  C16 UNL     1     -39.129  -5.090  24.064  1.00  0.00     0.063 C 
HETATM    3  C17 UNL     1     -38.417  -3.780  22.053  1.00  0.00     0.063 C 
HETATM    4  C18 UNL     1     -37.595  -6.044  22.414  1.00  0.00     0.097 C 
HETATM    5  N5  UNL     1     -37.254  -7.032  21.890  1.00  0.00    -0.194 NA
ENDROOT
BRANCH   1   6
HETATM    6  O4  UNL     1     -36.906  -4.340  23.843  1.00  0.00    -0.278 OA
BRANCH   6   7
HETATM    7  C14 UNL     1     -36.258  -5.230  24.677  1.00  0.00     0.362 C 
HETATM    8  N4  UNL     1     -35.150  -6.001  24.241  1.00  0.00    -0.327 N 
ATOM      9  H4  UNL     1     -34.820  -5.896  23.282  1.00  0.00     0.165 HD
HETATM   10  O3  UNL     1     -36.681  -5.352  25.876  1.00  0.00    -0.238 OA
BRANCH   8  11
HETATM   11  C12 UNL     1     -34.486  -6.919  25.109  1.00  0.00     0.129 C 
HETATM   12  C13 UNL     1     -33.003  -6.520  25.138  1.00  0.00     0.038 C 
BRANCH  11  13
HETATM   13  C2  UNL     1     -34.634  -8.333  24.688  1.00  0.00     0.022 C 
HETATM   14  C1  UNL     1     -35.957  -8.981  24.583  1.00  0.00     0.067 C 
HETATM   15  N1  UNL     1     -33.560  -8.993  24.413  1.00  0.00    -0.305 N 
ATOM     16  H1  UNL     1     -32.663  -8.515  24.497  1.00  0.00     0.186 HD
BRANCH  15  17
HETATM   17  N2  UNL     1     -33.567 -10.325  24.009  1.00  0.00    -0.270 N 
HETATM   18  C3  UNL     1     -32.364 -11.105  24.053  1.00  0.00     0.244 C 
HETATM   19  O1  UNL     1     -31.318 -10.574  24.458  1.00  0.00    -0.271 OA
ATOM     20  H2  UNL     1     -34.434 -10.749  23.678  1.00  0.00     0.190 HD
BRANCH  18  21
HETATM   21  C4  UNL     1     -32.424 -12.489  23.619  1.00  0.00     0.207 C 
BRANCH  21  22
HETATM   22  C5  UNL     1     -33.850 -12.891  23.357  1.00  0.00     0.231 C 
HETATM   23  O2  UNL     1     -34.259 -13.056  22.196  1.00  0.00    -0.273 OA
HETATM   24  N3  UNL     1     -34.678 -13.069  24.462  1.00  0.00    -0.327 N 
ATOM     25  H3  UNL     1     -34.246 -12.905  25.372  1.00  0.00     0.169 HD
BRANCH  24  26
HETATM   26  C6  UNL     1     -36.035 -13.445  24.488  1.00  0.00     0.034 A 
HETATM   27  C7  UNL     1     -37.057 -12.619  24.138  1.00  0.00     0.031 A 
HETATM   28  C8  UNL     1     -38.399 -13.034  24.195  1.00  0.00     0.026 A 
HETATM   29  C9  UNL     1     -38.731 -14.297  24.610  1.00  0.00     0.034 A 
HETATM   30 CL1  UNL     1     -40.413 -14.819  24.682  1.00  0.00    -0.084 Cl
HETATM   31  C10 UNL     1     -37.699 -15.132  24.963  1.00  0.00     0.026 A 
HETATM   32  C11 UNL     1     -36.387 -14.743  24.913  1.00  0.00     0.031 A 
ENDBRANCH  24  26
ENDBRANCH  21  22
ENDBRANCH  18  21
ENDBRANCH  15  17
ENDBRANCH  11  13
ENDBRANCH   8  11
ENDBRANCH   6   7
ENDBRANCH   1   6
TORSDOF 8
ENDMDL
MODEL 3
REMARK VINA RESULT: -8.337720104      2.252      2.974
REMARK  8 active torsions:
REMARK  status: ('A' for Active; 'I' for Inactive)
REMARK    1  A    between atoms: C2_2  and  C12_21 
REMARK    2  A    between atoms: N1_3  and  N2_5 
REMARK       I    between atoms: N2_5  and  C3_7 
REMARK    3  A    between atoms: C3_7  and  C4_9 
REMARK    4  A    between atoms: C4_9  and  C5_10 
REMARK       I    between atoms: C5_10  and  N3_12 
REMARK    5  A    between atoms: N3_12  and  C6_14 
REMARK    6  A    between atoms: C12_21  and  N4_23 
REMARK       I    between atoms: N4_23  and  C14_25 
REMARK    7  A    between atoms: C14_25  and  O4_27 
REMARK    8  A    between atoms: O4_27  and  C15_28 
ROOT
HETATM    1  C15 UNL     1     -40.841  -2.562  26.118  1.00  0.00     0.153 C 
HETATM    2  C16 UNL     1     -40.897  -2.459  24.612  1.00  0.00     0.063 C 
HETATM    3  C17 UNL     1     -40.535  -3.962  26.581  1.00  0.00     0.063 C 
HETATM    4  C18 UNL     1     -42.105  -2.105  26.709  1.00  0.00     0.097 C 
HETATM    5  N5  UNL     1     -43.108  -1.732  27.180  1.00  0.00    -0.194 NA
ENDROOT
BRANCH   1   6
HETATM    6  O4  UNL     1     -39.824  -1.661  26.552  1.00  0.00    -0.278 OA
BRANCH   6   7
HETATM    7  C14 UNL     1     -38.515  -2.100  26.567  1.00  0.00     0.362 C 
HETATM    8  N4  UNL     1     -37.745  -2.215  25.381  1.00  0.00    -0.327 N 
ATOM      9  H4  UNL     1     -38.170  -1.965  24.488  1.00  0.00     0.165 HD
HETATM   10  O3  UNL     1     -37.994  -2.410  27.691  1.00  0.00    -0.238 OA
BRANCH   8  11
HETATM   11  C12 UNL     1     -36.394  -2.670  25.404  1.00  0.00     0.129 C 
HETATM   12  C13 UNL     1     -35.513  -1.494  24.958  1.00  0.00     0.038 C 
BRANCH  11  13
HETATM   13  C2  UNL     1     -36.158  -3.851  24.538  1.00  0.00     0.022 C 
HETATM   14  C1  UNL     1     -34.888  -4.043  23.809  1.00  0.00     0.067 C 
HETATM   15  N1  UNL     1     -37.107  -4.719  24.437  1.00  0.00    -0.305 N 
ATOM     16  H1  UNL     1     -37.971  -4.555  24.954  1.00  0.00     0.186 HD
BRANCH  15  17
HETATM   17  N2  UNL     1     -37.009  -5.867  23.656  1.00  0.00    -0.270 N 
HETATM   18  C3  UNL     1     -38.185  -6.607  23.297  1.00  0.00     0.244 C 
HETATM   19  O1  UNL     1     -39.290  -6.206  23.693  1.00  0.00    -0.271 OA
ATOM     20  H2  UNL     1     -36.093  -6.185  23.337  1.00  0.00     0.190 HD
BRANCH  18  21
HETATM   21  C4  UNL     1     -38.027  -7.798  22.482  1.00  0.00     0.207 C 
BRANCH  21  22
HETATM   22  C5  UNL     1     -37.959  -9.021  23.355  1.00  0.00     0.231 C 
HETATM   23  O2  UNL     1     -37.446  -8.966  24.485  1.00  0.00    -0.273 OA
HETATM   24  N3  UNL     1     -38.492 -10.202  22.843  1.00  0.00    -0.327 N 
ATOM     25  H3  UNL     1     -38.885 -10.141  21.904  1.00  0.00     0.169 HD
BRANCH  24  26
HETATM   26  C6  UNL     1     -38.557 -11.469  23.454  1.00  0.00     0.034 A 
HETATM   27  C7  UNL     1     -39.720 -12.090  23.789  1.00  0.00     0.031 A 
HETATM   28  C8  UNL     1     -39.736 -13.349  24.414  1.00  0.00     0.026 A 
HETATM   29  C9  UNL     1     -38.569 -14.005  24.712  1.00  0.00     0.034 A 
HETATM   30 CL1  UNL     1     -38.587 -15.583  25.495  1.00  0.00    -0.084 Cl
HETATM   31  C10 UNL     1     -37.395 -13.378  24.374  1.00  0.00     0.026 A 
HETATM   32  C11 UNL     1     -37.363 -12.152  23.766  1.00  0.00     0.031 A 
ENDBRANCH  24  26
ENDBRANCH  21  22
ENDBRANCH  18  21
ENDBRANCH  15  17
ENDBRANCH  11  13
ENDBRANCH   8  11
ENDBRANCH   6   7
ENDBRANCH   1   6
TORSDOF 8
ENDMDL
MODEL 4
REMARK VINA RESULT: -8.334731717      2.795      3.348
REMARK  8 active torsions:
REMARK  status: ('A' for Active; 'I' for Inactive)
REMARK    1  A    between atoms: C2_2  and  C12_21 
REMARK    2  A    between atoms: N1_3  and  N2_5 
REMARK       I    between atoms: N2_5  and  C3_7 
REMARK    3  A    between atoms: C3_7  and  C4_9 
REMARK    4  A    between atoms: C4_9  and  C5_10 
REMARK       I    between atoms: C5_10  and  N3_12 
REMARK    5  A    between atoms: N3_12  and  C6_14 
REMARK    6  A    between atoms: C12_21  and  N4_23 
REMARK       I    between atoms: N4_23  and  C14_25 
REMARK    7  A    between atoms: C14_25  and  O4_27 
REMARK    8  A    between atoms: O4_27  and  C15_28 
ROOT
HETATM    1  C15 UNL     1     -40.616  -2.666  25.728  1.00  0.00     0.153 C 
HETATM    2  C16 UNL     1     -40.886  -2.806  24.248  1.00  0.00     0.063 C 
HETATM    3  C17 UNL     1     -40.251  -3.981  26.365  1.00  0.00     0.063 C 
HETATM    4  C18 UNL     1     -41.780  -2.086  26.408  1.00  0.00     0.097 C 
HETATM    5  N5  UNL     1     -42.705  -1.616  26.948  1.00  0.00    -0.194 NA
ENDROOT
BRANCH   1   6
HETATM    6  O4  UNL     1     -39.544  -1.734  25.861  1.00  0.00    -0.278 OA
BRANCH   6   7
HETATM    7  C14 UNL     1     -38.250  -2.214  25.868  1.00  0.00     0.362 C 
HETATM    8  N4  UNL     1     -37.647  -2.774  24.713  1.00  0.00    -0.327 N 
ATOM      9  H4  UNL     1     -38.186  -2.825  23.848  1.00  0.00     0.165 HD
HETATM   10  O3  UNL     1     -37.585  -2.145  26.956  1.00  0.00    -0.238 OA
BRANCH   8  11
HETATM   11  C12 UNL     1     -36.309  -3.268  24.728  1.00  0.00     0.129 C 
HETATM   12  C13 UNL     1     -35.546  -2.539  23.612  1.00  0.00     0.038 C 
BRANCH  11  13
HETATM   13  C2  UNL     1     -36.225  -4.737  24.539  1.00  0.00     0.022 C 
HETATM   14  C1  UNL     1     -35.280  -5.348  23.582  1.00  0.00     0.067 C 
HETATM   15  N1  UNL     1     -37.011  -5.478  25.244  1.00  0.00    -0.305 N 
ATOM     16  H1  UNL     1     -37.651  -5.024  25.895  1.00  0.00     0.186 HD
BRANCH  15  17
HETATM   17  N2  UNL     1     -37.027  -6.867  25.158  1.00  0.00    -0.270 N 
HETATM   18  C3  UNL     1     -36.305  -7.665  26.107  1.00  0.00     0.244 C 
HETATM   19  O1  UNL     1     -35.665  -7.096  27.006  1.00  0.00    -0.271 OA
ATOM     20  H2  UNL     1     -37.558  -7.322  24.414  1.00  0.00     0.190 HD
BRANCH  18  21
HETATM   21  C4  UNL     1     -36.354  -9.110  25.973  1.00  0.00     0.207 C 
BRANCH  21  22
HETATM   22  C5  UNL     1     -35.473  -9.558  24.839  1.00  0.00     0.231 C 
HETATM   23  O2  UNL     1     -35.316  -8.842  23.836  1.00  0.00    -0.273 OA
HETATM   24  N3  UNL     1     -34.849 -10.796  24.965  1.00  0.00    -0.327 N 
ATOM     25  H3  UNL     1     -35.047 -11.308  25.826  1.00  0.00     0.169 HD
BRANCH  24  26
HETATM   26  C6  UNL     1     -33.980 -11.435  24.059  1.00  0.00     0.034 A 
HETATM   27  C7  UNL     1     -32.626 -11.313  24.093  1.00  0.00     0.031 A 
HETATM   28  C8  UNL     1     -31.799 -11.957  23.157  1.00  0.00     0.026 A 
HETATM   29  C9  UNL     1     -32.331 -12.739  22.164  1.00  0.00     0.034 A 
HETATM   30 CL1  UNL     1     -31.296 -13.547  20.989  1.00  0.00    -0.084 Cl
HETATM   31  C10 UNL     1     -33.698 -12.863  22.130  1.00  0.00     0.026 A 
HETATM   32  C11 UNL     1     -34.518 -12.242  23.035  1.00  0.00     0.031 A 
ENDBRANCH  24  26
ENDBRANCH  21  22
ENDBRANCH  18  21
ENDBRANCH  15  17
ENDBRANCH  11  13
ENDBRANCH   8  11
ENDBRANCH   6   7
ENDBRANCH   1   6
TORSDOF 8
ENDMDL
MODEL 5
REMARK VINA RESULT: -8.321955408      2.713      3.535
REMARK  8 active torsions:
REMARK  status: ('A' for Active; 'I' for Inactive)
REMARK    1  A    between atoms: C2_2  and  C12_21 
REMARK    2  A    between atoms: N1_3  and  N2_5 
REMARK       I    between atoms: N2_5  and  C3_7 
REMARK    3  A    between atoms: C3_7  and  C4_9 
REMARK    4  A    between atoms: C4_9  and  C5_10 
REMARK       I    between atoms: C5_10  and  N3_12 
REMARK    5  A    between atoms: N3_12  and  C6_14 
REMARK    6  A    between atoms: C12_21  and  N4_23 
REMARK       I    between atoms: N4_23  and  C14_25 
REMARK    7  A    between atoms: C14_25  and  O4_27 
REMARK    8  A    between atoms: O4_27  and  C15_28 
ROOT
HETATM    1  C15 UNL     1     -38.147  -4.210  26.772  1.00  0.00     0.153 C 
HETATM    2  C16 UNL     1     -39.551  -3.774  26.420  1.00  0.00     0.063 C 
HETATM    3  C17 UNL     1     -37.815  -3.942  28.216  1.00  0.00     0.063 C 
HETATM    4  C18 UNL     1     -37.171  -3.542  25.901  1.00  0.00     0.097 C 
HETATM    5  N5  UNL     1     -36.395  -3.017  25.202  1.00  0.00    -0.194 NA
ENDROOT
BRANCH   1   6
HETATM    6  O4  UNL     1     -38.071  -5.607  26.494  1.00  0.00    -0.278 OA
BRANCH   6   7
HETATM    7  C14 UNL     1     -36.826  -6.179  26.326  1.00  0.00     0.362 C 
HETATM    8  N4  UNL     1     -36.206  -6.277  25.054  1.00  0.00    -0.327 N 
ATOM      9  H4  UNL     1     -36.694  -5.912  24.236  1.00  0.00     0.165 HD
HETATM   10  O3  UNL     1     -36.225  -6.632  27.358  1.00  0.00    -0.238 OA
BRANCH   8  11
HETATM   11  C12 UNL     1     -34.920  -6.870  24.889  1.00  0.00     0.129 C 
HETATM   12  C13 UNL     1     -34.177  -6.051  23.824  1.00  0.00     0.038 C 
BRANCH  11  13
HETATM   13  C2  UNL     1     -34.980  -8.299  24.494  1.00  0.00     0.022 C 
HETATM   14  C1  UNL     1     -36.262  -8.982  24.230  1.00  0.00     0.067 C 
HETATM   15  N1  UNL     1     -33.865  -8.939  24.387  1.00  0.00    -0.305 N 
ATOM     16  H1  UNL     1     -32.998  -8.437  24.577  1.00  0.00     0.186 HD
BRANCH  15  17
HETATM   17  N2  UNL     1     -33.789 -10.281  24.025  1.00  0.00    -0.270 N 
HETATM   18  C3  UNL     1     -32.552 -10.998  24.141  1.00  0.00     0.244 C 
HETATM   19  O1  UNL     1     -31.551 -10.403  24.570  1.00  0.00    -0.271 OA
ATOM     20  H2  UNL     1     -34.620 -10.758  23.674  1.00  0.00     0.190 HD
BRANCH  18  21
HETATM   21  C4  UNL     1     -32.526 -12.395  23.749  1.00  0.00     0.207 C 
BRANCH  21  22
HETATM   22  C5  UNL     1     -33.919 -12.882  23.461  1.00  0.00     0.231 C 
HETATM   23  O2  UNL     1     -34.248 -13.223  22.313  1.00  0.00    -0.273 OA
HETATM   24  N3  UNL     1     -34.812 -12.932  24.529  1.00  0.00    -0.327 N 
ATOM     25  H3  UNL     1     -34.445 -12.626  25.430  1.00  0.00     0.169 HD
BRANCH  24  26
HETATM   26  C6  UNL     1     -36.157 -13.350  24.526  1.00  0.00     0.034 A 
HETATM   27  C7  UNL     1     -37.198 -12.550  24.171  1.00  0.00     0.031 A 
HETATM   28  C8  UNL     1     -38.528 -13.007  24.199  1.00  0.00     0.026 A 
HETATM   29  C9  UNL     1     -38.828 -14.286  24.590  1.00  0.00     0.034 A 
HETATM   30 CL1  UNL     1     -40.493 -14.860  24.626  1.00  0.00    -0.084 Cl
HETATM   31  C10 UNL     1     -37.776 -15.093  24.949  1.00  0.00     0.026 A 
HETATM   32  C11 UNL     1     -36.476 -14.664  24.926  1.00  0.00     0.031 A 
ENDBRANCH  24  26
ENDBRANCH  21  22
ENDBRANCH  18  21
ENDBRANCH  15  17
ENDBRANCH  11  13
ENDBRANCH   8  11
ENDBRANCH   6   7
ENDBRANCH   1   6
TORSDOF 8
ENDMDL
