MODEL 1
REMARK VINA RESULT: -7.147724024      0.000      0.000
REMARK  8 active torsions:
REMARK  status: ('A' for Active; 'I' for Inactive)
REMARK    1  A    between atoms: C2_2  and  C3_3 
REMARK    2  A    between atoms: C2_2  and  C4_6 
REMARK    3  A    between atoms: N1_14  and  O3_16 
REMARK    4  A    between atoms: O3_16  and  C11_17 
REMARK    5  A    between atoms: C14_20  and  C15_21 
REMARK    6  A    between atoms: C15_21  and  O4_22 
REMARK    7  A    between atoms: C17_27  and  O7_29 
REMARK    8  A    between atoms: C19_31  and  C20_32 
ROOT
HETATM    1  C4  UNL     1       3.007  37.532  21.857  1.00  0.00     0.032 C 
HETATM    2  C5  UNL     1       1.915  36.540  21.558  1.00  0.00     0.057 C 
HETATM    3  C6  UNL     1       1.034  36.869  22.778  1.00  0.00     0.141 C 
HETATM    4  F1  UNL     1       0.851  38.241  22.714  1.00  0.00    -0.239 F 
HETATM    5  C7  UNL     1       2.022  36.624  23.862  1.00  0.00     0.034 C 
HETATM    6  C8  UNL     1       2.404  35.233  24.116  1.00  0.00     0.014 C 
HETATM    7  C9  UNL     1       1.522  34.553  25.176  1.00  0.00     0.058 C 
HETATM    8  C10 UNL     1       0.516  33.672  24.549  1.00  0.00     0.052 C 
HETATM    9  N1  UNL     1       0.705  32.415  24.685  1.00  0.00    -0.271 N 
ATOM     10  H1  UNL     1       0.016  31.798  24.255  1.00  0.00     0.193 HD
HETATM   11  C14 UNL     1      -0.679  33.952  23.786  1.00  0.00     0.189 C 
HETATM   12  O5  UNL     1      -1.007  33.090  22.739  1.00  0.00    -0.218 OA
HETATM   13  O6  UNL     1      -1.529  34.196  22.173  1.00  0.00    -0.227 OA
HETATM   14  C16 UNL     1      -0.364  34.797  22.634  1.00  0.00     0.243 C 
HETATM   15  C17 UNL     1      -0.279  36.245  22.784  1.00  0.00     0.123 C 
HETATM   16  C18 UNL     1      -1.043  36.847  21.581  1.00  0.00     0.052 C 
HETATM   17  C19 UNL     1       3.178  37.508  23.326  1.00  0.00     0.001 C 
ENDROOT
BRANCH   9  18
HETATM   18  O3  UNL     1       1.726  31.822  25.341  1.00  0.00    -0.276 OA
BRANCH  18  19
HETATM   19  C11 UNL     1       2.915  31.546  24.623  1.00  0.00     0.144 C 
HETATM   20  C12 UNL     1       4.144  32.081  25.283  1.00  0.00     0.042 C 
HETATM   21  C13 UNL     1       3.109  30.042  24.427  1.00  0.00     0.042 C 
ENDBRANCH  18  19
ENDBRANCH   9  18
BRANCH  11  22
HETATM   22  C15 UNL     1      -1.885  34.165  24.624  1.00  0.00     0.214 C 
BRANCH  22  23
HETATM   23  O4  UNL     1      -2.574  33.025  24.983  1.00  0.00    -0.397 OA
ATOM     24  H4  UNL     1      -3.365  33.163  25.492  1.00  0.00     0.209 HD
ENDBRANCH  22  23
ENDBRANCH  11  22
BRANCH  15  25
HETATM   25  O7  UNL     1      -0.987  36.760  23.893  1.00  0.00    -0.384 OA
ATOM     26  H7  UNL     1      -1.715  36.174  24.062  1.00  0.00     0.210 HD
ENDBRANCH  15  25
BRANCH  17  27
HETATM   27  C20 UNL     1       4.490  37.144  23.888  1.00  0.00     0.001 C 
HETATM   28  C21 UNL     1       5.185  38.352  24.549  1.00  0.00     0.005 C 
ENDBRANCH  17  27
BRANCH   1  29
HETATM   29  C2  UNL     1       4.156  37.510  20.979  1.00  0.00     0.014 C 
HETATM   30  C1  UNL     1       4.455  36.441  20.261  1.00  0.00     0.026 C 
BRANCH  29  31
HETATM   31  C3  UNL     1       5.004  38.692  20.803  1.00  0.00     0.204 C 
HETATM   32  O1  UNL     1       6.102  38.639  20.208  1.00  0.00    -0.644 OA
HETATM   33  O2  UNL     1       4.609  39.939  21.305  1.00  0.00    -0.644 OA
ENDBRANCH  29  31
ENDBRANCH   1  29
TORSDOF 8
ENDMDL
MODEL 2
REMARK VINA RESULT: -7.052565240      2.453      6.906
REMARK  8 active torsions:
REMARK  status: ('A' for Active; 'I' for Inactive)
REMARK    1  A    between atoms: C2_2  and  C3_3 
REMARK    2  A    between atoms: C2_2  and  C4_6 
REMARK    3  A    between atoms: N1_14  and  O3_16 
REMARK    4  A    between atoms: O3_16  and  C11_17 
REMARK    5  A    between atoms: C14_20  and  C15_21 
REMARK    6  A    between atoms: C15_21  and  O4_22 
REMARK    7  A    between atoms: C17_27  and  O7_29 
REMARK    8  A    between atoms: C19_31  and  C20_32 
ROOT
HETATM    1  C4  UNL     1      -0.239  35.519  24.392  1.00  0.00     0.032 C 
HETATM    2  C5  UNL     1       1.075  36.107  24.832  1.00  0.00     0.057 C 
HETATM    3  C6  UNL     1       0.881  37.489  24.181  1.00  0.00     0.141 C 
HETATM    4  F1  UNL     1      -0.344  37.928  24.658  1.00  0.00    -0.239 F 
HETATM    5  C7  UNL     1       0.658  37.064  22.773  1.00  0.00     0.034 C 
HETATM    6  C8  UNL     1       1.814  36.534  22.045  1.00  0.00     0.014 C 
HETATM    7  C9  UNL     1       2.590  37.618  21.280  1.00  0.00     0.058 C 
HETATM    8  C10 UNL     1       3.815  38.009  22.003  1.00  0.00     0.052 C 
HETATM    9  N1  UNL     1       4.921  37.624  21.489  1.00  0.00    -0.271 N 
ATOM     10  H1  UNL     1       5.773  37.889  21.982  1.00  0.00     0.193 HD
HETATM   11  C14 UNL     1       4.027  38.766  23.217  1.00  0.00     0.189 C 
HETATM   12  O5  UNL     1       5.078  38.387  24.052  1.00  0.00    -0.218 OA
HETATM   13  O6  UNL     1       4.276  38.835  25.038  1.00  0.00    -0.227 OA
HETATM   14  C16 UNL     1       3.286  38.168  24.327  1.00  0.00     0.243 C 
HETATM   15  C17 UNL     1       1.878  38.488  24.530  1.00  0.00     0.123 C 
HETATM   16  C18 UNL     1       1.709  38.746  26.046  1.00  0.00     0.052 C 
HETATM   17  C19 UNL     1      -0.464  36.023  23.020  1.00  0.00     0.001 C 
ENDROOT
BRANCH   9  18
HETATM   18  O3  UNL     1       5.072  36.900  20.359  1.00  0.00    -0.276 OA
BRANCH  18  19
HETATM   19  C11 UNL     1       6.387  36.636  19.903  1.00  0.00     0.144 C 
HETATM   20  C12 UNL     1       6.593  36.967  18.461  1.00  0.00     0.042 C 
HETATM   21  C13 UNL     1       7.424  37.416  20.712  1.00  0.00     0.042 C 
ENDBRANCH  18  19
ENDBRANCH   9  18
BRANCH  11  22
HETATM   22  C15 UNL     1       4.094  40.232  23.001  1.00  0.00     0.214 C 
BRANCH  22  23
HETATM   23  O4  UNL     1       3.431  40.704  21.887  1.00  0.00    -0.397 OA
ATOM     24  H4  UNL     1       3.979  41.087  21.212  1.00  0.00     0.209 HD
ENDBRANCH  22  23
ENDBRANCH  11  22
BRANCH  15  25
HETATM   25  O7  UNL     1       1.469  39.713  23.957  1.00  0.00    -0.384 OA
ATOM     26  H7  UNL     1       0.532  39.791  24.093  1.00  0.00     0.210 HD
ENDBRANCH  15  25
BRANCH  17  27
HETATM   27  C20 UNL     1      -0.607  35.057  21.917  1.00  0.00     0.001 C 
HETATM   28  C21 UNL     1      -1.854  35.349  21.057  1.00  0.00     0.005 C 
ENDBRANCH  17  27
BRANCH   1  29
HETATM   29  C2  UNL     1      -0.462  34.127  24.714  1.00  0.00     0.014 C 
HETATM   30  C1  UNL     1       0.545  33.285  24.866  1.00  0.00     0.026 C 
BRANCH  29  31
HETATM   31  C3  UNL     1      -1.812  33.603  24.943  1.00  0.00     0.204 C 
HETATM   32  O1  UNL     1      -2.632  33.453  24.012  1.00  0.00    -0.644 OA
HETATM   33  O2  UNL     1      -2.235  33.251  26.231  1.00  0.00    -0.644 OA
ENDBRANCH  29  31
ENDBRANCH   1  29
TORSDOF 8
ENDMDL
MODEL 3
REMARK VINA RESULT: -7.039140641      2.958      6.867
REMARK  8 active torsions:
REMARK  status: ('A' for Active; 'I' for Inactive)
REMARK    1  A    between atoms: C2_2  and  C3_3 
REMARK    2  A    between atoms: C2_2  and  C4_6 
REMARK    3  A    between atoms: N1_14  and  O3_16 
REMARK    4  A    between atoms: O3_16  and  C11_17 
REMARK    5  A    between atoms: C14_20  and  C15_21 
REMARK    6  A    between atoms: C15_21  and  O4_22 
REMARK    7  A    between atoms: C17_27  and  O7_29 
REMARK    8  A    between atoms: C19_31  and  C20_32 
ROOT
HETATM    1  C4  UNL     1      -0.618  32.624  25.705  1.00  0.00     0.032 C 
HETATM    2  C5  UNL     1      -0.228  34.077  25.737  1.00  0.00     0.057 C 
HETATM    3  C6  UNL     1       0.307  34.152  24.294  1.00  0.00     0.141 C 
HETATM    4  F1  UNL     1      -0.728  33.661  23.514  1.00  0.00    -0.239 F 
HETATM    5  C7  UNL     1       1.333  33.076  24.361  1.00  0.00     0.034 C 
HETATM    6  C8  UNL     1       2.533  33.348  25.156  1.00  0.00     0.014 C 
HETATM    7  C9  UNL     1       3.671  33.968  24.330  1.00  0.00     0.058 C 
HETATM    8  C10 UNL     1       3.762  35.424  24.555  1.00  0.00     0.052 C 
HETATM    9  N1  UNL     1       4.767  35.828  25.235  1.00  0.00    -0.271 N 
ATOM     10  H1  UNL     1       4.838  36.833  25.397  1.00  0.00     0.193 HD
HETATM   11  C14 UNL     1       2.916  36.524  24.150  1.00  0.00     0.189 C 
HETATM   12  O5  UNL     1       2.764  37.596  25.030  1.00  0.00    -0.218 OA
HETATM   13  O6  UNL     1       1.535  37.692  24.487  1.00  0.00    -0.227 OA
HETATM   14  C16 UNL     1       1.542  36.307  24.602  1.00  0.00     0.243 C 
HETATM   15  C17 UNL     1       0.629  35.487  23.817  1.00  0.00     0.123 C 
HETATM   16  C18 UNL     1      -0.712  36.258  23.773  1.00  0.00     0.052 C 
HETATM   17  C19 UNL     1       0.441  31.942  24.930  1.00  0.00     0.001 C 
ENDROOT
BRANCH   9  18
HETATM   18  O3  UNL     1       5.743  35.058  25.761  1.00  0.00    -0.276 OA
BRANCH  18  19
HETATM   19  C11 UNL     1       6.624  35.641  26.705  1.00  0.00     0.144 C 
HETATM   20  C12 UNL     1       6.690  34.893  27.996  1.00  0.00     0.042 C 
HETATM   21  C13 UNL     1       8.045  35.741  26.151  1.00  0.00     0.042 C 
ENDBRANCH  18  19
ENDBRANCH   9  18
BRANCH  11  22
HETATM   22  C15 UNL     1       3.236  37.056  22.802  1.00  0.00     0.214 C 
BRANCH  22  23
HETATM   23  O4  UNL     1       4.535  36.868  22.376  1.00  0.00    -0.397 OA
ATOM     24  H4  UNL     1       5.177  36.724  23.061  1.00  0.00     0.209 HD
ENDBRANCH  22  23
ENDBRANCH  11  22
BRANCH  15  25
HETATM   25  O7  UNL     1       0.970  35.377  22.451  1.00  0.00    -0.384 OA
ATOM     26  H7  UNL     1       1.917  35.416  22.390  1.00  0.00     0.210 HD
ENDBRANCH  15  25
BRANCH  17  27
HETATM   27  C20 UNL     1       1.218  30.867  25.572  1.00  0.00     0.001 C 
HETATM   28  C21 UNL     1       2.260  30.260  24.609  1.00  0.00     0.005 C 
ENDBRANCH  17  27
BRANCH   1  29
HETATM   29  C2  UNL     1      -1.106  32.060  26.944  1.00  0.00     0.014 C 
HETATM   30  C1  UNL     1      -0.407  32.145  28.062  1.00  0.00     0.026 C 
BRANCH  29  31
HETATM   31  C3  UNL     1      -2.424  31.423  27.026  1.00  0.00     0.204 C 
HETATM   32  O1  UNL     1      -3.112  31.189  26.009  1.00  0.00    -0.644 OA
HETATM   33  O2  UNL     1      -2.963  31.049  28.263  1.00  0.00    -0.644 OA
ENDBRANCH  29  31
ENDBRANCH   1  29
TORSDOF 8
ENDMDL
MODEL 4
REMARK VINA RESULT: -6.944632084      0.940      1.109
REMARK  8 active torsions:
REMARK  status: ('A' for Active; 'I' for Inactive)
REMARK    1  A    between atoms: C2_2  and  C3_3 
REMARK    2  A    between atoms: C2_2  and  C4_6 
REMARK    3  A    between atoms: N1_14  and  O3_16 
REMARK    4  A    between atoms: O3_16  and  C11_17 
REMARK    5  A    between atoms: C14_20  and  C15_21 
REMARK    6  A    between atoms: C15_21  and  O4_22 
REMARK    7  A    between atoms: C17_27  and  O7_29 
REMARK    8  A    between atoms: C19_31  and  C20_32 
ROOT
HETATM    1  C4  UNL     1       3.125  37.685  22.314  1.00  0.00     0.032 C 
HETATM    2  C5  UNL     1       2.017  36.748  21.916  1.00  0.00     0.057 C 
HETATM    3  C6  UNL     1       1.149  36.951  23.172  1.00  0.00     0.141 C 
HETATM    4  F1  UNL     1       0.985  38.324  23.262  1.00  0.00    -0.239 F 
HETATM    5  C7  UNL     1       2.141  36.574  24.215  1.00  0.00     0.034 C 
HETATM    6  C8  UNL     1       2.504  35.159  24.310  1.00  0.00     0.014 C 
HETATM    7  C9  UNL     1       1.620  34.377  25.295  1.00  0.00     0.058 C 
HETATM    8  C10 UNL     1       0.598  33.585  24.583  1.00  0.00     0.052 C 
HETATM    9  N1  UNL     1       0.769  32.318  24.578  1.00  0.00    -0.271 N 
ATOM     10  H1  UNL     1       0.068  31.762  24.088  1.00  0.00     0.193 HD
HETATM   11  C14 UNL     1      -0.599  33.964  23.866  1.00  0.00     0.189 C 
HETATM   12  O5  UNL     1      -0.946  33.228  22.733  1.00  0.00    -0.218 OA
HETATM   13  O6  UNL     1      -1.456  34.397  22.297  1.00  0.00    -0.227 OA
HETATM   14  C16 UNL     1      -0.280  34.927  22.812  1.00  0.00     0.243 C 
HETATM   15  C17 UNL     1      -0.173  36.348  23.121  1.00  0.00     0.123 C 
HETATM   16  C18 UNL     1      -0.936  37.090  21.998  1.00  0.00     0.052 C 
HETATM   17  C19 UNL     1       3.306  37.497  23.770  1.00  0.00     0.001 C 
ENDROOT
BRANCH   9  18
HETATM   18  O3  UNL     1       1.785  31.642  25.156  1.00  0.00    -0.276 OA
BRANCH  18  19
HETATM   19  C11 UNL     1       3.002  31.518  24.441  1.00  0.00     0.144 C 
HETATM   20  C12 UNL     1       4.201  31.921  25.235  1.00  0.00     0.042 C 
HETATM   21  C13 UNL     1       3.221  30.082  23.963  1.00  0.00     0.042 C 
ENDBRANCH  18  19
ENDBRANCH   9  18
BRANCH  11  22
HETATM   22  C15 UNL     1      -1.796  34.099  24.733  1.00  0.00     0.214 C 
BRANCH  22  23
HETATM   23  O4  UNL     1      -2.494  32.934  24.976  1.00  0.00    -0.397 OA
ATOM     24  H4  UNL     1      -2.809  32.820  25.865  1.00  0.00     0.209 HD
ENDBRANCH  22  23
ENDBRANCH  11  22
BRANCH  15  25
HETATM   25  O7  UNL     1      -0.866  36.747  24.285  1.00  0.00    -0.384 OA
ATOM     26  H7  UNL     1      -0.711  36.086  24.949  1.00  0.00     0.210 HD
ENDBRANCH  15  25
BRANCH  17  27
HETATM   27  C20 UNL     1       4.616  37.055  24.277  1.00  0.00     0.001 C 
HETATM   28  C21 UNL     1       4.927  37.659  25.663  1.00  0.00     0.005 C 
ENDBRANCH  17  27
BRANCH   1  29
HETATM   29  C2  UNL     1       4.268  37.745  21.429  1.00  0.00     0.014 C 
HETATM   30  C1  UNL     1       5.343  38.449  21.740  1.00  0.00     0.026 C 
BRANCH  29  31
HETATM   31  C3  UNL     1       4.306  36.982  20.179  1.00  0.00     0.204 C 
HETATM   32  O1  UNL     1       4.842  35.856  20.105  1.00  0.00    -0.644 OA
HETATM   33  O2  UNL     1       3.737  37.497  19.008  1.00  0.00    -0.644 OA
ENDBRANCH  29  31
ENDBRANCH   1  29
TORSDOF 8
ENDMDL
MODEL 5
REMARK VINA RESULT: -6.788443971      2.505      6.765
REMARK  8 active torsions:
REMARK  status: ('A' for Active; 'I' for Inactive)
REMARK    1  A    between atoms: C2_2  and  C3_3 
REMARK    2  A    between atoms: C2_2  and  C4_6 
REMARK    3  A    between atoms: N1_14  and  O3_16 
REMARK    4  A    between atoms: O3_16  and  C11_17 
REMARK    5  A    between atoms: C14_20  and  C15_21 
REMARK    6  A    between atoms: C15_21  and  O4_22 
REMARK    7  A    between atoms: C17_27  and  O7_29 
REMARK    8  A    between atoms: C19_31  and  C20_32 
ROOT
HETATM    1  C4  UNL     1      -0.171  35.627  24.517  1.00  0.00     0.032 C 
HETATM    2  C5  UNL     1       1.163  36.191  24.923  1.00  0.00     0.057 C 
HETATM    3  C6  UNL     1       1.006  37.551  24.218  1.00  0.00     0.141 C 
HETATM    4  F1  UNL     1      -0.201  38.047  24.685  1.00  0.00    -0.239 F 
HETATM    5  C7  UNL     1       0.759  37.077  22.830  1.00  0.00     0.034 C 
HETATM    6  C8  UNL     1       1.891  36.482  22.116  1.00  0.00     0.014 C 
HETATM    7  C9  UNL     1       2.693  37.510  21.302  1.00  0.00     0.058 C 
HETATM    8  C10 UNL     1       3.937  37.892  22.000  1.00  0.00     0.052 C 
HETATM    9  N1  UNL     1       5.025  37.452  21.494  1.00  0.00    -0.271 N 
ATOM     10  H1  UNL     1       5.890  37.711  21.970  1.00  0.00     0.193 HD
HETATM   11  C14 UNL     1       4.182  38.690  23.180  1.00  0.00     0.189 C 
HETATM   12  O5  UNL     1       5.228  38.313  24.022  1.00  0.00    -0.218 OA
HETATM   13  O6  UNL     1       4.448  38.825  24.995  1.00  0.00    -0.227 OA
HETATM   14  C16 UNL     1       3.432  38.162  24.319  1.00  0.00     0.243 C 
HETATM   15  C17 UNL     1       2.036  38.532  24.519  1.00  0.00     0.123 C 
HETATM   16  C18 UNL     1       1.888  38.857  26.024  1.00  0.00     0.052 C 
HETATM   17  C19 UNL     1      -0.393  36.081  23.127  1.00  0.00     0.001 C 
ENDROOT
BRANCH   9  18
HETATM   18  O3  UNL     1       5.145  36.680  20.393  1.00  0.00    -0.276 OA
BRANCH  18  19
HETATM   19  C11 UNL     1       6.410  36.606  19.758  1.00  0.00     0.144 C 
HETATM   20  C12 UNL     1       6.401  37.121  18.356  1.00  0.00     0.042 C 
HETATM   21  C13 UNL     1       7.467  37.391  20.536  1.00  0.00     0.042 C 
ENDBRANCH  18  19
ENDBRANCH   9  18
BRANCH  11  22
HETATM   22  C15 UNL     1       4.291  40.144  22.904  1.00  0.00     0.214 C 
BRANCH  22  23
HETATM   23  O4  UNL     1       4.565  40.487  21.596  1.00  0.00    -0.397 OA
ATOM     24  H4  UNL     1       4.791  41.397  21.447  1.00  0.00     0.209 HD
ENDBRANCH  22  23
ENDBRANCH  11  22
BRANCH  15  25
HETATM   25  O7  UNL     1       1.660  39.745  23.900  1.00  0.00    -0.384 OA
ATOM     26  H7  UNL     1       1.979  39.719  23.006  1.00  0.00     0.210 HD
ENDBRANCH  15  25
BRANCH  17  27
HETATM   27  C20 UNL     1      -0.574  35.077  22.066  1.00  0.00     0.001 C 
HETATM   28  C21 UNL     1      -1.503  35.589  20.945  1.00  0.00     0.005 C 
ENDBRANCH  17  27
BRANCH   1  29
HETATM   29  C2  UNL     1      -0.435  34.256  24.897  1.00  0.00     0.014 C 
HETATM   30  C1  UNL     1      -1.667  33.781  24.950  1.00  0.00     0.026 C 
BRANCH  29  31
HETATM   31  C3  UNL     1       0.656  33.320  25.183  1.00  0.00     0.204 C 
HETATM   32  O1  UNL     1       1.311  32.767  24.273  1.00  0.00    -0.644 OA
HETATM   33  O2  UNL     1       1.006  33.009  26.502  1.00  0.00    -0.644 OA
ENDBRANCH  29  31
ENDBRANCH   1  29
TORSDOF 8
ENDMDL
