MODEL 1
REMARK VINA RESULT: -7.111725434      0.000      0.000
REMARK  8 active torsions:
REMARK  status: ('A' for Active; 'I' for Inactive)
REMARK    1  A    between atoms: C2_2  and  C3_3 
REMARK    2  A    between atoms: C3_3  and  C4_4 
REMARK    3  A    between atoms: C7_11  and  N3_12 
REMARK    4  A    between atoms: C10_15  and  O1_16 
REMARK    5  A    between atoms: N4_23  and  C15_24 
REMARK    6  A    between atoms: C18_27  and  N5_28 
REMARK    7  A    between atoms: C19_34  and  C20_35 
REMARK    8  A    between atoms: C20_35  and  O2_38 
ROOT
HETATM    1  C4  UNL     1       3.463  34.596  24.631  1.00  0.00     0.085 A 
HETATM    2  N1  UNL     1       4.443  34.951  25.493  1.00  0.00    -0.343 N 
ATOM      3  H1  UNL     1       5.147  34.315  25.865  1.00  0.00     0.167 HD
HETATM    4  C5  UNL     1       4.362  36.231  25.784  1.00  0.00     0.079 A 
HETATM    5  C6  UNL     1       5.138  37.036  26.613  1.00  0.00     0.121 A 
HETATM    6  N2  UNL     1       4.862  38.323  26.756  1.00  0.00    -0.348 N 
ATOM      7  H2  UNL     1       5.431  38.912  27.365  1.00  0.00     0.167 HD
HETATM    8  C7  UNL     1       3.803  38.846  26.075  1.00  0.00     0.145 A 
HETATM    9  C13 UNL     1       3.031  38.055  25.253  1.00  0.00     0.189 A 
HETATM   10  F1  UNL     1       2.020  38.640  24.611  1.00  0.00    -0.200 F 
HETATM   11  C14 UNL     1       3.283  36.710  25.076  1.00  0.00     0.107 A 
HETATM   12  N4  UNL     1       2.737  35.680  24.365  1.00  0.00    -0.322 N 
ENDROOT
BRANCH  12  13
HETATM   13  C15 UNL     1       1.638  35.842  23.504  1.00  0.00     0.140 C 
HETATM   14  C16 UNL     1       0.761  34.598  23.474  1.00  0.00     0.035 C 
HETATM   15  C17 UNL     1      -0.664  35.065  23.125  1.00  0.00     0.056 C 
HETATM   16  C18 UNL     1      -0.594  36.023  22.013  1.00  0.00     0.281 C 
HETATM   17  N6  UNL     1       0.678  36.349  21.488  1.00  0.00    -0.365 N 
HETATM   18  C19 UNL     1       1.818  36.293  22.132  1.00  0.00     0.041 C 
ATOM     19  H6  UNL     1       0.712  36.657  20.516  1.00  0.00     0.161 HD
BRANCH  16  20
HETATM   20  N5  UNL     1      -1.434  35.640  20.870  1.00  0.00    -0.058 N 
ATOM     21  H53 UNL     1      -2.100  34.914  21.135  1.00  0.00     0.276 HD
ATOM     22  H52 UNL     1      -2.089  36.386  20.633  1.00  0.00     0.276 HD
ATOM     23  H51 UNL     1      -0.892  35.358  20.054  1.00  0.00     0.276 HD
ENDBRANCH  16  20
BRANCH  18  24
HETATM   24  C20 UNL     1       2.980  36.687  21.357  1.00  0.00     0.090 C 
HETATM   25  C21 UNL     1       2.674  36.751  19.841  1.00  0.00     0.052 C 
HETATM   26  C22 UNL     1       3.665  37.954  21.677  1.00  0.00     0.052 C 
BRANCH  24  27
HETATM   27  O2  UNL     1       3.942  35.660  21.421  1.00  0.00    -0.385 OA
ATOM     28  H2  UNL     1       4.683  35.897  20.877  1.00  0.00     0.211 HD
ENDBRANCH  24  27
ENDBRANCH  18  24
ENDBRANCH  12  13
BRANCH   1  29
HETATM   29  C3  UNL     1       3.421  33.205  24.143  1.00  0.00     0.076 C 
BRANCH  29  30
HETATM   30  C2  UNL     1       3.423  32.241  25.292  1.00  0.00     0.003 C 
HETATM   31  C1  UNL     1       4.247  31.005  24.957  1.00  0.00     0.005 C 
ENDBRANCH  29  30
ENDBRANCH   1  29
BRANCH   8  32
HETATM   32  N3  UNL     1       3.578  40.218  26.279  1.00  0.00    -0.365 N 
HETATM   33  C8  UNL     1       2.817  40.649  27.430  1.00  0.00     0.127 C 
HETATM   34  C9  UNL     1       2.546  42.147  27.361  1.00  0.00     0.051 C 
HETATM   35  C10 UNL     1       2.145  42.611  26.001  1.00  0.00     0.121 C 
HETATM   36  C11 UNL     1       2.887  41.994  24.864  1.00  0.00     0.051 C 
HETATM   37  C12 UNL     1       4.073  41.241  25.384  1.00  0.00     0.127 C 
BRANCH  35  38
HETATM   38  O1  UNL     1       0.758  42.453  25.808  1.00  0.00    -0.395 OA
ATOM     39  H1  UNL     1       0.292  43.246  26.048  1.00  0.00     0.210 HD
ENDBRANCH  35  38
ENDBRANCH   8  32
TORSDOF 8
ENDMDL
MODEL 2
REMARK VINA RESULT: -7.070058647      2.767      6.917
REMARK  8 active torsions:
REMARK  status: ('A' for Active; 'I' for Inactive)
REMARK    1  A    between atoms: C2_2  and  C3_3 
REMARK    2  A    between atoms: C3_3  and  C4_4 
REMARK    3  A    between atoms: C7_11  and  N3_12 
REMARK    4  A    between atoms: C10_15  and  O1_16 
REMARK    5  A    between atoms: N4_23  and  C15_24 
REMARK    6  A    between atoms: C18_27  and  N5_28 
REMARK    7  A    between atoms: C19_34  and  C20_35 
REMARK    8  A    between atoms: C20_35  and  O2_38 
ROOT
HETATM    1  C4  UNL     1       3.382  40.117  25.667  1.00  0.00     0.085 A 
HETATM    2  N1  UNL     1       2.065  40.141  25.973  1.00  0.00    -0.343 N 
ATOM      3  H1  UNL     1       1.597  40.903  26.465  1.00  0.00     0.167 HD
HETATM    4  C5  UNL     1       1.470  39.048  25.549  1.00  0.00     0.079 A 
HETATM    5  C6  UNL     1       0.145  38.630  25.633  1.00  0.00     0.121 A 
HETATM    6  N2  UNL     1      -0.230  37.466  25.125  1.00  0.00    -0.348 N 
ATOM      7  H2  UNL     1      -1.201  37.160  25.188  1.00  0.00     0.167 HD
HETATM    8  C7  UNL     1       0.707  36.684  24.517  1.00  0.00     0.145 A 
HETATM    9  C13 UNL     1       2.020  37.092  24.431  1.00  0.00     0.189 A 
HETATM   10  F1  UNL     1       2.876  36.279  23.811  1.00  0.00    -0.200 F 
HETATM   11  C14 UNL     1       2.453  38.296  24.947  1.00  0.00     0.107 A 
HETATM   12  N4  UNL     1       3.634  38.976  25.029  1.00  0.00    -0.322 N 
ENDROOT
BRANCH  12  13
HETATM   13  C15 UNL     1       4.834  38.498  24.474  1.00  0.00     0.140 C 
HETATM   14  C16 UNL     1       6.034  38.859  25.338  1.00  0.00     0.035 C 
HETATM   15  C17 UNL     1       7.108  37.785  25.083  1.00  0.00     0.056 C 
HETATM   16  C18 UNL     1       7.204  37.540  23.637  1.00  0.00     0.281 C 
HETATM   17  N6  UNL     1       6.351  38.269  22.775  1.00  0.00    -0.365 N 
HETATM   18  C19 UNL     1       5.183  38.774  23.088  1.00  0.00     0.041 C 
ATOM     19  H6  UNL     1       6.676  38.415  21.819  1.00  0.00     0.161 HD
BRANCH  16  20
HETATM   20  N5  UNL     1       8.568  37.707  23.117  1.00  0.00    -0.058 N 
ATOM     21  H53 UNL     1       9.085  38.397  23.662  1.00  0.00     0.276 HD
ATOM     22  H52 UNL     1       9.136  36.882  23.313  1.00  0.00     0.276 HD
ATOM     23  H51 UNL     1       8.591  37.936  22.123  1.00  0.00     0.276 HD
ENDBRANCH  16  20
BRANCH  18  24
HETATM   24  C20 UNL     1       4.510  39.474  22.012  1.00  0.00     0.090 C 
HETATM   25  C21 UNL     1       4.170  40.937  22.391  1.00  0.00     0.052 C 
HETATM   26  C22 UNL     1       5.151  39.547  20.685  1.00  0.00     0.052 C 
BRANCH  24  27
HETATM   27  O2  UNL     1       3.230  38.912  21.832  1.00  0.00    -0.385 OA
ATOM     28  H2  UNL     1       2.650  39.574  21.474  1.00  0.00     0.211 HD
ENDBRANCH  24  27
ENDBRANCH  18  24
ENDBRANCH  12  13
BRANCH   1  29
HETATM   29  C3  UNL     1       4.210  41.286  26.016  1.00  0.00     0.076 C 
BRANCH  29  30
HETATM   30  C2  UNL     1       3.429  42.556  25.850  1.00  0.00     0.003 C 
HETATM   31  C1  UNL     1       4.182  43.540  24.965  1.00  0.00     0.005 C 
ENDBRANCH  29  30
ENDBRANCH   1  29
BRANCH   8  32
HETATM   32  N3  UNL     1       0.229  35.466  24.003  1.00  0.00    -0.365 N 
HETATM   33  C8  UNL     1      -0.622  35.474  22.836  1.00  0.00     0.127 C 
HETATM   34  C9  UNL     1      -1.162  34.076  22.559  1.00  0.00     0.051 C 
HETATM   35  C10 UNL     1      -1.612  33.364  23.791  1.00  0.00     0.121 C 
HETATM   36  C11 UNL     1      -0.745  33.541  24.991  1.00  0.00     0.051 C 
HETATM   37  C12 UNL     1       0.548  34.184  24.590  1.00  0.00     0.127 C 
BRANCH  35  38
HETATM   38  O1  UNL     1      -2.942  33.707  24.108  1.00  0.00    -0.395 OA
ATOM     39  H1  UNL     1      -3.038  33.856  25.041  1.00  0.00     0.210 HD
ENDBRANCH  35  38
ENDBRANCH   8  32
TORSDOF 8
ENDMDL
MODEL 3
REMARK VINA RESULT: -7.022143067      2.856      6.763
REMARK  8 active torsions:
REMARK  status: ('A' for Active; 'I' for Inactive)
REMARK    1  A    between atoms: C2_2  and  C3_3 
REMARK    2  A    between atoms: C3_3  and  C4_4 
REMARK    3  A    between atoms: C7_11  and  N3_12 
REMARK    4  A    between atoms: C10_15  and  O1_16 
REMARK    5  A    between atoms: N4_23  and  C15_24 
REMARK    6  A    between atoms: C18_27  and  N5_28 
REMARK    7  A    between atoms: C19_34  and  C20_35 
REMARK    8  A    between atoms: C20_35  and  O2_38 
ROOT
HETATM    1  C4  UNL     1       3.640  40.112  25.222  1.00  0.00     0.085 A 
HETATM    2  N1  UNL     1       2.395  40.093  25.752  1.00  0.00    -0.343 N 
ATOM      3  H1  UNL     1       2.009  40.822  26.352  1.00  0.00     0.167 HD
HETATM    4  C5  UNL     1       1.753  39.006  25.385  1.00  0.00     0.079 A 
HETATM    5  C6  UNL     1       0.468  38.555  25.677  1.00  0.00     0.121 A 
HETATM    6  N2  UNL     1       0.029  37.407  25.188  1.00  0.00    -0.348 N 
ATOM      7  H2  UNL     1      -0.912  37.076  25.403  1.00  0.00     0.167 HD
HETATM    8  C7  UNL     1       0.857  36.673  24.391  1.00  0.00     0.145 A 
HETATM    9  C13 UNL     1       2.129  37.114  24.099  1.00  0.00     0.189 A 
HETATM   10  F1  UNL     1       2.876  36.349  23.304  1.00  0.00    -0.200 F 
HETATM   11  C14 UNL     1       2.628  38.304  24.588  1.00  0.00     0.107 A 
HETATM   12  N4  UNL     1       3.794  39.007  24.498  1.00  0.00    -0.322 N 
ENDROOT
BRANCH  12  13
HETATM   13  C15 UNL     1       4.887  38.580  23.722  1.00  0.00     0.140 C 
HETATM   14  C16 UNL     1       4.481  38.316  22.280  1.00  0.00     0.035 C 
HETATM   15  C17 UNL     1       5.735  38.544  21.414  1.00  0.00     0.056 C 
HETATM   16  C18 UNL     1       6.884  37.890  22.057  1.00  0.00     0.281 C 
HETATM   17  N6  UNL     1       6.673  37.216  23.282  1.00  0.00    -0.365 N 
HETATM   18  C19 UNL     1       5.732  37.478  24.157  1.00  0.00     0.041 C 
ATOM     19  H6  UNL     1       7.314  36.456  23.507  1.00  0.00     0.161 HD
BRANCH  16  20
HETATM   20  N5  UNL     1       7.575  36.944  21.171  1.00  0.00    -0.058 N 
ATOM     21  H53 UNL     1       6.997  36.712  20.363  1.00  0.00     0.276 HD
ATOM     22  H52 UNL     1       8.355  37.397  20.692  1.00  0.00     0.276 HD
ATOM     23  H51 UNL     1       7.884  36.100  21.652  1.00  0.00     0.276 HD
ENDBRANCH  16  20
BRANCH  18  24
HETATM   24  C20 UNL     1       5.742  36.636  25.337  1.00  0.00     0.090 C 
HETATM   25  C21 UNL     1       7.176  36.201  25.731  1.00  0.00     0.052 C 
HETATM   26  C22 UNL     1       5.122  37.129  26.582  1.00  0.00     0.052 C 
BRANCH  24  27
HETATM   27  O2  UNL     1       5.136  35.402  25.024  1.00  0.00    -0.385 OA
ATOM     28  H2  UNL     1       5.221  35.245  24.091  1.00  0.00     0.211 HD
ENDBRANCH  24  27
ENDBRANCH  18  24
ENDBRANCH  12  13
BRANCH   1  29
HETATM   29  C3  UNL     1       4.499  41.284  25.477  1.00  0.00     0.076 C 
BRANCH  29  30
HETATM   30  C2  UNL     1       5.540  40.962  26.508  1.00  0.00     0.003 C 
HETATM   31  C1  UNL     1       6.556  42.091  26.618  1.00  0.00     0.005 C 
ENDBRANCH  29  30
ENDBRANCH   1  29
BRANCH   8  32
HETATM   32  N3  UNL     1       0.316  35.468  23.911  1.00  0.00    -0.365 N 
HETATM   33  C8  UNL     1      -0.619  35.500  22.809  1.00  0.00     0.127 C 
HETATM   34  C9  UNL     1      -1.209  34.115  22.569  1.00  0.00     0.051 C 
HETATM   35  C10 UNL     1      -1.584  33.409  23.829  1.00  0.00     0.121 C 
HETATM   36  C11 UNL     1      -0.627  33.561  24.963  1.00  0.00     0.051 C 
HETATM   37  C12 UNL     1       0.647  34.177  24.470  1.00  0.00     0.127 C 
BRANCH  35  38
HETATM   38  O1  UNL     1      -2.879  33.780  24.244  1.00  0.00    -0.395 OA
ATOM     39  H1  UNL     1      -3.482  33.771  23.510  1.00  0.00     0.210 HD
ENDBRANCH  35  38
ENDBRANCH   8  32
TORSDOF 8
ENDMDL
MODEL 4
REMARK VINA RESULT: -7.018818402      2.992      7.311
REMARK  8 active torsions:
REMARK  status: ('A' for Active; 'I' for Inactive)
REMARK    1  A    between atoms: C2_2  and  C3_3 
REMARK    2  A    between atoms: C3_3  and  C4_4 
REMARK    3  A    between atoms: C7_11  and  N3_12 
REMARK    4  A    between atoms: C10_15  and  O1_16 
REMARK    5  A    between atoms: N4_23  and  C15_24 
REMARK    6  A    between atoms: C18_27  and  N5_28 
REMARK    7  A    between atoms: C19_34  and  C20_35 
REMARK    8  A    between atoms: C20_35  and  O2_38 
ROOT
HETATM    1  C4  UNL     1      -0.021  36.923  20.645  1.00  0.00     0.085 A 
HETATM    2  N1  UNL     1      -1.066  36.078  20.486  1.00  0.00    -0.343 N 
ATOM      3  H1  UNL     1      -1.736  36.122  19.717  1.00  0.00     0.167 HD
HETATM    4  C5  UNL     1      -1.098  35.193  21.458  1.00  0.00     0.079 A 
HETATM    5  C6  UNL     1      -1.975  34.143  21.716  1.00  0.00     0.121 A 
HETATM    6  N2  UNL     1      -1.809  33.369  22.776  1.00  0.00    -0.348 N 
ATOM      7  H2  UNL     1      -2.452  32.600  22.965  1.00  0.00     0.167 HD
HETATM    8  C7  UNL     1      -0.761  33.620  23.613  1.00  0.00     0.145 A 
HETATM    9  C13 UNL     1       0.110  34.658  23.363  1.00  0.00     0.189 A 
HETATM   10  F1  UNL     1       1.116  34.834  24.219  1.00  0.00    -0.200 F 
HETATM   11  C14 UNL     1      -0.028  35.489  22.270  1.00  0.00     0.107 A 
HETATM   12  N4  UNL     1       0.630  36.565  21.749  1.00  0.00    -0.322 N 
ENDROOT
BRANCH  12  13
HETATM   13  C15 UNL     1       1.798  37.100  22.322  1.00  0.00     0.140 C 
HETATM   14  C16 UNL     1       2.871  36.036  22.504  1.00  0.00     0.035 C 
HETATM   15  C17 UNL     1       4.230  36.759  22.452  1.00  0.00     0.056 C 
HETATM   16  C18 UNL     1       4.156  37.973  23.277  1.00  0.00     0.281 C 
HETATM   17  N6  UNL     1       2.936  38.268  23.929  1.00  0.00    -0.365 N 
HETATM   18  C19 UNL     1       1.742  37.890  23.543  1.00  0.00     0.041 C 
ATOM     19  H6  UNL     1       2.991  38.829  24.779  1.00  0.00     0.161 HD
BRANCH  16  20
HETATM   20  N5  UNL     1       5.206  38.035  24.303  1.00  0.00    -0.058 N 
ATOM     21  H53 UNL     1       4.803  38.175  25.229  1.00  0.00     0.276 HD
ATOM     22  H52 UNL     1       5.631  37.118  24.444  1.00  0.00     0.276 HD
ATOM     23  H51 UNL     1       5.917  38.739  24.104  1.00  0.00     0.276 HD
ENDBRANCH  16  20
BRANCH  18  24
HETATM   24  C20 UNL     1       0.654  38.335  24.393  1.00  0.00     0.090 C 
HETATM   25  C21 UNL     1       0.921  39.736  24.995  1.00  0.00     0.052 C 
HETATM   26  C22 UNL     1      -0.714  38.393  23.844  1.00  0.00     0.052 C 
BRANCH  24  27
HETATM   27  O2  UNL     1       0.613  37.523  25.544  1.00  0.00    -0.385 OA
ATOM     28  H2  UNL     1       1.155  37.915  26.218  1.00  0.00     0.211 HD
ENDBRANCH  24  27
ENDBRANCH  18  24
ENDBRANCH  12  13
BRANCH   1  29
HETATM   29  C3  UNL     1       0.214  37.957  19.620  1.00  0.00     0.076 C 
BRANCH  29  30
HETATM   30  C2  UNL     1       0.795  37.348  18.378  1.00  0.00     0.003 C 
HETATM   31  C1  UNL     1       0.135  37.929  17.135  1.00  0.00     0.005 C 
ENDBRANCH  29  30
ENDBRANCH   1  29
BRANCH   8  32
HETATM   32  N3  UNL     1      -0.653  32.754  24.714  1.00  0.00    -0.365 N 
HETATM   33  C8  UNL     1      -1.334  33.083  25.945  1.00  0.00     0.127 C 
HETATM   34  C9  UNL     1      -0.942  32.109  27.050  1.00  0.00     0.051 C 
HETATM   35  C10 UNL     1       0.520  31.809  27.078  1.00  0.00     0.121 C 
HETATM   36  C11 UNL     1       1.168  31.634  25.746  1.00  0.00     0.051 C 
HETATM   37  C12 UNL     1       0.118  31.530  24.682  1.00  0.00     0.127 C 
BRANCH  35  38
HETATM   38  O1  UNL     1       1.215  32.780  27.825  1.00  0.00    -0.395 OA
ATOM     39  H1  UNL     1       2.121  32.523  27.952  1.00  0.00     0.210 HD
ENDBRANCH  35  38
ENDBRANCH   8  32
TORSDOF 8
ENDMDL
MODEL 5
REMARK VINA RESULT: -7.000585926      3.404      6.280
REMARK  8 active torsions:
REMARK  status: ('A' for Active; 'I' for Inactive)
REMARK    1  A    between atoms: C2_2  and  C3_3 
REMARK    2  A    between atoms: C3_3  and  C4_4 
REMARK    3  A    between atoms: C7_11  and  N3_12 
REMARK    4  A    between atoms: C10_15  and  O1_16 
REMARK    5  A    between atoms: N4_23  and  C15_24 
REMARK    6  A    between atoms: C18_27  and  N5_28 
REMARK    7  A    between atoms: C19_34  and  C20_35 
REMARK    8  A    between atoms: C20_35  and  O2_38 
ROOT
HETATM    1  C4  UNL     1       6.527  37.249  24.441  1.00  0.00     0.085 A 
HETATM    2  N1  UNL     1       7.314  37.039  23.361  1.00  0.00    -0.343 N 
ATOM      3  H1  UNL     1       8.195  36.525  23.376  1.00  0.00     0.167 HD
HETATM    4  C5  UNL     1       6.785  37.588  22.289  1.00  0.00     0.079 A 
HETATM    5  C6  UNL     1       7.225  37.634  20.969  1.00  0.00     0.121 A 
HETATM    6  N2  UNL     1       6.514  38.257  20.043  1.00  0.00    -0.348 N 
ATOM      7  H2  UNL     1       6.837  38.292  19.075  1.00  0.00     0.167 HD
HETATM    8  C7  UNL     1       5.341  38.853  20.405  1.00  0.00     0.145 A 
HETATM    9  C13 UNL     1       4.902  38.810  21.710  1.00  0.00     0.189 A 
HETATM   10  F1  UNL     1       3.741  39.404  21.986  1.00  0.00    -0.200 F 
HETATM   11  C14 UNL     1       5.612  38.173  22.707  1.00  0.00     0.107 A 
HETATM   12  N4  UNL     1       5.467  37.952  24.046  1.00  0.00    -0.322 N 
ENDROOT
BRANCH  12  13
HETATM   13  C15 UNL     1       4.349  38.388  24.778  1.00  0.00     0.140 C 
HETATM   14  C16 UNL     1       4.759  39.054  26.083  1.00  0.00     0.035 C 
HETATM   15  C17 UNL     1       3.646  40.058  26.441  1.00  0.00     0.056 C 
HETATM   16  C18 UNL     1       2.340  39.412  26.246  1.00  0.00     0.281 C 
HETATM   17  N6  UNL     1       2.316  38.075  25.784  1.00  0.00    -0.365 N 
HETATM   18  C19 UNL     1       3.242  37.488  25.066  1.00  0.00     0.041 C 
ATOM     19  H6  UNL     1       1.500  37.516  26.032  1.00  0.00     0.161 HD
BRANCH  16  20
HETATM   20  N5  UNL     1       1.492  39.458  27.444  1.00  0.00    -0.058 N 
ATOM     21  H53 UNL     1       1.947  38.993  28.230  1.00  0.00     0.276 HD
ATOM     22  H52 UNL     1       1.441  40.405  27.819  1.00  0.00     0.276 HD
ATOM     23  H51 UNL     1       0.559  39.077  27.287  1.00  0.00     0.276 HD
ENDBRANCH  16  20
BRANCH  18  24
HETATM   24  C20 UNL     1       2.965  36.106  24.721  1.00  0.00     0.090 C 
HETATM   25  C21 UNL     1       2.870  35.896  23.190  1.00  0.00     0.052 C 
HETATM   26  C22 UNL     1       3.865  35.045  25.211  1.00  0.00     0.052 C 
BRANCH  24  27
HETATM   27  O2  UNL     1       1.661  35.782  25.144  1.00  0.00    -0.385 OA
ATOM     28  H2  UNL     1       1.055  36.426  24.796  1.00  0.00     0.211 HD
ENDBRANCH  24  27
ENDBRANCH  18  24
ENDBRANCH  12  13
BRANCH   1  29
HETATM   29  C3  UNL     1       6.927  36.661  25.733  1.00  0.00     0.076 C 
BRANCH  29  30
HETATM   30  C2  UNL     1       8.420  36.664  25.876  1.00  0.00     0.003 C 
HETATM   31  C1  UNL     1       8.868  35.604  26.873  1.00  0.00     0.005 C 
ENDBRANCH  29  30
ENDBRANCH   1  29
BRANCH   8  32
HETATM   32  N3  UNL     1       4.646  39.491  19.364  1.00  0.00    -0.365 N 
HETATM   33  C8  UNL     1       3.640  38.759  18.629  1.00  0.00     0.127 C 
HETATM   34  C9  UNL     1       3.143  39.578  17.444  1.00  0.00     0.051 C 
HETATM   35  C10 UNL     1       4.240  40.264  16.701  1.00  0.00     0.121 C 
HETATM   36  C11 UNL     1       5.315  40.860  17.545  1.00  0.00     0.051 C 
HETATM   37  C12 UNL     1       4.888  40.865  18.981  1.00  0.00     0.127 C 
BRANCH  35  38
HETATM   38  O1  UNL     1       4.807  39.404  15.741  1.00  0.00    -0.395 OA
ATOM     39  H1  UNL     1       5.128  39.897  14.994  1.00  0.00     0.210 HD
ENDBRANCH  35  38
ENDBRANCH   8  32
TORSDOF 8
ENDMDL
