MODEL 1
REMARK VINA RESULT: -7.925440184      0.000      0.000
REMARK  10 active torsions:
REMARK  status: ('A' for Active; 'I' for Inactive)
REMARK    1  A    between atoms: C2_2  and  C3_3 
REMARK    2  A    between atoms: C4_7  and  C5_8 
REMARK    3  A    between atoms: C9_12  and  C10_13 
REMARK    4  A    between atoms: N2_16  and  C13_17 
REMARK    5  A    between atoms: C13_17  and  C14_18 
REMARK    6  A    between atoms: C14_18  and  N3_19 
REMARK    7  A    between atoms: C16_21  and  O2_22 
REMARK    8  A    between atoms: C17_24  and  O3_25 
REMARK    9  A    between atoms: C18_27  and  C19_28 
REMARK   10  A    between atoms: C19_28  and  O4_29 
ROOT
HETATM    1  C10 UNL     1       2.414  34.292  24.872  1.00  0.00     0.028 C 
HETATM    2  C11 UNL     1       3.412  34.754  25.843  1.00  0.00     0.040 C 
HETATM    3  C12 UNL     1       4.077  36.069  25.349  1.00  0.00     0.275 C 
HETATM    4  N2  UNL     1       3.873  36.311  23.982  1.00  0.00     0.108 N 
HETATM    5  C20 UNL     1       3.715  35.269  23.064  1.00  0.00     0.318 C 
HETATM    6 CL1  UNL     1       5.126  35.007  22.006  1.00  0.00    -0.092 Cl
HETATM    7  C21 UNL     1       3.365  33.987  23.675  1.00  0.00     0.061 C 
ENDROOT
BRANCH   4   8
HETATM    8  C13 UNL     1       4.910  37.277  23.563  1.00  0.00     0.304 C 
BRANCH   8   9
HETATM    9  C14 UNL     1       5.570  37.910  24.739  1.00  0.00     0.303 C 
BRANCH   9  10
HETATM   10  N3  UNL     1       6.960  38.222  24.510  1.00  0.00     0.102 N 
HETATM   11  C15 UNL     1       7.511  38.745  25.719  1.00  0.00     0.307 C 
HETATM   12  C16 UNL     1       8.271  37.609  26.349  1.00  0.00     0.177 C 
HETATM   13  C17 UNL     1       8.661  36.740  25.200  1.00  0.00     0.184 C 
HETATM   14  C18 UNL     1       7.767  37.156  24.032  1.00  0.00     0.277 C 
BRANCH  12  15
HETATM   15  O2  UNL     1       9.436  38.071  27.001  1.00  0.00    -0.391 OA
ATOM     16  H2  UNL     1       9.779  37.416  27.598  1.00  0.00     0.210 HD
ENDBRANCH  12  15
BRANCH  13  17
HETATM   17  O3  UNL     1       8.334  35.421  25.519  1.00  0.00    -0.391 OA
ATOM     18  H3  UNL     1       9.136  34.961  25.741  1.00  0.00     0.210 HD
ENDBRANCH  13  17
BRANCH  14  19
HETATM   19  C19 UNL     1       8.689  37.704  22.931  1.00  0.00     0.202 C 
BRANCH  19  20
HETATM   20  O4  UNL     1       9.989  37.322  23.288  1.00  0.00    -0.399 OA
ATOM     21  H4  UNL     1      10.381  38.081  23.704  1.00  0.00     0.209 HD
ENDBRANCH  19  20
ENDBRANCH  14  19
ENDBRANCH   9  10
ENDBRANCH   8   9
ENDBRANCH   4   8
BRANCH   1  22
HETATM   22  C9  UNL     1       1.580  33.137  25.012  1.00  0.00     0.003 A 
HETATM   23  C3  UNL     1       2.154  31.901  25.385  1.00  0.00     0.084 A 
HETATM   24  O1  UNL     1       1.153  31.065  25.484  1.00  0.00    -0.242 OA
HETATM   25  N1  UNL     1       0.044  31.635  25.217  1.00  0.00    -0.264 N 
HETATM   26  C4  UNL     1       0.217  32.973  24.901  1.00  0.00     0.049 A 
ATOM     27  H1  UNL     1      -0.860  31.164  25.234  1.00  0.00     0.194 HD
BRANCH  23  28
HETATM   28  C2  UNL     1       3.559  31.508  25.637  1.00  0.00     0.063 C 
HETATM   29  C1  UNL     1       3.971  30.189  25.054  1.00  0.00     0.012 C 
ENDBRANCH  23  28
BRANCH  26  30
HETATM   30  C5  UNL     1      -0.877  33.876  24.528  1.00  0.00    -0.006 C 
HETATM   31  C6  UNL     1      -0.664  35.337  24.580  1.00  0.00     0.021 C 
HETATM   32  C7  UNL     1      -1.074  33.642  22.987  1.00  0.00     0.021 C 
HETATM   33  C8  UNL     1      -2.233  33.413  25.032  1.00  0.00     0.021 C 
ENDBRANCH  26  30
ENDBRANCH   1  22
TORSDOF 10
ENDMDL
MODEL 2
REMARK VINA RESULT: -7.740663805      1.231      1.683
REMARK  10 active torsions:
REMARK  status: ('A' for Active; 'I' for Inactive)
REMARK    1  A    between atoms: C2_2  and  C3_3 
REMARK    2  A    between atoms: C4_7  and  C5_8 
REMARK    3  A    between atoms: C9_12  and  C10_13 
REMARK    4  A    between atoms: N2_16  and  C13_17 
REMARK    5  A    between atoms: C13_17  and  C14_18 
REMARK    6  A    between atoms: C14_18  and  N3_19 
REMARK    7  A    between atoms: C16_21  and  O2_22 
REMARK    8  A    between atoms: C17_24  and  O3_25 
REMARK    9  A    between atoms: C18_27  and  C19_28 
REMARK   10  A    between atoms: C19_28  and  O4_29 
ROOT
HETATM    1  C10 UNL     1       2.469  34.199  24.508  1.00  0.00     0.028 C 
HETATM    2  C11 UNL     1       2.271  35.233  23.487  1.00  0.00     0.040 C 
HETATM    3  C12 UNL     1       3.479  36.213  23.471  1.00  0.00     0.275 C 
HETATM    4  N2  UNL     1       4.269  36.133  24.627  1.00  0.00     0.108 N 
HETATM    5  C20 UNL     1       3.730  35.773  25.865  1.00  0.00     0.318 C 
HETATM    6 CL1  UNL     1       3.572  37.127  27.015  1.00  0.00    -0.092 Cl
HETATM    7  C21 UNL     1       2.434  35.102  25.777  1.00  0.00     0.061 C 
ENDROOT
BRANCH   4   8
HETATM    8  C13 UNL     1       5.048  37.386  24.695  1.00  0.00     0.304 C 
BRANCH   8   9
HETATM    9  C14 UNL     1       5.756  37.657  23.413  1.00  0.00     0.303 C 
BRANCH   9  10
HETATM   10  N3  UNL     1       7.110  38.118  23.599  1.00  0.00     0.102 N 
HETATM   11  C15 UNL     1       7.205  38.737  24.883  1.00  0.00     0.307 C 
HETATM   12  C16 UNL     1       7.840  37.714  25.786  1.00  0.00     0.177 C 
HETATM   13  C17 UNL     1       8.651  36.861  24.869  1.00  0.00     0.184 C 
HETATM   14  C18 UNL     1       8.126  37.137  23.460  1.00  0.00     0.277 C 
BRANCH  12  15
HETATM   15  O2  UNL     1       8.694  38.325  26.731  1.00  0.00    -0.391 OA
ATOM     16  H2  UNL     1       9.207  37.678  27.200  1.00  0.00     0.210 HD
ENDBRANCH  12  15
BRANCH  13  17
HETATM   17  O3  UNL     1       8.373  35.524  25.157  1.00  0.00    -0.391 OA
ATOM     18  H3  UNL     1       8.484  35.391  26.091  1.00  0.00     0.210 HD
ENDBRANCH  13  17
BRANCH  14  19
HETATM   19  C19 UNL     1       9.285  37.753  22.660  1.00  0.00     0.202 C 
BRANCH  19  20
HETATM   20  O4  UNL     1      10.463  37.279  23.254  1.00  0.00    -0.399 OA
ATOM     21  H4  UNL     1      10.993  38.045  23.436  1.00  0.00     0.209 HD
ENDBRANCH  19  20
ENDBRANCH  14  19
ENDBRANCH   9  10
ENDBRANCH   8   9
ENDBRANCH   4   8
BRANCH   1  22
HETATM   22  C9  UNL     1       1.580  33.109  24.780  1.00  0.00     0.003 A 
HETATM   23  C3  UNL     1       2.091  31.909  25.324  1.00  0.00     0.084 A 
HETATM   24  O1  UNL     1       1.052  31.138  25.510  1.00  0.00    -0.242 OA
HETATM   25  N1  UNL     1      -0.026  31.715  25.146  1.00  0.00    -0.264 N 
HETATM   26  C4  UNL     1       0.213  32.990  24.661  1.00  0.00     0.049 A 
ATOM     27  H1  UNL     1      -0.951  31.289  25.205  1.00  0.00     0.194 HD
BRANCH  23  28
HETATM   28  C2  UNL     1       3.473  31.493  25.657  1.00  0.00     0.063 C 
HETATM   29  C1  UNL     1       3.869  30.133  25.164  1.00  0.00     0.012 C 
ENDBRANCH  23  28
BRANCH  26  30
HETATM   30  C5  UNL     1      -0.832  33.882  24.149  1.00  0.00    -0.006 C 
HETATM   31  C6  UNL     1      -1.167  33.860  22.710  1.00  0.00     0.021 C 
HETATM   32  C7  UNL     1      -2.162  33.343  24.788  1.00  0.00     0.021 C 
HETATM   33  C8  UNL     1      -0.794  35.268  24.770  1.00  0.00     0.021 C 
ENDBRANCH  26  30
ENDBRANCH   1  22
TORSDOF 10
ENDMDL
MODEL 3
REMARK VINA RESULT: -7.713636814      1.238      2.806
REMARK  10 active torsions:
REMARK  status: ('A' for Active; 'I' for Inactive)
REMARK    1  A    between atoms: C2_2  and  C3_3 
REMARK    2  A    between atoms: C4_7  and  C5_8 
REMARK    3  A    between atoms: C9_12  and  C10_13 
REMARK    4  A    between atoms: N2_16  and  C13_17 
REMARK    5  A    between atoms: C13_17  and  C14_18 
REMARK    6  A    between atoms: C14_18  and  N3_19 
REMARK    7  A    between atoms: C16_21  and  O2_22 
REMARK    8  A    between atoms: C17_24  and  O3_25 
REMARK    9  A    between atoms: C18_27  and  C19_28 
REMARK   10  A    between atoms: C19_28  and  O4_29 
ROOT
HETATM    1  C10 UNL     1       2.009  34.883  24.983  1.00  0.00     0.028 C 
HETATM    2  C11 UNL     1       3.140  34.694  25.897  1.00  0.00     0.040 C 
HETATM    3  C12 UNL     1       4.325  35.615  25.488  1.00  0.00     0.275 C 
HETATM    4  N2  UNL     1       4.209  36.114  24.182  1.00  0.00     0.108 N 
HETATM    5  C20 UNL     1       3.551  35.402  23.175  1.00  0.00     0.318 C 
HETATM    6 CL1  UNL     1       4.639  34.676  21.963  1.00  0.00    -0.092 Cl
HETATM    7  C21 UNL     1       2.665  34.351  23.673  1.00  0.00     0.061 C 
ENDROOT
BRANCH   4   8
HETATM    8  C13 UNL     1       5.561  36.547  23.773  1.00  0.00     0.304 C 
BRANCH   8   9
HETATM    9  C14 UNL     1       5.828  37.955  24.177  1.00  0.00     0.303 C 
BRANCH   9  10
HETATM   10  N3  UNL     1       7.229  38.297  24.155  1.00  0.00     0.102 N 
HETATM   11  C15 UNL     1       7.583  38.831  25.432  1.00  0.00     0.307 C 
HETATM   12  C16 UNL     1       8.265  37.710  26.170  1.00  0.00     0.177 C 
HETATM   13  C17 UNL     1       8.840  36.851  25.093  1.00  0.00     0.184 C 
HETATM   14  C18 UNL     1       8.120  37.250  23.805  1.00  0.00     0.277 C 
BRANCH  12  15
HETATM   15  O2  UNL     1       9.311  38.196  26.986  1.00  0.00    -0.391 OA
ATOM     16  H2  UNL     1       9.575  37.548  27.629  1.00  0.00     0.210 HD
ENDBRANCH  12  15
BRANCH  13  17
HETATM   17  O3  UNL     1       8.498  35.525  25.362  1.00  0.00    -0.391 OA
ATOM     18  H3  UNL     1       8.525  35.039  24.546  1.00  0.00     0.210 HD
ENDBRANCH  13  17
BRANCH  14  19
HETATM   19  C19 UNL     1       9.183  37.819  22.852  1.00  0.00     0.202 C 
BRANCH  19  20
HETATM   20  O4  UNL     1      10.400  37.241  23.237  1.00  0.00    -0.399 OA
ATOM     21  H4  UNL     1      10.526  36.490  22.670  1.00  0.00     0.209 HD
ENDBRANCH  19  20
ENDBRANCH  14  19
ENDBRANCH   9  10
ENDBRANCH   8   9
ENDBRANCH   4   8
BRANCH   1  22
HETATM   22  C9  UNL     1       0.737  34.231  25.076  1.00  0.00     0.003 A 
HETATM   23  C3  UNL     1      -0.427  34.905  24.646  1.00  0.00     0.084 A 
HETATM   24  O1  UNL     1      -1.404  34.050  24.800  1.00  0.00    -0.242 OA
HETATM   25  N1  UNL     1      -0.982  32.943  25.270  1.00  0.00    -0.264 N 
HETATM   26  C4  UNL     1       0.387  32.962  25.482  1.00  0.00     0.049 A 
ATOM     27  H1  UNL     1      -1.580  32.140  25.468  1.00  0.00     0.194 HD
BRANCH  23  28
HETATM   28  C2  UNL     1      -0.631  36.274  24.118  1.00  0.00     0.063 C 
HETATM   29  C1  UNL     1      -0.462  36.421  22.636  1.00  0.00     0.012 C 
ENDBRANCH  23  28
BRANCH  26  30
HETATM   30  C5  UNL     1       1.147  31.839  26.038  1.00  0.00    -0.006 C 
HETATM   31  C6  UNL     1       1.528  31.854  27.466  1.00  0.00     0.021 C 
HETATM   32  C7  UNL     1       0.152  30.625  25.992  1.00  0.00     0.021 C 
HETATM   33  C8  UNL     1       2.225  31.323  25.099  1.00  0.00     0.021 C 
ENDBRANCH  26  30
ENDBRANCH   1  22
TORSDOF 10
ENDMDL
MODEL 4
REMARK VINA RESULT: -7.702629341      2.081      3.572
REMARK  10 active torsions:
REMARK  status: ('A' for Active; 'I' for Inactive)
REMARK    1  A    between atoms: C2_2  and  C3_3 
REMARK    2  A    between atoms: C4_7  and  C5_8 
REMARK    3  A    between atoms: C9_12  and  C10_13 
REMARK    4  A    between atoms: N2_16  and  C13_17 
REMARK    5  A    between atoms: C13_17  and  C14_18 
REMARK    6  A    between atoms: C14_18  and  N3_19 
REMARK    7  A    between atoms: C16_21  and  O2_22 
REMARK    8  A    between atoms: C17_24  and  O3_25 
REMARK    9  A    between atoms: C18_27  and  C19_28 
REMARK   10  A    between atoms: C19_28  and  O4_29 
ROOT
HETATM    1  C10 UNL     1       2.157  34.610  24.815  1.00  0.00     0.028 C 
HETATM    2  C11 UNL     1       2.862  35.231  23.688  1.00  0.00     0.040 C 
HETATM    3  C12 UNL     1       4.092  36.033  24.197  1.00  0.00     0.275 C 
HETATM    4  N2  UNL     1       4.047  36.298  25.573  1.00  0.00     0.108 N 
HETATM    5  C20 UNL     1       2.837  36.447  26.257  1.00  0.00     0.318 C 
HETATM    6 CL1  UNL     1       2.458  38.128  26.716  1.00  0.00    -0.092 Cl
HETATM    7  C21 UNL     1       1.681  35.903  25.544  1.00  0.00     0.061 C 
ENDROOT
BRANCH   4   8
HETATM    8  C13 UNL     1       4.973  37.423  25.819  1.00  0.00     0.304 C 
BRANCH   8   9
HETATM    9  C14 UNL     1       6.394  36.987  25.729  1.00  0.00     0.303 C 
BRANCH   9  10
HETATM   10  N3  UNL     1       7.238  37.939  25.047  1.00  0.00     0.102 N 
HETATM   11  C15 UNL     1       8.596  37.519  25.186  1.00  0.00     0.307 C 
HETATM   12  C16 UNL     1       8.955  36.854  23.884  1.00  0.00     0.177 C 
HETATM   13  C17 UNL     1       8.055  37.495  22.880  1.00  0.00     0.184 C 
HETATM   14  C18 UNL     1       6.940  38.168  23.679  1.00  0.00     0.277 C 
BRANCH  12  15
HETATM   15  O2  UNL     1      10.299  37.107  23.533  1.00  0.00    -0.391 OA
ATOM     16  H2  UNL     1      10.359  37.547  22.693  1.00  0.00     0.210 HD
ENDBRANCH  12  15
BRANCH  13  17
HETATM   17  O3  UNL     1       7.464  36.486  22.116  1.00  0.00    -0.391 OA
ATOM     18  H3  UNL     1       6.763  36.873  21.604  1.00  0.00     0.210 HD
ENDBRANCH  13  17
BRANCH  14  19
HETATM   19  C19 UNL     1       7.039  39.678  23.409  1.00  0.00     0.202 C 
BRANCH  19  20
HETATM   20  O4  UNL     1       6.549  40.312  24.559  1.00  0.00    -0.399 OA
ATOM     21  H4  UNL     1       6.949  41.173  24.576  1.00  0.00     0.209 HD
ENDBRANCH  19  20
ENDBRANCH  14  19
ENDBRANCH   9  10
ENDBRANCH   8   9
ENDBRANCH   4   8
BRANCH   1  22
HETATM   22  C9  UNL     1       1.003  33.768  24.721  1.00  0.00     0.003 A 
HETATM   23  C3  UNL     1      -0.112  34.191  23.964  1.00  0.00     0.084 A 
HETATM   24  O1  UNL     1      -0.968  33.205  24.019  1.00  0.00    -0.242 OA
HETATM   25  N1  UNL     1      -0.517  32.237  24.715  1.00  0.00    -0.264 N 
HETATM   26  C4  UNL     1       0.748  32.505  25.210  1.00  0.00     0.049 A 
ATOM     27  H1  UNL     1      -1.026  31.369  24.887  1.00  0.00     0.194 HD
BRANCH  23  28
HETATM   28  C2  UNL     1      -0.376  35.447  23.224  1.00  0.00     0.063 C 
HETATM   29  C1  UNL     1      -0.757  35.274  21.784  1.00  0.00     0.012 C 
ENDBRANCH  23  28
BRANCH  26  30
HETATM   30  C5  UNL     1       1.508  31.587  26.064  1.00  0.00    -0.006 C 
HETATM   31  C6  UNL     1       1.143  31.447  27.489  1.00  0.00     0.021 C 
HETATM   32  C7  UNL     1       1.165  30.157  25.511  1.00  0.00     0.021 C 
HETATM   33  C8  UNL     1       3.003  31.615  25.792  1.00  0.00     0.021 C 
ENDBRANCH  26  30
ENDBRANCH   1  22
TORSDOF 10
ENDMDL
MODEL 5
REMARK VINA RESULT: -7.619648707      1.656      3.149
REMARK  10 active torsions:
REMARK  status: ('A' for Active; 'I' for Inactive)
REMARK    1  A    between atoms: C2_2  and  C3_3 
REMARK    2  A    between atoms: C4_7  and  C5_8 
REMARK    3  A    between atoms: C9_12  and  C10_13 
REMARK    4  A    between atoms: N2_16  and  C13_17 
REMARK    5  A    between atoms: C13_17  and  C14_18 
REMARK    6  A    between atoms: C14_18  and  N3_19 
REMARK    7  A    between atoms: C16_21  and  O2_22 
REMARK    8  A    between atoms: C17_24  and  O3_25 
REMARK    9  A    between atoms: C18_27  and  C19_28 
REMARK   10  A    between atoms: C19_28  and  O4_29 
ROOT
HETATM    1  C10 UNL     1       2.272  34.513  24.745  1.00  0.00     0.028 C 
HETATM    2  C11 UNL     1       2.900  35.173  23.596  1.00  0.00     0.040 C 
HETATM    3  C12 UNL     1       4.211  35.886  24.034  1.00  0.00     0.275 C 
HETATM    4  N2  UNL     1       4.304  36.064  25.422  1.00  0.00     0.108 N 
HETATM    5  C20 UNL     1       3.169  36.221  26.224  1.00  0.00     0.318 C 
HETATM    6 CL1  UNL     1       2.918  37.884  26.816  1.00  0.00    -0.092 Cl
HETATM    7  C21 UNL     1       1.928  35.775  25.591  1.00  0.00     0.061 C 
ENDROOT
BRANCH   4   8
HETATM    8  C13 UNL     1       5.303  37.129  25.647  1.00  0.00     0.304 C 
BRANCH   8   9
HETATM    9  C14 UNL     1       5.618  37.854  24.385  1.00  0.00     0.303 C 
BRANCH   9  10
HETATM   10  N3  UNL     1       7.012  38.201  24.262  1.00  0.00     0.102 N 
HETATM   11  C15 UNL     1       7.453  38.751  25.505  1.00  0.00     0.307 C 
HETATM   12  C16 UNL     1       8.189  37.642  26.207  1.00  0.00     0.177 C 
HETATM   13  C17 UNL     1       8.691  36.773  25.103  1.00  0.00     0.184 C 
HETATM   14  C18 UNL     1       7.882  37.153  23.863  1.00  0.00     0.277 C 
BRANCH  12  15
HETATM   15  O2  UNL     1       9.286  38.142  26.943  1.00  0.00    -0.391 OA
ATOM     16  H2  UNL     1       9.339  39.089  26.883  1.00  0.00     0.210 HD
ENDBRANCH  12  15
BRANCH  13  17
HETATM   17  O3  UNL     1       8.375  35.449  25.411  1.00  0.00    -0.391 OA
ATOM     18  H3  UNL     1       9.162  35.020  25.727  1.00  0.00     0.210 HD
ENDBRANCH  13  17
BRANCH  14  19
HETATM   19  C19 UNL     1       8.874  37.715  22.832  1.00  0.00     0.202 C 
BRANCH  19  20
HETATM   20  O4  UNL     1      10.146  37.306  23.254  1.00  0.00    -0.399 OA
ATOM     21  H4  UNL     1      10.691  38.084  23.237  1.00  0.00     0.209 HD
ENDBRANCH  19  20
ENDBRANCH  14  19
ENDBRANCH   9  10
ENDBRANCH   8   9
ENDBRANCH   4   8
BRANCH   1  22
HETATM   22  C9  UNL     1       1.073  33.729  24.709  1.00  0.00     0.003 A 
HETATM   23  C3  UNL     1      -0.049  34.199  23.990  1.00  0.00     0.084 A 
HETATM   24  O1  UNL     1      -0.951  33.259  24.094  1.00  0.00    -0.242 OA
HETATM   25  N1  UNL     1      -0.522  32.278  24.786  1.00  0.00    -0.264 N 
HETATM   26  C4  UNL     1       0.774  32.488  25.227  1.00  0.00     0.049 A 
ATOM     27  H1  UNL     1      -1.066  31.440  24.991  1.00  0.00     0.194 HD
BRANCH  23  28
HETATM   28  C2  UNL     1      -0.278  35.457  23.242  1.00  0.00     0.063 C 
HETATM   29  C1  UNL     1      -0.781  35.286  21.840  1.00  0.00     0.012 C 
ENDBRANCH  23  28
BRANCH  26  30
HETATM   30  C5  UNL     1       1.520  31.543  26.065  1.00  0.00    -0.006 C 
HETATM   31  C6  UNL     1       1.169  31.402  27.493  1.00  0.00     0.021 C 
HETATM   32  C7  UNL     1       1.133  30.127  25.505  1.00  0.00     0.021 C 
HETATM   33  C8  UNL     1       3.011  31.534  25.774  1.00  0.00     0.021 C 
ENDBRANCH  26  30
ENDBRANCH   1  22
TORSDOF 10
ENDMDL
