MODEL 1
REMARK VINA RESULT: -7.375591330      0.000      0.000
REMARK  9 active torsions:
REMARK  status: ('A' for Active; 'I' for Inactive)
REMARK    1  A    between atoms: O1_2  and  C2_3 
REMARK    2  A    between atoms: C2_3  and  C3_5 
REMARK    3  A    between atoms: C3_5  and  O3_6 
REMARK    4  A    between atoms: N1_10  and  C6_11 
REMARK    5  A    between atoms: C7_13  and  C8_14 
REMARK    6  A    between atoms: C8_14  and  N2_15 
REMARK       I    between atoms: N2_15  and  C9_17 
REMARK    7  A    between atoms: C9_17  and  C10_19 
REMARK    8  A    between atoms: C10_19  and  N3_20 
REMARK    9  A    between atoms: N3_20  and  C11_22 
ROOT
HETATM    1  C6  UNL     1       1.499  35.460  23.294  1.00  0.00     0.094 A 
HETATM    2  S1  UNL     1       1.598  34.224  24.501  1.00  0.00    -0.074 SA
HETATM    3  C7  UNL     1      -0.048  33.814  24.628  1.00  0.00     0.004 A 
HETATM    4  C15 UNL     1      -0.633  34.653  23.724  1.00  0.00     0.043 A 
HETATM    5  C16 UNL     1       0.159  35.497  23.040  1.00  0.00     0.068 A 
HETATM    6 CL1  UNL     1      -0.521  36.633  21.820  1.00  0.00    -0.081 Cl
ENDROOT
BRANCH   1   7
HETATM    7  N1  UNL     1       2.609  36.173  22.778  1.00  0.00    -0.374 N 
HETATM    8  C5  UNL     1       3.130  37.288  23.598  1.00  0.00     0.127 C 
HETATM    9  C4  UNL     1       4.562  37.470  23.220  1.00  0.00     0.068 C 
HETATM   10  C3  UNL     1       5.315  36.221  22.911  1.00  0.00     0.148 C 
HETATM   11  C18 UNL     1       4.629  35.295  21.936  1.00  0.00     0.068 C 
HETATM   12  C17 UNL     1       3.299  35.971  21.564  1.00  0.00     0.127 C 
BRANCH  10  13
HETATM   13  C2  UNL     1       6.595  36.653  22.246  1.00  0.00     0.293 C 
HETATM   14  O2  UNL     1       7.001  36.029  21.241  1.00  0.00    -0.262 OA
BRANCH  13  15
HETATM   15  O1  UNL     1       7.298  37.737  22.764  1.00  0.00    -0.324 OA
HETATM   16  C1  UNL     1       8.610  37.500  23.260  1.00  0.00     0.213 C 
ENDBRANCH  13  15
ENDBRANCH  10  13
BRANCH  10  17
HETATM   17  O3  UNL     1       5.621  35.577  24.110  1.00  0.00    -0.379 OA
ATOM     18  H3  UNL     1       6.528  35.752  24.332  1.00  0.00     0.211 HD
ENDBRANCH  10  17
ENDBRANCH   1   7
BRANCH   3  19
HETATM   19  C8  UNL     1      -0.742  32.806  25.487  1.00  0.00     0.169 C 
BRANCH  19  20
HETATM   20  N2  UNL     1      -0.055  31.544  25.313  1.00  0.00    -0.352 N 
HETATM   21  C9  UNL     1       0.945  31.093  26.261  1.00  0.00     0.256 C 
HETATM   22  O4  UNL     1       1.163  31.859  27.218  1.00  0.00    -0.267 OA
ATOM     23  H2  UNL     1      -0.280  30.960  24.507  1.00  0.00     0.163 HD
BRANCH  21  24
HETATM   24  C10 UNL     1       1.562  29.802  25.960  1.00  0.00     0.158 C 
BRANCH  24  25
HETATM   25  N3  UNL     1       2.285  29.689  24.793  1.00  0.00    -0.386 N 
ATOM     26  H3  UNL     1       1.746  29.496  23.949  1.00  0.00     0.159 HD
BRANCH  25  27
HETATM   27  C11 UNL     1       3.647  29.807  24.626  1.00  0.00     0.018 C 
HETATM   28  C12 UNL     1       4.045  30.378  23.252  1.00  0.00     0.037 C 
HETATM   29  C13 UNL     1       4.095  30.958  25.597  1.00  0.00     0.037 C 
HETATM   30  C14 UNL     1       4.493  28.620  24.861  1.00  0.00     0.037 C 
ENDBRANCH  25  27
ENDBRANCH  24  25
ENDBRANCH  21  24
ENDBRANCH  19  20
ENDBRANCH   3  19
TORSDOF 9
ENDMDL
MODEL 2
REMARK VINA RESULT: -7.365500322      1.846      2.611
REMARK  9 active torsions:
REMARK  status: ('A' for Active; 'I' for Inactive)
REMARK    1  A    between atoms: O1_2  and  C2_3 
REMARK    2  A    between atoms: C2_3  and  C3_5 
REMARK    3  A    between atoms: C3_5  and  O3_6 
REMARK    4  A    between atoms: N1_10  and  C6_11 
REMARK    5  A    between atoms: C7_13  and  C8_14 
REMARK    6  A    between atoms: C8_14  and  N2_15 
REMARK       I    between atoms: N2_15  and  C9_17 
REMARK    7  A    between atoms: C9_17  and  C10_19 
REMARK    8  A    between atoms: C10_19  and  N3_20 
REMARK    9  A    between atoms: N3_20  and  C11_22 
ROOT
HETATM    1  C6  UNL     1       2.497  36.551  22.122  1.00  0.00     0.094 A 
HETATM    2  S1  UNL     1       1.679  35.590  23.305  1.00  0.00    -0.074 SA
HETATM    3  C7  UNL     1       0.195  35.354  22.508  1.00  0.00     0.004 A 
HETATM    4  C15 UNL     1       0.377  36.034  21.337  1.00  0.00     0.043 A 
HETATM    5  C16 UNL     1       1.557  36.647  21.138  1.00  0.00     0.068 A 
HETATM    6 CL1  UNL     1       1.892  37.557  19.622  1.00  0.00    -0.081 Cl
ENDROOT
BRANCH   1   7
HETATM    7  N1  UNL     1       3.819  37.046  22.259  1.00  0.00    -0.374 N 
HETATM    8  C5  UNL     1       4.067  37.997  23.364  1.00  0.00     0.127 C 
HETATM    9  C4  UNL     1       5.518  37.901  23.698  1.00  0.00     0.068 C 
HETATM   10  C3  UNL     1       6.118  36.539  23.600  1.00  0.00     0.148 C 
HETATM   11  C18 UNL     1       5.828  35.813  22.309  1.00  0.00     0.068 C 
HETATM   12  C17 UNL     1       4.952  36.759  21.470  1.00  0.00     0.127 C 
BRANCH  10  13
HETATM   13  C2  UNL     1       7.610  36.731  23.646  1.00  0.00     0.293 C 
HETATM   14  O2  UNL     1       8.197  37.192  22.641  1.00  0.00    -0.262 OA
BRANCH  13  15
HETATM   15  O1  UNL     1       8.305  36.393  24.803  1.00  0.00    -0.324 OA
HETATM   16  C1  UNL     1       8.725  37.449  25.657  1.00  0.00     0.213 C 
ENDBRANCH  13  15
ENDBRANCH  10  13
BRANCH  10  17
HETATM   17  O3  UNL     1       5.721  35.798  24.713  1.00  0.00    -0.379 OA
ATOM     18  H3  UNL     1       5.224  35.043  24.421  1.00  0.00     0.211 HD
ENDBRANCH  10  17
ENDBRANCH   1   7
BRANCH   3  19
HETATM   19  C8  UNL     1      -1.032  34.610  22.924  1.00  0.00     0.169 C 
BRANCH  19  20
HETATM   20  N2  UNL     1      -0.607  33.514  23.769  1.00  0.00    -0.352 N 
HETATM   21  C9  UNL     1      -1.436  33.036  24.857  1.00  0.00     0.256 C 
HETATM   22  O4  UNL     1      -2.521  33.627  25.007  1.00  0.00    -0.267 OA
ATOM     23  H2  UNL     1       0.295  33.069  23.595  1.00  0.00     0.163 HD
BRANCH  21  24
HETATM   24  C10 UNL     1      -0.882  31.926  25.633  1.00  0.00     0.158 C 
BRANCH  24  25
HETATM   25  N3  UNL     1       0.291  31.354  25.191  1.00  0.00    -0.386 N 
ATOM     26  H3  UNL     1       0.342  31.152  24.193  1.00  0.00     0.159 HD
BRANCH  25  27
HETATM   27  C11 UNL     1       1.402  31.022  25.933  1.00  0.00     0.018 C 
HETATM   28  C12 UNL     1       2.349  32.213  26.176  1.00  0.00     0.037 C 
HETATM   29  C13 UNL     1       0.872  30.731  27.383  1.00  0.00     0.037 C 
HETATM   30  C14 UNL     1       2.238  29.890  25.487  1.00  0.00     0.037 C 
ENDBRANCH  25  27
ENDBRANCH  24  25
ENDBRANCH  21  24
ENDBRANCH  19  20
ENDBRANCH   3  19
TORSDOF 9
ENDMDL
MODEL 3
REMARK VINA RESULT: -7.291676209      2.285      3.358
REMARK  9 active torsions:
REMARK  status: ('A' for Active; 'I' for Inactive)
REMARK    1  A    between atoms: O1_2  and  C2_3 
REMARK    2  A    between atoms: C2_3  and  C3_5 
REMARK    3  A    between atoms: C3_5  and  O3_6 
REMARK    4  A    between atoms: N1_10  and  C6_11 
REMARK    5  A    between atoms: C7_13  and  C8_14 
REMARK    6  A    between atoms: C8_14  and  N2_15 
REMARK       I    between atoms: N2_15  and  C9_17 
REMARK    7  A    between atoms: C9_17  and  C10_19 
REMARK    8  A    between atoms: C10_19  and  N3_20 
REMARK    9  A    between atoms: N3_20  and  C11_22 
ROOT
HETATM    1  C6  UNL     1       3.298  36.885  21.742  1.00  0.00     0.094 A 
HETATM    2  S1  UNL     1       2.375  35.996  22.903  1.00  0.00    -0.074 SA
HETATM    3  C7  UNL     1       0.885  35.916  22.087  1.00  0.00     0.004 A 
HETATM    4  C15 UNL     1       1.147  36.587  20.927  1.00  0.00     0.043 A 
HETATM    5  C16 UNL     1       2.384  37.084  20.748  1.00  0.00     0.068 A 
HETATM    6 CL1  UNL     1       2.825  37.973  19.248  1.00  0.00    -0.081 Cl
ENDROOT
BRANCH   1   7
HETATM    7  N1  UNL     1       4.659  37.247  21.900  1.00  0.00    -0.374 N 
HETATM    8  C5  UNL     1       4.950  38.676  22.145  1.00  0.00     0.127 C 
HETATM    9  C4  UNL     1       6.257  38.734  22.860  1.00  0.00     0.068 C 
HETATM   10  C3  UNL     1       6.512  37.638  23.838  1.00  0.00     0.148 C 
HETATM   11  C18 UNL     1       6.268  36.247  23.304  1.00  0.00     0.068 C 
HETATM   12  C17 UNL     1       5.801  36.420  21.850  1.00  0.00     0.127 C 
BRANCH  10  13
HETATM   13  C2  UNL     1       7.978  37.705  24.175  1.00  0.00     0.293 C 
HETATM   14  O2  UNL     1       8.810  37.853  23.252  1.00  0.00    -0.262 OA
BRANCH  13  15
HETATM   15  O1  UNL     1       8.376  37.600  25.505  1.00  0.00    -0.324 OA
HETATM   16  C1  UNL     1       8.603  36.298  26.029  1.00  0.00     0.213 C 
ENDBRANCH  13  15
ENDBRANCH  10  13
BRANCH  10  17
HETATM   17  O3  UNL     1       5.769  37.889  24.992  1.00  0.00    -0.379 OA
ATOM     18  H3  UNL     1       5.198  38.632  24.836  1.00  0.00     0.211 HD
ENDBRANCH  10  17
ENDBRANCH   1   7
BRANCH   3  19
HETATM   19  C8  UNL     1      -0.415  35.290  22.480  1.00  0.00     0.169 C 
BRANCH  19  20
HETATM   20  N2  UNL     1      -0.157  34.445  23.626  1.00  0.00    -0.352 N 
HETATM   21  C9  UNL     1      -1.048  33.355  23.974  1.00  0.00     0.256 C 
HETATM   22  O4  UNL     1      -2.031  33.204  23.226  1.00  0.00    -0.267 OA
ATOM     23  H2  UNL     1       0.667  34.620  24.201  1.00  0.00     0.163 HD
BRANCH  21  24
HETATM   24  C10 UNL     1      -0.670  32.585  25.158  1.00  0.00     0.158 C 
BRANCH  24  25
HETATM   25  N3  UNL     1       0.435  31.766  25.069  1.00  0.00    -0.386 N 
ATOM     26  H3  UNL     1       0.648  31.401  24.142  1.00  0.00     0.159 HD
BRANCH  25  27
HETATM   27  C11 UNL     1       1.287  31.383  26.081  1.00  0.00     0.018 C 
HETATM   28  C12 UNL     1       0.612  31.349  27.465  1.00  0.00     0.037 C 
HETATM   29  C13 UNL     1       1.584  29.860  25.830  1.00  0.00     0.037 C 
HETATM   30  C14 UNL     1       2.564  32.105  26.241  1.00  0.00     0.037 C 
ENDBRANCH  25  27
ENDBRANCH  24  25
ENDBRANCH  21  24
ENDBRANCH  19  20
ENDBRANCH   3  19
TORSDOF 9
ENDMDL
MODEL 4
REMARK VINA RESULT: -7.119609304      2.365      3.481
REMARK  9 active torsions:
REMARK  status: ('A' for Active; 'I' for Inactive)
REMARK    1  A    between atoms: O1_2  and  C2_3 
REMARK    2  A    between atoms: C2_3  and  C3_5 
REMARK    3  A    between atoms: C3_5  and  O3_6 
REMARK    4  A    between atoms: N1_10  and  C6_11 
REMARK    5  A    between atoms: C7_13  and  C8_14 
REMARK    6  A    between atoms: C8_14  and  N2_15 
REMARK       I    between atoms: N2_15  and  C9_17 
REMARK    7  A    between atoms: C9_17  and  C10_19 
REMARK    8  A    between atoms: C10_19  and  N3_20 
REMARK    9  A    between atoms: N3_20  and  C11_22 
ROOT
HETATM    1  C6  UNL     1       3.595  37.140  23.138  1.00  0.00     0.094 A 
HETATM    2  S1  UNL     1       2.438  37.282  24.416  1.00  0.00    -0.074 SA
HETATM    3  C7  UNL     1       1.074  36.621  23.645  1.00  0.00     0.004 A 
HETATM    4  C15 UNL     1       1.558  36.307  22.407  1.00  0.00     0.043 A 
HETATM    5  C16 UNL     1       2.850  36.572  22.146  1.00  0.00     0.068 A 
HETATM    6 CL1  UNL     1       3.579  36.183  20.548  1.00  0.00    -0.081 Cl
ENDROOT
BRANCH   1   7
HETATM    7  N1  UNL     1       4.951  37.544  23.229  1.00  0.00    -0.374 N 
HETATM    8  C5  UNL     1       5.224  38.829  23.909  1.00  0.00     0.127 C 
HETATM    9  C4  UNL     1       6.623  38.757  24.421  1.00  0.00     0.068 C 
HETATM   10  C3  UNL     1       7.064  37.423  24.921  1.00  0.00     0.148 C 
HETATM   11  C18 UNL     1       6.791  36.275  23.980  1.00  0.00     0.068 C 
HETATM   12  C17 UNL     1       6.101  36.883  22.748  1.00  0.00     0.127 C 
BRANCH  10  13
HETATM   13  C2  UNL     1       8.561  37.500  25.063  1.00  0.00     0.293 C 
HETATM   14  O2  UNL     1       9.049  38.040  26.081  1.00  0.00    -0.262 OA
BRANCH  13  15
HETATM   15  O1  UNL     1       9.369  36.969  24.062  1.00  0.00    -0.324 OA
HETATM   16  C1  UNL     1       9.730  37.820  22.981  1.00  0.00     0.213 C 
ENDBRANCH  13  15
ENDBRANCH  10  13
BRANCH  10  17
HETATM   17  O3  UNL     1       6.499  37.210  26.178  1.00  0.00    -0.379 OA
ATOM     18  H3  UNL     1       5.559  37.111  26.082  1.00  0.00     0.211 HD
ENDBRANCH  10  17
ENDBRANCH   1   7
BRANCH   3  19
HETATM   19  C8  UNL     1      -0.322  36.411  24.135  1.00  0.00     0.169 C 
BRANCH  19  20
HETATM   20  N2  UNL     1      -0.328  35.189  24.909  1.00  0.00    -0.352 N 
HETATM   21  C9  UNL     1      -0.749  33.930  24.326  1.00  0.00     0.256 C 
HETATM   22  O4  UNL     1      -1.096  33.979  23.132  1.00  0.00    -0.267 OA
ATOM     23  H2  UNL     1      -0.031  35.213  25.885  1.00  0.00     0.163 HD
BRANCH  21  24
HETATM   24  C10 UNL     1      -0.709  32.774  25.222  1.00  0.00     0.158 C 
BRANCH  24  25
HETATM   25  N3  UNL     1       0.380  31.934  25.142  1.00  0.00    -0.386 N 
ATOM     26  H3  UNL     1       0.750  31.769  24.206  1.00  0.00     0.159 HD
BRANCH  25  27
HETATM   27  C11 UNL     1       1.028  31.289  26.171  1.00  0.00     0.018 C 
HETATM   28  C12 UNL     1       1.527  29.882  25.789  1.00  0.00     0.037 C 
HETATM   29  C13 UNL     1       2.379  32.066  26.374  1.00  0.00     0.037 C 
HETATM   30  C14 UNL     1       0.341  31.165  27.472  1.00  0.00     0.037 C 
ENDBRANCH  25  27
ENDBRANCH  24  25
ENDBRANCH  21  24
ENDBRANCH  19  20
ENDBRANCH   3  19
TORSDOF 9
ENDMDL
MODEL 5
REMARK VINA RESULT: -7.001475923      5.276      8.364
REMARK  9 active torsions:
REMARK  status: ('A' for Active; 'I' for Inactive)
REMARK    1  A    between atoms: O1_2  and  C2_3 
REMARK    2  A    between atoms: C2_3  and  C3_5 
REMARK    3  A    between atoms: C3_5  and  O3_6 
REMARK    4  A    between atoms: N1_10  and  C6_11 
REMARK    5  A    between atoms: C7_13  and  C8_14 
REMARK    6  A    between atoms: C8_14  and  N2_15 
REMARK       I    between atoms: N2_15  and  C9_17 
REMARK    7  A    between atoms: C9_17  and  C10_19 
REMARK    8  A    between atoms: C10_19  and  N3_20 
REMARK    9  A    between atoms: N3_20  and  C11_22 
ROOT
HETATM    1  C6  UNL     1       5.495  36.682  24.117  1.00  0.00     0.094 A 
HETATM    2  S1  UNL     1       4.022  36.218  23.338  1.00  0.00    -0.074 SA
HETATM    3  C7  UNL     1       4.589  36.017  21.747  1.00  0.00     0.004 A 
HETATM    4  C15 UNL     1       5.915  36.319  21.864  1.00  0.00     0.043 A 
HETATM    5  C16 UNL     1       6.381  36.659  23.079  1.00  0.00     0.068 A 
HETATM    6 CL1  UNL     1       8.116  37.063  23.334  1.00  0.00    -0.081 Cl
ENDROOT
BRANCH   1   7
HETATM    7  N1  UNL     1       5.618  36.978  25.498  1.00  0.00    -0.374 N 
HETATM    8  C5  UNL     1       5.256  38.346  25.925  1.00  0.00     0.127 C 
HETATM    9  C4  UNL     1       4.872  38.261  27.364  1.00  0.00     0.068 C 
HETATM   10  C3  UNL     1       4.144  37.025  27.770  1.00  0.00     0.148 C 
HETATM   11  C18 UNL     1       4.789  35.737  27.323  1.00  0.00     0.068 C 
HETATM   12  C17 UNL     1       6.053  36.137  26.543  1.00  0.00     0.127 C 
BRANCH  10  13
HETATM   13  C2  UNL     1       4.160  37.001  29.275  1.00  0.00     0.293 C 
HETATM   14  O2  UNL     1       4.458  35.938  29.864  1.00  0.00    -0.262 OA
BRANCH  13  15
HETATM   15  O1  UNL     1       3.843  38.159  29.979  1.00  0.00    -0.324 OA
HETATM   16  C1  UNL     1       3.809  38.085  31.398  1.00  0.00     0.213 C 
ENDBRANCH  13  15
ENDBRANCH  10  13
BRANCH  10  17
HETATM   17  O3  UNL     1       2.823  37.123  27.332  1.00  0.00    -0.379 OA
ATOM     18  H3  UNL     1       2.662  38.009  27.029  1.00  0.00     0.211 HD
ENDBRANCH  10  17
ENDBRANCH   1   7
BRANCH   3  19
HETATM   19  C8  UNL     1       3.874  35.618  20.496  1.00  0.00     0.169 C 
BRANCH  19  20
HETATM   20  N2  UNL     1       3.667  36.819  19.715  1.00  0.00    -0.352 N 
HETATM   21  C9  UNL     1       2.421  37.556  19.783  1.00  0.00     0.256 C 
HETATM   22  O4  UNL     1       1.558  37.087  20.548  1.00  0.00    -0.267 OA
ATOM     23  H2  UNL     1       4.413  37.154  19.105  1.00  0.00     0.163 HD
BRANCH  21  24
HETATM   24  C10 UNL     1       2.345  38.748  18.939  1.00  0.00     0.158 C 
BRANCH  24  25
HETATM   25  N3  UNL     1       2.367  38.573  17.572  1.00  0.00    -0.386 N 
ATOM     26  H3  UNL     1       3.079  37.936  17.214  1.00  0.00     0.159 HD
BRANCH  25  27
HETATM   27  C11 UNL     1       1.545  39.151  16.632  1.00  0.00     0.018 C 
HETATM   28  C12 UNL     1       0.061  39.164  17.046  1.00  0.00     0.037 C 
HETATM   29  C13 UNL     1       1.897  40.683  16.646  1.00  0.00     0.037 C 
HETATM   30  C14 UNL     1       1.601  38.655  15.243  1.00  0.00     0.037 C 
ENDBRANCH  25  27
ENDBRANCH  24  25
ENDBRANCH  21  24
ENDBRANCH  19  20
ENDBRANCH   3  19
TORSDOF 9
ENDMDL
