MODEL 1
REMARK VINA RESULT: -6.231639669      0.000      0.000
REMARK  3 active torsions:
REMARK  status: ('A' for Active; 'I' for Inactive)
REMARK    1  A    between atoms: C3_3  and  N1_4 
REMARK    2  A    between atoms: N1_4  and  C4_6 
REMARK    3  A    between atoms: C4_6  and  C5_7 
ROOT
HETATM    1  C5  UNL     1     -18.846  -0.523 -21.380  1.00  0.00     0.143 C 
HETATM    2  C6  UNL     1     -18.543   0.860 -21.687  1.00  0.00     0.060 C 
HETATM    3  N2  UNL     1     -18.329   1.979 -21.931  1.00  0.00    -0.197 NA
ENDROOT
BRANCH   1   4
HETATM    4  C4  UNL     1     -18.327  -1.543 -22.326  1.00  0.00     0.135 C 
BRANCH   4   5
HETATM    5  N1  UNL     1     -17.378  -1.136 -23.294  1.00  0.00    -0.379 N 
ATOM      6  H1  UNL     1     -16.607  -0.571 -22.939  1.00  0.00     0.160 HD
BRANCH   5   7
HETATM    7  C3  UNL     1     -17.344  -1.401 -24.690  1.00  0.00     0.081 C 
HETATM    8  C2  UNL     1     -18.518  -1.129 -25.531  1.00  0.00     0.076 C 
HETATM    9  C1  UNL     1     -19.205   0.180 -25.159  1.00  0.00     0.020 C 
HETATM   10  C10 UNL     1     -18.316  -1.279 -26.986  1.00  0.00     0.030 C 
HETATM   11  N4  UNL     1     -16.983  -1.482 -27.454  1.00  0.00    -0.388 N 
HETATM   12  C11 UNL     1     -18.808  -0.007 -27.696  1.00  0.00     0.038 C 
HETATM   13  C12 UNL     1     -19.262  -2.370 -27.525  1.00  0.00     0.038 C 
HETATM   14  C7  UNL     1     -16.147  -2.241 -26.576  1.00  0.00     0.093 C 
ATOM     15  H4  UNL     1     -16.652  -1.115 -28.346  1.00  0.00     0.156 HD
HETATM   16  N3  UNL     1     -16.291  -1.905 -25.201  1.00  0.00    -0.354 N 
HETATM   17  C8  UNL     1     -14.705  -1.933 -27.013  1.00  0.00     0.062 C 
HETATM   18  C9  UNL     1     -16.300  -3.752 -26.799  1.00  0.00     0.062 C 
ATOM     19  H3  UNL     1     -15.499  -2.079 -24.582  1.00  0.00     0.163 HD
ENDBRANCH   5   7
ENDBRANCH   4   5
ENDBRANCH   1   4
TORSDOF 3
ENDMDL
MODEL 2
REMARK VINA RESULT: -6.226247332      1.592      2.471
REMARK  3 active torsions:
REMARK  status: ('A' for Active; 'I' for Inactive)
REMARK    1  A    between atoms: C3_3  and  N1_4 
REMARK    2  A    between atoms: N1_4  and  C4_6 
REMARK    3  A    between atoms: C4_6  and  C5_7 
ROOT
HETATM    1  C5  UNL     1     -17.687  -1.051 -22.910  1.00  0.00     0.143 C 
HETATM    2  C6  UNL     1     -17.989   0.319 -22.544  1.00  0.00     0.060 C 
HETATM    3  N2  UNL     1     -18.234   1.411 -22.221  1.00  0.00    -0.197 NA
ENDROOT
BRANCH   1   4
HETATM    4  C4  UNL     1     -18.525  -1.653 -23.977  1.00  0.00     0.135 C 
BRANCH   4   5
HETATM    5  N1  UNL     1     -18.471  -1.086 -25.272  1.00  0.00    -0.379 N 
ATOM      6  H1  UNL     1     -19.106  -0.304 -25.432  1.00  0.00     0.160 HD
BRANCH   5   7
HETATM    7  C3  UNL     1     -17.662  -1.447 -26.383  1.00  0.00     0.081 C 
HETATM    8  C2  UNL     1     -17.879  -2.721 -27.083  1.00  0.00     0.076 C 
HETATM    9  C1  UNL     1     -19.360  -3.039 -27.258  1.00  0.00     0.020 C 
HETATM   10  C10 UNL     1     -17.099  -2.917 -28.321  1.00  0.00     0.030 C 
HETATM   11  N4  UNL     1     -16.363  -1.802 -28.824  1.00  0.00    -0.388 N 
HETATM   12  C11 UNL     1     -18.052  -3.324 -29.457  1.00  0.00     0.038 C 
HETATM   13  C12 UNL     1     -16.192  -4.153 -28.164  1.00  0.00     0.038 C 
HETATM   14  C7  UNL     1     -15.830  -0.932 -27.823  1.00  0.00     0.093 C 
ATOM     15  H4  UNL     1     -16.227  -1.640 -29.822  1.00  0.00     0.156 HD
HETATM   16  N3  UNL     1     -16.723  -0.667 -26.748  1.00  0.00    -0.354 N 
HETATM   17  C8  UNL     1     -15.521   0.389 -28.548  1.00  0.00     0.062 C 
HETATM   18  C9  UNL     1     -14.467  -1.414 -27.308  1.00  0.00     0.062 C 
ATOM     19  H3  UNL     1     -16.605   0.207 -26.235  1.00  0.00     0.163 HD
ENDBRANCH   5   7
ENDBRANCH   4   5
ENDBRANCH   1   4
TORSDOF 3
ENDMDL
MODEL 3
REMARK VINA RESULT: -5.835903009      1.615      3.228
REMARK  3 active torsions:
REMARK  status: ('A' for Active; 'I' for Inactive)
REMARK    1  A    between atoms: C3_3  and  N1_4 
REMARK    2  A    between atoms: N1_4  and  C4_6 
REMARK    3  A    between atoms: C4_6  and  C5_7 
ROOT
HETATM    1  C5  UNL     1     -18.098  -1.137 -22.783  1.00  0.00     0.143 C 
HETATM    2  C6  UNL     1     -18.140   0.282 -22.492  1.00  0.00     0.060 C 
HETATM    3  N2  UNL     1     -18.197   1.418 -22.240  1.00  0.00    -0.197 NA
ENDROOT
BRANCH   1   4
HETATM    4  C4  UNL     1     -18.096  -1.522 -24.217  1.00  0.00     0.135 C 
BRANCH   4   5
HETATM    5  N1  UNL     1     -16.918  -2.090 -24.757  1.00  0.00    -0.379 N 
ATOM      6  H1  UNL     1     -16.347  -2.618 -24.097  1.00  0.00     0.160 HD
BRANCH   5   7
HETATM    7  C3  UNL     1     -16.414  -2.031 -26.084  1.00  0.00     0.081 C 
HETATM    8  C2  UNL     1     -15.859  -3.231 -26.726  1.00  0.00     0.076 C 
HETATM    9  C1  UNL     1     -16.679  -4.480 -26.423  1.00  0.00     0.020 C 
HETATM   10  C10 UNL     1     -15.523  -3.097 -28.158  1.00  0.00     0.030 C 
HETATM   11  N4  UNL     1     -15.934  -1.906 -28.828  1.00  0.00    -0.388 N 
HETATM   12  C11 UNL     1     -16.178  -4.250 -28.938  1.00  0.00     0.038 C 
HETATM   13  C12 UNL     1     -14.016  -3.351 -28.356  1.00  0.00     0.038 C 
HETATM   14  C7  UNL     1     -15.918  -0.726 -28.019  1.00  0.00     0.093 C 
ATOM     15  H4  UNL     1     -16.215  -1.896 -29.808  1.00  0.00     0.156 HD
HETATM   16  N3  UNL     1     -16.421  -0.917 -26.703  1.00  0.00    -0.354 N 
HETATM   17  C8  UNL     1     -16.816   0.285 -28.751  1.00  0.00     0.062 C 
HETATM   18  C9  UNL     1     -14.534  -0.063 -27.997  1.00  0.00     0.062 C 
ATOM     19  H3  UNL     1     -16.814  -0.108 -26.221  1.00  0.00     0.163 HD
ENDBRANCH   5   7
ENDBRANCH   4   5
ENDBRANCH   1   4
TORSDOF 3
ENDMDL
MODEL 4
REMARK VINA RESULT: -5.716295024      1.619      3.008
REMARK  3 active torsions:
REMARK  status: ('A' for Active; 'I' for Inactive)
REMARK    1  A    between atoms: C3_3  and  N1_4 
REMARK    2  A    between atoms: N1_4  and  C4_6 
REMARK    3  A    between atoms: C4_6  and  C5_7 
ROOT
HETATM    1  C5  UNL     1     -19.639  -0.702 -21.468  1.00  0.00     0.143 C 
HETATM    2  C6  UNL     1     -19.199  -0.468 -20.107  1.00  0.00     0.060 C 
HETATM    3  N2  UNL     1     -18.873  -0.284 -19.003  1.00  0.00    -0.197 NA
ENDROOT
BRANCH   1   4
HETATM    4  C4  UNL     1     -19.274   0.330 -22.471  1.00  0.00     0.135 C 
BRANCH   4   5
HETATM    5  N1  UNL     1     -18.086   0.147 -23.217  1.00  0.00    -0.379 N 
ATOM      6  H1  UNL     1     -17.236   0.502 -22.779  1.00  0.00     0.160 HD
BRANCH   5   7
HETATM    7  C3  UNL     1     -17.904  -0.458 -24.490  1.00  0.00     0.081 C 
HETATM    8  C2  UNL     1     -17.141  -1.707 -24.621  1.00  0.00     0.076 C 
HETATM    9  C1  UNL     1     -17.446  -2.691 -23.497  1.00  0.00     0.020 C 
HETATM   10  C10 UNL     1     -17.159  -2.336 -25.957  1.00  0.00     0.030 C 
HETATM   11  N4  UNL     1     -18.050  -1.795 -26.932  1.00  0.00    -0.388 N 
HETATM   12  C11 UNL     1     -17.559  -3.813 -25.812  1.00  0.00     0.038 C 
HETATM   13  C12 UNL     1     -15.721  -2.414 -26.505  1.00  0.00     0.038 C 
HETATM   14  C7  UNL     1     -18.245  -0.381 -26.850  1.00  0.00     0.093 C 
ATOM     15  H4  UNL     1     -18.511  -2.374 -27.634  1.00  0.00     0.156 HD
HETATM   16  N3  UNL     1     -18.386   0.110 -25.523  1.00  0.00    -0.354 N 
HETATM   17  C8  UNL     1     -19.544  -0.100 -27.624  1.00  0.00     0.062 C 
HETATM   18  C9  UNL     1     -17.165   0.393 -27.619  1.00  0.00     0.062 C 
ATOM     19  H3  UNL     1     -18.908   0.976 -25.389  1.00  0.00     0.163 HD
ENDBRANCH   5   7
ENDBRANCH   4   5
ENDBRANCH   1   4
TORSDOF 3
ENDMDL
MODEL 5
REMARK VINA RESULT: -5.640594444      1.937      2.754
REMARK  3 active torsions:
REMARK  status: ('A' for Active; 'I' for Inactive)
REMARK    1  A    between atoms: C3_3  and  N1_4 
REMARK    2  A    between atoms: N1_4  and  C4_6 
REMARK    3  A    between atoms: C4_6  and  C5_7 
ROOT
HETATM    1  C5  UNL     1     -18.441  -0.796 -23.712  1.00  0.00     0.143 C 
HETATM    2  C6  UNL     1     -18.797  -0.059 -24.908  1.00  0.00     0.060 C 
HETATM    3  N2  UNL     1     -19.111   0.524 -25.867  1.00  0.00    -0.197 NA
ENDROOT
BRANCH   1   4
HETATM    4  C4  UNL     1     -17.248  -1.675 -23.804  1.00  0.00     0.135 C 
BRANCH   4   5
HETATM    5  N1  UNL     1     -17.205  -2.640 -24.838  1.00  0.00    -0.379 N 
ATOM      6  H1  UNL     1     -17.592  -3.553 -24.598  1.00  0.00     0.160 HD
BRANCH   5   7
HETATM    7  C3  UNL     1     -16.700  -2.524 -26.161  1.00  0.00     0.081 C 
HETATM    8  C2  UNL     1     -17.384  -3.184 -27.282  1.00  0.00     0.076 C 
HETATM    9  C1  UNL     1     -18.901  -3.075 -27.178  1.00  0.00     0.020 C 
HETATM   10  C10 UNL     1     -16.874  -2.858 -28.629  1.00  0.00     0.030 C 
HETATM   11  N4  UNL     1     -15.913  -1.809 -28.738  1.00  0.00    -0.388 N 
HETATM   12  C11 UNL     1     -18.051  -2.428 -29.521  1.00  0.00     0.038 C 
HETATM   13  C12 UNL     1     -16.369  -4.144 -29.310  1.00  0.00     0.038 C 
HETATM   14  C7  UNL     1     -15.012  -1.701 -27.633  1.00  0.00     0.093 C 
ATOM     15  H4  UNL     1     -15.871  -1.184 -29.544  1.00  0.00     0.156 HD
HETATM   16  N3  UNL     1     -15.630  -1.863 -26.362  1.00  0.00    -0.354 N 
HETATM   17  C8  UNL     1     -14.422  -0.283 -27.720  1.00  0.00     0.062 C 
HETATM   18  C9  UNL     1     -13.801  -2.630 -27.787  1.00  0.00     0.062 C 
ATOM     19  H3  UNL     1     -15.185  -1.421 -25.557  1.00  0.00     0.163 HD
ENDBRANCH   5   7
ENDBRANCH   4   5
ENDBRANCH   1   4
TORSDOF 3
ENDMDL
