MODEL 1
REMARK VINA RESULT: -8.424589447      0.000      0.000
REMARK  1 active torsions:
REMARK  status: ('A' for Active; 'I' for Inactive)
REMARK    1  A    between atoms: C4_6  and  C5_7 
ROOT
HETATM    1  C1  UNL     1     -19.060  -3.276 -26.872  1.00  0.00     0.062 C 
HETATM    2  C2  UNL     1     -17.951  -2.998 -25.897  1.00  0.00     0.097 C 
HETATM    3  C3  UNL     1     -17.406  -4.314 -25.320  1.00  0.00     0.062 C 
HETATM    4  N1  UNL     1     -18.385  -2.222 -24.800  1.00  0.00    -0.369 N 
ATOM      5  H1  UNL     1     -18.734  -2.754 -24.001  1.00  0.00     0.161 HD
HETATM    6  C4  UNL     1     -18.405  -0.975 -24.663  1.00  0.00     0.013 C 
HETATM    7  C11 UNL     1     -17.915  -0.096 -25.772  1.00  0.00     0.205 C 
HETATM    8  C12 UNL     1     -19.013   0.363 -26.624  1.00  0.00     0.077 C 
HETATM    9  N2  UNL     1     -19.885   0.724 -27.296  1.00  0.00    -0.196 NA
HETATM   10  C13 UNL     1     -16.955  -0.829 -26.601  1.00  0.00     0.096 C 
HETATM   11  N3  UNL     1     -16.178  -0.199 -27.401  1.00  0.00    -0.388 N 
ATOM     12  H31 UNL     1     -15.509  -0.709 -27.978  1.00  0.00     0.157 HD
ATOM     13  H32 UNL     1     -16.248   0.818 -27.439  1.00  0.00     0.157 HD
HETATM   14  N4  UNL     1     -16.856  -2.265 -26.546  1.00  0.00    -0.353 N 
ATOM     15  H4  UNL     1     -16.054  -2.755 -26.943  1.00  0.00     0.163 HD
ENDROOT
BRANCH   6  16
HETATM   16  C5  UNL     1     -18.913  -0.390 -23.402  1.00  0.00     0.033 C 
HETATM   17  C6  UNL     1     -18.040   0.711 -22.901  1.00  0.00     0.010 C 
HETATM   18  C7  UNL     1     -18.503   1.255 -21.603  1.00  0.00     0.001 C 
HETATM   19  C8  UNL     1     -18.963   0.252 -20.610  1.00  0.00     0.000 C 
HETATM   20  C9  UNL     1     -19.824  -0.838 -21.196  1.00  0.00     0.001 C 
HETATM   21  C10 UNL     1     -19.001  -1.457 -22.334  1.00  0.00     0.010 C 
ENDBRANCH   6  16
TORSDOF 1
ENDMDL
MODEL 2
REMARK VINA RESULT: -7.136463961      1.479      3.302
REMARK  1 active torsions:
REMARK  status: ('A' for Active; 'I' for Inactive)
REMARK    1  A    between atoms: C4_6  and  C5_7 
ROOT
HETATM    1  C1  UNL     1     -15.638  -1.934 -27.336  1.00  0.00     0.062 C 
HETATM    2  C2  UNL     1     -16.839  -1.044 -27.187  1.00  0.00     0.097 C 
HETATM    3  C3  UNL     1     -16.580   0.316 -27.853  1.00  0.00     0.062 C 
HETATM    4  N1  UNL     1     -17.145  -0.782 -25.833  1.00  0.00    -0.369 N 
ATOM      5  H1  UNL     1     -16.690   0.040 -25.435  1.00  0.00     0.161 HD
HETATM    6  C4  UNL     1     -17.896  -1.412 -25.050  1.00  0.00     0.013 C 
HETATM    7  C11 UNL     1     -18.617  -2.634 -25.528  1.00  0.00     0.205 C 
HETATM    8  C12 UNL     1     -17.885  -3.858 -25.201  1.00  0.00     0.077 C 
HETATM    9  N2  UNL     1     -17.301  -4.823 -24.939  1.00  0.00    -0.196 NA
HETATM   10  C13 UNL     1     -18.794  -2.570 -26.981  1.00  0.00     0.096 C 
HETATM   11  N3  UNL     1     -19.645  -3.330 -27.563  1.00  0.00    -0.388 N 
ATOM     12  H31 UNL     1     -19.768  -3.286 -28.575  1.00  0.00     0.157 HD
ATOM     13  H32 UNL     1     -20.189  -3.973 -26.988  1.00  0.00     0.157 HD
HETATM   14  N4  UNL     1     -18.026  -1.661 -27.793  1.00  0.00    -0.353 N 
ATOM     15  H4  UNL     1     -18.296  -1.454 -28.755  1.00  0.00     0.163 HD
ENDROOT
BRANCH   6  16
HETATM   16  C5  UNL     1     -18.059  -0.934 -23.658  1.00  0.00     0.033 C 
HETATM   17  C6  UNL     1     -19.168  -1.634 -22.949  1.00  0.00     0.010 C 
HETATM   18  C7  UNL     1     -19.383  -1.113 -21.579  1.00  0.00     0.001 C 
HETATM   19  C8  UNL     1     -19.312   0.363 -21.431  1.00  0.00     0.000 C 
HETATM   20  C9  UNL     1     -18.176   0.999 -22.192  1.00  0.00     0.001 C 
HETATM   21  C10 UNL     1     -18.345   0.551 -23.650  1.00  0.00     0.010 C 
ENDBRANCH   6  16
TORSDOF 1
ENDMDL
MODEL 3
REMARK VINA RESULT: -6.515952543      2.206      3.642
REMARK  1 active torsions:
REMARK  status: ('A' for Active; 'I' for Inactive)
REMARK    1  A    between atoms: C4_6  and  C5_7 
ROOT
HETATM    1  C1  UNL     1     -17.100  -1.462 -29.919  1.00  0.00     0.062 C 
HETATM    2  C2  UNL     1     -17.408  -2.524 -28.902  1.00  0.00     0.097 C 
HETATM    3  C3  UNL     1     -18.707  -3.256 -29.273  1.00  0.00     0.062 C 
HETATM    4  N1  UNL     1     -17.600  -1.987 -27.610  1.00  0.00    -0.369 N 
ATOM      5  H1  UNL     1     -18.559  -1.723 -27.386  1.00  0.00     0.161 HD
HETATM    6  C4  UNL     1     -16.761  -1.788 -26.698  1.00  0.00     0.013 C 
HETATM    7  C11 UNL     1     -15.322  -2.140 -26.917  1.00  0.00     0.205 C 
HETATM    8  C12 UNL     1     -14.544  -0.983 -27.361  1.00  0.00     0.077 C 
HETATM    9  N2  UNL     1     -13.932  -0.064 -27.712  1.00  0.00    -0.196 NA
HETATM   10  C13 UNL     1     -15.216  -3.192 -27.931  1.00  0.00     0.096 C 
HETATM   11  N3  UNL     1     -14.134  -3.865 -28.053  1.00  0.00    -0.388 N 
ATOM     12  H31 UNL     1     -14.060  -4.598 -28.759  1.00  0.00     0.157 HD
ATOM     13  H32 UNL     1     -13.359  -3.649 -27.427  1.00  0.00     0.157 HD
HETATM   14  N4  UNL     1     -16.312  -3.498 -28.814  1.00  0.00    -0.353 N 
ATOM     15  H4  UNL     1     -16.327  -4.360 -29.360  1.00  0.00     0.163 HD
ENDROOT
BRANCH   6  16
HETATM   16  C5  UNL     1     -17.210  -1.207 -25.412  1.00  0.00     0.033 C 
HETATM   17  C6  UNL     1     -17.057  -2.164 -24.279  1.00  0.00     0.010 C 
HETATM   18  C7  UNL     1     -17.569  -1.615 -23.001  1.00  0.00     0.001 C 
HETATM   19  C8  UNL     1     -18.849  -0.868 -23.086  1.00  0.00     0.000 C 
HETATM   20  C9  UNL     1     -18.935   0.063 -24.269  1.00  0.00     0.001 C 
HETATM   21  C10 UNL     1     -18.665  -0.803 -25.506  1.00  0.00     0.010 C 
ENDBRANCH   6  16
TORSDOF 1
ENDMDL
MODEL 4
REMARK VINA RESULT: -6.507490362      1.982      3.806
REMARK  1 active torsions:
REMARK  status: ('A' for Active; 'I' for Inactive)
REMARK    1  A    between atoms: C4_6  and  C5_7 
ROOT
HETATM    1  C1  UNL     1     -14.651  -1.571 -28.233  1.00  0.00     0.062 C 
HETATM    2  C2  UNL     1     -16.001  -0.916 -28.307  1.00  0.00     0.097 C 
HETATM    3  C3  UNL     1     -15.861   0.544 -28.766  1.00  0.00     0.062 C 
HETATM    4  N1  UNL     1     -16.651  -0.887 -27.053  1.00  0.00    -0.369 N 
ATOM      5  H1  UNL     1     -16.462  -0.061 -26.484  1.00  0.00     0.161 HD
HETATM    6  C4  UNL     1     -17.426  -1.728 -26.538  1.00  0.00     0.013 C 
HETATM    7  C11 UNL     1     -17.775  -2.978 -27.285  1.00  0.00     0.205 C 
HETATM    8  C12 UNL     1     -16.917  -4.098 -26.897  1.00  0.00     0.077 C 
HETATM    9  N2  UNL     1     -16.236  -4.982 -26.586  1.00  0.00    -0.196 NA
HETATM   10  C13 UNL     1     -17.626  -2.754 -28.726  1.00  0.00     0.096 C 
HETATM   11  N3  UNL     1     -18.162  -3.560 -29.564  1.00  0.00    -0.388 N 
ATOM     12  H31 UNL     1     -18.059  -3.404 -30.567  1.00  0.00     0.157 HD
ATOM     13  H32 UNL     1     -18.690  -4.353 -29.200  1.00  0.00     0.157 HD
HETATM   14  N4  UNL     1     -16.880  -1.634 -29.240  1.00  0.00    -0.353 N 
ATOM     15  H4  UNL     1     -16.960  -1.349 -30.216  1.00  0.00     0.163 HD
ENDROOT
BRANCH   6  16
HETATM   16  C5  UNL     1     -17.989  -1.470 -25.193  1.00  0.00     0.033 C 
HETATM   17  C6  UNL     1     -18.623  -0.124 -25.098  1.00  0.00     0.010 C 
HETATM   18  C7  UNL     1     -19.127   0.170 -23.736  1.00  0.00     0.001 C 
HETATM   19  C8  UNL     1     -18.240  -0.239 -22.617  1.00  0.00     0.000 C 
HETATM   20  C9  UNL     1     -17.622  -1.603 -22.796  1.00  0.00     0.001 C 
HETATM   21  C10 UNL     1     -16.898  -1.562 -24.149  1.00  0.00     0.010 C 
ENDBRANCH   6  16
TORSDOF 1
ENDMDL
MODEL 5
REMARK VINA RESULT: -6.415836668      2.097      3.072
REMARK  1 active torsions:
REMARK  status: ('A' for Active; 'I' for Inactive)
REMARK    1  A    between atoms: C4_6  and  C5_7 
ROOT
HETATM    1  C1  UNL     1     -16.749  -3.771 -28.860  1.00  0.00     0.062 C 
HETATM    2  C2  UNL     1     -15.924  -3.806 -27.605  1.00  0.00     0.097 C 
HETATM    3  C3  UNL     1     -15.847  -5.239 -27.058  1.00  0.00     0.062 C 
HETATM    4  N1  UNL     1     -16.476  -3.008 -26.579  1.00  0.00    -0.369 N 
ATOM      5  H1  UNL     1     -17.136  -3.485 -25.964  1.00  0.00     0.161 HD
HETATM    6  C4  UNL     1     -16.273  -1.799 -26.314  1.00  0.00     0.013 C 
HETATM    7  C11 UNL     1     -15.322  -1.000 -27.150  1.00  0.00     0.205 C 
HETATM    8  C12 UNL     1     -16.018  -0.258 -28.202  1.00  0.00     0.077 C 
HETATM    9  N2  UNL     1     -16.573   0.328 -29.033  1.00  0.00    -0.196 NA
HETATM   10  C13 UNL     1     -14.342  -1.892 -27.777  1.00  0.00     0.096 C 
HETATM   11  N3  UNL     1     -13.260  -1.418 -28.270  1.00  0.00    -0.388 N 
ATOM     12  H31 UNL     1     -12.578  -2.039 -28.707  1.00  0.00     0.157 HD
ATOM     13  H32 UNL     1     -13.104  -0.412 -28.212  1.00  0.00     0.157 HD
HETATM   14  N4  UNL     1     -14.564  -3.313 -27.859  1.00  0.00    -0.353 N 
ATOM     15  H4  UNL     1     -13.803  -3.954 -28.086  1.00  0.00     0.163 HD
ENDROOT
BRANCH   6  16
HETATM   16  C5  UNL     1     -16.980  -1.177 -25.171  1.00  0.00     0.033 C 
HETATM   17  C6  UNL     1     -16.988  -2.058 -23.968  1.00  0.00     0.010 C 
HETATM   18  C7  UNL     1     -17.752  -1.472 -22.842  1.00  0.00     0.001 C 
HETATM   19  C8  UNL     1     -19.033  -0.814 -23.205  1.00  0.00     0.000 C 
HETATM   20  C9  UNL     1     -18.949   0.044 -24.442  1.00  0.00     0.001 C 
HETATM   21  C10 UNL     1     -18.411  -0.871 -25.551  1.00  0.00     0.010 C 
ENDBRANCH   6  16
TORSDOF 1
ENDMDL
