MODEL 1
REMARK VINA RESULT: -8.549558402      0.000      0.000
REMARK  14 active torsions:
REMARK  status: ('A' for Active; 'I' for Inactive)
REMARK    1  A    between atoms: C2_2  and  O2_4 
REMARK    2  A    between atoms: O2_4  and  C3_5 
REMARK    3  A    between atoms: C3_5  and  C4_6 
REMARK    4  A    between atoms: N1_8  and  O3_10 
REMARK    5  A    between atoms: C7_13  and  O4_14 
REMARK    6  A    between atoms: C8_16  and  O5_18 
REMARK    7  A    between atoms: S1_20  and  C10_22 
REMARK    8  A    between atoms: C10_22  and  C11_23 
REMARK    9  A    between atoms: C11_23  and  O7_24 
REMARK   10  A    between atoms: O7_24  and  C12_25 
REMARK   11  A    between atoms: C12_25  and  O8_26 
REMARK   12  A    between atoms: O8_26  and  C13_27 
REMARK   13  A    between atoms: C13_27  and  C14_28 
REMARK   14  A    between atoms: C14_28  and  O9_29 
ROOT
HETATM    1  C3  UNL     1     -13.915  21.234  26.670  1.00  0.00     0.131 C 
HETATM    2  C6  UNL     1     -12.621  21.107  25.936  1.00  0.00     0.082 C 
HETATM    3  C7  UNL     1     -11.483  20.595  26.725  1.00  0.00     0.167 C 
HETATM    4  C8  UNL     1     -11.563  19.166  27.117  1.00  0.00     0.146 C 
HETATM    5  C9  UNL     1     -11.633  18.203  25.981  1.00  0.00     0.062 C 
HETATM    6  S1  UNL     1     -13.171  18.948  28.246  1.00  0.00    -0.006 S 
HETATM    7  O6  UNL     1     -12.970  20.157  29.898  1.00  0.00    -0.266 OA
HETATM    8  C15 UNL     1     -14.537  19.926  27.024  1.00  0.00     0.067 C 
HETATM    9  C16 UNL     1     -15.726  20.079  27.938  1.00  0.00     0.026 C 
HETATM   10  C17 UNL     1     -16.910  19.670  27.060  1.00  0.00     0.002 C 
HETATM   11  C18 UNL     1     -16.321  18.668  26.082  1.00  0.00     0.002 C 
HETATM   12  C19 UNL     1     -14.878  18.999  25.936  1.00  0.00     0.026 C 
ENDROOT
BRANCH   1  13
HETATM   13  O2  UNL     1     -13.712  21.877  27.947  1.00  0.00    -0.302 OA
BRANCH  13  14
HETATM   14  C2  UNL     1     -12.951  22.986  28.166  1.00  0.00     0.256 C 
HETATM   15  C1  UNL     1     -12.975  24.166  27.237  1.00  0.00     0.126 C 
HETATM   16  O1  UNL     1     -12.213  22.993  29.186  1.00  0.00    -0.266 OA
ENDBRANCH  13  14
ENDBRANCH   1  13
BRANCH   1  17
HETATM   17  C4  UNL     1     -14.842  22.033  25.846  1.00  0.00     0.043 C 
HETATM   18  C5  UNL     1     -16.112  22.636  26.322  1.00  0.00     0.069 C 
HETATM   19  N1  UNL     1     -14.540  22.277  24.584  1.00  0.00    -0.275 N 
ATOM     20  H1  UNL     1     -13.666  21.901  24.218  1.00  0.00     0.193 HD
BRANCH  19  21
HETATM   21  O3  UNL     1     -15.320  22.996  23.749  1.00  0.00    -0.290 OA
ATOM     22  H3  UNL     1     -15.830  22.617  23.042  1.00  0.00     0.244 HD
ENDBRANCH  19  21
ENDBRANCH   1  17
BRANCH   3  23
HETATM   23  O4  UNL     1     -10.310  20.776  25.971  1.00  0.00    -0.392 OA
ATOM     24  H4  UNL     1     -10.247  21.694  25.733  1.00  0.00     0.210 HD
ENDBRANCH   3  23
BRANCH   6  25
HETATM   25  C10 UNL     1     -13.774  17.180  28.873  1.00  0.00     0.126 C 
BRANCH  25  26
HETATM   26  C11 UNL     1     -12.613  16.431  29.432  1.00  0.00     0.182 C 
BRANCH  26  27
HETATM   27  O7  UNL     1     -12.827  16.055  30.758  1.00  0.00    -0.366 OA
BRANCH  27  28
HETATM   28  C12 UNL     1     -12.359  17.123  31.584  1.00  0.00     0.337 C 
BRANCH  28  29
HETATM   29  O8  UNL     1     -11.161  16.707  32.074  1.00  0.00    -0.365 OA
BRANCH  29  30
HETATM   30  C13 UNL     1     -10.071  17.495  31.951  1.00  0.00     0.196 C 
BRANCH  30  31
HETATM   31  C14 UNL     1      -9.437  17.996  33.196  1.00  0.00     0.190 C 
BRANCH  31  32
HETATM   32  O9  UNL     1      -8.065  17.831  33.233  1.00  0.00    -0.399 OA
ATOM     33  H9  UNL     1      -7.615  18.466  33.776  1.00  0.00     0.209 HD
ENDBRANCH  31  32
ENDBRANCH  30  31
ENDBRANCH  29  30
ENDBRANCH  28  29
ENDBRANCH  27  28
ENDBRANCH  26  27
ENDBRANCH  25  26
ENDBRANCH   6  25
BRANCH   4  34
HETATM   34  O5  UNL     1     -10.450  18.851  27.900  1.00  0.00    -0.376 OA
ATOM     35  H5  UNL     1     -10.056  18.054  27.565  1.00  0.00     0.211 HD
ENDBRANCH   4  34
TORSDOF 14
ENDMDL
MODEL 2
REMARK VINA RESULT: -8.248000538      1.082      1.214
REMARK  14 active torsions:
REMARK  status: ('A' for Active; 'I' for Inactive)
REMARK    1  A    between atoms: C2_2  and  O2_4 
REMARK    2  A    between atoms: O2_4  and  C3_5 
REMARK    3  A    between atoms: C3_5  and  C4_6 
REMARK    4  A    between atoms: N1_8  and  O3_10 
REMARK    5  A    between atoms: C7_13  and  O4_14 
REMARK    6  A    between atoms: C8_16  and  O5_18 
REMARK    7  A    between atoms: S1_20  and  C10_22 
REMARK    8  A    between atoms: C10_22  and  C11_23 
REMARK    9  A    between atoms: C11_23  and  O7_24 
REMARK   10  A    between atoms: O7_24  and  C12_25 
REMARK   11  A    between atoms: C12_25  and  O8_26 
REMARK   12  A    between atoms: O8_26  and  C13_27 
REMARK   13  A    between atoms: C13_27  and  C14_28 
REMARK   14  A    between atoms: C14_28  and  O9_29 
ROOT
HETATM    1  C3  UNL     1     -13.925  21.272  26.611  1.00  0.00     0.131 C 
HETATM    2  C6  UNL     1     -12.613  21.213  25.901  1.00  0.00     0.082 C 
HETATM    3  C7  UNL     1     -11.484  20.672  26.681  1.00  0.00     0.167 C 
HETATM    4  C8  UNL     1     -11.546  19.219  26.981  1.00  0.00     0.146 C 
HETATM    5  C9  UNL     1     -11.574  18.330  25.785  1.00  0.00     0.062 C 
HETATM    6  S1  UNL     1     -13.173  18.904  28.057  1.00  0.00    -0.006 S 
HETATM    7  O6  UNL     1     -13.030  20.008  29.785  1.00  0.00    -0.266 OA
HETATM    8  C15 UNL     1     -14.531  19.934  26.868  1.00  0.00     0.067 C 
HETATM    9  C16 UNL     1     -15.741  20.008  27.762  1.00  0.00     0.026 C 
HETATM   10  C17 UNL     1     -16.899  19.636  26.833  1.00  0.00     0.002 C 
HETATM   11  C18 UNL     1     -16.270  18.709  25.808  1.00  0.00     0.002 C 
HETATM   12  C19 UNL     1     -14.831  19.073  25.716  1.00  0.00     0.026 C 
ENDROOT
BRANCH   1  13
HETATM   13  O2  UNL     1     -13.762  21.836  27.931  1.00  0.00    -0.302 OA
BRANCH  13  14
HETATM   14  C2  UNL     1     -13.008  22.928  28.240  1.00  0.00     0.256 C 
HETATM   15  C1  UNL     1     -12.960  24.141  27.354  1.00  0.00     0.126 C 
HETATM   16  O1  UNL     1     -12.340  22.891  29.307  1.00  0.00    -0.266 OA
ENDBRANCH  13  14
ENDBRANCH   1  13
BRANCH   1  17
HETATM   17  C4  UNL     1     -14.848  22.106  25.819  1.00  0.00     0.043 C 
HETATM   18  C5  UNL     1     -16.104  22.714  26.324  1.00  0.00     0.069 C 
HETATM   19  N1  UNL     1     -14.556  22.380  24.560  1.00  0.00    -0.275 N 
ATOM     20  H1  UNL     1     -13.690  22.000  24.175  1.00  0.00     0.193 HD
BRANCH  19  21
HETATM   21  O3  UNL     1     -15.333  23.132  23.753  1.00  0.00    -0.290 OA
ATOM     22  H3  UNL     1     -15.144  24.035  23.527  1.00  0.00     0.244 HD
ENDBRANCH  19  21
ENDBRANCH   1  17
BRANCH   3  23
HETATM   23  O4  UNL     1     -10.298  20.920  25.967  1.00  0.00    -0.392 OA
ATOM     24  H4  UNL     1      -9.563  20.790  26.556  1.00  0.00     0.210 HD
ENDBRANCH   3  23
BRANCH   6  25
HETATM   25  C10 UNL     1     -13.758  17.090  28.557  1.00  0.00     0.126 C 
BRANCH  25  26
HETATM   26  C11 UNL     1     -14.254  17.100  29.962  1.00  0.00     0.182 C 
BRANCH  26  27
HETATM   27  O7  UNL     1     -13.825  15.980  30.673  1.00  0.00    -0.366 OA
BRANCH  27  28
HETATM   28  C12 UNL     1     -13.441  16.425  31.976  1.00  0.00     0.337 C 
BRANCH  28  29
HETATM   29  O8  UNL     1     -12.111  16.160  32.074  1.00  0.00    -0.365 OA
BRANCH  29  30
HETATM   30  C13 UNL     1     -11.208  17.078  31.666  1.00  0.00     0.196 C 
BRANCH  30  31
HETATM   31  C14 UNL     1     -10.405  16.765  30.457  1.00  0.00     0.190 C 
BRANCH  31  32
HETATM   32  O9  UNL     1     -10.856  15.665  29.753  1.00  0.00    -0.399 OA
ATOM     33  H9  UNL     1     -10.189  15.249  29.219  1.00  0.00     0.209 HD
ENDBRANCH  31  32
ENDBRANCH  30  31
ENDBRANCH  29  30
ENDBRANCH  28  29
ENDBRANCH  27  28
ENDBRANCH  26  27
ENDBRANCH  25  26
ENDBRANCH   6  25
BRANCH   4  34
HETATM   34  O5  UNL     1     -10.445  18.874  27.767  1.00  0.00    -0.376 OA
ATOM     35  H5  UNL     1     -10.726  18.260  28.435  1.00  0.00     0.211 HD
ENDBRANCH   4  34
TORSDOF 14
ENDMDL
MODEL 3
REMARK VINA RESULT: -7.503224733      2.004      3.412
REMARK  14 active torsions:
REMARK  status: ('A' for Active; 'I' for Inactive)
REMARK    1  A    between atoms: C2_2  and  O2_4 
REMARK    2  A    between atoms: O2_4  and  C3_5 
REMARK    3  A    between atoms: C3_5  and  C4_6 
REMARK    4  A    between atoms: N1_8  and  O3_10 
REMARK    5  A    between atoms: C7_13  and  O4_14 
REMARK    6  A    between atoms: C8_16  and  O5_18 
REMARK    7  A    between atoms: S1_20  and  C10_22 
REMARK    8  A    between atoms: C10_22  and  C11_23 
REMARK    9  A    between atoms: C11_23  and  O7_24 
REMARK   10  A    between atoms: O7_24  and  C12_25 
REMARK   11  A    between atoms: C12_25  and  O8_26 
REMARK   12  A    between atoms: O8_26  and  C13_27 
REMARK   13  A    between atoms: C13_27  and  C14_28 
REMARK   14  A    between atoms: C14_28  and  O9_29 
ROOT
HETATM    1  C3  UNL     1     -13.105  21.059  27.348  1.00  0.00     0.131 C 
HETATM    2  C6  UNL     1     -13.863  20.794  26.089  1.00  0.00     0.082 C 
HETATM    3  C7  UNL     1     -13.938  19.380  25.671  1.00  0.00     0.167 C 
HETATM    4  C8  UNL     1     -14.773  18.499  26.526  1.00  0.00     0.146 C 
HETATM    5  C9  UNL     1     -16.208  18.890  26.620  1.00  0.00     0.062 C 
HETATM    6  S1  UNL     1     -13.983  18.507  28.338  1.00  0.00    -0.006 S 
HETATM    7  O6  UNL     1     -12.058  17.797  28.207  1.00  0.00    -0.266 OA
HETATM    8  C15 UNL     1     -13.787  20.561  28.577  1.00  0.00     0.067 C 
HETATM    9  C16 UNL     1     -12.914  20.655  29.802  1.00  0.00     0.026 C 
HETATM   10  C17 UNL     1     -13.591  21.737  30.646  1.00  0.00     0.002 C 
HETATM   11  C18 UNL     1     -15.060  21.634  30.275  1.00  0.00     0.002 C 
HETATM   12  C19 UNL     1     -15.123  21.086  28.893  1.00  0.00     0.026 C 
ENDROOT
BRANCH   1  13
HETATM   13  O2  UNL     1     -11.846  20.351  27.341  1.00  0.00    -0.302 OA
BRANCH  13  14
HETATM   14  C2  UNL     1     -10.949  20.337  26.315  1.00  0.00     0.256 C 
HETATM   15  C1  UNL     1     -10.613  19.078  25.567  1.00  0.00     0.126 C 
HETATM   16  O1  UNL     1     -10.397  21.427  26.010  1.00  0.00    -0.266 OA
ENDBRANCH  13  14
ENDBRANCH   1  13
BRANCH   1  17
HETATM   17  C4  UNL     1     -12.865  22.511  27.451  1.00  0.00     0.043 C 
HETATM   18  C5  UNL     1     -11.973  23.166  28.439  1.00  0.00     0.069 C 
HETATM   19  N1  UNL     1     -13.451  23.327  26.593  1.00  0.00    -0.275 N 
ATOM     20  H1  UNL     1     -14.058  22.920  25.881  1.00  0.00     0.193 HD
BRANCH  19  21
HETATM   21  O3  UNL     1     -13.296  24.667  26.603  1.00  0.00    -0.290 OA
ATOM     22  H3  UNL     1     -12.638  25.121  27.117  1.00  0.00     0.244 HD
ENDBRANCH  19  21
ENDBRANCH   1  17
BRANCH   3  23
HETATM   23  O4  UNL     1     -14.454  19.336  24.364  1.00  0.00    -0.392 OA
ATOM     24  H4  UNL     1     -15.375  19.107  24.415  1.00  0.00     0.210 HD
ENDBRANCH   3  23
BRANCH   6  25
HETATM   25  C10 UNL     1     -14.850  17.600  29.858  1.00  0.00     0.126 C 
BRANCH  25  26
HETATM   26  C11 UNL     1     -14.696  16.125  29.706  1.00  0.00     0.182 C 
BRANCH  26  27
HETATM   27  O7  UNL     1     -13.614  15.637  30.435  1.00  0.00    -0.366 OA
BRANCH  27  28
HETATM   28  C12 UNL     1     -13.492  16.445  31.608  1.00  0.00     0.337 C 
BRANCH  28  29
HETATM   29  O8  UNL     1     -12.214  16.271  32.038  1.00  0.00    -0.365 OA
BRANCH  29  30
HETATM   30  C13 UNL     1     -11.258  17.161  31.694  1.00  0.00     0.196 C 
BRANCH  30  31
HETATM   31  C14 UNL     1     -10.251  16.738  30.689  1.00  0.00     0.190 C 
BRANCH  31  32
HETATM   32  O9  UNL     1     -10.697  15.753  29.828  1.00  0.00    -0.399 OA
ATOM     33  H9  UNL     1     -10.079  15.534  29.140  1.00  0.00     0.209 HD
ENDBRANCH  31  32
ENDBRANCH  30  31
ENDBRANCH  29  30
ENDBRANCH  28  29
ENDBRANCH  27  28
ENDBRANCH  26  27
ENDBRANCH  25  26
ENDBRANCH   6  25
BRANCH   4  34
HETATM   34  O5  UNL     1     -14.698  17.194  26.037  1.00  0.00    -0.376 OA
ATOM     35  H5  UNL     1     -14.011  17.151  25.383  1.00  0.00     0.211 HD
ENDBRANCH   4  34
TORSDOF 14
ENDMDL
MODEL 4
REMARK VINA RESULT: -7.493934328      3.292      6.530
REMARK  14 active torsions:
REMARK  status: ('A' for Active; 'I' for Inactive)
REMARK    1  A    between atoms: C2_2  and  O2_4 
REMARK    2  A    between atoms: O2_4  and  C3_5 
REMARK    3  A    between atoms: C3_5  and  C4_6 
REMARK    4  A    between atoms: N1_8  and  O3_10 
REMARK    5  A    between atoms: C7_13  and  O4_14 
REMARK    6  A    between atoms: C8_16  and  O5_18 
REMARK    7  A    between atoms: S1_20  and  C10_22 
REMARK    8  A    between atoms: C10_22  and  C11_23 
REMARK    9  A    between atoms: C11_23  and  O7_24 
REMARK   10  A    between atoms: O7_24  and  C12_25 
REMARK   11  A    between atoms: C12_25  and  O8_26 
REMARK   12  A    between atoms: O8_26  and  C13_27 
REMARK   13  A    between atoms: C13_27  and  C14_28 
REMARK   14  A    between atoms: C14_28  and  O9_29 
ROOT
HETATM    1  C3  UNL     1     -13.416  21.566  26.921  1.00  0.00     0.131 C 
HETATM    2  C6  UNL     1     -13.438  22.058  25.511  1.00  0.00     0.082 C 
HETATM    3  C7  UNL     1     -13.681  21.033  24.477  1.00  0.00     0.167 C 
HETATM    4  C8  UNL     1     -15.051  20.462  24.447  1.00  0.00     0.146 C 
HETATM    5  C9  UNL     1     -16.140  21.448  24.194  1.00  0.00     0.062 C 
HETATM    6  S1  UNL     1     -15.367  19.585  26.190  1.00  0.00    -0.006 S 
HETATM    7  O6  UNL     1     -13.957  18.110  26.438  1.00  0.00    -0.266 OA
HETATM    8  C15 UNL     1     -14.750  21.136  27.428  1.00  0.00     0.067 C 
HETATM    9  C16 UNL     1     -14.667  20.455  28.770  1.00  0.00     0.026 C 
HETATM   10  C17 UNL     1     -15.344  21.445  29.719  1.00  0.00     0.002 C 
HETATM   11  C18 UNL     1     -16.356  22.166  28.846  1.00  0.00     0.002 C 
HETATM   12  C19 UNL     1     -15.838  22.123  27.453  1.00  0.00     0.026 C 
ENDROOT
BRANCH   1  13
HETATM   13  O2  UNL     1     -12.604  20.376  27.029  1.00  0.00    -0.302 OA
BRANCH  13  14
HETATM   14  C2  UNL     1     -11.280  20.286  26.721  1.00  0.00     0.256 C 
HETATM   15  C1  UNL     1     -10.509  19.007  26.881  1.00  0.00     0.126 C 
HETATM   16  O1  UNL     1     -10.711  21.325  26.292  1.00  0.00    -0.266 OA
ENDBRANCH  13  14
ENDBRANCH   1  13
BRANCH   1  17
HETATM   17  C4  UNL     1     -12.863  22.632  27.778  1.00  0.00     0.043 C 
HETATM   18  C5  UNL     1     -12.773  24.067  27.413  1.00  0.00     0.069 C 
HETATM   19  N1  UNL     1     -12.425  22.329  28.987  1.00  0.00    -0.275 N 
ATOM     20  H1  UNL     1     -12.487  21.357  29.290  1.00  0.00     0.193 HD
BRANCH  19  21
HETATM   21  O3  UNL     1     -11.903  23.229  29.845  1.00  0.00    -0.290 OA
ATOM     22  H3  UNL     1     -11.557  24.074  29.581  1.00  0.00     0.244 HD
ENDBRANCH  19  21
ENDBRANCH   1  17
BRANCH   3  23
HETATM   23  O4  UNL     1     -13.420  21.607  23.219  1.00  0.00    -0.392 OA
ATOM     24  H4  UNL     1     -14.055  21.265  22.600  1.00  0.00     0.210 HD
ENDBRANCH   3  23
BRANCH   6  25
HETATM   25  C10 UNL     1     -17.119  18.822  26.672  1.00  0.00     0.126 C 
BRANCH  25  26
HETATM   26  C11 UNL     1     -18.192  19.804  26.348  1.00  0.00     0.182 C 
BRANCH  26  27
HETATM   27  O7  UNL     1     -18.901  19.442  25.203  1.00  0.00    -0.366 OA
BRANCH  27  28
HETATM   28  C12 UNL     1     -19.873  18.472  25.595  1.00  0.00     0.337 C 
BRANCH  28  29
HETATM   29  O8  UNL     1     -20.139  17.749  24.474  1.00  0.00    -0.365 OA
BRANCH  29  30
HETATM   30  C13 UNL     1     -19.190  16.947  23.946  1.00  0.00     0.196 C 
BRANCH  30  31
HETATM   31  C14 UNL     1     -18.528  17.391  22.694  1.00  0.00     0.190 C 
BRANCH  31  32
HETATM   32  O9  UNL     1     -17.418  18.189  22.899  1.00  0.00    -0.399 OA
ATOM     33  H9  UNL     1     -17.151  18.252  23.808  1.00  0.00     0.209 HD
ENDBRANCH  31  32
ENDBRANCH  30  31
ENDBRANCH  29  30
ENDBRANCH  28  29
ENDBRANCH  27  28
ENDBRANCH  26  27
ENDBRANCH  25  26
ENDBRANCH   6  25
BRANCH   4  34
HETATM   34  O5  UNL     1     -15.106  19.475  23.461  1.00  0.00    -0.376 OA
ATOM     35  H5  UNL     1     -16.016  19.284  23.268  1.00  0.00     0.211 HD
ENDBRANCH   4  34
TORSDOF 14
ENDMDL
MODEL 5
REMARK VINA RESULT: -7.476093497      3.516      6.786
REMARK  14 active torsions:
REMARK  status: ('A' for Active; 'I' for Inactive)
REMARK    1  A    between atoms: C2_2  and  O2_4 
REMARK    2  A    between atoms: O2_4  and  C3_5 
REMARK    3  A    between atoms: C3_5  and  C4_6 
REMARK    4  A    between atoms: N1_8  and  O3_10 
REMARK    5  A    between atoms: C7_13  and  O4_14 
REMARK    6  A    between atoms: C8_16  and  O5_18 
REMARK    7  A    between atoms: S1_20  and  C10_22 
REMARK    8  A    between atoms: C10_22  and  C11_23 
REMARK    9  A    between atoms: C11_23  and  O7_24 
REMARK   10  A    between atoms: O7_24  and  C12_25 
REMARK   11  A    between atoms: C12_25  and  O8_26 
REMARK   12  A    between atoms: O8_26  and  C13_27 
REMARK   13  A    between atoms: C13_27  and  C14_28 
REMARK   14  A    between atoms: C14_28  and  O9_29 
ROOT
HETATM    1  C3  UNL     1     -13.462  21.567  26.891  1.00  0.00     0.131 C 
HETATM    2  C6  UNL     1     -13.491  22.049  25.478  1.00  0.00     0.082 C 
HETATM    3  C7  UNL     1     -13.740  21.017  24.453  1.00  0.00     0.167 C 
HETATM    4  C8  UNL     1     -15.110  20.445  24.434  1.00  0.00     0.146 C 
HETATM    5  C9  UNL     1     -16.200  21.429  24.179  1.00  0.00     0.062 C 
HETATM    6  S1  UNL     1     -15.417  19.581  26.185  1.00  0.00    -0.006 S 
HETATM    7  O6  UNL     1     -14.006  18.107  26.436  1.00  0.00    -0.266 OA
HETATM    8  C15 UNL     1     -14.794  21.140  27.409  1.00  0.00     0.067 C 
HETATM    9  C16 UNL     1     -14.703  20.470  28.755  1.00  0.00     0.026 C 
HETATM   10  C17 UNL     1     -15.376  21.466  29.701  1.00  0.00     0.002 C 
HETATM   11  C18 UNL     1     -16.393  22.180  28.827  1.00  0.00     0.002 C 
HETATM   12  C19 UNL     1     -15.881  22.128  27.431  1.00  0.00     0.026 C 
ENDROOT
BRANCH   1  13
HETATM   13  O2  UNL     1     -12.650  20.377  27.004  1.00  0.00    -0.302 OA
BRANCH  13  14
HETATM   14  C2  UNL     1     -11.332  20.281  26.674  1.00  0.00     0.256 C 
HETATM   15  C1  UNL     1     -10.577  18.986  26.773  1.00  0.00     0.126 C 
HETATM   16  O1  UNL     1     -10.753  21.328  26.278  1.00  0.00    -0.266 OA
ENDBRANCH  13  14
ENDBRANCH   1  13
BRANCH   1  17
HETATM   17  C4  UNL     1     -12.905  22.639  27.738  1.00  0.00     0.043 C 
HETATM   18  C5  UNL     1     -12.814  24.071  27.360  1.00  0.00     0.069 C 
HETATM   19  N1  UNL     1     -12.464  22.345  28.947  1.00  0.00    -0.275 N 
ATOM     20  H1  UNL     1     -12.526  21.376  29.259  1.00  0.00     0.193 HD
BRANCH  19  21
HETATM   21  O3  UNL     1     -11.937  23.252  29.796  1.00  0.00    -0.290 OA
ATOM     22  H3  UNL     1     -11.323  23.929  29.535  1.00  0.00     0.244 HD
ENDBRANCH  19  21
ENDBRANCH   1  17
BRANCH   3  23
HETATM   23  O4  UNL     1     -13.486  21.581  23.190  1.00  0.00    -0.392 OA
ATOM     24  H4  UNL     1     -13.828  20.993  22.527  1.00  0.00     0.210 HD
ENDBRANCH   3  23
BRANCH   6  25
HETATM   25  C10 UNL     1     -17.166  18.821  26.681  1.00  0.00     0.126 C 
BRANCH  25  26
HETATM   26  C11 UNL     1     -18.251  19.622  26.046  1.00  0.00     0.182 C 
BRANCH  26  27
HETATM   27  O7  UNL     1     -18.922  18.901  25.060  1.00  0.00    -0.366 OA
BRANCH  27  28
HETATM   28  C12 UNL     1     -19.945  18.143  25.709  1.00  0.00     0.337 C 
BRANCH  28  29
HETATM   29  O8  UNL     1     -20.516  18.993  26.605  1.00  0.00    -0.365 OA
BRANCH  29  30
HETATM   30  C13 UNL     1     -21.517  18.562  27.402  1.00  0.00     0.196 C 
BRANCH  30  31
HETATM   31  C14 UNL     1     -22.900  18.619  26.865  1.00  0.00     0.190 C 
BRANCH  31  32
HETATM   32  O9  UNL     1     -23.869  18.814  27.830  1.00  0.00    -0.399 OA
ATOM     33  H9  UNL     1     -24.628  19.296  27.523  1.00  0.00     0.209 HD
ENDBRANCH  31  32
ENDBRANCH  30  31
ENDBRANCH  29  30
ENDBRANCH  28  29
ENDBRANCH  27  28
ENDBRANCH  26  27
ENDBRANCH  25  26
ENDBRANCH   6  25
BRANCH   4  34
HETATM   34  O5  UNL     1     -15.170  19.451  23.455  1.00  0.00    -0.376 OA
ATOM     35  H5  UNL     1     -14.324  19.022  23.401  1.00  0.00     0.211 HD
ENDBRANCH   4  34
TORSDOF 14
ENDMDL
