MODEL 1
REMARK VINA RESULT: -8.475925148      0.000      0.000
REMARK  14 active torsions:
REMARK  status: ('A' for Active; 'I' for Inactive)
REMARK    1  A    between atoms: C2_2  and  C3_3 
REMARK    2  A    between atoms: C3_3  and  C4_4 
REMARK    3  A    between atoms: C4_4  and  C5_5 
REMARK    4  A    between atoms: C5_5  and  C6_6 
REMARK    5  A    between atoms: C6_6  and  N1_7 
REMARK    6  A    between atoms: N1_7  and  C7_9 
REMARK    7  A    between atoms: C9_13  and  C10_14 
REMARK    8  A    between atoms: C12_16  and  O1_17 
REMARK    9  A    between atoms: C13_19  and  C14_20 
REMARK   10  A    between atoms: C14_20  and  O2_21 
REMARK   11  A    between atoms: O2_21  and  C15_22 
REMARK   12  A    between atoms: C18_27  and  O4_28 
REMARK   13  A    between atoms: C19_30  and  O5_31 
REMARK   14  A    between atoms: C20_33  and  O6_34 
ROOT
HETATM    1  C15 UNL     1     -14.505  21.319  25.526  1.00  0.00     0.292 C 
HETATM    2  O3  UNL     1     -13.275  20.663  25.463  1.00  0.00    -0.336 OA
HETATM    3  C16 UNL     1     -12.482  20.986  26.558  1.00  0.00     0.262 C 
HETATM    4  C17 UNL     1     -11.172  20.355  26.349  1.00  0.00     0.094 C 
HETATM    5  N3  UNL     1     -10.127  19.853  26.179  1.00  0.00    -0.194 NA
HETATM    6  C18 UNL     1     -12.269  22.447  26.744  1.00  0.00     0.192 C 
HETATM    7  C19 UNL     1     -13.476  23.293  26.490  1.00  0.00     0.183 C 
HETATM    8  C20 UNL     1     -14.220  22.784  25.274  1.00  0.00     0.204 C 
ENDROOT
BRANCH   6   9
HETATM    9  O4  UNL     1     -11.894  22.660  28.089  1.00  0.00    -0.389 OA
ATOM     10  H4  UNL     1     -11.091  23.166  28.089  1.00  0.00     0.210 HD
ENDBRANCH   6   9
BRANCH   1  11
HETATM   11  O2  UNL     1     -15.327  20.762  24.575  1.00  0.00    -0.356 OA
BRANCH  11  12
HETATM   12  C14 UNL     1     -16.666  20.723  24.920  1.00  0.00     0.205 C 
BRANCH  12  13
HETATM   13  C13 UNL     1     -16.891  19.341  25.551  1.00  0.00     0.175 C 
HETATM   14  C12 UNL     1     -17.022  18.258  24.538  1.00  0.00     0.152 C 
HETATM   15  C11 UNL     1     -18.434  17.732  24.836  1.00  0.00     0.072 C 
HETATM   16  C10 UNL     1     -19.045  18.985  25.415  1.00  0.00     0.166 C 
HETATM   17  O7  UNL     1     -18.074  19.436  26.274  1.00  0.00    -0.371 OA
BRANCH  14  18
HETATM   18  O1  UNL     1     -16.944  18.719  23.227  1.00  0.00    -0.393 OA
ATOM     19  H1  UNL     1     -16.049  18.671  22.913  1.00  0.00     0.210 HD
ENDBRANCH  14  18
BRANCH  16  20
HETATM   20  C9  UNL     1     -20.312  18.634  26.126  1.00  0.00     0.030 A 
HETATM   21  C8  UNL     1     -20.565  18.737  27.463  1.00  0.00     0.107 A 
HETATM   22  N2  UNL     1     -21.739  18.375  27.900  1.00  0.00    -0.346 N 
HETATM   23  C7  UNL     1     -22.643  17.923  27.044  1.00  0.00     0.144 A 
ATOM     24  H2  UNL     1     -21.960  18.439  28.894  1.00  0.00     0.167 HD
HETATM   25  S1  UNL     1     -21.785  18.015  25.536  1.00  0.00    -0.055 SA
BRANCH  23  26
HETATM   26  N1  UNL     1     -23.862  17.507  27.213  1.00  0.00    -0.370 N 
ATOM     27  H1  UNL     1     -24.630  18.154  27.389  1.00  0.00     0.161 HD
BRANCH  26  28
HETATM   28  C6  UNL     1     -24.080  16.043  27.136  1.00  0.00     0.121 C 
BRANCH  28  29
HETATM   29  C5  UNL     1     -25.240  15.657  27.955  1.00  0.00     0.020 C 
BRANCH  29  30
HETATM   30  C4  UNL     1     -25.148  14.632  28.986  1.00  0.00     0.002 C 
BRANCH  30  31
HETATM   31  C3  UNL     1     -25.868  14.677  30.260  1.00  0.00    -0.000 C 
BRANCH  31  32
HETATM   32  C2  UNL     1     -25.514  13.622  31.230  1.00  0.00    -0.005 C 
HETATM   33  C1  UNL     1     -24.697  14.200  32.402  1.00  0.00     0.005 C 
ENDBRANCH  31  32
ENDBRANCH  30  31
ENDBRANCH  29  30
ENDBRANCH  28  29
ENDBRANCH  26  28
ENDBRANCH  23  26
ENDBRANCH  16  20
ENDBRANCH  12  13
ENDBRANCH  11  12
ENDBRANCH   1  11
BRANCH   7  34
HETATM   34  O5  UNL     1     -13.114  24.622  26.290  1.00  0.00    -0.390 OA
ATOM     35  H5  UNL     1     -13.876  25.151  26.085  1.00  0.00     0.210 HD
ENDBRANCH   7  34
BRANCH   8  36
HETATM   36  O6  UNL     1     -13.370  22.906  24.159  1.00  0.00    -0.388 OA
ATOM     37  H6  UNL     1     -13.886  23.135  23.395  1.00  0.00     0.210 HD
ENDBRANCH   8  36
TORSDOF 14
ENDMDL
MODEL 2
REMARK VINA RESULT: -8.403676201      4.249      6.715
REMARK  14 active torsions:
REMARK  status: ('A' for Active; 'I' for Inactive)
REMARK    1  A    between atoms: C2_2  and  C3_3 
REMARK    2  A    between atoms: C3_3  and  C4_4 
REMARK    3  A    between atoms: C4_4  and  C5_5 
REMARK    4  A    between atoms: C5_5  and  C6_6 
REMARK    5  A    between atoms: C6_6  and  N1_7 
REMARK    6  A    between atoms: N1_7  and  C7_9 
REMARK    7  A    between atoms: C9_13  and  C10_14 
REMARK    8  A    between atoms: C12_16  and  O1_17 
REMARK    9  A    between atoms: C13_19  and  C14_20 
REMARK   10  A    between atoms: C14_20  and  O2_21 
REMARK   11  A    between atoms: O2_21  and  C15_22 
REMARK   12  A    between atoms: C18_27  and  O4_28 
REMARK   13  A    between atoms: C19_30  and  O5_31 
REMARK   14  A    between atoms: C20_33  and  O6_34 
ROOT
HETATM    1  C15 UNL     1     -13.355  18.703  29.974  1.00  0.00     0.292 C 
HETATM    2  O3  UNL     1     -12.441  18.619  31.026  1.00  0.00    -0.336 OA
HETATM    3  C16 UNL     1     -11.450  17.685  30.750  1.00  0.00     0.262 C 
HETATM    4  C17 UNL     1     -10.611  17.573  31.951  1.00  0.00     0.094 C 
HETATM    5  N3  UNL     1      -9.944  17.484  32.910  1.00  0.00    -0.194 NA
HETATM    6  C18 UNL     1     -11.967  16.330  30.418  1.00  0.00     0.192 C 
HETATM    7  C19 UNL     1     -13.186  16.320  29.552  1.00  0.00     0.183 C 
HETATM    8  C20 UNL     1     -14.142  17.411  29.989  1.00  0.00     0.204 C 
ENDROOT
BRANCH   6   9
HETATM    9  O4  UNL     1     -10.956  15.644  29.710  1.00  0.00    -0.389 OA
ATOM     10  H4  UNL     1     -11.150  14.716  29.753  1.00  0.00     0.210 HD
ENDBRANCH   6   9
BRANCH   1  11
HETATM   11  O2  UNL     1     -14.141  19.811  30.187  1.00  0.00    -0.356 OA
BRANCH  11  12
HETATM   12  C14 UNL     1     -13.722  20.953  29.529  1.00  0.00     0.205 C 
BRANCH  12  13
HETATM   13  C13 UNL     1     -13.179  20.475  28.175  1.00  0.00     0.175 C 
HETATM   14  C12 UNL     1     -12.635  21.586  27.346  1.00  0.00     0.152 C 
HETATM   15  C11 UNL     1     -13.535  21.507  26.104  1.00  0.00     0.072 C 
HETATM   16  C10 UNL     1     -14.767  20.901  26.731  1.00  0.00     0.166 C 
HETATM   17  O7  UNL     1     -14.255  19.895  27.512  1.00  0.00    -0.371 OA
BRANCH  14  18
HETATM   18  O1  UNL     1     -12.754  22.833  27.952  1.00  0.00    -0.393 OA
ATOM     19  H1  UNL     1     -11.948  23.062  28.398  1.00  0.00     0.210 HD
ENDBRANCH  14  18
BRANCH  16  20
HETATM   20  C9  UNL     1     -15.664  20.381  25.654  1.00  0.00     0.030 A 
HETATM   21  C8  UNL     1     -16.655  21.059  25.006  1.00  0.00     0.107 A 
HETATM   22  N2  UNL     1     -17.337  20.429  24.090  1.00  0.00    -0.346 N 
HETATM   23  C7  UNL     1     -17.053  19.164  23.818  1.00  0.00     0.144 A 
ATOM     24  H2  UNL     1     -18.086  20.907  23.587  1.00  0.00     0.167 HD
HETATM   25  S1  UNL     1     -15.747  18.847  24.919  1.00  0.00    -0.055 SA
BRANCH  23  26
HETATM   26  N1  UNL     1     -17.568  18.325  22.971  1.00  0.00    -0.370 N 
ATOM     27  H1  UNL     1     -17.026  17.947  22.194  1.00  0.00     0.161 HD
BRANCH  26  28
HETATM   28  C6  UNL     1     -18.983  17.944  23.191  1.00  0.00     0.121 C 
BRANCH  28  29
HETATM   29  C5  UNL     1     -19.116  17.184  24.445  1.00  0.00     0.020 C 
BRANCH  29  30
HETATM   30  C4  UNL     1     -20.098  17.539  25.461  1.00  0.00     0.002 C 
BRANCH  30  31
HETATM   31  C3  UNL     1     -19.975  18.688  26.361  1.00  0.00    -0.000 C 
BRANCH  31  32
HETATM   32  C2  UNL     1     -20.880  18.685  27.526  1.00  0.00    -0.005 C 
HETATM   33  C1  UNL     1     -22.353  18.597  27.081  1.00  0.00     0.005 C 
ENDBRANCH  31  32
ENDBRANCH  30  31
ENDBRANCH  29  30
ENDBRANCH  28  29
ENDBRANCH  26  28
ENDBRANCH  23  26
ENDBRANCH  16  20
ENDBRANCH  12  13
ENDBRANCH  11  12
ENDBRANCH   1  11
BRANCH   7  34
HETATM   34  O5  UNL     1     -13.828  15.087  29.618  1.00  0.00    -0.390 OA
ATOM     35  H5  UNL     1     -13.772  14.633  28.785  1.00  0.00     0.210 HD
ENDBRANCH   7  34
BRANCH   8  36
HETATM   36  O6  UNL     1     -14.551  17.131  31.306  1.00  0.00    -0.388 OA
ATOM     37  H6  UNL     1     -13.863  16.652  31.752  1.00  0.00     0.210 HD
ENDBRANCH   8  36
TORSDOF 14
ENDMDL
MODEL 3
REMARK VINA RESULT: -8.266290444      1.588      2.445
REMARK  14 active torsions:
REMARK  status: ('A' for Active; 'I' for Inactive)
REMARK    1  A    between atoms: C2_2  and  C3_3 
REMARK    2  A    between atoms: C3_3  and  C4_4 
REMARK    3  A    between atoms: C4_4  and  C5_5 
REMARK    4  A    between atoms: C5_5  and  C6_6 
REMARK    5  A    between atoms: C6_6  and  N1_7 
REMARK    6  A    between atoms: N1_7  and  C7_9 
REMARK    7  A    between atoms: C9_13  and  C10_14 
REMARK    8  A    between atoms: C12_16  and  O1_17 
REMARK    9  A    between atoms: C13_19  and  C14_20 
REMARK   10  A    between atoms: C14_20  and  O2_21 
REMARK   11  A    between atoms: O2_21  and  C15_22 
REMARK   12  A    between atoms: C18_27  and  O4_28 
REMARK   13  A    between atoms: C19_30  and  O5_31 
REMARK   14  A    between atoms: C20_33  and  O6_34 
ROOT
HETATM    1  C15 UNL     1     -14.434  21.119  25.463  1.00  0.00     0.292 C 
HETATM    2  O3  UNL     1     -13.191  20.486  25.436  1.00  0.00    -0.336 OA
HETATM    3  C16 UNL     1     -12.413  20.871  26.522  1.00  0.00     0.262 C 
HETATM    4  C17 UNL     1     -11.089  20.258  26.348  1.00  0.00     0.094 C 
HETATM    5  N3  UNL     1     -10.033  19.771  26.207  1.00  0.00    -0.194 NA
HETATM    6  C18 UNL     1     -12.231  22.341  26.647  1.00  0.00     0.192 C 
HETATM    7  C19 UNL     1     -13.452  23.152  26.350  1.00  0.00     0.183 C 
HETATM    8  C20 UNL     1     -14.176  22.577  25.151  1.00  0.00     0.204 C 
ENDROOT
BRANCH   6   9
HETATM    9  O4  UNL     1     -11.870  22.619  27.985  1.00  0.00    -0.389 OA
ATOM     10  H4  UNL     1     -11.284  23.365  27.978  1.00  0.00     0.210 HD
ENDBRANCH   6   9
BRANCH   1  11
HETATM   11  O2  UNL     1     -15.238  20.506  24.530  1.00  0.00    -0.356 OA
BRANCH  11  12
HETATM   12  C14 UNL     1     -16.590  20.547  24.816  1.00  0.00     0.205 C 
BRANCH  12  13
HETATM   13  C13 UNL     1     -16.921  19.189  25.450  1.00  0.00     0.175 C 
HETATM   14  C12 UNL     1     -17.196  18.131  24.439  1.00  0.00     0.152 C 
HETATM   15  C11 UNL     1     -18.639  17.741  24.792  1.00  0.00     0.072 C 
HETATM   16  C10 UNL     1     -19.103  19.042  25.401  1.00  0.00     0.166 C 
HETATM   17  O7  UNL     1     -18.060  19.390  26.221  1.00  0.00    -0.371 OA
BRANCH  14  18
HETATM   18  O1  UNL     1     -17.126  18.593  23.128  1.00  0.00    -0.393 OA
ATOM     19  H1  UNL     1     -16.327  19.089  22.994  1.00  0.00     0.210 HD
ENDBRANCH  14  18
BRANCH  16  20
HETATM   20  C9  UNL     1     -20.368  18.807  26.161  1.00  0.00     0.030 A 
HETATM   21  C8  UNL     1     -20.513  18.711  27.514  1.00  0.00     0.107 A 
HETATM   22  N2  UNL     1     -21.707  18.499  27.995  1.00  0.00    -0.346 N 
HETATM   23  C7  UNL     1     -22.734  18.386  27.166  1.00  0.00     0.144 A 
ATOM     24  H2  UNL     1     -21.849  18.421  29.002  1.00  0.00     0.167 HD
HETATM   25  S1  UNL     1     -21.969  18.589  25.619  1.00  0.00    -0.055 SA
BRANCH  23  26
HETATM   26  N1  UNL     1     -23.998  18.178  27.379  1.00  0.00    -0.370 N 
ATOM     27  H1  UNL     1     -24.549  18.792  27.978  1.00  0.00     0.161 HD
BRANCH  26  28
HETATM   28  C6  UNL     1     -24.600  17.002  26.707  1.00  0.00     0.121 C 
BRANCH  28  29
HETATM   29  C5  UNL     1     -23.962  15.763  27.180  1.00  0.00     0.020 C 
BRANCH  29  30
HETATM   30  C4  UNL     1     -23.320  14.829  26.264  1.00  0.00     0.002 C 
BRANCH  30  31
HETATM   31  C3  UNL     1     -23.434  14.893  24.806  1.00  0.00    -0.000 C 
BRANCH  31  32
HETATM   32  C2  UNL     1     -22.160  15.015  24.071  1.00  0.00    -0.005 C 
HETATM   33  C1  UNL     1     -20.963  15.041  25.042  1.00  0.00     0.005 C 
ENDBRANCH  31  32
ENDBRANCH  30  31
ENDBRANCH  29  30
ENDBRANCH  28  29
ENDBRANCH  26  28
ENDBRANCH  23  26
ENDBRANCH  16  20
ENDBRANCH  12  13
ENDBRANCH  11  12
ENDBRANCH   1  11
BRANCH   7  34
HETATM   34  O5  UNL     1     -13.114  24.478  26.097  1.00  0.00    -0.390 OA
ATOM     35  H5  UNL     1     -13.611  24.817  25.361  1.00  0.00     0.210 HD
ENDBRANCH   7  34
BRANCH   8  36
HETATM   36  O6  UNL     1     -13.320  22.670  24.038  1.00  0.00    -0.388 OA
ATOM     37  H6  UNL     1     -13.761  22.320  23.274  1.00  0.00     0.210 HD
ENDBRANCH   8  36
TORSDOF 14
ENDMDL
MODEL 4
REMARK VINA RESULT: -8.263204886      2.255      3.581
REMARK  14 active torsions:
REMARK  status: ('A' for Active; 'I' for Inactive)
REMARK    1  A    between atoms: C2_2  and  C3_3 
REMARK    2  A    between atoms: C3_3  and  C4_4 
REMARK    3  A    between atoms: C4_4  and  C5_5 
REMARK    4  A    between atoms: C5_5  and  C6_6 
REMARK    5  A    between atoms: C6_6  and  N1_7 
REMARK    6  A    between atoms: N1_7  and  C7_9 
REMARK    7  A    between atoms: C9_13  and  C10_14 
REMARK    8  A    between atoms: C12_16  and  O1_17 
REMARK    9  A    between atoms: C13_19  and  C14_20 
REMARK   10  A    between atoms: C14_20  and  O2_21 
REMARK   11  A    between atoms: O2_21  and  C15_22 
REMARK   12  A    between atoms: C18_27  and  O4_28 
REMARK   13  A    between atoms: C19_30  and  O5_31 
REMARK   14  A    between atoms: C20_33  and  O6_34 
ROOT
HETATM    1  C15 UNL     1     -14.460  21.303  25.510  1.00  0.00     0.292 C 
HETATM    2  O3  UNL     1     -13.236  20.635  25.444  1.00  0.00    -0.336 OA
HETATM    3  C16 UNL     1     -12.465  20.899  26.570  1.00  0.00     0.262 C 
HETATM    4  C17 UNL     1     -11.158  20.262  26.361  1.00  0.00     0.094 C 
HETATM    5  N3  UNL     1     -10.115  19.755  26.193  1.00  0.00    -0.194 NA
HETATM    6  C18 UNL     1     -12.240  22.346  26.827  1.00  0.00     0.192 C 
HETATM    7  C19 UNL     1     -13.431  23.218  26.586  1.00  0.00     0.183 C 
HETATM    8  C20 UNL     1     -14.153  22.774  25.331  1.00  0.00     0.204 C 
ENDROOT
BRANCH   6   9
HETATM    9  O4  UNL     1     -11.893  22.494  28.189  1.00  0.00    -0.389 OA
ATOM     10  H4  UNL     1     -12.450  23.169  28.558  1.00  0.00     0.210 HD
ENDBRANCH   6   9
BRANCH   1  11
HETATM   11  O2  UNL     1     -15.267  20.800  24.516  1.00  0.00    -0.356 OA
BRANCH  11  12
HETATM   12  C14 UNL     1     -16.612  20.752  24.832  1.00  0.00     0.205 C 
BRANCH  12  13
HETATM   13  C13 UNL     1     -16.833  19.387  25.499  1.00  0.00     0.175 C 
HETATM   14  C12 UNL     1     -16.953  18.276  24.514  1.00  0.00     0.152 C 
HETATM   15  C11 UNL     1     -18.364  17.751  24.818  1.00  0.00     0.072 C 
HETATM   16  C10 UNL     1     -18.985  19.016  25.360  1.00  0.00     0.166 C 
HETATM   17  O7  UNL     1     -18.021  19.494  26.212  1.00  0.00    -0.371 OA
BRANCH  14  18
HETATM   18  O1  UNL     1     -16.869  18.702  23.192  1.00  0.00    -0.393 OA
ATOM     19  H1  UNL     1     -17.738  18.835  22.831  1.00  0.00     0.210 HD
ENDBRANCH  14  18
BRANCH  16  20
HETATM   20  C9  UNL     1     -20.253  18.676  26.074  1.00  0.00     0.030 A 
HETATM   21  C8  UNL     1     -20.476  18.699  27.419  1.00  0.00     0.107 A 
HETATM   22  N2  UNL     1     -21.658  18.364  27.856  1.00  0.00    -0.346 N 
HETATM   23  C7  UNL     1     -22.599  18.015  26.991  1.00  0.00     0.144 A 
ATOM     24  H2  UNL     1     -21.858  18.370  28.857  1.00  0.00     0.167 HD
HETATM   25  S1  UNL     1     -21.766  18.169  25.475  1.00  0.00    -0.055 SA
BRANCH  23  26
HETATM   26  N1  UNL     1     -23.834  17.645  27.158  1.00  0.00    -0.370 N 
ATOM     27  H1  UNL     1     -24.076  16.687  27.408  1.00  0.00     0.161 HD
BRANCH  26  28
HETATM   28  C6  UNL     1     -24.870  18.687  26.968  1.00  0.00     0.121 C 
BRANCH  28  29
HETATM   29  C5  UNL     1     -25.707  18.365  25.800  1.00  0.00     0.020 C 
BRANCH  29  30
HETATM   30  C4  UNL     1     -25.559  19.065  24.530  1.00  0.00     0.002 C 
BRANCH  30  31
HETATM   31  C3  UNL     1     -24.656  20.196  24.312  1.00  0.00    -0.000 C 
BRANCH  31  32
HETATM   32  C2  UNL     1     -24.697  20.793  22.963  1.00  0.00    -0.005 C 
HETATM   33  C1  UNL     1     -25.948  21.676  22.788  1.00  0.00     0.005 C 
ENDBRANCH  31  32
ENDBRANCH  30  31
ENDBRANCH  29  30
ENDBRANCH  28  29
ENDBRANCH  26  28
ENDBRANCH  23  26
ENDBRANCH  16  20
ENDBRANCH  12  13
ENDBRANCH  11  12
ENDBRANCH   1  11
BRANCH   7  34
HETATM   34  O5  UNL     1     -13.049  24.550  26.454  1.00  0.00    -0.390 OA
ATOM     35  H5  UNL     1     -13.761  25.130  26.698  1.00  0.00     0.210 HD
ENDBRANCH   7  34
BRANCH   8  36
HETATM   36  O6  UNL     1     -13.276  22.936  24.242  1.00  0.00    -0.388 OA
ATOM     37  H6  UNL     1     -13.347  23.824  23.913  1.00  0.00     0.210 HD
ENDBRANCH   8  36
TORSDOF 14
ENDMDL
MODEL 5
REMARK VINA RESULT: -8.215568813      4.292      6.046
REMARK  14 active torsions:
REMARK  status: ('A' for Active; 'I' for Inactive)
REMARK    1  A    between atoms: C2_2  and  C3_3 
REMARK    2  A    between atoms: C3_3  and  C4_4 
REMARK    3  A    between atoms: C4_4  and  C5_5 
REMARK    4  A    between atoms: C5_5  and  C6_6 
REMARK    5  A    between atoms: C6_6  and  N1_7 
REMARK    6  A    between atoms: N1_7  and  C7_9 
REMARK    7  A    between atoms: C9_13  and  C10_14 
REMARK    8  A    between atoms: C12_16  and  O1_17 
REMARK    9  A    between atoms: C13_19  and  C14_20 
REMARK   10  A    between atoms: C14_20  and  O2_21 
REMARK   11  A    between atoms: O2_21  and  C15_22 
REMARK   12  A    between atoms: C18_27  and  O4_28 
REMARK   13  A    between atoms: C19_30  and  O5_31 
REMARK   14  A    between atoms: C20_33  and  O6_34 
ROOT
HETATM    1  C15 UNL     1     -13.353  19.184  26.630  1.00  0.00     0.292 C 
HETATM    2  O3  UNL     1     -13.348  20.496  27.106  1.00  0.00    -0.336 OA
HETATM    3  C16 UNL     1     -12.273  21.208  26.588  1.00  0.00     0.262 C 
HETATM    4  C17 UNL     1     -12.274  22.528  27.233  1.00  0.00     0.094 C 
HETATM    5  N3  UNL     1     -12.275  23.579  27.749  1.00  0.00    -0.194 NA
HETATM    6  C18 UNL     1     -10.950  20.573  26.833  1.00  0.00     0.192 C 
HETATM    7  C19 UNL     1     -10.931  19.086  26.681  1.00  0.00     0.183 C 
HETATM    8  C20 UNL     1     -12.182  18.487  27.287  1.00  0.00     0.204 C 
ENDROOT
BRANCH   6   9
HETATM    9  O4  UNL     1     -10.040  21.094  25.884  1.00  0.00    -0.389 OA
ATOM     10  H4  UNL     1      -9.315  21.480  26.360  1.00  0.00     0.210 HD
ENDBRANCH   6   9
BRANCH   1  11
HETATM   11  O2  UNL     1     -14.565  18.622  26.961  1.00  0.00    -0.356 OA
BRANCH  11  12
HETATM   12  C14 UNL     1     -15.669  19.355  26.565  1.00  0.00     0.205 C 
BRANCH  12  13
HETATM   13  C13 UNL     1     -15.800  19.125  25.053  1.00  0.00     0.175 C 
HETATM   14  C12 UNL     1     -16.300  20.325  24.328  1.00  0.00     0.152 C 
HETATM   15  C11 UNL     1     -17.597  19.787  23.707  1.00  0.00     0.072 C 
HETATM   16  C10 UNL     1     -17.920  18.707  24.711  1.00  0.00     0.166 C 
HETATM   17  O7  UNL     1     -16.710  18.086  24.899  1.00  0.00    -0.371 OA
BRANCH  14  18
HETATM   18  O1  UNL     1     -16.574  21.400  25.167  1.00  0.00    -0.393 OA
ATOM     19  H1  UNL     1     -16.111  22.176  24.873  1.00  0.00     0.210 HD
ENDBRANCH  14  18
BRANCH  16  20
HETATM   20  C9  UNL     1     -18.946  17.786  24.134  1.00  0.00     0.030 A 
HETATM   21  C8  UNL     1     -19.515  16.702  24.735  1.00  0.00     0.107 A 
HETATM   22  N2  UNL     1     -20.396  16.014  24.063  1.00  0.00    -0.346 N 
HETATM   23  C7  UNL     1     -20.711  16.384  22.830  1.00  0.00     0.144 A 
ATOM     24  H2  UNL     1     -20.840  15.197  24.484  1.00  0.00     0.167 HD
HETATM   25  S1  UNL     1     -19.704  17.781  22.608  1.00  0.00    -0.055 SA
BRANCH  23  26
HETATM   26  N1  UNL     1     -21.539  15.884  21.963  1.00  0.00    -0.370 N 
ATOM     27  H1  UNL     1     -22.003  16.468  21.267  1.00  0.00     0.161 HD
BRANCH  26  28
HETATM   28  C6  UNL     1     -21.774  14.423  22.035  1.00  0.00     0.121 C 
BRANCH  28  29
HETATM   29  C5  UNL     1     -21.233  13.760  20.837  1.00  0.00     0.020 C 
BRANCH  29  30
HETATM   30  C4  UNL     1     -21.660  14.129  19.493  1.00  0.00     0.002 C 
BRANCH  30  31
HETATM   31  C3  UNL     1     -20.761  14.621  18.448  1.00  0.00    -0.000 C 
BRANCH  31  32
HETATM   32  C2  UNL     1     -20.570  16.083  18.407  1.00  0.00    -0.005 C 
HETATM   33  C1  UNL     1     -19.240  16.486  19.073  1.00  0.00     0.005 C 
ENDBRANCH  31  32
ENDBRANCH  30  31
ENDBRANCH  29  30
ENDBRANCH  28  29
ENDBRANCH  26  28
ENDBRANCH  23  26
ENDBRANCH  16  20
ENDBRANCH  12  13
ENDBRANCH  11  12
ENDBRANCH   1  11
BRANCH   7  34
HETATM   34  O5  UNL     1      -9.809  18.541  27.299  1.00  0.00    -0.390 OA
ATOM     35  H5  UNL     1      -9.922  17.608  27.440  1.00  0.00     0.210 HD
ENDBRANCH   7  34
BRANCH   8  36
HETATM   36  O6  UNL     1     -12.182  18.776  28.664  1.00  0.00    -0.388 OA
ATOM     37  H6  UNL     1     -12.745  18.157  29.114  1.00  0.00     0.210 HD
ENDBRANCH   8  36
TORSDOF 14
ENDMDL
