MODEL 1
REMARK VINA RESULT: -9.822247206      0.000      0.000
REMARK  6 active torsions:
REMARK  status: ('A' for Active; 'I' for Inactive)
REMARK    1  A    between atoms: C3_4  and  O1_5 
REMARK    2  A    between atoms: O1_5  and  C4_6 
REMARK    3  A    between atoms: C4_6  and  C5_7 
REMARK    4  A    between atoms: C8_11  and  N2_12 
REMARK    5  A    between atoms: C13_20  and  C14_21 
REMARK    6  A    between atoms: C20_33  and  N6_34 
ROOT
HETATM    1  N1  UNL     1       4.491  36.894 -21.698  1.00  0.00    -0.191 NA
HETATM    2  C1  UNL     1       5.085  36.054 -22.274  1.00  0.00     0.106 C 
HETATM    3  C2  UNL     1       5.833  35.043 -22.971  1.00  0.00     0.121 A 
HETATM    4  C3  UNL     1       5.066  34.006 -23.551  1.00  0.00     0.102 A 
HETATM    5  C13 UNL     1       5.775  33.041 -24.216  1.00  0.00     0.007 A 
HETATM    6  C19 UNL     1       7.178  33.170 -24.258  1.00  0.00     0.100 A 
HETATM    7  N5  UNL     1       7.858  34.157 -23.701  1.00  0.00    -0.351 N 
ATOM      8  H5  UNL     1       8.876  34.190 -23.769  1.00  0.00     0.166 HD
HETATM    9  C20 UNL     1       7.197  35.100 -23.055  1.00  0.00     0.122 A 
ENDROOT
BRANCH   4  10
HETATM   10  O1  UNL     1       3.758  34.028 -23.410  1.00  0.00    -0.348 OA
BRANCH  10  11
HETATM   11  C4  UNL     1       2.709  33.758 -22.627  1.00  0.00     0.180 C 
BRANCH  11  12
HETATM   12  C5  UNL     1       1.477  33.376 -23.485  1.00  0.00     0.016 C 
HETATM   13  C6  UNL     1       0.390  32.793 -22.657  1.00  0.00     0.033 C 
HETATM   14  C7  UNL     1      -0.904  32.833 -23.410  1.00  0.00     0.171 C 
HETATM   15  O2  UNL     1      -0.801  33.317 -24.692  1.00  0.00    -0.366 OA
HETATM   16  C8  UNL     1      -0.366  34.659 -24.597  1.00  0.00     0.228 C 
HETATM   17  C12 UNL     1       1.088  34.614 -24.241  1.00  0.00     0.061 C 
BRANCH  16  18
HETATM   18  N2  UNL     1      -0.555  35.321 -25.887  1.00  0.00    -0.323 N 
HETATM   19  C9  UNL     1      -1.303  34.883 -26.921  1.00  0.00     0.186 A 
HETATM   20  N3  UNL     1      -1.231  35.770 -27.949  1.00  0.00    -0.342 N 
HETATM   21  C10 UNL     1      -0.430  36.782 -27.573  1.00  0.00     0.120 A 
ATOM     22  H3  UNL     1      -1.702  35.683 -28.849  1.00  0.00     0.167 HD
HETATM   23 CL1  UNL     1      -0.028  38.170 -28.559  1.00  0.00    -0.063 Cl
HETATM   24  C11 UNL     1      -0.026  36.479 -26.295  1.00  0.00     0.136 A 
ENDBRANCH  16  18
ENDBRANCH  11  12
ENDBRANCH  10  11
ENDBRANCH   4  10
BRANCH   9  25
HETATM   25  N6  UNL     1       7.850  36.077 -22.502  1.00  0.00    -0.384 N 
ATOM     26  H62 UNL     1       8.757  35.897 -22.071  1.00  0.00     0.157 HD
ATOM     27  H61 UNL     1       7.462  37.020 -22.496  1.00  0.00     0.157 HD
ENDBRANCH   9  25
BRANCH   5  28
HETATM   28  C14 UNL     1       5.209  31.908 -24.923  1.00  0.00     0.064 A 
HETATM   29  C15 UNL     1       6.207  31.212 -25.851  1.00  0.00     0.251 C 
HETATM   30  N4  UNL     1       5.563  29.921 -26.117  1.00  0.00    -0.071 N 
HETATM   31  C16 UNL     1       5.123  29.517 -24.823  1.00  0.00     0.265 C 
ATOM     32  H42 UNL     1       4.833  29.948 -26.829  1.00  0.00     0.277 HD
ATOM     33  H41 UNL     1       6.152  29.242 -26.600  1.00  0.00     0.277 HD
HETATM   34  C17 UNL     1       4.514  30.812 -24.266  1.00  0.00     0.164 A 
HETATM   35  O3  UNL     1       3.386  31.103 -25.076  1.00  0.00    -0.382 OA
HETATM   36  C18 UNL     1       3.973  32.150 -25.774  1.00  0.00     0.187 A 
ENDBRANCH   5  28
TORSDOF 6
ENDMDL
MODEL 2
REMARK VINA RESULT: -9.766705874      1.258      3.921
REMARK  6 active torsions:
REMARK  status: ('A' for Active; 'I' for Inactive)
REMARK    1  A    between atoms: C3_4  and  O1_5 
REMARK    2  A    between atoms: O1_5  and  C4_6 
REMARK    3  A    between atoms: C4_6  and  C5_7 
REMARK    4  A    between atoms: C8_11  and  N2_12 
REMARK    5  A    between atoms: C13_20  and  C14_21 
REMARK    6  A    between atoms: C20_33  and  N6_34 
ROOT
HETATM    1  N1  UNL     1       4.105  30.341 -24.478  1.00  0.00    -0.191 NA
HETATM    2  C1  UNL     1       4.813  31.265 -24.293  1.00  0.00     0.106 C 
HETATM    3  C2  UNL     1       5.699  32.376 -24.075  1.00  0.00     0.121 A 
HETATM    4  C3  UNL     1       5.086  33.563 -23.606  1.00  0.00     0.102 A 
HETATM    5  C13 UNL     1       5.927  34.624 -23.397  1.00  0.00     0.007 A 
HETATM    6  C19 UNL     1       7.299  34.437 -23.664  1.00  0.00     0.100 A 
HETATM    7  N5  UNL     1       7.831  33.310 -24.102  1.00  0.00    -0.351 N 
ATOM      8  H5  UNL     1       8.834  33.242 -24.276  1.00  0.00     0.166 HD
HETATM    9  C20 UNL     1       7.042  32.272 -24.311  1.00  0.00     0.122 A 
ENDROOT
BRANCH   4  10
HETATM   10  O1  UNL     1       3.784  33.574 -23.418  1.00  0.00    -0.348 OA
BRANCH  10  11
HETATM   11  C4  UNL     1       2.773  33.397 -22.562  1.00  0.00     0.180 C 
BRANCH  11  12
HETATM   12  C5  UNL     1       1.460  33.105 -23.329  1.00  0.00     0.016 C 
HETATM   13  C6  UNL     1       0.406  32.567 -22.430  1.00  0.00     0.033 C 
HETATM   14  C7  UNL     1      -0.936  32.698 -23.080  1.00  0.00     0.171 C 
HETATM   15  O2  UNL     1      -0.903  33.203 -24.357  1.00  0.00    -0.366 OA
HETATM   16  C8  UNL     1      -0.385  34.517 -24.272  1.00  0.00     0.228 C 
HETATM   17  C12 UNL     1       1.087  34.381 -24.030  1.00  0.00     0.061 C 
BRANCH  16  18
HETATM   18  N2  UNL     1      -0.633  35.217 -25.531  1.00  0.00    -0.323 N 
HETATM   19  C9  UNL     1      -1.157  34.695 -26.659  1.00  0.00     0.186 A 
HETATM   20  N3  UNL     1      -1.232  35.656 -27.618  1.00  0.00    -0.342 N 
HETATM   21  C10 UNL     1      -0.752  36.800 -27.103  1.00  0.00     0.120 A 
ATOM     22  H3  UNL     1      -1.591  35.530 -28.565  1.00  0.00     0.167 HD
HETATM   23 CL1  UNL     1      -0.642  38.324 -27.957  1.00  0.00    -0.063 Cl
HETATM   24  C11 UNL     1      -0.388  36.501 -25.813  1.00  0.00     0.136 A 
ENDBRANCH  16  18
ENDBRANCH  11  12
ENDBRANCH  10  11
ENDBRANCH   4  10
BRANCH   9  25
HETATM   25  N6  UNL     1       7.549  31.156 -24.741  1.00  0.00    -0.384 N 
ATOM     26  H62 UNL     1       8.350  30.747 -24.259  1.00  0.00     0.157 HD
ATOM     27  H61 UNL     1       7.152  30.688 -25.556  1.00  0.00     0.157 HD
ENDBRANCH   9  25
BRANCH   5  28
HETATM   28  C14 UNL     1       5.540  35.924 -22.883  1.00  0.00     0.064 A 
HETATM   29  C15 UNL     1       6.610  36.999 -23.085  1.00  0.00     0.251 C 
HETATM   30  N4  UNL     1       5.865  38.246 -22.879  1.00  0.00    -0.071 N 
HETATM   31  C16 UNL     1       4.673  38.028 -23.628  1.00  0.00     0.265 C 
ATOM     32  H42 UNL     1       5.716  38.497 -21.902  1.00  0.00     0.277 HD
ATOM     33  H41 UNL     1       6.376  39.094 -23.125  1.00  0.00     0.277 HD
HETATM   34  C17 UNL     1       4.296  36.593 -23.233  1.00  0.00     0.164 A 
HETATM   35  O3  UNL     1       3.981  36.629 -21.850  1.00  0.00    -0.382 OA
HETATM   36  C18 UNL     1       5.151  36.017 -21.417  1.00  0.00     0.187 A 
ENDBRANCH   5  28
TORSDOF 6
ENDMDL
MODEL 3
REMARK VINA RESULT: -9.688385764      1.311      1.541
REMARK  6 active torsions:
REMARK  status: ('A' for Active; 'I' for Inactive)
REMARK    1  A    between atoms: C3_4  and  O1_5 
REMARK    2  A    between atoms: O1_5  and  C4_6 
REMARK    3  A    between atoms: C4_6  and  C5_7 
REMARK    4  A    between atoms: C8_11  and  N2_12 
REMARK    5  A    between atoms: C13_20  and  C14_21 
REMARK    6  A    between atoms: C20_33  and  N6_34 
ROOT
HETATM    1  N1  UNL     1       4.186  36.435 -22.064  1.00  0.00    -0.191 NA
HETATM    2  C1  UNL     1       4.932  35.675 -22.571  1.00  0.00     0.106 C 
HETATM    3  C2  UNL     1       5.863  34.765 -23.180  1.00  0.00     0.121 A 
HETATM    4  C3  UNL     1       5.287  33.660 -23.851  1.00  0.00     0.102 A 
HETATM    5  C13 UNL     1       6.170  32.790 -24.433  1.00  0.00     0.007 A 
HETATM    6  C19 UNL     1       7.546  33.072 -24.310  1.00  0.00     0.100 A 
HETATM    7  N5  UNL     1       8.044  34.118 -23.673  1.00  0.00    -0.351 N 
ATOM      8  H5  UNL     1       9.052  34.263 -23.622  1.00  0.00     0.166 HD
HETATM    9  C20 UNL     1       7.212  34.972 -23.104  1.00  0.00     0.122 A 
ENDROOT
BRANCH   4  10
HETATM   10  O1  UNL     1       3.977  33.537 -23.863  1.00  0.00    -0.348 OA
BRANCH  10  11
HETATM   11  C4  UNL     1       2.901  32.944 -23.337  1.00  0.00     0.180 C 
BRANCH  11  12
HETATM   12  C5  UNL     1       1.637  33.282 -24.166  1.00  0.00     0.016 C 
HETATM   13  C6  UNL     1       0.396  33.132 -23.363  1.00  0.00     0.033 C 
HETATM   14  C7  UNL     1      -0.734  33.854 -24.029  1.00  0.00     0.171 C 
HETATM   15  O2  UNL     1      -0.412  34.423 -25.237  1.00  0.00    -0.366 OA
HETATM   16  C8  UNL     1       0.578  35.400 -24.987  1.00  0.00     0.228 C 
HETATM   17  C12 UNL     1       1.854  34.660 -24.725  1.00  0.00     0.061 C 
BRANCH  16  18
HETATM   18  N2  UNL     1       0.720  36.257 -26.163  1.00  0.00    -0.323 N 
HETATM   19  C9  UNL     1      -0.270  36.709 -26.961  1.00  0.00     0.186 A 
HETATM   20  N3  UNL     1       0.254  37.479 -27.952  1.00  0.00    -0.342 N 
HETATM   21  C10 UNL     1       1.587  37.520 -27.790  1.00  0.00     0.120 A 
ATOM     22  H3  UNL     1      -0.274  37.944 -28.690  1.00  0.00     0.167 HD
HETATM   23 CL1  UNL     1       2.702  38.389 -28.822  1.00  0.00    -0.063 Cl
HETATM   24  C11 UNL     1       1.849  36.757 -26.678  1.00  0.00     0.136 A 
ENDBRANCH  16  18
ENDBRANCH  11  12
ENDBRANCH  10  11
ENDBRANCH   4  10
BRANCH   9  25
HETATM   25  N6  UNL     1       7.685  36.005 -22.474  1.00  0.00    -0.384 N 
ATOM     26  H62 UNL     1       7.979  35.911 -21.502  1.00  0.00     0.157 HD
ATOM     27  H61 UNL     1       7.764  36.905 -22.945  1.00  0.00     0.157 HD
ENDBRANCH   9  25
BRANCH   5  28
HETATM   28  C14 UNL     1       5.819  31.615 -25.206  1.00  0.00     0.064 A 
HETATM   29  C15 UNL     1       5.472  30.400 -24.341  1.00  0.00     0.251 C 
HETATM   30  N4  UNL     1       4.781  29.513 -25.283  1.00  0.00    -0.071 N 
HETATM   31  C16 UNL     1       3.897  30.401 -25.962  1.00  0.00     0.265 C 
ATOM     32  H42 UNL     1       5.398  28.975 -25.892  1.00  0.00     0.277 HD
ATOM     33  H41 UNL     1       4.330  28.705 -24.855  1.00  0.00     0.277 HD
HETATM   34  C17 UNL     1       4.802  31.608 -26.247  1.00  0.00     0.164 A 
HETATM   35  O3  UNL     1       5.797  31.156 -27.152  1.00  0.00    -0.382 OA
HETATM   36  C18 UNL     1       6.828  31.108 -26.222  1.00  0.00     0.187 A 
ENDBRANCH   5  28
TORSDOF 6
ENDMDL
MODEL 4
REMARK VINA RESULT: -9.261503295      1.430      4.021
REMARK  6 active torsions:
REMARK  status: ('A' for Active; 'I' for Inactive)
REMARK    1  A    between atoms: C3_4  and  O1_5 
REMARK    2  A    between atoms: O1_5  and  C4_6 
REMARK    3  A    between atoms: C4_6  and  C5_7 
REMARK    4  A    between atoms: C8_11  and  N2_12 
REMARK    5  A    between atoms: C13_20  and  C14_21 
REMARK    6  A    between atoms: C20_33  and  N6_34 
ROOT
HETATM    1  N1  UNL     1       3.529  30.509 -25.188  1.00  0.00    -0.191 NA
HETATM    2  C1  UNL     1       4.342  31.291 -24.845  1.00  0.00     0.106 C 
HETATM    3  C2  UNL     1       5.353  32.226 -24.435  1.00  0.00     0.121 A 
HETATM    4  C3  UNL     1       4.877  33.445 -23.896  1.00  0.00     0.102 A 
HETATM    5  C13 UNL     1       5.838  34.339 -23.504  1.00  0.00     0.007 A 
HETATM    6  C19 UNL     1       7.187  33.967 -23.672  1.00  0.00     0.100 A 
HETATM    7  N5  UNL     1       7.591  32.816 -24.180  1.00  0.00    -0.351 N 
ATOM      8  H5  UNL     1       8.586  32.610 -24.274  1.00  0.00     0.166 HD
HETATM    9  C20 UNL     1       6.684  31.937 -24.565  1.00  0.00     0.122 A 
ENDROOT
BRANCH   4  10
HETATM   10  O1  UNL     1       3.578  33.640 -23.819  1.00  0.00    -0.348 OA
BRANCH  10  11
HETATM   11  C4  UNL     1       2.453  33.441 -23.127  1.00  0.00     0.180 C 
BRANCH  11  12
HETATM   12  C5  UNL     1       1.216  33.590 -24.048  1.00  0.00     0.016 C 
HETATM   13  C6  UNL     1       0.001  32.992 -23.438  1.00  0.00     0.033 C 
HETATM   14  C7  UNL     1      -1.224  33.511 -24.125  1.00  0.00     0.171 C 
HETATM   15  O2  UNL     1      -0.971  34.348 -25.185  1.00  0.00    -0.366 OA
HETATM   16  C8  UNL     1      -0.305  35.484 -24.670  1.00  0.00     0.228 C 
HETATM   17  C12 UNL     1       1.097  35.055 -24.363  1.00  0.00     0.061 C 
BRANCH  16  18
HETATM   18  N2  UNL     1      -0.305  36.543 -25.677  1.00  0.00    -0.323 N 
HETATM   19  C9  UNL     1      -0.593  37.846 -25.483  1.00  0.00     0.186 A 
HETATM   20  N3  UNL     1      -0.486  38.520 -26.659  1.00  0.00    -0.342 N 
HETATM   21  C10 UNL     1      -0.129  37.644 -27.613  1.00  0.00     0.120 A 
ATOM     22  H3  UNL     1      -0.648  39.519 -26.794  1.00  0.00     0.167 HD
HETATM   23 CL1  UNL     1       0.133  38.038 -29.298  1.00  0.00    -0.063 Cl
HETATM   24  C11 UNL     1      -0.024  36.430 -26.980  1.00  0.00     0.136 A 
ENDBRANCH  16  18
ENDBRANCH  11  12
ENDBRANCH  10  11
ENDBRANCH   4  10
BRANCH   9  25
HETATM   25  N6  UNL     1       7.064  30.800 -25.068  1.00  0.00    -0.384 N 
ATOM     26  H62 UNL     1       8.050  30.647 -25.279  1.00  0.00     0.157 HD
ATOM     27  H61 UNL     1       6.383  30.064 -25.251  1.00  0.00     0.157 HD
ENDBRANCH   9  25
BRANCH   5  28
HETATM   28  C14 UNL     1       5.595  35.629 -22.889  1.00  0.00     0.064 A 
HETATM   29  C15 UNL     1       6.721  36.637 -23.128  1.00  0.00     0.251 C 
HETATM   30  N4  UNL     1       6.093  37.918 -22.791  1.00  0.00    -0.071 N 
HETATM   31  C16 UNL     1       4.827  37.830 -23.440  1.00  0.00     0.265 C 
ATOM     32  H42 UNL     1       6.047  38.121 -21.792  1.00  0.00     0.277 HD
ATOM     33  H41 UNL     1       6.643  38.742 -23.036  1.00  0.00     0.277 HD
HETATM   34  C17 UNL     1       4.380  36.404 -23.090  1.00  0.00     0.164 A 
HETATM   35  O3  UNL     1       4.187  36.380 -21.685  1.00  0.00    -0.382 OA
HETATM   36  C18 UNL     1       5.340  35.662 -21.391  1.00  0.00     0.187 A 
ENDBRANCH   5  28
TORSDOF 6
ENDMDL
MODEL 5
REMARK VINA RESULT: -9.255245833      1.258      3.909
REMARK  6 active torsions:
REMARK  status: ('A' for Active; 'I' for Inactive)
REMARK    1  A    between atoms: C3_4  and  O1_5 
REMARK    2  A    between atoms: O1_5  and  C4_6 
REMARK    3  A    between atoms: C4_6  and  C5_7 
REMARK    4  A    between atoms: C8_11  and  N2_12 
REMARK    5  A    between atoms: C13_20  and  C14_21 
REMARK    6  A    between atoms: C20_33  and  N6_34 
ROOT
HETATM    1  N1  UNL     1       3.207  30.677 -25.411  1.00  0.00    -0.191 NA
HETATM    2  C1  UNL     1       4.173  31.286 -25.117  1.00  0.00     0.106 C 
HETATM    3  C2  UNL     1       5.366  32.009 -24.772  1.00  0.00     0.121 A 
HETATM    4  C3  UNL     1       5.171  33.178 -23.998  1.00  0.00     0.102 A 
HETATM    5  C13 UNL     1       6.306  33.869 -23.668  1.00  0.00     0.007 A 
HETATM    6  C19 UNL     1       7.540  33.360 -24.122  1.00  0.00     0.100 A 
HETATM    7  N5  UNL     1       7.679  32.263 -24.845  1.00  0.00    -0.351 N 
ATOM      8  H5  UNL     1       8.604  31.950 -25.142  1.00  0.00     0.166 HD
HETATM    9  C20 UNL     1       6.600  31.578 -25.176  1.00  0.00     0.122 A 
ENDROOT
BRANCH   4  10
HETATM   10  O1  UNL     1       3.946  33.521 -23.665  1.00  0.00    -0.348 OA
BRANCH  10  11
HETATM   11  C4  UNL     1       2.976  33.467 -22.747  1.00  0.00     0.180 C 
BRANCH  11  12
HETATM   12  C5  UNL     1       1.612  33.165 -23.417  1.00  0.00     0.016 C 
HETATM   13  C6  UNL     1       0.593  32.741 -22.423  1.00  0.00     0.033 C 
HETATM   14  C7  UNL     1      -0.778  32.870 -23.010  1.00  0.00     0.171 C 
HETATM   15  O2  UNL     1      -0.799  33.271 -24.324  1.00  0.00    -0.366 OA
HETATM   16  C8  UNL     1      -0.234  34.566 -24.374  1.00  0.00     0.228 C 
HETATM   17  C12 UNL     1       1.244  34.394 -24.200  1.00  0.00     0.061 C 
BRANCH  16  18
HETATM   18  N2  UNL     1      -0.527  35.172 -25.672  1.00  0.00    -0.323 N 
HETATM   19  C9  UNL     1      -1.362  34.697 -26.618  1.00  0.00     0.186 A 
HETATM   20  N3  UNL     1      -1.372  35.537 -27.687  1.00  0.00    -0.342 N 
HETATM   21  C10 UNL     1      -0.536  36.556 -27.425  1.00  0.00     0.120 A 
ATOM     22  H3  UNL     1      -1.918  35.415 -28.539  1.00  0.00     0.167 HD
HETATM   23 CL1  UNL     1      -0.211  37.896 -28.503  1.00  0.00    -0.063 Cl
HETATM   24  C11 UNL     1      -0.027  36.306 -26.174  1.00  0.00     0.136 A 
ENDBRANCH  16  18
ENDBRANCH  11  12
ENDBRANCH  10  11
ENDBRANCH   4  10
BRANCH   9  25
HETATM   25  N6  UNL     1       6.719  30.496 -25.886  1.00  0.00    -0.384 N 
ATOM     26  H62 UNL     1       5.922  29.867 -25.984  1.00  0.00     0.157 HD
ATOM     27  H61 UNL     1       7.602  30.275 -26.345  1.00  0.00     0.157 HD
ENDBRANCH   9  25
BRANCH   5  28
HETATM   28  C14 UNL     1       6.362  35.066 -22.851  1.00  0.00     0.064 A 
HETATM   29  C15 UNL     1       5.329  36.122 -23.250  1.00  0.00     0.251 C 
HETATM   30  N4  UNL     1       5.299  37.010 -22.083  1.00  0.00    -0.071 N 
HETATM   31  C16 UNL     1       5.256  36.094 -20.992  1.00  0.00     0.265 C 
ATOM     32  H42 UNL     1       6.060  37.687 -22.043  1.00  0.00     0.277 HD
ATOM     33  H41 UNL     1       4.548  37.700 -22.092  1.00  0.00     0.277 HD
HETATM   34  C17 UNL     1       6.310  35.054 -21.396  1.00  0.00     0.164 A 
HETATM   35  O3  UNL     1       7.558  35.729 -21.393  1.00  0.00    -0.382 OA
HETATM   36  C18 UNL     1       7.685  35.809 -22.774  1.00  0.00     0.187 A 
ENDBRANCH   5  28
TORSDOF 6
ENDMDL
