MODEL 1
REMARK VINA RESULT: -8.641311176      0.000      0.000
REMARK  4 active torsions:
REMARK  status: ('A' for Active; 'I' for Inactive)
REMARK    1  A    between atoms: C3_6  and  N3_7 
REMARK       I    between atoms: N3_7  and  C4_9 
REMARK    2  A    between atoms: C4_9  and  C5_11 
REMARK    3  A    between atoms: C7_17  and  C8_18 
REMARK    4  A    between atoms: C13_26  and  N7_27 
ROOT
HETATM    1  C5  UNL     1      -0.233  33.270 -23.597  1.00  0.00     0.126 A 
HETATM    2  N4  UNL     1      -1.308  32.775 -22.941  1.00  0.00    -0.295 N 
ATOM      3  H4  UNL     1      -1.266  32.037 -22.238  1.00  0.00     0.187 HD
HETATM    4  N5  UNL     1      -2.416  33.374 -23.331  1.00  0.00    -0.311 N 
ATOM      5  H5  UNL     1      -3.361  33.190 -22.996  1.00  0.00     0.186 HD
HETATM    6  C6  UNL     1      -2.048  34.281 -24.265  1.00  0.00     0.118 A 
HETATM    7  C7  UNL     1      -0.684  34.236 -24.451  1.00  0.00     0.023 A 
ENDROOT
BRANCH   7   8
HETATM    8  C8  UNL     1       0.084  35.047 -25.400  1.00  0.00     0.223 C 
HETATM    9  C9  UNL     1       1.121  35.922 -24.729  1.00  0.00     0.049 C 
HETATM   10  C10 UNL     1       0.648  37.306 -24.940  1.00  0.00    -0.010 C 
HETATM   11  C11 UNL     1      -0.685  37.254 -25.598  1.00  0.00     0.242 C 
HETATM   12  C12 UNL     1       1.639  38.286 -25.542  1.00  0.00     0.047 C 
HETATM   13  C17 UNL     1       0.639  38.219 -23.710  1.00  0.00     0.047 C 
HETATM   14  N6  UNL     1      -0.776  35.928 -26.177  1.00  0.00    -0.066 N 
ATOM     15  H62 UNL     1      -0.560  35.915 -27.174  1.00  0.00     0.278 HD
ATOM     16  H61 UNL     1      -1.736  35.589 -26.241  1.00  0.00     0.278 HD
HETATM   17  C13 UNL     1       0.941  39.356 -24.698  1.00  0.00     0.225 C 
BRANCH  17  18
HETATM   18  N7  UNL     1       1.830  40.303 -24.086  1.00  0.00     0.102 N 
HETATM   19  C14 UNL     1       1.104  41.551 -23.942  1.00  0.00     0.284 C 
HETATM   20  C15 UNL     1       2.033  42.496 -23.172  1.00  0.00     0.105 C 
HETATM   21  S1  UNL     1       3.599  42.098 -24.053  1.00  0.00    -0.138 SA
HETATM   22  C16 UNL     1       3.000  40.579 -24.904  1.00  0.00     0.347 C 
ENDBRANCH  17  18
ENDBRANCH   7   8
BRANCH   1  23
HETATM   23  C4  UNL     1       1.154  32.826 -23.391  1.00  0.00     0.274 C 
HETATM   24  N3  UNL     1       1.905  32.363 -24.495  1.00  0.00    -0.318 N 
ATOM     25  H3  UNL     1       1.463  32.347 -25.414  1.00  0.00     0.169 HD
HETATM   26  O1  UNL     1       1.613  32.880 -22.232  1.00  0.00    -0.266 OA
BRANCH  24  27
HETATM   27  C3  UNL     1       3.235  31.924 -24.379  1.00  0.00     0.092 A 
HETATM   28  C2  UNL     1       3.755  30.659 -24.421  1.00  0.00     0.140 A 
HETATM   29  N2  UNL     1       5.099  30.752 -24.258  1.00  0.00    -0.307 N 
HETATM   30  N1  UNL     1       5.467  32.005 -24.116  1.00  0.00    -0.284 N 
ATOM     31  H2  UNL     1       5.737  29.956 -24.248  1.00  0.00     0.186 HD
HETATM   32  C1  UNL     1       6.817  32.537 -23.916  1.00  0.00     0.179 C 
HETATM   33  C18 UNL     1       4.358  32.748 -24.184  1.00  0.00     0.148 A 
HETATM   34 CL1  UNL     1       4.302  34.486 -24.052  1.00  0.00    -0.060 Cl
ENDBRANCH  24  27
ENDBRANCH   1  23
TORSDOF 4
ENDMDL
MODEL 2
REMARK VINA RESULT: -8.119324137      1.139      1.319
REMARK  4 active torsions:
REMARK  status: ('A' for Active; 'I' for Inactive)
REMARK    1  A    between atoms: C3_6  and  N3_7 
REMARK       I    between atoms: N3_7  and  C4_9 
REMARK    2  A    between atoms: C4_9  and  C5_11 
REMARK    3  A    between atoms: C7_17  and  C8_18 
REMARK    4  A    between atoms: C13_26  and  N7_27 
ROOT
HETATM    1  C5  UNL     1      -0.077  33.651 -23.883  1.00  0.00     0.126 A 
HETATM    2  N4  UNL     1      -1.175  33.052 -23.368  1.00  0.00    -0.295 N 
ATOM      3  H4  UNL     1      -1.152  32.285 -22.696  1.00  0.00     0.187 HD
HETATM    4  N5  UNL     1      -2.277  33.593 -23.849  1.00  0.00    -0.311 N 
ATOM      5  H5  UNL     1      -3.236  33.329 -23.625  1.00  0.00     0.186 HD
HETATM    6  C6  UNL     1      -1.881  34.569 -24.699  1.00  0.00     0.118 A 
HETATM    7  C7  UNL     1      -0.506  34.626 -24.739  1.00  0.00     0.023 A 
ENDROOT
BRANCH   7   8
HETATM    8  C8  UNL     1       0.296  35.534 -25.564  1.00  0.00     0.223 C 
HETATM    9  C9  UNL     1       1.190  36.444 -24.750  1.00  0.00     0.049 C 
HETATM   10  C10 UNL     1       0.641  37.801 -24.952  1.00  0.00    -0.010 C 
HETATM   11  C11 UNL     1      -0.608  37.689 -25.752  1.00  0.00     0.242 C 
HETATM   12  C12 UNL     1       1.614  38.875 -25.402  1.00  0.00     0.047 C 
HETATM   13  C17 UNL     1       0.436  38.649 -23.693  1.00  0.00     0.047 C 
HETATM   14  N6  UNL     1      -0.541  36.391 -26.392  1.00  0.00    -0.066 N 
ATOM     15  H62 UNL     1      -0.222  36.442 -27.359  1.00  0.00     0.278 HD
ATOM     16  H61 UNL     1      -1.461  35.991 -26.574  1.00  0.00     0.278 HD
HETATM   17  C13 UNL     1       0.755  39.852 -24.594  1.00  0.00     0.225 C 
BRANCH  17  18
HETATM   18  N7  UNL     1       1.503  40.826 -23.850  1.00  0.00     0.102 N 
HETATM   19  C14 UNL     1       0.829  42.101 -24.005  1.00  0.00     0.284 C 
HETATM   20  C15 UNL     1       1.575  43.087 -23.099  1.00  0.00     0.105 C 
HETATM   21  S1  UNL     1       3.293  42.566 -23.503  1.00  0.00    -0.138 SA
HETATM   22  C16 UNL     1       2.858  40.992 -24.354  1.00  0.00     0.347 C 
ENDBRANCH  17  18
ENDBRANCH   7   8
BRANCH   1  23
HETATM   23  C4  UNL     1       1.310  33.294 -23.548  1.00  0.00     0.274 C 
HETATM   24  N3  UNL     1       2.253  33.128 -24.587  1.00  0.00    -0.318 N 
ATOM     25  H3  UNL     1       1.947  33.260 -25.551  1.00  0.00     0.169 HD
HETATM   26  O1  UNL     1       1.596  33.151 -22.342  1.00  0.00    -0.266 OA
BRANCH  24  27
HETATM   27  C3  UNL     1       3.596  32.788 -24.348  1.00  0.00     0.092 A 
HETATM   28  C2  UNL     1       4.569  33.459 -23.658  1.00  0.00     0.140 A 
HETATM   29  N2  UNL     1       5.706  32.721 -23.712  1.00  0.00    -0.307 N 
HETATM   30  N1  UNL     1       5.516  31.617 -24.396  1.00  0.00    -0.284 N 
ATOM     31  H2  UNL     1       6.591  32.989 -23.279  1.00  0.00     0.186 HD
HETATM   32  C1  UNL     1       6.479  30.554 -24.691  1.00  0.00     0.179 C 
HETATM   33  C18 UNL     1       4.241  31.622 -24.799  1.00  0.00     0.148 A 
HETATM   34 CL1  UNL     1       3.481  30.372 -25.746  1.00  0.00    -0.060 Cl
ENDBRANCH  24  27
ENDBRANCH   1  23
TORSDOF 4
ENDMDL
MODEL 3
REMARK VINA RESULT: -8.078522924      3.471      6.995
REMARK  4 active torsions:
REMARK  status: ('A' for Active; 'I' for Inactive)
REMARK    1  A    between atoms: C3_6  and  N3_7 
REMARK       I    between atoms: N3_7  and  C4_9 
REMARK    2  A    between atoms: C4_9  and  C5_11 
REMARK    3  A    between atoms: C7_17  and  C8_18 
REMARK    4  A    between atoms: C13_26  and  N7_27 
ROOT
HETATM    1  C5  UNL     1      -1.367  34.324 -24.294  1.00  0.00     0.126 A 
HETATM    2  N4  UNL     1      -2.617  33.857 -24.512  1.00  0.00    -0.295 N 
ATOM      3  H4  UNL     1      -3.267  34.245 -25.196  1.00  0.00     0.187 HD
HETATM    4  N5  UNL     1      -2.884  32.834 -23.723  1.00  0.00    -0.311 N 
ATOM      5  H5  UNL     1      -3.752  32.301 -23.686  1.00  0.00     0.186 HD
HETATM    6  C6  UNL     1      -1.775  32.634 -22.975  1.00  0.00     0.118 A 
HETATM    7  C7  UNL     1      -0.808  33.555 -23.313  1.00  0.00     0.023 A 
ENDROOT
BRANCH   7   8
HETATM    8  C8  UNL     1       0.519  33.676 -22.702  1.00  0.00     0.223 C 
HETATM    9  C9  UNL     1       1.625  33.870 -23.717  1.00  0.00     0.049 C 
HETATM   10  C10 UNL     1       2.428  32.632 -23.650  1.00  0.00    -0.010 C 
HETATM   11  C11 UNL     1       1.755  31.683 -22.723  1.00  0.00     0.242 C 
HETATM   12  C12 UNL     1       3.924  32.795 -23.449  1.00  0.00     0.047 C 
HETATM   13  C17 UNL     1       2.778  31.971 -24.986  1.00  0.00     0.047 C 
HETATM   14  N6  UNL     1       0.863  32.496 -21.921  1.00  0.00    -0.066 N 
ATOM     15  H62 UNL     1       1.251  32.725 -21.006  1.00  0.00     0.278 HD
ATOM     16  H61 UNL     1       0.044  31.983 -21.596  1.00  0.00     0.278 HD
HETATM   17  C13 UNL     1       4.075  31.528 -24.293  1.00  0.00     0.225 C 
BRANCH  17  18
HETATM   18  N7  UNL     1       5.160  31.566 -25.233  1.00  0.00     0.102 N 
HETATM   19  C14 UNL     1       5.157  30.306 -25.953  1.00  0.00     0.284 C 
HETATM   20  C15 UNL     1       6.239  30.431 -27.031  1.00  0.00     0.105 C 
HETATM   21  S1  UNL     1       7.537  31.239 -26.007  1.00  0.00    -0.138 SA
HETATM   22  C16 UNL     1       6.456  31.686 -24.584  1.00  0.00     0.347 C 
ENDBRANCH  17  18
ENDBRANCH   7   8
BRANCH   1  23
HETATM   23  C4  UNL     1      -0.753  35.451 -25.013  1.00  0.00     0.274 C 
HETATM   24  N3  UNL     1      -0.565  35.363 -26.410  1.00  0.00    -0.318 N 
ATOM     25  H3  UNL     1      -0.861  34.513 -26.890  1.00  0.00     0.169 HD
HETATM   26  O1  UNL     1      -0.422  36.452 -24.344  1.00  0.00    -0.266 OA
BRANCH  24  27
HETATM   27  C3  UNL     1       0.012  36.397 -27.166  1.00  0.00     0.092 A 
HETATM   28  C2  UNL     1      -0.536  37.200 -28.130  1.00  0.00     0.140 A 
HETATM   29  N2  UNL     1       0.428  38.047 -28.568  1.00  0.00    -0.307 N 
HETATM   30  N1  UNL     1       1.561  37.834 -27.939  1.00  0.00    -0.284 N 
ATOM     31  H2  UNL     1       0.292  38.756 -29.290  1.00  0.00     0.186 HD
HETATM   32  C1  UNL     1       2.841  38.524 -28.112  1.00  0.00     0.179 C 
HETATM   33  C18 UNL     1       1.345  36.835 -27.077  1.00  0.00     0.148 A 
HETATM   34 CL1  UNL     1       2.538  36.166 -25.994  1.00  0.00    -0.060 Cl
ENDBRANCH  24  27
ENDBRANCH   1  23
TORSDOF 4
ENDMDL
MODEL 4
REMARK VINA RESULT: -7.963933442      1.798      2.092
REMARK  4 active torsions:
REMARK  status: ('A' for Active; 'I' for Inactive)
REMARK    1  A    between atoms: C3_6  and  N3_7 
REMARK       I    between atoms: N3_7  and  C4_9 
REMARK    2  A    between atoms: C4_9  and  C5_11 
REMARK    3  A    between atoms: C7_17  and  C8_18 
REMARK    4  A    between atoms: C13_26  and  N7_27 
ROOT
HETATM    1  C5  UNL     1       0.937  33.197 -23.203  1.00  0.00     0.126 A 
HETATM    2  N4  UNL     1       0.187  32.439 -22.371  1.00  0.00    -0.295 N 
ATOM      3  H4  UNL     1       0.567  31.790 -21.682  1.00  0.00     0.187 HD
HETATM    4  N5  UNL     1      -1.099  32.653 -22.569  1.00  0.00    -0.311 N 
ATOM      5  H5  UNL     1      -1.875  32.211 -22.076  1.00  0.00     0.186 HD
HETATM    6  C6  UNL     1      -1.182  33.574 -23.557  1.00  0.00     0.118 A 
HETATM    7  C7  UNL     1       0.081  33.932 -23.972  1.00  0.00     0.023 A 
ENDROOT
BRANCH   7   8
HETATM    8  C8  UNL     1       0.399  34.882 -25.042  1.00  0.00     0.223 C 
HETATM    9  C9  UNL     1       1.820  35.400 -24.972  1.00  0.00     0.049 C 
HETATM   10  C10 UNL     1       1.689  36.832 -24.636  1.00  0.00    -0.010 C 
HETATM   11  C11 UNL     1       0.252  37.129 -24.388  1.00  0.00     0.242 C 
HETATM   12  C12 UNL     1       2.416  37.817 -25.532  1.00  0.00     0.047 C 
HETATM   13  C17 UNL     1       2.580  37.352 -23.504  1.00  0.00     0.047 C 
HETATM   14  N6  UNL     1      -0.477  36.043 -25.011  1.00  0.00    -0.066 N 
ATOM     15  H62 UNL     1      -0.843  36.289 -25.931  1.00  0.00     0.278 HD
ATOM     16  H61 UNL     1      -1.371  35.854 -24.557  1.00  0.00     0.278 HD
HETATM   17  C13 UNL     1       2.589  38.679 -24.279  1.00  0.00     0.225 C 
BRANCH  17  18
HETATM   18  N7  UNL     1       3.878  39.300 -24.157  1.00  0.00     0.102 N 
HETATM   19  C14 UNL     1       3.938  39.922 -22.848  1.00  0.00     0.284 C 
HETATM   20  C15 UNL     1       5.366  40.461 -22.701  1.00  0.00     0.105 C 
HETATM   21  S1  UNL     1       5.555  41.167 -24.389  1.00  0.00    -0.138 SA
HETATM   22  C16 UNL     1       4.086  40.350 -25.142  1.00  0.00     0.347 C 
ENDBRANCH  17  18
ENDBRANCH   7   8
BRANCH   1  23
HETATM   23  C4  UNL     1       2.408  33.206 -23.234  1.00  0.00     0.274 C 
HETATM   24  N3  UNL     1       3.085  32.440 -24.209  1.00  0.00    -0.318 N 
ATOM     25  H3  UNL     1       2.534  31.895 -24.872  1.00  0.00     0.169 HD
HETATM   26  O1  UNL     1       3.001  33.901 -22.385  1.00  0.00    -0.266 OA
BRANCH  24  27
HETATM   27  C3  UNL     1       4.487  32.397 -24.304  1.00  0.00     0.092 A 
HETATM   28  C2  UNL     1       5.410  33.403 -24.214  1.00  0.00     0.140 A 
HETATM   29  N2  UNL     1       6.642  32.858 -24.376  1.00  0.00    -0.307 N 
HETATM   30  N1  UNL     1       6.559  31.560 -24.562  1.00  0.00    -0.284 N 
ATOM     31  H2  UNL     1       7.516  33.385 -24.355  1.00  0.00     0.186 HD
HETATM   32  C1  UNL     1       7.645  30.602 -24.776  1.00  0.00     0.179 C 
HETATM   33  C18 UNL     1       5.261  31.243 -24.524  1.00  0.00     0.148 A 
HETATM   34 CL1  UNL     1       4.612  29.637 -24.719  1.00  0.00    -0.060 Cl
ENDBRANCH  24  27
ENDBRANCH   1  23
TORSDOF 4
ENDMDL
MODEL 5
REMARK VINA RESULT: -7.962550687      6.197      9.701
REMARK  4 active torsions:
REMARK  status: ('A' for Active; 'I' for Inactive)
REMARK    1  A    between atoms: C3_6  and  N3_7 
REMARK       I    between atoms: N3_7  and  C4_9 
REMARK    2  A    between atoms: C4_9  and  C5_11 
REMARK    3  A    between atoms: C7_17  and  C8_18 
REMARK    4  A    between atoms: C13_26  and  N7_27 
ROOT
HETATM    1  C5  UNL     1       1.891  38.540 -29.958  1.00  0.00     0.126 A 
HETATM    2  N4  UNL     1       3.148  38.183 -30.305  1.00  0.00    -0.295 N 
ATOM      3  H4  UNL     1       3.627  38.499 -31.148  1.00  0.00     0.187 HD
HETATM    4  N5  UNL     1       3.673  37.371 -29.407  1.00  0.00    -0.311 N 
ATOM      5  H5  UNL     1       4.604  36.956 -29.428  1.00  0.00     0.186 HD
HETATM    6  C6  UNL     1       2.728  37.199 -28.454  1.00  0.00     0.118 A 
HETATM    7  C7  UNL     1       1.601  37.922 -28.775  1.00  0.00     0.023 A 
ENDROOT
BRANCH   7   8
HETATM    8  C8  UNL     1       0.356  37.966 -28.002  1.00  0.00     0.223 C 
HETATM    9  C9  UNL     1       0.536  37.533 -26.563  1.00  0.00     0.049 C 
HETATM   10  C10 UNL     1      -0.210  36.263 -26.449  1.00  0.00    -0.010 C 
HETATM   11  C11 UNL     1      -0.707  35.886 -27.800  1.00  0.00     0.242 C 
HETATM   12  C12 UNL     1      -1.224  36.160 -25.325  1.00  0.00     0.047 C 
HETATM   13  C17 UNL     1       0.520  35.102 -25.768  1.00  0.00     0.047 C 
HETATM   14  N6  UNL     1      -0.668  37.107 -28.578  1.00  0.00    -0.066 N 
ATOM     15  H62 UNL     1      -1.578  37.564 -28.645  1.00  0.00     0.278 HD
ATOM     16  H61 UNL     1      -0.529  36.938 -29.575  1.00  0.00     0.278 HD
HETATM   17  C13 UNL     1      -0.870  34.672 -25.275  1.00  0.00     0.225 C 
BRANCH  17  18
HETATM   18  N7  UNL     1      -0.766  34.129 -23.950  1.00  0.00     0.102 N 
HETATM   19  C14 UNL     1       0.155  33.010 -24.010  1.00  0.00     0.284 C 
HETATM   20  C15 UNL     1       0.343  32.539 -22.563  1.00  0.00     0.105 C 
HETATM   21  S1  UNL     1      -1.414  32.636 -22.025  1.00  0.00    -0.138 SA
HETATM   22  C16 UNL     1      -2.034  33.616 -23.456  1.00  0.00     0.347 C 
ENDBRANCH  17  18
ENDBRANCH   7   8
BRANCH   1  23
HETATM   23  C4  UNL     1       1.029  39.443 -30.737  1.00  0.00     0.274 C 
HETATM   24  N3  UNL     1       1.620  40.427 -31.559  1.00  0.00    -0.318 N 
ATOM     25  H3  UNL     1       2.638  40.489 -31.593  1.00  0.00     0.169 HD
HETATM   26  O1  UNL     1      -0.206  39.295 -30.634  1.00  0.00    -0.266 OA
BRANCH  24  27
HETATM   27  C3  UNL     1       0.866  41.325 -32.333  1.00  0.00     0.092 A 
HETATM   28  C2  UNL     1       0.117  41.110 -33.458  1.00  0.00     0.140 A 
HETATM   29  N2  UNL     1      -0.421  42.296 -33.838  1.00  0.00    -0.307 N 
HETATM   30  N1  UNL     1      -0.060  43.257 -33.020  1.00  0.00    -0.284 N 
ATOM     31  H2  UNL     1      -1.025  42.424 -34.651  1.00  0.00     0.186 HD
HETATM   32  C1  UNL     1      -0.417  44.676 -33.071  1.00  0.00     0.179 C 
HETATM   33  C18 UNL     1       0.724  42.703 -32.089  1.00  0.00     0.148 A 
HETATM   34 CL1  UNL     1       1.469  43.556 -30.763  1.00  0.00    -0.060 Cl
ENDBRANCH  24  27
ENDBRANCH   1  23
TORSDOF 4
ENDMDL
