MODEL 1
REMARK VINA RESULT: -7.602473066      0.000      0.000
REMARK  9 active torsions:
REMARK  status: ('A' for Active; 'I' for Inactive)
REMARK    1  A    between atoms: C2_2  and  C3_4 
REMARK    2  A    between atoms: C3_4  and  N1_5 
REMARK    3  A    between atoms: C4_6  and  C5_7 
REMARK    4  A    between atoms: C7_10  and  O2_11 
REMARK    5  A    between atoms: C8_13  and  O3_14 
REMARK    6  A    between atoms: C9_16  and  O4_17 
REMARK    7  A    between atoms: N2_19  and  C10_20 
REMARK    8  A    between atoms: C10_20  and  C11_21 
REMARK    9  A    between atoms: C11_21  and  C12_22 
ROOT
HETATM    1  N1  UNL     1       1.066  34.488 -24.308  1.00  0.00    -0.295 N 
HETATM    2  C4  UNL     1       1.455  35.739 -24.404  1.00  0.00     0.099 A 
HETATM    3  C9  UNL     1       2.807  35.803 -23.951  1.00  0.00     0.172 A 
HETATM    4  N2  UNL     1       3.172  34.570 -23.593  1.00  0.00    -0.278 N 
HETATM    5  C17 UNL     1       2.130  33.774 -23.804  1.00  0.00     0.331 A 
HETATM    6  O5  UNL     1       2.111  32.552 -23.581  1.00  0.00    -0.246 OA
ENDROOT
BRANCH   2   7
HETATM    7  C5  UNL     1       0.818  36.973 -24.851  1.00  0.00     0.207 C 
HETATM    8  O1  UNL     1       1.555  37.689 -25.770  1.00  0.00    -0.374 OA
HETATM    9  C6  UNL     1       1.342  39.030 -25.586  1.00  0.00     0.203 C 
HETATM   10  C7  UNL     1       0.019  39.115 -24.856  1.00  0.00     0.173 C 
HETATM   11  C8  UNL     1       0.294  37.930 -23.851  1.00  0.00     0.184 C 
BRANCH  10  12
HETATM   12  O2  UNL     1      -0.983  38.777 -25.732  1.00  0.00    -0.391 OA
ATOM     13  H2  UNL     1      -1.725  38.459 -25.231  1.00  0.00     0.210 HD
ENDBRANCH  10  12
BRANCH  11  14
HETATM   14  O3  UNL     1       1.255  38.486 -23.004  1.00  0.00    -0.390 OA
ATOM     15  H3  UNL     1       1.572  37.908 -22.320  1.00  0.00     0.210 HD
ENDBRANCH  11  14
ENDBRANCH   2   7
BRANCH   1  16
HETATM   16  C3  UNL     1      -0.135  33.833 -24.700  1.00  0.00     0.149 C 
BRANCH  16  17
HETATM   17  C2  UNL     1      -1.351  34.147 -23.873  1.00  0.00     0.072 C 
HETATM   18  C1  UNL     1      -2.491  34.340 -24.889  1.00  0.00     0.023 C 
HETATM   19 BR1  UNL     1      -1.909  32.756 -22.684  1.00  0.00    -0.090 Br
ENDBRANCH  16  17
ENDBRANCH   1  16
BRANCH   3  20
HETATM   20  O4  UNL     1       3.618  36.925 -23.882  1.00  0.00    -0.344 OA
ATOM     21  H4  UNL     1       4.566  36.954 -23.930  1.00  0.00     0.219 HD
ENDBRANCH   3  20
BRANCH   4  22
HETATM   22  C10 UNL     1       4.490  34.191 -23.073  1.00  0.00     0.136 C 
BRANCH  22  23
HETATM   23  C11 UNL     1       5.417  33.747 -24.180  1.00  0.00     0.025 C 
BRANCH  23  24
HETATM   24  C12 UNL     1       5.697  32.292 -24.000  1.00  0.00    -0.013 C 
HETATM   25  C13 UNL     1       4.979  31.395 -24.969  1.00  0.00     0.005 C 
HETATM   26  C14 UNL     1       5.769  30.109 -24.870  1.00  0.00     0.000 C 
HETATM   27  C15 UNL     1       7.196  30.508 -24.571  1.00  0.00     0.000 C 
HETATM   28  C16 UNL     1       7.150  32.020 -24.362  1.00  0.00     0.005 C 
ENDBRANCH  23  24
ENDBRANCH  22  23
ENDBRANCH   4  22
TORSDOF 9
ENDMDL
MODEL 2
REMARK VINA RESULT: -7.564487336      2.130      2.239
REMARK  9 active torsions:
REMARK  status: ('A' for Active; 'I' for Inactive)
REMARK    1  A    between atoms: C2_2  and  C3_4 
REMARK    2  A    between atoms: C3_4  and  N1_5 
REMARK    3  A    between atoms: C4_6  and  C5_7 
REMARK    4  A    between atoms: C7_10  and  O2_11 
REMARK    5  A    between atoms: C8_13  and  O3_14 
REMARK    6  A    between atoms: C9_16  and  O4_17 
REMARK    7  A    between atoms: N2_19  and  C10_20 
REMARK    8  A    between atoms: C10_20  and  C11_21 
REMARK    9  A    between atoms: C11_21  and  C12_22 
ROOT
HETATM    1  N1  UNL     1       0.709  35.811 -24.751  1.00  0.00    -0.295 N 
HETATM    2  C4  UNL     1       1.562  36.746 -24.397  1.00  0.00     0.099 A 
HETATM    3  C9  UNL     1       2.679  36.098 -23.789  1.00  0.00     0.172 A 
HETATM    4  N2  UNL     1       2.442  34.785 -23.802  1.00  0.00    -0.278 N 
HETATM    5  C17 UNL     1       1.258  34.604 -24.378  1.00  0.00     0.331 A 
HETATM    6  O5  UNL     1       0.715  33.502 -24.560  1.00  0.00    -0.246 OA
ENDROOT
BRANCH   2   7
HETATM    7  C5  UNL     1       1.580  38.201 -24.499  1.00  0.00     0.207 C 
HETATM    8  O1  UNL     1       2.711  38.711 -25.099  1.00  0.00    -0.374 OA
HETATM    9  C6  UNL     1       3.023  39.921 -24.538  1.00  0.00     0.203 C 
HETATM   10  C7  UNL     1       1.729  40.408 -23.921  1.00  0.00     0.173 C 
HETATM   11  C8  UNL     1       1.295  39.022 -23.301  1.00  0.00     0.184 C 
BRANCH  10  12
HETATM   12  O2  UNL     1       0.875  40.767 -24.935  1.00  0.00    -0.391 OA
ATOM     13  H2  UNL     1       0.937  41.707 -25.060  1.00  0.00     0.210 HD
ENDBRANCH  10  12
BRANCH  11  14
HETATM   14  O3  UNL     1       2.207  38.877 -22.254  1.00  0.00    -0.390 OA
ATOM     15  H3  UNL     1       2.755  39.636 -22.089  1.00  0.00     0.210 HD
ENDBRANCH  11  14
ENDBRANCH   2   7
BRANCH   1  16
HETATM   16  C3  UNL     1      -0.517  35.866 -25.471  1.00  0.00     0.149 C 
BRANCH  16  17
HETATM   17  C2  UNL     1      -0.399  36.117 -26.948  1.00  0.00     0.072 C 
HETATM   18  C1  UNL     1      -1.504  35.259 -27.592  1.00  0.00     0.023 C 
HETATM   19 BR1  UNL     1      -0.718  37.921 -27.497  1.00  0.00    -0.090 Br
ENDBRANCH  16  17
ENDBRANCH   1  16
BRANCH   3  20
HETATM   20  O4  UNL     1       3.817  36.696 -23.270  1.00  0.00    -0.344 OA
ATOM     21  H4  UNL     1       4.239  36.508 -22.440  1.00  0.00     0.219 HD
ENDBRANCH   3  20
BRANCH   4  22
HETATM   22  C10 UNL     1       3.341  33.752 -23.277  1.00  0.00     0.136 C 
BRANCH  22  23
HETATM   23  C11 UNL     1       4.433  33.413 -24.264  1.00  0.00     0.025 C 
BRANCH  23  24
HETATM   24  C12 UNL     1       4.797  31.976 -24.082  1.00  0.00    -0.013 C 
HETATM   25  C13 UNL     1       3.910  31.012 -24.818  1.00  0.00     0.005 C 
HETATM   26  C14 UNL     1       4.746  29.751 -24.840  1.00  0.00     0.000 C 
HETATM   27  C15 UNL     1       6.189  30.199 -24.892  1.00  0.00     0.000 C 
HETATM   28  C16 UNL     1       6.139  31.719 -24.752  1.00  0.00     0.005 C 
ENDBRANCH  23  24
ENDBRANCH  22  23
ENDBRANCH   4  22
TORSDOF 9
ENDMDL
MODEL 3
REMARK VINA RESULT: -7.487244451      2.254      2.735
REMARK  9 active torsions:
REMARK  status: ('A' for Active; 'I' for Inactive)
REMARK    1  A    between atoms: C2_2  and  C3_4 
REMARK    2  A    between atoms: C3_4  and  N1_5 
REMARK    3  A    between atoms: C4_6  and  C5_7 
REMARK    4  A    between atoms: C7_10  and  O2_11 
REMARK    5  A    between atoms: C8_13  and  O3_14 
REMARK    6  A    between atoms: C9_16  and  O4_17 
REMARK    7  A    between atoms: N2_19  and  C10_20 
REMARK    8  A    between atoms: C10_20  and  C11_21 
REMARK    9  A    between atoms: C11_21  and  C12_22 
ROOT
HETATM    1  N1  UNL     1       0.366  35.358 -24.729  1.00  0.00    -0.295 N 
HETATM    2  C4  UNL     1       1.459  35.897 -24.241  1.00  0.00     0.099 A 
HETATM    3  C9  UNL     1       2.236  34.846 -23.668  1.00  0.00     0.172 A 
HETATM    4  N2  UNL     1       1.562  33.707 -23.837  1.00  0.00    -0.278 N 
HETATM    5  C17 UNL     1       0.435  34.007 -24.473  1.00  0.00     0.331 A 
HETATM    6  O5  UNL     1      -0.440  33.186 -24.798  1.00  0.00    -0.246 OA
ENDROOT
BRANCH   2   7
HETATM    7  C5  UNL     1       1.986  37.256 -24.178  1.00  0.00     0.207 C 
HETATM    8  O1  UNL     1       2.765  37.511 -23.070  1.00  0.00    -0.374 OA
HETATM    9  C6  UNL     1       2.600  38.814 -22.682  1.00  0.00     0.203 C 
HETATM   10  C7  UNL     1       2.092  39.525 -23.918  1.00  0.00     0.173 C 
HETATM   11  C8  UNL     1       1.071  38.405 -24.360  1.00  0.00     0.184 C 
BRANCH  10  12
HETATM   12  O2  UNL     1       3.124  39.616 -24.820  1.00  0.00    -0.391 OA
ATOM     13  H2  UNL     1       3.832  40.105 -24.417  1.00  0.00     0.210 HD
ENDBRANCH  10  12
BRANCH  11  14
HETATM   14  O3  UNL     1       0.073  38.525 -23.391  1.00  0.00    -0.390 OA
ATOM     15  H3  UNL     1       0.375  38.456 -22.492  1.00  0.00     0.210 HD
ENDBRANCH  11  14
ENDBRANCH   2   7
BRANCH   1  16
HETATM   16  C3  UNL     1      -0.709  35.906 -25.484  1.00  0.00     0.149 C 
BRANCH  16  17
HETATM   17  C2  UNL     1      -0.468  36.048 -26.961  1.00  0.00     0.072 C 
HETATM   18  C1  UNL     1      -1.544  35.175 -27.631  1.00  0.00     0.023 C 
HETATM   19 BR1  UNL     1      -0.688  37.816 -27.656  1.00  0.00    -0.090 Br
ENDBRANCH  16  17
ENDBRANCH   1  16
BRANCH   3  20
HETATM   20  O4  UNL     1       3.469  34.956 -23.043  1.00  0.00    -0.344 OA
ATOM     21  H4  UNL     1       3.768  34.486 -22.274  1.00  0.00     0.219 HD
ENDBRANCH   3  20
BRANCH   4  22
HETATM   22  C10 UNL     1       2.008  32.381 -23.397  1.00  0.00     0.136 C 
BRANCH  22  23
HETATM   23  C11 UNL     1       2.516  31.554 -24.555  1.00  0.00     0.025 C 
BRANCH  23  24
HETATM   24  C12 UNL     1       3.869  31.033 -24.198  1.00  0.00    -0.013 C 
HETATM   25  C13 UNL     1       4.404  29.993 -25.142  1.00  0.00     0.005 C 
HETATM   26  C14 UNL     1       5.884  29.999 -24.828  1.00  0.00     0.000 C 
HETATM   27  C15 UNL     1       6.227  31.413 -24.421  1.00  0.00     0.000 C 
HETATM   28  C16 UNL     1       4.889  32.149 -24.374  1.00  0.00     0.005 C 
ENDBRANCH  23  24
ENDBRANCH  22  23
ENDBRANCH   4  22
TORSDOF 9
ENDMDL
MODEL 4
REMARK VINA RESULT: -7.404777220      1.695      2.666
REMARK  9 active torsions:
REMARK  status: ('A' for Active; 'I' for Inactive)
REMARK    1  A    between atoms: C2_2  and  C3_4 
REMARK    2  A    between atoms: C3_4  and  N1_5 
REMARK    3  A    between atoms: C4_6  and  C5_7 
REMARK    4  A    between atoms: C7_10  and  O2_11 
REMARK    5  A    between atoms: C8_13  and  O3_14 
REMARK    6  A    between atoms: C9_16  and  O4_17 
REMARK    7  A    between atoms: N2_19  and  C10_20 
REMARK    8  A    between atoms: C10_20  and  C11_21 
REMARK    9  A    between atoms: C11_21  and  C12_22 
ROOT
HETATM    1  N1  UNL     1       1.222  33.132 -24.502  1.00  0.00    -0.295 N 
HETATM    2  C4  UNL     1       2.250  33.949 -24.458  1.00  0.00     0.099 A 
HETATM    3  C9  UNL     1       3.430  33.149 -24.390  1.00  0.00     0.172 A 
HETATM    4  N2  UNL     1       3.052  31.869 -24.391  1.00  0.00    -0.278 N 
HETATM    5  C17 UNL     1       1.725  31.850 -24.456  1.00  0.00     0.331 A 
HETATM    6  O5  UNL     1       1.027  30.823 -24.476  1.00  0.00    -0.246 OA
ENDROOT
BRANCH   2   7
HETATM    7  C5  UNL     1       2.400  35.400 -24.466  1.00  0.00     0.207 C 
HETATM    8  O1  UNL     1       1.676  36.049 -23.490  1.00  0.00    -0.374 OA
HETATM    9  C6  UNL     1       1.260  37.266 -23.958  1.00  0.00     0.203 C 
HETATM   10  C7  UNL     1       2.209  37.590 -25.092  1.00  0.00     0.173 C 
HETATM   11  C8  UNL     1       2.222  36.147 -25.731  1.00  0.00     0.184 C 
BRANCH  10  12
HETATM   12  O2  UNL     1       3.438  37.888 -24.556  1.00  0.00    -0.391 OA
ATOM     13  H2  UNL     1       3.914  38.427 -25.177  1.00  0.00     0.210 HD
ENDBRANCH  10  12
BRANCH  11  14
HETATM   14  O3  UNL     1       0.944  36.068 -26.290  1.00  0.00    -0.390 OA
ATOM     15  H3  UNL     1       0.765  36.701 -26.976  1.00  0.00     0.210 HD
ENDBRANCH  11  14
ENDBRANCH   2   7
BRANCH   1  16
HETATM   16  C3  UNL     1      -0.172  33.366 -24.667  1.00  0.00     0.149 C 
BRANCH  16  17
HETATM   17  C2  UNL     1      -0.920  33.765 -23.425  1.00  0.00     0.072 C 
HETATM   18  C1  UNL     1      -2.399  33.829 -23.849  1.00  0.00     0.023 C 
HETATM   19 BR1  UNL     1      -0.821  32.518 -21.978  1.00  0.00    -0.090 Br
ENDBRANCH  16  17
ENDBRANCH   1  16
BRANCH   3  20
HETATM   20  O4  UNL     1       4.743  33.591 -24.332  1.00  0.00    -0.344 OA
ATOM     21  H4  UNL     1       5.488  33.135 -23.960  1.00  0.00     0.219 HD
ENDBRANCH   3  20
BRANCH   4  22
HETATM   22  C10 UNL     1       3.955  30.715 -24.335  1.00  0.00     0.136 C 
BRANCH  22  23
HETATM   23  C11 UNL     1       4.203  30.138 -25.709  1.00  0.00     0.025 C 
BRANCH  23  24
HETATM   24  C12 UNL     1       5.680  30.060 -25.922  1.00  0.00    -0.013 C 
HETATM   25  C13 UNL     1       6.242  31.151 -26.789  1.00  0.00     0.005 C 
HETATM   26  C14 UNL     1       7.718  31.101 -26.458  1.00  0.00     0.000 C 
HETATM   27  C15 UNL     1       7.816  30.665 -25.015  1.00  0.00     0.000 C 
HETATM   28  C16 UNL     1       6.384  30.335 -24.601  1.00  0.00     0.005 C 
ENDBRANCH  23  24
ENDBRANCH  22  23
ENDBRANCH   4  22
TORSDOF 9
ENDMDL
MODEL 5
REMARK VINA RESULT: -7.258226848      2.771      4.109
REMARK  9 active torsions:
REMARK  status: ('A' for Active; 'I' for Inactive)
REMARK    1  A    between atoms: C2_2  and  C3_4 
REMARK    2  A    between atoms: C3_4  and  N1_5 
REMARK    3  A    between atoms: C4_6  and  C5_7 
REMARK    4  A    between atoms: C7_10  and  O2_11 
REMARK    5  A    between atoms: C8_13  and  O3_14 
REMARK    6  A    between atoms: C9_16  and  O4_17 
REMARK    7  A    between atoms: N2_19  and  C10_20 
REMARK    8  A    between atoms: C10_20  and  C11_21 
REMARK    9  A    between atoms: C11_21  and  C12_22 
ROOT
HETATM    1  N1  UNL     1       3.370  37.271 -23.271  1.00  0.00    -0.295 N 
HETATM    2  C4  UNL     1       2.374  36.663 -23.874  1.00  0.00     0.099 A 
HETATM    3  C9  UNL     1       2.684  35.270 -23.916  1.00  0.00     0.172 A 
HETATM    4  N2  UNL     1       3.872  35.103 -23.332  1.00  0.00    -0.278 N 
HETATM    5  C17 UNL     1       4.292  36.302 -22.942  1.00  0.00     0.331 A 
HETATM    6  O5  UNL     1       5.366  36.526 -22.359  1.00  0.00    -0.246 OA
ENDROOT
BRANCH   2   7
HETATM    7  C5  UNL     1       1.114  37.106 -24.461  1.00  0.00     0.207 C 
HETATM    8  O1  UNL     1       0.098  36.178 -24.385  1.00  0.00    -0.374 OA
HETATM    9  C6  UNL     1      -0.707  36.286 -25.488  1.00  0.00     0.203 C 
HETATM   10  C7  UNL     1      -0.465  37.687 -26.009  1.00  0.00     0.173 C 
HETATM   11  C8  UNL     1       1.103  37.676 -25.827  1.00  0.00     0.184 C 
BRANCH  10  12
HETATM   12  O2  UNL     1      -1.042  38.578 -25.138  1.00  0.00    -0.391 OA
ATOM     13  H2  UNL     1      -0.351  39.082 -24.723  1.00  0.00     0.210 HD
ENDBRANCH  10  12
BRANCH  11  14
HETATM   14  O3  UNL     1       1.504  36.799 -26.837  1.00  0.00    -0.390 OA
ATOM     15  H3  UNL     1       1.269  37.066 -27.718  1.00  0.00     0.210 HD
ENDBRANCH  11  14
ENDBRANCH   2   7
BRANCH   1  16
HETATM   16  C3  UNL     1       3.557  38.624 -22.874  1.00  0.00     0.149 C 
BRANCH  16  17
HETATM   17  C2  UNL     1       4.285  39.500 -23.856  1.00  0.00     0.072 C 
HETATM   18  C1  UNL     1       3.227  40.489 -24.376  1.00  0.00     0.023 C 
HETATM   19 BR1  UNL     1       5.700  40.553 -23.116  1.00  0.00    -0.090 Br
ENDBRANCH  16  17
ENDBRANCH   1  16
BRANCH   3  20
HETATM   20  O4  UNL     1       1.913  34.253 -24.458  1.00  0.00    -0.344 OA
ATOM     21  H4  UNL     1       2.178  33.615 -25.110  1.00  0.00     0.219 HD
ENDBRANCH   3  20
BRANCH   4  22
HETATM   22  C10 UNL     1       4.562  33.820 -23.158  1.00  0.00     0.136 C 
BRANCH  22  23
HETATM   23  C11 UNL     1       5.654  33.634 -24.185  1.00  0.00     0.025 C 
BRANCH  23  24
HETATM   24  C12 UNL     1       5.465  32.300 -24.830  1.00  0.00    -0.013 C 
HETATM   25  C13 UNL     1       6.527  31.291 -24.494  1.00  0.00     0.005 C 
HETATM   26  C14 UNL     1       5.865  29.984 -24.871  1.00  0.00     0.000 C 
HETATM   27  C15 UNL     1       4.386  30.168 -24.621  1.00  0.00     0.000 C 
HETATM   28  C16 UNL     1       4.227  31.639 -24.241  1.00  0.00     0.005 C 
ENDBRANCH  23  24
ENDBRANCH  22  23
ENDBRANCH   4  22
TORSDOF 9
ENDMDL
