MODEL 1
REMARK VINA RESULT: -8.754956443      0.000      0.000
REMARK  5 active torsions:
REMARK  status: ('A' for Active; 'I' for Inactive)
REMARK    1  A    between atoms: C2_2  and  C3_3 
REMARK    2  A    between atoms: C14_17  and  S1_18 
REMARK    3  A    between atoms: S1_18  and  C15_19 
REMARK    4  A    between atoms: C15_19  and  C16_20 
REMARK    5  A    between atoms: C16_20  and  C17_21 
ROOT
HETATM    1  C3  UNL     1     -34.838  -8.289  27.417  1.00  0.00     0.058 C 
HETATM    2  C4  UNL     1     -35.537  -7.882  26.170  1.00  0.00     0.106 C 
HETATM    3  C5  UNL     1     -34.629  -8.457  25.090  1.00  0.00     0.054 C 
HETATM    4  C6  UNL     1     -33.228  -8.356  25.597  1.00  0.00    -0.008 C 
HETATM    5  C7  UNL     1     -32.597  -7.069  25.122  1.00  0.00     0.018 C 
HETATM    6  C8  UNL     1     -32.437  -9.566  25.213  1.00  0.00     0.038 C 
HETATM    7  C9  UNL     1     -32.616 -10.459  26.420  1.00  0.00     0.169 C 
HETATM    8  O1  UNL     1     -32.904  -9.669  27.499  1.00  0.00    -0.379 OA
HETATM    9  C10 UNL     1     -33.362  -8.452  27.078  1.00  0.00     0.071 C 
HETATM   10  C11 UNL     1     -32.517  -7.371  27.764  1.00  0.00     0.047 C 
HETATM   11  O2  UNL     1     -35.670  -6.503  26.034  1.00  0.00    -0.347 OA
HETATM   12  C12 UNL     1     -36.770  -6.436  25.161  1.00  0.00     0.258 C 
HETATM   13  C13 UNL     1     -37.326  -5.034  25.094  1.00  0.00     0.071 C 
HETATM   14  O3  UNL     1     -37.682  -7.257  25.816  1.00  0.00    -0.343 OA
HETATM   15  C14 UNL     1     -36.920  -8.430  25.993  1.00  0.00     0.221 C 
ENDROOT
BRANCH  15  16
HETATM   16  S1  UNL     1     -37.000  -9.392  24.458  1.00  0.00    -0.134 SA
BRANCH  16  17
HETATM   17  C15 UNL     1     -37.360 -11.125  24.769  1.00  0.00     0.083 C 
BRANCH  17  18
HETATM   18  C16 UNL     1     -37.194 -11.884  23.459  1.00  0.00     0.077 C 
BRANCH  18  19
HETATM   19  C17 UNL     1     -35.750 -12.254  23.374  1.00  0.00     0.079 A 
HETATM   20  C18 UNL     1     -35.122 -12.542  24.502  1.00  0.00     0.039 A 
HETATM   21  C19 UNL     1     -33.710 -12.911  24.483  1.00  0.00     0.055 A 
HETATM   22  C20 UNL     1     -33.031 -12.966  23.334  1.00  0.00     0.155 A 
HETATM   23  N1  UNL     1     -31.678 -13.289  23.018  1.00  0.00    -0.310 N 
HETATM   24  N4  UNL     1     -33.707 -12.660  22.148  1.00  0.00    -0.136 N 
HETATM   25  C21 UNL     1     -31.544 -13.172  21.608  1.00  0.00     0.195 A 
ATOM     26  H1  UNL     1     -30.947 -13.553  23.677  1.00  0.00     0.170 HD
HETATM   27  N2  UNL     1     -30.456 -13.383  20.905  1.00  0.00    -0.370 N 
HETATM   28  N3  UNL     1     -32.804 -12.784  21.087  1.00  0.00    -0.242 N 
ATOM     29  H22 UNL     1     -29.550 -13.663  21.280  1.00  0.00     0.159 HD
ATOM     30  H21 UNL     1     -30.360 -13.300  19.894  1.00  0.00     0.159 HD
ATOM     31  H3  UNL     1     -33.016 -12.622  20.103  1.00  0.00     0.192 HD
HETATM   32  O4  UNL     1     -35.061 -12.309  22.186  1.00  0.00    -0.218 OA
ENDBRANCH  18  19
ENDBRANCH  17  18
ENDBRANCH  16  17
ENDBRANCH  15  16
BRANCH   1  33
HETATM   33  C2  UNL     1     -35.028  -7.375  28.585  1.00  0.00     0.006 C 
HETATM   34  C1  UNL     1     -35.338  -8.053  29.878  1.00  0.00     0.006 C 
ENDBRANCH   1  33
TORSDOF 5
ENDMDL
MODEL 2
REMARK VINA RESULT: -8.513353822      1.984      4.457
REMARK  5 active torsions:
REMARK  status: ('A' for Active; 'I' for Inactive)
REMARK    1  A    between atoms: C2_2  and  C3_3 
REMARK    2  A    between atoms: C14_17  and  S1_18 
REMARK    3  A    between atoms: S1_18  and  C15_19 
REMARK    4  A    between atoms: C15_19  and  C16_20 
REMARK    5  A    between atoms: C16_20  and  C17_21 
ROOT
HETATM    1  C3  UNL     1     -37.209  -5.769  25.077  1.00  0.00     0.058 C 
HETATM    2  C4  UNL     1     -36.624  -7.136  25.054  1.00  0.00     0.106 C 
HETATM    3  C5  UNL     1     -35.956  -7.177  23.685  1.00  0.00     0.054 C 
HETATM    4  C6  UNL     1     -36.811  -6.378  22.757  1.00  0.00    -0.008 C 
HETATM    5  C7  UNL     1     -37.795  -7.280  22.052  1.00  0.00     0.018 C 
HETATM    6  C8  UNL     1     -35.967  -5.586  21.809  1.00  0.00     0.038 C 
HETATM    7  C9  UNL     1     -35.832  -4.264  22.531  1.00  0.00     0.169 C 
HETATM    8  O1  UNL     1     -36.894  -4.131  23.384  1.00  0.00    -0.379 OA
HETATM    9  C10 UNL     1     -37.451  -5.354  23.632  1.00  0.00     0.071 C 
HETATM   10  C11 UNL     1     -38.951  -5.255  23.332  1.00  0.00     0.047 C 
HETATM   11  O2  UNL     1     -37.572  -8.146  25.181  1.00  0.00    -0.347 OA
HETATM   12  C12 UNL     1     -36.770  -9.191  25.673  1.00  0.00     0.258 C 
HETATM   13  C13 UNL     1     -37.616 -10.326  26.199  1.00  0.00     0.071 C 
HETATM   14  O3  UNL     1     -36.136  -8.563  26.740  1.00  0.00    -0.343 OA
HETATM   15  C14 UNL     1     -35.600  -7.422  26.109  1.00  0.00     0.221 C 
ENDROOT
BRANCH  15  16
HETATM   16  S1  UNL     1     -34.034  -7.894  25.324  1.00  0.00    -0.134 SA
BRANCH  16  17
HETATM   17  C15 UNL     1     -32.803  -8.399  26.533  1.00  0.00     0.083 C 
BRANCH  17  18
HETATM   18  C16 UNL     1     -33.104  -9.834  26.941  1.00  0.00     0.077 C 
BRANCH  18  19
HETATM   19  C17 UNL     1     -33.038 -10.645  25.689  1.00  0.00     0.079 A 
HETATM   20  C18 UNL     1     -34.173 -11.121  25.204  1.00  0.00     0.039 A 
HETATM   21  C19 UNL     1     -34.174 -11.920  23.984  1.00  0.00     0.055 A 
HETATM   22  C20 UNL     1     -33.036 -12.184  23.336  1.00  0.00     0.155 A 
HETATM   23  N1  UNL     1     -32.738 -12.917  22.150  1.00  0.00    -0.310 N 
HETATM   24  N4  UNL     1     -31.842 -11.675  23.858  1.00  0.00    -0.136 N 
HETATM   25  C21 UNL     1     -31.332 -12.844  21.960  1.00  0.00     0.195 A 
ATOM     26  H1  UNL     1     -33.408 -13.402  21.552  1.00  0.00     0.170 HD
HETATM   27  N2  UNL     1     -30.646 -13.387  20.983  1.00  0.00    -0.370 N 
HETATM   28  N3  UNL     1     -30.795 -12.075  23.022  1.00  0.00    -0.242 N 
ATOM     29  H22 UNL     1     -31.032 -13.941  20.218  1.00  0.00     0.159 HD
ATOM     30  H21 UNL     1     -29.636 -13.335  20.846  1.00  0.00     0.159 HD
ATOM     31  H3  UNL     1     -29.808 -11.851  23.154  1.00  0.00     0.192 HD
HETATM   32  O4  UNL     1     -31.861 -10.909  25.030  1.00  0.00    -0.218 OA
ENDBRANCH  18  19
ENDBRANCH  17  18
ENDBRANCH  16  17
ENDBRANCH  15  16
BRANCH   1  33
HETATM   33  C2  UNL     1     -38.448  -5.618  25.899  1.00  0.00     0.006 C 
HETATM   34  C1  UNL     1     -38.347  -4.643  27.025  1.00  0.00     0.006 C 
ENDBRANCH   1  33
TORSDOF 5
ENDMDL
MODEL 3
REMARK VINA RESULT: -8.080656984      3.513      5.767
REMARK  5 active torsions:
REMARK  status: ('A' for Active; 'I' for Inactive)
REMARK    1  A    between atoms: C2_2  and  C3_3 
REMARK    2  A    between atoms: C14_17  and  S1_18 
REMARK    3  A    between atoms: S1_18  and  C15_19 
REMARK    4  A    between atoms: C15_19  and  C16_20 
REMARK    5  A    between atoms: C16_20  and  C17_21 
ROOT
HETATM    1  C3  UNL     1     -34.760  -8.849  24.234  1.00  0.00     0.058 C 
HETATM    2  C4  UNL     1     -34.131  -9.899  25.078  1.00  0.00     0.106 C 
HETATM    3  C5  UNL     1     -35.253 -10.923  25.206  1.00  0.00     0.054 C 
HETATM    4  C6  UNL     1     -36.537 -10.161  25.249  1.00  0.00    -0.008 C 
HETATM    5  C7  UNL     1     -36.930  -9.888  26.681  1.00  0.00     0.018 C 
HETATM    6  C8  UNL     1     -37.604 -10.875  24.481  1.00  0.00     0.038 C 
HETATM    7  C9  UNL     1     -37.486 -10.245  23.112  1.00  0.00     0.169 C 
HETATM    8  O1  UNL     1     -36.921  -9.007  23.257  1.00  0.00    -0.379 OA
HETATM    9  C10 UNL     1     -36.265  -8.930  24.453  1.00  0.00     0.071 C 
HETATM   10  C11 UNL     1     -36.781  -7.689  25.191  1.00  0.00     0.047 C 
HETATM   11  O2  UNL     1     -33.726  -9.438  26.326  1.00  0.00    -0.347 OA
HETATM   12  C12 UNL     1     -32.739 -10.389  26.643  1.00  0.00     0.258 C 
HETATM   13  C13 UNL     1     -31.910  -9.940  27.823  1.00  0.00     0.071 C 
HETATM   14  O3  UNL     1     -31.954 -10.354  25.495  1.00  0.00    -0.343 OA
HETATM   15  C14 UNL     1     -32.924 -10.566  24.493  1.00  0.00     0.221 C 
ENDROOT
BRANCH  15  16
HETATM   16  S1  UNL     1     -33.218 -12.350  24.361  1.00  0.00    -0.134 SA
BRANCH  16  17
HETATM   17  C15 UNL     1     -34.641 -12.722  23.327  1.00  0.00     0.083 C 
BRANCH  17  18
HETATM   18  C16 UNL     1     -34.893 -14.222  23.394  1.00  0.00     0.077 C 
BRANCH  18  19
HETATM   19  C17 UNL     1     -36.121 -14.400  24.224  1.00  0.00     0.079 A 
HETATM   20  C18 UNL     1     -35.962 -14.654  25.512  1.00  0.00     0.039 A 
HETATM   21  C19 UNL     1     -37.124 -14.838  26.374  1.00  0.00     0.055 A 
HETATM   22  C20 UNL     1     -38.363 -14.754  25.883  1.00  0.00     0.155 A 
HETATM   23  N1  UNL     1     -39.655 -14.884  26.473  1.00  0.00    -0.310 N 
HETATM   24  N4  UNL     1     -38.519 -14.485  24.519  1.00  0.00    -0.136 N 
HETATM   25  C21 UNL     1     -40.605 -14.688  25.435  1.00  0.00     0.195 A 
ATOM     26  H1  UNL     1     -39.858 -15.080  27.453  1.00  0.00     0.170 HD
HETATM   27  N2  UNL     1     -41.911 -14.725  25.552  1.00  0.00    -0.370 N 
HETATM   28  N3  UNL     1     -39.888 -14.443  24.237  1.00  0.00    -0.242 N 
ATOM     29  H22 UNL     1     -42.427 -14.901  26.414  1.00  0.00     0.159 HD
ATOM     30  H21 UNL     1     -42.594 -14.585  24.807  1.00  0.00     0.159 HD
ATOM     31  H3  UNL     1     -40.302 -14.266  23.321  1.00  0.00     0.192 HD
HETATM   32  O4  UNL     1     -37.392 -14.310  23.707  1.00  0.00    -0.218 OA
ENDBRANCH  18  19
ENDBRANCH  17  18
ENDBRANCH  16  17
ENDBRANCH  15  16
BRANCH   1  33
HETATM   33  C2  UNL     1     -34.253  -7.461  24.459  1.00  0.00     0.006 C 
HETATM   34  C1  UNL     1     -33.959  -6.683  23.220  1.00  0.00     0.006 C 
ENDBRANCH   1  33
TORSDOF 5
ENDMDL
MODEL 4
REMARK VINA RESULT: -8.078976698      2.322      5.167
REMARK  5 active torsions:
REMARK  status: ('A' for Active; 'I' for Inactive)
REMARK    1  A    between atoms: C2_2  and  C3_3 
REMARK    2  A    between atoms: C14_17  and  S1_18 
REMARK    3  A    between atoms: S1_18  and  C15_19 
REMARK    4  A    between atoms: C15_19  and  C16_20 
REMARK    5  A    between atoms: C16_20  and  C17_21 
ROOT
HETATM    1  C3  UNL     1     -36.933  -5.122  22.393  1.00  0.00     0.058 C 
HETATM    2  C4  UNL     1     -36.374  -5.971  23.478  1.00  0.00     0.106 C 
HETATM    3  C5  UNL     1     -37.399  -5.786  24.591  1.00  0.00     0.054 C 
HETATM    4  C6  UNL     1     -37.897  -4.382  24.498  1.00  0.00    -0.008 C 
HETATM    5  C7  UNL     1     -37.090  -3.484  25.405  1.00  0.00     0.018 C 
HETATM    6  C8  UNL     1     -39.365  -4.320  24.780  1.00  0.00     0.038 C 
HETATM    7  C9  UNL     1     -39.960  -4.430  23.394  1.00  0.00     0.169 C 
HETATM    8  O1  UNL     1     -39.026  -3.999  22.491  1.00  0.00    -0.379 OA
HETATM    9  C10 UNL     1     -37.780  -4.041  23.051  1.00  0.00     0.071 C 
HETATM   10  C11 UNL     1     -37.141  -2.659  22.876  1.00  0.00     0.047 C 
HETATM   11  O2  UNL     1     -35.105  -5.575  23.892  1.00  0.00    -0.347 OA
HETATM   12  C12 UNL     1     -34.630  -6.777  24.446  1.00  0.00     0.258 C 
HETATM   13  C13 UNL     1     -33.141  -6.711  24.692  1.00  0.00     0.071 C 
HETATM   14  O3  UNL     1     -34.880  -7.668  23.406  1.00  0.00    -0.343 OA
HETATM   15  C14 UNL     1     -36.248  -7.430  23.163  1.00  0.00     0.221 C 
ENDROOT
BRANCH  15  16
HETATM   16  S1  UNL     1     -37.210  -8.395  24.359  1.00  0.00    -0.134 SA
BRANCH  16  17
HETATM   17  C15 UNL     1     -36.711 -10.122  24.385  1.00  0.00     0.083 C 
BRANCH  17  18
HETATM   18  C16 UNL     1     -35.732 -10.312  25.535  1.00  0.00     0.077 C 
BRANCH  18  19
HETATM   19  C17 UNL     1     -34.445 -10.752  24.917  1.00  0.00     0.079 A 
HETATM   20  C18 UNL     1     -33.321 -10.382  25.507  1.00  0.00     0.039 A 
HETATM   21  C19 UNL     1     -32.033 -10.781  24.950  1.00  0.00     0.055 A 
HETATM   22  C20 UNL     1     -31.965 -11.524  23.843  1.00  0.00     0.155 A 
HETATM   23  N1  UNL     1     -30.875 -12.052  23.090  1.00  0.00    -0.310 N 
HETATM   24  N4  UNL     1     -33.161 -11.911  23.228  1.00  0.00    -0.136 N 
HETATM   25  C21 UNL     1     -31.434 -12.771  22.000  1.00  0.00     0.195 A 
ATOM     26  H1  UNL     1     -29.882 -11.936  23.296  1.00  0.00     0.170 HD
HETATM   27  N2  UNL     1     -30.774 -13.412  21.064  1.00  0.00    -0.370 N 
HETATM   28  N3  UNL     1     -32.844 -12.674  22.100  1.00  0.00    -0.242 N 
ATOM     29  H22 UNL     1     -29.759 -13.482  20.993  1.00  0.00     0.159 HD
ATOM     30  H21 UNL     1     -31.175 -13.928  20.281  1.00  0.00     0.159 HD
ATOM     31  H3  UNL     1     -33.517 -13.090  21.455  1.00  0.00     0.192 HD
HETATM   32  O4  UNL     1     -34.388 -11.518  23.777  1.00  0.00    -0.218 OA
ENDBRANCH  18  19
ENDBRANCH  17  18
ENDBRANCH  16  17
ENDBRANCH  15  16
BRANCH   1  33
HETATM   33  C2  UNL     1     -35.926  -4.529  21.462  1.00  0.00     0.006 C 
HETATM   34  C1  UNL     1     -36.163  -4.800  20.013  1.00  0.00     0.006 C 
ENDBRANCH   1  33
TORSDOF 5
ENDMDL
MODEL 5
REMARK VINA RESULT: -8.054267084      3.884      4.988
REMARK  5 active torsions:
REMARK  status: ('A' for Active; 'I' for Inactive)
REMARK    1  A    between atoms: C2_2  and  C3_3 
REMARK    2  A    between atoms: C14_17  and  S1_18 
REMARK    3  A    between atoms: S1_18  and  C15_19 
REMARK    4  A    between atoms: C15_19  and  C16_20 
REMARK    5  A    between atoms: C16_20  and  C17_21 
ROOT
HETATM    1  C3  UNL     1     -34.845  -8.910  26.986  1.00  0.00     0.058 C 
HETATM    2  C4  UNL     1     -35.533  -8.838  25.670  1.00  0.00     0.106 C 
HETATM    3  C5  UNL     1     -34.457  -9.347  24.717  1.00  0.00     0.054 C 
HETATM    4  C6  UNL     1     -33.144  -8.877  25.250  1.00  0.00    -0.008 C 
HETATM    5  C7  UNL     1     -32.765  -7.563  24.612  1.00  0.00     0.018 C 
HETATM    6  C8  UNL     1     -32.094  -9.930  25.076  1.00  0.00     0.038 C 
HETATM    7  C9  UNL     1     -32.160 -10.666  26.395  1.00  0.00     0.169 C 
HETATM    8  O1  UNL     1     -32.675  -9.816  27.335  1.00  0.00    -0.379 OA
HETATM    9  C10 UNL     1     -33.349  -8.796  26.724  1.00  0.00     0.071 C 
HETATM   10  C11 UNL     1     -32.794  -7.475  27.270  1.00  0.00     0.047 C 
HETATM   11  O2  UNL     1     -35.940  -7.552  25.327  1.00  0.00    -0.347 OA
HETATM   12  C12 UNL     1     -36.972  -7.844  24.417  1.00  0.00     0.258 C 
HETATM   13  C13 UNL     1     -37.803  -6.617  24.125  1.00  0.00     0.071 C 
HETATM   14  O3  UNL     1     -37.734  -8.745  25.156  1.00  0.00    -0.343 OA
HETATM   15  C14 UNL     1     -36.756  -9.690  25.529  1.00  0.00     0.221 C 
ENDROOT
BRANCH  15  16
HETATM   16  S1  UNL     1     -36.536 -10.848  24.151  1.00  0.00    -0.134 SA
BRANCH  16  17
HETATM   17  C15 UNL     1     -35.803 -12.399  24.688  1.00  0.00     0.083 C 
BRANCH  17  18
HETATM   18  C16 UNL     1     -36.536 -13.534  23.986  1.00  0.00     0.077 C 
BRANCH  18  19
HETATM   19  C17 UNL     1     -37.777 -13.782  24.779  1.00  0.00     0.079 A 
HETATM   20  C18 UNL     1     -37.740 -13.522  26.075  1.00  0.00     0.039 A 
HETATM   21  C19 UNL     1     -38.920 -13.744  26.903  1.00  0.00     0.055 A 
HETATM   22  C20 UNL     1     -40.054 -14.209  26.371  1.00  0.00     0.155 A 
HETATM   23  N1  UNL     1     -41.334 -14.514  26.920  1.00  0.00    -0.310 N 
HETATM   24  N4  UNL     1     -40.081 -14.479  24.998  1.00  0.00    -0.136 N 
HETATM   25  C21 UNL     1     -42.144 -14.978  25.850  1.00  0.00     0.195 A 
ATOM     26  H1  UNL     1     -41.614 -14.417  27.896  1.00  0.00     0.170 HD
HETATM   27  N2  UNL     1     -43.396 -15.364  25.926  1.00  0.00    -0.370 N 
HETATM   28  N3  UNL     1     -41.356 -14.950  24.672  1.00  0.00    -0.242 N 
ATOM     29  H22 UNL     1     -43.963 -15.384  26.773  1.00  0.00     0.159 HD
ATOM     30  H21 UNL     1     -43.977 -15.698  25.157  1.00  0.00     0.159 HD
ATOM     31  H3  UNL     1     -41.668 -15.228  23.741  1.00  0.00     0.192 HD
HETATM   32  O4  UNL     1     -38.938 -14.260  24.220  1.00  0.00    -0.218 OA
ENDBRANCH  18  19
ENDBRANCH  17  18
ENDBRANCH  16  17
ENDBRANCH  15  16
BRANCH   1  33
HETATM   33  C2  UNL     1     -35.296  -7.907  27.999  1.00  0.00     0.006 C 
HETATM   34  C1  UNL     1     -35.059  -8.290  29.422  1.00  0.00     0.006 C 
ENDBRANCH   1  33
TORSDOF 5
ENDMDL
