MODEL 1
REMARK VINA RESULT: -8.770085369      0.000      0.000
REMARK  9 active torsions:
REMARK  status: ('A' for Active; 'I' for Inactive)
REMARK    1  A    between atoms: C3_3  and  O1_4 
REMARK    2  A    between atoms: O1_4  and  C4_5 
REMARK    3  A    between atoms: C4_5  and  C5_7 
REMARK    4  A    between atoms: C5_7  and  C6_8 
REMARK    5  A    between atoms: C6_8  and  C7_9 
REMARK    6  A    between atoms: C7_9  and  C8_10 
REMARK    7  A    between atoms: C17_20  and  O3_21 
REMARK    8  A    between atoms: C18_23  and  O4_24 
REMARK    9  A    between atoms: C22_30  and  O6_31 
ROOT
HETATM    1  C1  UNL     1     -33.277  -9.791  25.143  1.00  0.00     0.017 C 
HETATM    2  C2  UNL     1     -34.317  -9.821  24.374  1.00  0.00    -0.056 C 
HETATM    3  C3  UNL     1     -34.945 -11.097  23.954  1.00  0.00     0.160 C 
HETATM    4  C10 UNL     1     -36.435 -10.850  23.873  1.00  0.00     0.037 C 
HETATM    5  C11 UNL     1     -36.916  -9.801  24.821  1.00  0.00     0.009 C 
HETATM    6  C12 UNL     1     -36.219  -8.451  24.679  1.00  0.00     0.003 C 
HETATM    7  C13 UNL     1     -34.961  -8.583  23.872  1.00  0.00     0.022 C 
HETATM    8  C14 UNL     1     -34.072  -7.432  24.159  1.00  0.00     0.029 C 
HETATM    9  C15 UNL     1     -34.494  -6.255  23.317  1.00  0.00     0.120 C 
HETATM   10  N1  UNL     1     -35.724  -5.648  23.784  1.00  0.00    -0.384 N 
HETATM   11  C16 UNL     1     -35.617  -4.269  23.725  1.00  0.00     0.146 C 
HETATM   12  C17 UNL     1     -36.806  -6.373  23.335  1.00  0.00     0.164 C 
HETATM   13  C18 UNL     1     -38.111  -5.621  23.045  1.00  0.00     0.212 C 
HETATM   14  C19 UNL     1     -38.617  -4.912  24.221  1.00  0.00     0.042 A 
HETATM   15  C20 UNL     1     -38.383  -5.503  25.443  1.00  0.00    -0.021 A 
HETATM   16  C21 UNL     1     -38.936  -4.678  26.381  1.00  0.00     0.152 A 
HETATM   17  O5  UNL     1     -39.469  -3.655  25.741  1.00  0.00    -0.299 OA
HETATM   18  C22 UNL     1     -39.308  -3.745  24.461  1.00  0.00     0.192 A 
HETATM   19  C23 UNL     1     -37.677  -6.758  25.591  1.00  0.00     0.051 C 
HETATM   20  C24 UNL     1     -37.194  -7.421  24.335  1.00  0.00     0.053 C 
ENDROOT
BRANCH   3  21
HETATM   21  O1  UNL     1     -34.600 -12.177  24.750  1.00  0.00    -0.311 OA
BRANCH  21  22
HETATM   22  C4  UNL     1     -34.072 -13.327  24.110  1.00  0.00     0.259 C 
HETATM   23  O2  UNL     1     -32.917 -13.261  23.620  1.00  0.00    -0.265 OA
BRANCH  22  24
HETATM   24  C5  UNL     1     -34.831 -14.570  24.009  1.00  0.00     0.111 C 
BRANCH  24  25
HETATM   25  C6  UNL     1     -36.048 -14.517  24.880  1.00  0.00     0.010 C 
BRANCH  25  26
HETATM   26  C7  UNL     1     -37.347 -14.448  24.148  1.00  0.00     0.000 C 
BRANCH  26  27
HETATM   27  C8  UNL     1     -38.376 -15.360  24.796  1.00  0.00    -0.005 C 
HETATM   28  C9  UNL     1     -38.023 -15.675  26.221  1.00  0.00     0.005 C 
ENDBRANCH  26  27
ENDBRANCH  25  26
ENDBRANCH  24  25
ENDBRANCH  22  24
ENDBRANCH  21  22
ENDBRANCH   3  21
BRANCH  12  29
HETATM   29  O3  UNL     1     -36.516  -6.920  22.062  1.00  0.00    -0.368 OA
ATOM     30  H3  UNL     1     -36.790  -7.829  22.037  1.00  0.00     0.212 HD
ENDBRANCH  12  29
BRANCH  13  31
HETATM   31  O4  UNL     1     -38.061  -4.890  21.889  1.00  0.00    -0.386 OA
ATOM     32  H4  UNL     1     -38.566  -4.088  21.936  1.00  0.00     0.210 HD
ENDBRANCH  13  31
BRANCH  18  33
HETATM   33  O6  UNL     1     -39.711  -2.890  23.436  1.00  0.00    -0.340 OA
ATOM     34  H6  UNL     1     -40.225  -3.189  22.694  1.00  0.00     0.220 HD
ENDBRANCH  18  33
TORSDOF 9
ENDMDL
MODEL 2
REMARK VINA RESULT: -8.704509710      1.094      1.290
REMARK  9 active torsions:
REMARK  status: ('A' for Active; 'I' for Inactive)
REMARK    1  A    between atoms: C3_3  and  O1_4 
REMARK    2  A    between atoms: O1_4  and  C4_5 
REMARK    3  A    between atoms: C4_5  and  C5_7 
REMARK    4  A    between atoms: C5_7  and  C6_8 
REMARK    5  A    between atoms: C6_8  and  C7_9 
REMARK    6  A    between atoms: C7_9  and  C8_10 
REMARK    7  A    between atoms: C17_20  and  O3_21 
REMARK    8  A    between atoms: C18_23  and  O4_24 
REMARK    9  A    between atoms: C22_30  and  O6_31 
ROOT
HETATM    1  C1  UNL     1     -33.757  -8.694  24.408  1.00  0.00     0.017 C 
HETATM    2  C2  UNL     1     -35.005  -8.900  24.137  1.00  0.00    -0.056 C 
HETATM    3  C3  UNL     1     -35.622 -10.243  24.256  1.00  0.00     0.160 C 
HETATM    4  C10 UNL     1     -37.045 -10.036  24.728  1.00  0.00     0.037 C 
HETATM    5  C11 UNL     1     -37.219  -8.812  25.568  1.00  0.00     0.009 C 
HETATM    6  C12 UNL     1     -36.763  -7.517  24.902  1.00  0.00     0.003 C 
HETATM    7  C13 UNL     1     -35.908  -7.806  23.704  1.00  0.00     0.022 C 
HETATM    8  C14 UNL     1     -35.090  -6.611  23.385  1.00  0.00     0.029 C 
HETATM    9  C15 UNL     1     -35.914  -5.647  22.571  1.00  0.00     0.120 C 
HETATM   10  N1  UNL     1     -36.920  -4.967  23.361  1.00  0.00    -0.384 N 
HETATM   11  C16 UNL     1     -36.976  -3.632  22.999  1.00  0.00     0.146 C 
HETATM   12  C17 UNL     1     -38.018  -5.783  23.528  1.00  0.00     0.164 C 
HETATM   13  C18 UNL     1     -39.399  -5.125  23.642  1.00  0.00     0.212 C 
HETATM   14  C19 UNL     1     -39.477  -4.185  24.761  1.00  0.00     0.042 A 
HETATM   15  C20 UNL     1     -38.733  -4.497  25.879  1.00  0.00    -0.021 A 
HETATM   16  C21 UNL     1     -38.958  -3.496  26.780  1.00  0.00     0.152 A 
HETATM   17  O5  UNL     1     -39.790  -2.640  26.221  1.00  0.00    -0.299 OA
HETATM   18  C22 UNL     1     -40.128  -3.002  25.026  1.00  0.00     0.192 A 
HETATM   19  C23 UNL     1     -37.909  -5.683  25.973  1.00  0.00     0.051 C 
HETATM   20  C24 UNL     1     -37.888  -6.596  24.782  1.00  0.00     0.053 C 
ENDROOT
BRANCH   3  21
HETATM   21  O1  UNL     1     -34.896 -11.124  25.043  1.00  0.00    -0.311 OA
BRANCH  21  22
HETATM   22  C4  UNL     1     -34.349 -12.271  24.415  1.00  0.00     0.259 C 
HETATM   23  O2  UNL     1     -33.153 -12.571  24.654  1.00  0.00    -0.265 OA
BRANCH  22  24
HETATM   24  C5  UNL     1     -35.136 -13.103  23.509  1.00  0.00     0.111 C 
BRANCH  24  25
HETATM   25  C6  UNL     1     -35.864 -14.168  24.269  1.00  0.00     0.010 C 
BRANCH  25  26
HETATM   26  C7  UNL     1     -37.352 -14.070  24.227  1.00  0.00     0.000 C 
BRANCH  26  27
HETATM   27  C8  UNL     1     -37.988 -15.388  24.639  1.00  0.00    -0.005 C 
HETATM   28  C9  UNL     1     -37.703 -15.719  26.076  1.00  0.00     0.005 C 
ENDBRANCH  26  27
ENDBRANCH  25  26
ENDBRANCH  24  25
ENDBRANCH  22  24
ENDBRANCH  21  22
ENDBRANCH   3  21
BRANCH  12  29
HETATM   29  O3  UNL     1     -38.191  -6.588  22.377  1.00  0.00    -0.368 OA
ATOM     30  H3  UNL     1     -39.100  -6.563  22.105  1.00  0.00     0.212 HD
ENDBRANCH  12  29
BRANCH  13  31
HETATM   31  O4  UNL     1     -39.868  -4.659  22.444  1.00  0.00    -0.386 OA
ATOM     32  H4  UNL     1     -39.657  -5.231  21.716  1.00  0.00     0.210 HD
ENDBRANCH  13  31
BRANCH  18  33
HETATM   33  O6  UNL     1     -40.975  -2.391  24.101  1.00  0.00    -0.340 OA
ATOM     34  H6  UNL     1     -41.667  -1.793  24.360  1.00  0.00     0.220 HD
ENDBRANCH  18  33
TORSDOF 9
ENDMDL
MODEL 3
REMARK VINA RESULT: -8.148284865      2.132      3.142
REMARK  9 active torsions:
REMARK  status: ('A' for Active; 'I' for Inactive)
REMARK    1  A    between atoms: C3_3  and  O1_4 
REMARK    2  A    between atoms: O1_4  and  C4_5 
REMARK    3  A    between atoms: C4_5  and  C5_7 
REMARK    4  A    between atoms: C5_7  and  C6_8 
REMARK    5  A    between atoms: C6_8  and  C7_9 
REMARK    6  A    between atoms: C7_9  and  C8_10 
REMARK    7  A    between atoms: C17_20  and  O3_21 
REMARK    8  A    between atoms: C18_23  and  O4_24 
REMARK    9  A    between atoms: C22_30  and  O6_31 
ROOT
HETATM    1  C1  UNL     1     -38.062 -11.438  26.109  1.00  0.00     0.017 C 
HETATM    2  C2  UNL     1     -37.238 -11.211  25.138  1.00  0.00    -0.056 C 
HETATM    3  C3  UNL     1     -36.861 -12.265  24.166  1.00  0.00     0.160 C 
HETATM    4  C10 UNL     1     -36.678 -11.586  22.826  1.00  0.00     0.037 C 
HETATM    5  C11 UNL     1     -37.532 -10.371  22.655  1.00  0.00     0.009 C 
HETATM    6  C12 UNL     1     -37.348  -9.311  23.736  1.00  0.00     0.003 C 
HETATM    7  C13 UNL     1     -36.625  -9.878  24.921  1.00  0.00     0.022 C 
HETATM    8  C14 UNL     1     -36.892  -9.031  26.110  1.00  0.00     0.029 C 
HETATM    9  C15 UNL     1     -35.957  -7.849  26.098  1.00  0.00     0.120 C 
HETATM   10  N1  UNL     1     -36.314  -6.865  25.097  1.00  0.00    -0.384 N 
HETATM   11  C16 UNL     1     -36.178  -5.591  25.622  1.00  0.00     0.146 C 
HETATM   12  C17 UNL     1     -35.848  -7.260  23.861  1.00  0.00     0.164 C 
HETATM   13  C18 UNL     1     -35.439  -6.173  22.860  1.00  0.00     0.212 C 
HETATM   14  C19 UNL     1     -36.538  -5.257  22.553  1.00  0.00     0.042 A 
HETATM   15  C20 UNL     1     -37.806  -5.798  22.551  1.00  0.00    -0.021 A 
HETATM   16  C21 UNL     1     -38.658  -4.775  22.242  1.00  0.00     0.152 A 
HETATM   17  O5  UNL     1     -37.928  -3.691  22.072  1.00  0.00    -0.299 OA
HETATM   18  C22 UNL     1     -36.667  -3.922  22.243  1.00  0.00     0.192 A 
HETATM   19  C23 UNL     1     -38.070  -7.192  22.833  1.00  0.00     0.051 C 
HETATM   20  C24 UNL     1     -36.886  -8.063  23.136  1.00  0.00     0.053 C 
ENDROOT
BRANCH   3  21
HETATM   21  O1  UNL     1     -37.740 -13.335  24.134  1.00  0.00    -0.311 OA
BRANCH  21  22
HETATM   22  C4  UNL     1     -37.210 -14.631  24.363  1.00  0.00     0.259 C 
HETATM   23  O2  UNL     1     -36.000 -14.839  24.095  1.00  0.00    -0.265 OA
BRANCH  22  24
HETATM   24  C5  UNL     1     -38.029 -15.715  24.897  1.00  0.00     0.111 C 
BRANCH  24  25
HETATM   25  C6  UNL     1     -38.178 -15.581  26.381  1.00  0.00     0.010 C 
BRANCH  25  26
HETATM   26  C7  UNL     1     -39.384 -14.828  26.831  1.00  0.00     0.000 C 
BRANCH  26  27
HETATM   27  C8  UNL     1     -40.383 -14.686  25.694  1.00  0.00    -0.005 C 
HETATM   28  C9  UNL     1     -41.800 -14.751  26.185  1.00  0.00     0.005 C 
ENDBRANCH  26  27
ENDBRANCH  25  26
ENDBRANCH  24  25
ENDBRANCH  22  24
ENDBRANCH  21  22
ENDBRANCH   3  21
BRANCH  12  29
HETATM   29  O3  UNL     1     -34.631  -7.964  24.017  1.00  0.00    -0.368 OA
ATOM     30  H3  UNL     1     -34.580  -8.659  23.371  1.00  0.00     0.212 HD
ENDBRANCH  12  29
BRANCH  13  31
HETATM   31  O4  UNL     1     -34.246  -5.581  23.174  1.00  0.00    -0.386 OA
ATOM     32  H4  UNL     1     -33.922  -5.013  22.486  1.00  0.00     0.210 HD
ENDBRANCH  13  31
BRANCH  18  33
HETATM   33  O6  UNL     1     -35.570  -3.065  22.159  1.00  0.00    -0.340 OA
ATOM     34  H6  UNL     1     -35.484  -2.413  21.473  1.00  0.00     0.220 HD
ENDBRANCH  18  33
TORSDOF 9
ENDMDL
MODEL 4
REMARK VINA RESULT: -8.035377608      2.621      3.665
REMARK  9 active torsions:
REMARK  status: ('A' for Active; 'I' for Inactive)
REMARK    1  A    between atoms: C3_3  and  O1_4 
REMARK    2  A    between atoms: O1_4  and  C4_5 
REMARK    3  A    between atoms: C4_5  and  C5_7 
REMARK    4  A    between atoms: C5_7  and  C6_8 
REMARK    5  A    between atoms: C6_8  and  C7_9 
REMARK    6  A    between atoms: C7_9  and  C8_10 
REMARK    7  A    between atoms: C17_20  and  O3_21 
REMARK    8  A    between atoms: C18_23  and  O4_24 
REMARK    9  A    between atoms: C22_30  and  O6_31 
ROOT
HETATM    1  C1  UNL     1     -34.022  -6.437  24.108  1.00  0.00     0.017 C 
HETATM    2  C2  UNL     1     -35.209  -6.892  23.870  1.00  0.00    -0.056 C 
HETATM    3  C3  UNL     1     -35.541  -8.330  24.016  1.00  0.00     0.160 C 
HETATM    4  C10 UNL     1     -36.966  -8.405  24.521  1.00  0.00     0.037 C 
HETATM    5  C11 UNL     1     -37.364  -7.230  25.354  1.00  0.00     0.009 C 
HETATM    6  C12 UNL     1     -37.191  -5.880  24.666  1.00  0.00     0.003 C 
HETATM    7  C13 UNL     1     -36.322  -6.008  23.450  1.00  0.00     0.022 C 
HETATM    8  C14 UNL     1     -35.768  -4.677  23.101  1.00  0.00     0.029 C 
HETATM    9  C15 UNL     1     -36.787  -3.909  22.298  1.00  0.00     0.120 C 
HETATM   10  N1  UNL     1     -37.891  -3.433  23.106  1.00  0.00    -0.384 N 
HETATM   11  C16 UNL     1     -38.222  -2.141  22.735  1.00  0.00     0.146 C 
HETATM   12  C17 UNL     1     -38.799  -4.450  23.308  1.00  0.00     0.164 C 
HETATM   13  C18 UNL     1     -40.281  -4.081  23.449  1.00  0.00     0.212 C 
HETATM   14  C19 UNL     1     -40.521  -3.161  24.562  1.00  0.00     0.042 A 
HETATM   15  C20 UNL     1     -39.705  -3.303  25.664  1.00  0.00    -0.021 A 
HETATM   16  C21 UNL     1     -40.106  -2.354  26.562  1.00  0.00     0.152 A 
HETATM   17  O5  UNL     1     -41.105  -1.691  26.015  1.00  0.00    -0.299 OA
HETATM   18  C22 UNL     1     -41.390  -2.128  24.832  1.00  0.00     0.192 A 
HETATM   19  C23 UNL     1     -38.658  -4.298  25.748  1.00  0.00     0.051 C 
HETATM   20  C24 UNL     1     -38.481  -5.204  24.565  1.00  0.00     0.053 C 
ENDROOT
BRANCH   3  21
HETATM   21  O1  UNL     1     -34.636  -9.037  24.792  1.00  0.00    -0.311 OA
BRANCH  21  22
HETATM   22  C4  UNL     1     -34.195 -10.295  24.310  1.00  0.00     0.259 C 
HETATM   23  O2  UNL     1     -34.927 -10.915  23.498  1.00  0.00    -0.265 OA
BRANCH  22  24
HETATM   24  C5  UNL     1     -32.925 -10.879  24.730  1.00  0.00     0.111 C 
BRANCH  24  25
HETATM   25  C6  UNL     1     -32.637 -12.127  23.955  1.00  0.00     0.010 C 
BRANCH  25  26
HETATM   26  C7  UNL     1     -31.405 -12.081  23.115  1.00  0.00     0.000 C 
BRANCH  26  27
HETATM   27  C8  UNL     1     -31.633 -12.790  21.790  1.00  0.00    -0.005 C 
HETATM   28  C9  UNL     1     -33.095 -12.967  21.497  1.00  0.00     0.005 C 
ENDBRANCH  26  27
ENDBRANCH  25  26
ENDBRANCH  24  25
ENDBRANCH  22  24
ENDBRANCH  21  22
ENDBRANCH   3  21
BRANCH  12  29
HETATM   29  O3  UNL     1     -38.832  -5.289  22.168  1.00  0.00    -0.368 OA
ATOM     30  H3  UNL     1     -39.614  -5.106  21.661  1.00  0.00     0.212 HD
ENDBRANCH  12  29
BRANCH  13  31
HETATM   31  O4  UNL     1     -40.860  -3.734  22.259  1.00  0.00    -0.386 OA
ATOM     32  H4  UNL     1     -40.227  -3.487  21.597  1.00  0.00     0.210 HD
ENDBRANCH  13  31
BRANCH  18  33
HETATM   33  O6  UNL     1     -42.363  -1.712  23.923  1.00  0.00    -0.340 OA
ATOM     34  H6  UNL     1     -43.192  -1.338  24.199  1.00  0.00     0.220 HD
ENDBRANCH  18  33
TORSDOF 9
ENDMDL
MODEL 5
REMARK VINA RESULT: -7.943900952      1.354      1.700
REMARK  9 active torsions:
REMARK  status: ('A' for Active; 'I' for Inactive)
REMARK    1  A    between atoms: C3_3  and  O1_4 
REMARK    2  A    between atoms: O1_4  and  C4_5 
REMARK    3  A    between atoms: C4_5  and  C5_7 
REMARK    4  A    between atoms: C5_7  and  C6_8 
REMARK    5  A    between atoms: C6_8  and  C7_9 
REMARK    6  A    between atoms: C7_9  and  C8_10 
REMARK    7  A    between atoms: C17_20  and  O3_21 
REMARK    8  A    between atoms: C18_23  and  O4_24 
REMARK    9  A    between atoms: C22_30  and  O6_31 
ROOT
HETATM    1  C1  UNL     1     -34.128  -9.663  25.612  1.00  0.00     0.017 C 
HETATM    2  C2  UNL     1     -34.973  -9.504  24.646  1.00  0.00    -0.056 C 
HETATM    3  C3  UNL     1     -35.747 -10.637  24.086  1.00  0.00     0.160 C 
HETATM    4  C10 UNL     1     -37.108 -10.097  23.704  1.00  0.00     0.037 C 
HETATM    5  C11 UNL     1     -37.549  -8.947  24.550  1.00  0.00     0.009 C 
HETATM    6  C12 UNL     1     -36.578  -7.770  24.575  1.00  0.00     0.003 C 
HETATM    7  C13 UNL     1     -35.236  -8.175  24.042  1.00  0.00     0.022 C 
HETATM    8  C14 UNL     1     -34.209  -7.220  24.523  1.00  0.00     0.029 C 
HETATM    9  C15 UNL     1     -34.202  -6.005  23.630  1.00  0.00     0.120 C 
HETATM   10  N1  UNL     1     -35.351  -5.150  23.844  1.00  0.00    -0.384 N 
HETATM   11  C16 UNL     1     -34.957  -3.823  23.829  1.00  0.00     0.146 C 
HETATM   12  C17 UNL     1     -36.444  -5.653  23.171  1.00  0.00     0.164 C 
HETATM   13  C18 UNL     1     -37.482  -4.661  22.630  1.00  0.00     0.212 C 
HETATM   14  C19 UNL     1     -38.062  -3.833  23.688  1.00  0.00     0.042 A 
HETATM   15  C20 UNL     1     -38.208  -4.427  24.924  1.00  0.00    -0.021 A 
HETATM   16  C21 UNL     1     -38.762  -3.482  25.740  1.00  0.00     0.152 A 
HETATM   17  O5  UNL     1     -38.933  -2.390  25.021  1.00  0.00    -0.299 OA
HETATM   18  C22 UNL     1     -38.536  -2.545  23.800  1.00  0.00     0.192 A 
HETATM   19  C23 UNL     1     -37.817  -5.793  25.194  1.00  0.00     0.051 C 
HETATM   20  C24 UNL     1     -37.232  -6.574  24.053  1.00  0.00     0.053 C 
ENDROOT
BRANCH   3  21
HETATM   21  O1  UNL     1     -35.800 -11.743  24.919  1.00  0.00    -0.311 OA
BRANCH  21  22
HETATM   22  C4  UNL     1     -37.021 -12.460  24.987  1.00  0.00     0.259 C 
HETATM   23  O2  UNL     1     -37.809 -12.212  25.935  1.00  0.00    -0.265 OA
BRANCH  22  24
HETATM   24  C5  UNL     1     -37.381 -13.467  23.993  1.00  0.00     0.111 C 
BRANCH  24  25
HETATM   25  C6  UNL     1     -37.064 -14.841  24.497  1.00  0.00     0.010 C 
BRANCH  25  26
HETATM   26  C7  UNL     1     -38.248 -15.658  24.894  1.00  0.00     0.000 C 
BRANCH  26  27
HETATM   27  C8  UNL     1     -39.539 -14.932  24.552  1.00  0.00    -0.005 C 
HETATM   28  C9  UNL     1     -40.369 -14.663  25.774  1.00  0.00     0.005 C 
ENDBRANCH  26  27
ENDBRANCH  25  26
ENDBRANCH  24  25
ENDBRANCH  22  24
ENDBRANCH  21  22
ENDBRANCH   3  21
BRANCH  12  29
HETATM   29  O3  UNL     1     -36.017  -6.282  21.977  1.00  0.00    -0.368 OA
ATOM     30  H3  UNL     1     -36.568  -7.035  21.799  1.00  0.00     0.212 HD
ENDBRANCH  12  29
BRANCH  13  31
HETATM   31  O4  UNL     1     -37.048  -3.987  21.522  1.00  0.00    -0.386 OA
ATOM     32  H4  UNL     1     -37.690  -3.973  20.822  1.00  0.00     0.210 HD
ENDBRANCH  13  31
BRANCH  18  33
HETATM   33  O6  UNL     1     -38.538  -1.654  22.727  1.00  0.00    -0.340 OA
ATOM     34  H6  UNL     1     -37.737  -1.342  22.321  1.00  0.00     0.220 HD
ENDBRANCH  18  33
TORSDOF 9
ENDMDL
