MODEL 1
REMARK VINA RESULT: -6.462776231      0.000      0.000
REMARK  4 active torsions:
REMARK  status: ('A' for Active; 'I' for Inactive)
REMARK    1  A    between atoms: C4_4  and  S1_5 
REMARK    2  A    between atoms: S1_5  and  N1_6 
REMARK    3  A    between atoms: C5_11  and  N2_12 
REMARK    4  A    between atoms: N2_12  and  C6_14 
ROOT
HETATM    1  C1  UNL     1     -45.216   3.847  18.289  1.00  0.00     0.050 C 
HETATM    2  C2  UNL     1     -44.762   3.884  16.861  1.00  0.00    -0.037 A 
HETATM    3  C3  UNL     1     -45.602   4.285  15.874  1.00  0.00     0.036 A 
HETATM    4  C4  UNL     1     -45.171   4.318  14.548  1.00  0.00     0.107 A 
HETATM    5  C5  UNL     1     -43.886   3.949  14.185  1.00  0.00     0.077 A 
HETATM    6  C11 UNL     1     -43.061   3.542  15.238  1.00  0.00     0.084 A 
HETATM    7 CL1  UNL     1     -41.398   3.002  14.972  1.00  0.00    -0.080 Cl
HETATM    8  C12 UNL     1     -43.493   3.513  16.547  1.00  0.00     0.064 A 
HETATM    9 CL2  UNL     1     -42.433   2.998  17.859  1.00  0.00    -0.082 Cl
ENDROOT
BRANCH   5  10
HETATM   10  N2  UNL     1     -43.391   3.946  12.864  1.00  0.00    -0.359 N 
ATOM     11  H2  UNL     1     -42.899   4.788  12.563  1.00  0.00     0.162 HD
BRANCH  10  12
HETATM   12  C6  UNL     1     -43.502   2.886  11.889  1.00  0.00     0.303 C 
HETATM   13  N3  UNL     1     -44.305   3.346  10.808  1.00  0.00    -0.044 N 
HETATM   14  C7  UNL     1     -44.256   2.432   9.695  1.00  0.00     0.309 C 
ATOM     15  H32 UNL     1     -45.265   3.525  11.103  1.00  0.00     0.280 HD
ATOM     16  H31 UNL     1     -44.049   4.293  10.528  1.00  0.00     0.280 HD
HETATM   17  S2  UNL     1     -42.458   2.162   9.612  1.00  0.00    -0.129 SA
HETATM   18  C8  UNL     1     -42.156   2.448  11.381  1.00  0.00     0.048 C 
HETATM   19  C9  UNL     1     -41.064   3.439  11.590  1.00  0.00     0.030 C 
HETATM   20  C10 UNL     1     -41.720   1.117  11.964  1.00  0.00     0.030 C 
ENDBRANCH  10  12
ENDBRANCH   5  10
BRANCH   4  21
HETATM   21  S1  UNL     1     -46.302   4.834  13.349  1.00  0.00     0.259 S 
HETATM   22  O1  UNL     1     -45.632   5.869  12.434  1.00  0.00    -0.201 OA
HETATM   23  O2  UNL     1     -46.739   3.767  12.401  1.00  0.00    -0.201 OA
BRANCH  21  24
HETATM   24  N1  UNL     1     -47.608   5.712  14.062  1.00  0.00    -0.324 N 
ATOM     25  H12 UNL     1     -47.577   6.713  14.256  1.00  0.00     0.169 HD
ATOM     26  H11 UNL     1     -48.400   5.100  14.257  1.00  0.00     0.169 HD
ENDBRANCH  21  24
ENDBRANCH   4  21
TORSDOF 4
ENDMDL
MODEL 2
REMARK VINA RESULT: -6.238605147      3.527      4.094
REMARK  4 active torsions:
REMARK  status: ('A' for Active; 'I' for Inactive)
REMARK    1  A    between atoms: C4_4  and  S1_5 
REMARK    2  A    between atoms: S1_5  and  N1_6 
REMARK    3  A    between atoms: C5_11  and  N2_12 
REMARK    4  A    between atoms: N2_12  and  C6_14 
ROOT
HETATM    1  C1  UNL     1     -48.664   4.845  12.965  1.00  0.00     0.050 C 
HETATM    2  C2  UNL     1     -47.424   4.377  12.266  1.00  0.00    -0.037 A 
HETATM    3  C3  UNL     1     -47.485   3.864  11.011  1.00  0.00     0.036 A 
HETATM    4  C4  UNL     1     -46.326   3.431  10.366  1.00  0.00     0.107 A 
HETATM    5  C5  UNL     1     -45.080   3.505  10.968  1.00  0.00     0.077 A 
HETATM    6  C11 UNL     1     -45.072   4.040  12.260  1.00  0.00     0.084 A 
HETATM    7 CL1  UNL     1     -43.584   4.186  13.206  1.00  0.00    -0.080 Cl
HETATM    8  C12 UNL     1     -46.221   4.466  12.891  1.00  0.00     0.064 A 
HETATM    9 CL2  UNL     1     -46.185   5.139  14.521  1.00  0.00    -0.082 Cl
ENDROOT
BRANCH   5  10
HETATM   10  N2  UNL     1     -43.873   3.074  10.379  1.00  0.00    -0.359 N 
ATOM     11  H2  UNL     1     -43.333   3.784   9.883  1.00  0.00     0.162 HD
BRANCH  10  12
HETATM   12  C6  UNL     1     -43.316   1.742  10.399  1.00  0.00     0.303 C 
HETATM   13  N3  UNL     1     -43.325   1.227   9.073  1.00  0.00    -0.044 N 
HETATM   14  C7  UNL     1     -42.563   0.006   8.981  1.00  0.00     0.309 C 
ATOM     15  H32 UNL     1     -44.275   1.102   8.725  1.00  0.00     0.280 HD
ATOM     16  H31 UNL     1     -43.002   1.921   8.398  1.00  0.00     0.280 HD
HETATM   17  S2  UNL     1     -41.070   0.519   9.886  1.00  0.00    -0.129 SA
HETATM   18  C8  UNL     1     -41.915   1.729  10.947  1.00  0.00     0.048 C 
HETATM   19  C9  UNL     1     -41.226   3.049  10.917  1.00  0.00     0.030 C 
HETATM   20  C10 UNL     1     -41.850   1.181  12.361  1.00  0.00     0.030 C 
ENDBRANCH  10  12
ENDBRANCH   5  10
BRANCH   4  21
HETATM   21  S1  UNL     1     -46.487   2.785   8.773  1.00  0.00     0.259 S 
HETATM   22  O1  UNL     1     -45.453   3.445   7.851  1.00  0.00    -0.201 OA
HETATM   23  O2  UNL     1     -46.174   1.329   8.654  1.00  0.00    -0.201 OA
BRANCH  21  24
HETATM   24  N1  UNL     1     -48.000   3.233   8.069  1.00  0.00    -0.324 N 
ATOM     25  H12 UNL     1     -48.810   2.614   8.030  1.00  0.00     0.169 HD
ATOM     26  H11 UNL     1     -47.970   4.185   7.706  1.00  0.00     0.169 HD
ENDBRANCH  21  24
ENDBRANCH   4  21
TORSDOF 4
ENDMDL
MODEL 3
REMARK VINA RESULT: -6.215584476      2.517      5.220
REMARK  4 active torsions:
REMARK  status: ('A' for Active; 'I' for Inactive)
REMARK    1  A    between atoms: C4_4  and  S1_5 
REMARK    2  A    between atoms: S1_5  and  N1_6 
REMARK    3  A    between atoms: C5_11  and  N2_12 
REMARK    4  A    between atoms: N2_12  and  C6_14 
ROOT
HETATM    1  C1  UNL     1     -39.066   5.172  13.102  1.00  0.00     0.050 C 
HETATM    2  C2  UNL     1     -40.232   4.436  13.690  1.00  0.00    -0.037 A 
HETATM    3  C3  UNL     1     -41.231   3.970  12.898  1.00  0.00     0.036 A 
HETATM    4  C4  UNL     1     -42.312   3.285  13.451  1.00  0.00     0.107 A 
HETATM    5  C5  UNL     1     -42.413   3.051  14.813  1.00  0.00     0.077 A 
HETATM    6  C11 UNL     1     -41.360   3.552  15.585  1.00  0.00     0.084 A 
HETATM    7 CL1  UNL     1     -41.325   3.384  17.346  1.00  0.00    -0.080 Cl
HETATM    8  C12 UNL     1     -40.294   4.228  15.031  1.00  0.00     0.064 A 
HETATM    9 CL2  UNL     1     -38.976   4.849  16.025  1.00  0.00    -0.082 Cl
ENDROOT
BRANCH   5  10
HETATM   10  N2  UNL     1     -43.483   2.378  15.438  1.00  0.00    -0.359 N 
ATOM     11  H2  UNL     1     -43.531   1.369  15.292  1.00  0.00     0.162 HD
BRANCH  10  12
HETATM   12  C6  UNL     1     -44.519   2.955  16.263  1.00  0.00     0.303 C 
HETATM   13  N3  UNL     1     -45.136   4.015  15.541  1.00  0.00    -0.044 N 
HETATM   14  C7  UNL     1     -46.332   4.472  16.203  1.00  0.00     0.309 C 
ATOM     15  H32 UNL     1     -44.485   4.782  15.372  1.00  0.00     0.280 HD
ATOM     16  H31 UNL     1     -45.321   3.751  14.573  1.00  0.00     0.280 HD
HETATM   17  S2  UNL     1     -47.109   2.865  16.555  1.00  0.00    -0.129 SA
HETATM   18  C8  UNL     1     -45.551   1.936  16.663  1.00  0.00     0.048 C 
HETATM   19  C9  UNL     1     -45.585   0.720  15.803  1.00  0.00     0.030 C 
HETATM   20  C10 UNL     1     -45.408   1.502  18.109  1.00  0.00     0.030 C 
ENDBRANCH  10  12
ENDBRANCH   5  10
BRANCH   4  21
HETATM   21  S1  UNL     1     -43.545   2.729  12.377  1.00  0.00     0.259 S 
HETATM   22  O1  UNL     1     -43.715   1.213  12.543  1.00  0.00    -0.201 OA
HETATM   23  O2  UNL     1     -44.911   3.262  12.665  1.00  0.00    -0.201 OA
BRANCH  21  24
HETATM   24  N1  UNL     1     -43.061   2.904  10.728  1.00  0.00    -0.324 N 
ATOM     25  H12 UNL     1     -42.135   2.653  10.382  1.00  0.00     0.169 HD
ATOM     26  H11 UNL     1     -43.817   3.287  10.161  1.00  0.00     0.169 HD
ENDBRANCH  21  24
ENDBRANCH   4  21
TORSDOF 4
ENDMDL
MODEL 4
REMARK VINA RESULT: -6.099998089      4.451      5.902
REMARK  4 active torsions:
REMARK  status: ('A' for Active; 'I' for Inactive)
REMARK    1  A    between atoms: C4_4  and  S1_5 
REMARK    2  A    between atoms: S1_5  and  N1_6 
REMARK    3  A    between atoms: C5_11  and  N2_12 
REMARK    4  A    between atoms: N2_12  and  C6_14 
ROOT
HETATM    1  C1  UNL     1     -51.211   2.608  10.534  1.00  0.00     0.050 C 
HETATM    2  C2  UNL     1     -49.821   3.115  10.777  1.00  0.00    -0.037 A 
HETATM    3  C3  UNL     1     -48.816   2.831   9.911  1.00  0.00     0.036 A 
HETATM    4  C4  UNL     1     -47.526   3.307  10.142  1.00  0.00     0.107 A 
HETATM    5  C5  UNL     1     -47.217   4.080  11.251  1.00  0.00     0.077 A 
HETATM    6  C11 UNL     1     -48.287   4.343  12.112  1.00  0.00     0.084 A 
HETATM    7 CL1  UNL     1     -48.086   5.284  13.596  1.00  0.00    -0.080 Cl
HETATM    8  C12 UNL     1     -49.560   3.870  11.875  1.00  0.00     0.064 A 
HETATM    9 CL2  UNL     1     -50.894   4.217  12.976  1.00  0.00    -0.082 Cl
ENDROOT
BRANCH   5  10
HETATM   10  N2  UNL     1     -45.934   4.582  11.551  1.00  0.00    -0.359 N 
ATOM     11  H2  UNL     1     -45.653   5.431  11.060  1.00  0.00     0.162 HD
BRANCH  10  12
HETATM   12  C6  UNL     1     -44.972   4.029  12.476  1.00  0.00     0.303 C 
HETATM   13  N3  UNL     1     -43.872   3.515  11.734  1.00  0.00    -0.044 N 
HETATM   14  C7  UNL     1     -42.772   3.171  12.600  1.00  0.00     0.309 C 
ATOM     15  H32 UNL     1     -44.149   2.726  11.150  1.00  0.00     0.280 HD
ATOM     16  H31 UNL     1     -43.583   4.160  10.998  1.00  0.00     0.280 HD
HETATM   17  S2  UNL     1     -42.722   4.673  13.626  1.00  0.00    -0.129 SA
HETATM   18  C8  UNL     1     -44.492   5.055  13.465  1.00  0.00     0.048 C 
HETATM   19  C9  UNL     1     -44.704   6.468  13.044  1.00  0.00     0.030 C 
HETATM   20  C10 UNL     1     -45.099   4.865  14.842  1.00  0.00     0.030 C 
ENDBRANCH  10  12
ENDBRANCH   5  10
BRANCH   4  21
HETATM   21  S1  UNL     1     -46.300   2.897   8.997  1.00  0.00     0.259 S 
HETATM   22  O1  UNL     1     -45.711   4.184   8.403  1.00  0.00    -0.201 OA
HETATM   23  O2  UNL     1     -45.108   2.208   9.577  1.00  0.00    -0.201 OA
BRANCH  21  24
HETATM   24  N1  UNL     1     -46.974   2.090   7.626  1.00  0.00    -0.324 N 
ATOM     25  H12 UNL     1     -47.774   1.459   7.679  1.00  0.00     0.169 HD
ATOM     26  H11 UNL     1     -46.469   2.330   6.773  1.00  0.00     0.169 HD
ENDBRANCH  21  24
ENDBRANCH   4  21
TORSDOF 4
ENDMDL
MODEL 5
REMARK VINA RESULT: -5.974924660      3.251      6.128
REMARK  4 active torsions:
REMARK  status: ('A' for Active; 'I' for Inactive)
REMARK    1  A    between atoms: C4_4  and  S1_5 
REMARK    2  A    between atoms: S1_5  and  N1_6 
REMARK    3  A    between atoms: C5_11  and  N2_12 
REMARK    4  A    between atoms: N2_12  and  C6_14 
ROOT
HETATM    1  C1  UNL     1     -39.397   2.247   8.537  1.00  0.00     0.050 C 
HETATM    2  C2  UNL     1     -40.291   2.359   9.735  1.00  0.00    -0.037 A 
HETATM    3  C3  UNL     1     -40.069   3.306  10.682  1.00  0.00     0.036 A 
HETATM    4  C4  UNL     1     -40.905   3.405  11.793  1.00  0.00     0.107 A 
HETATM    5  C5  UNL     1     -41.985   2.555  11.978  1.00  0.00     0.077 A 
HETATM    6  C11 UNL     1     -42.168   1.598  10.975  1.00  0.00     0.084 A 
HETATM    7 CL1  UNL     1     -43.470   0.402  11.049  1.00  0.00    -0.080 Cl
HETATM    8  C12 UNL     1     -41.338   1.506   9.879  1.00  0.00     0.064 A 
HETATM    9 CL2  UNL     1     -41.592   0.290   8.627  1.00  0.00    -0.082 Cl
ENDROOT
BRANCH   5  10
HETATM   10  N2  UNL     1     -42.860   2.592  13.083  1.00  0.00    -0.359 N 
ATOM     11  H2  UNL     1     -42.758   1.843  13.768  1.00  0.00     0.162 HD
BRANCH  10  12
HETATM   12  C6  UNL     1     -43.886   3.572  13.354  1.00  0.00     0.303 C 
HETATM   13  N3  UNL     1     -44.673   3.742  12.181  1.00  0.00    -0.044 N 
HETATM   14  C7  UNL     1     -45.856   4.519  12.453  1.00  0.00     0.309 C 
ATOM     15  H32 UNL     1     -44.128   4.146  11.419  1.00  0.00     0.280 HD
ATOM     16  H31 UNL     1     -44.903   2.846  11.751  1.00  0.00     0.280 HD
HETATM   17  S2  UNL     1     -46.418   3.682  13.968  1.00  0.00    -0.129 SA
HETATM   18  C8  UNL     1     -44.761   3.163  14.507  1.00  0.00     0.048 C 
HETATM   19  C9  UNL     1     -44.726   1.708  14.824  1.00  0.00     0.030 C 
HETATM   20  C10 UNL     1     -44.457   3.941  15.773  1.00  0.00     0.030 C 
ENDBRANCH  10  12
ENDBRANCH   5  10
BRANCH   4  21
HETATM   21  S1  UNL     1     -40.553   4.632  12.956  1.00  0.00     0.259 S 
HETATM   22  O1  UNL     1     -40.780   4.072  14.368  1.00  0.00    -0.201 OA
HETATM   23  O2  UNL     1     -39.127   5.074  12.987  1.00  0.00    -0.201 OA
BRANCH  21  24
HETATM   24  N1  UNL     1     -41.686   5.933  12.851  1.00  0.00    -0.324 N 
ATOM     25  H12 UNL     1     -42.401   6.002  12.128  1.00  0.00     0.169 HD
ATOM     26  H11 UNL     1     -41.540   6.609  13.601  1.00  0.00     0.169 HD
ENDBRANCH  21  24
ENDBRANCH   4  21
TORSDOF 4
ENDMDL
