MODEL 1
REMARK VINA RESULT: -6.876132800      0.000      0.000
REMARK  2 active torsions:
REMARK  status: ('A' for Active; 'I' for Inactive)
REMARK    1  A    between atoms: C3_6  and  C4_7 
REMARK    2  A    between atoms: N2_13  and  C9_14 
ROOT
HETATM    1  C4  UNL     1     -42.378   3.442  15.685  1.00  0.00     0.116 C 
HETATM    2  C5  UNL     1     -43.063   4.336  16.696  1.00  0.00     0.029 C 
HETATM    3  C6  UNL     1     -44.447   4.706  16.201  1.00  0.00     0.024 C 
HETATM    4  C7  UNL     1     -44.403   5.451  14.913  1.00  0.00     0.100 C 
HETATM    5 CL1  UNL     1     -44.118   7.180  15.210  1.00  0.00    -0.123 Cl
HETATM    6  C8  UNL     1     -43.456   4.901  13.908  1.00  0.00     0.144 C 
HETATM    7  N2  UNL     1     -42.778   3.687  14.326  1.00  0.00    -0.369 N 
ENDROOT
BRANCH   7   8
HETATM    8  C9  UNL     1     -42.522   2.734  13.328  1.00  0.00     0.084 A 
HETATM    9  C10 UNL     1     -43.259   1.596  13.215  1.00  0.00     0.090 A 
HETATM   10  N3  UNL     1     -44.287   1.175  14.086  1.00  0.00    -0.099 NA
HETATM   11  C11 UNL     1     -42.966   0.718  12.165  1.00  0.00     0.120 A 
HETATM   12  N4  UNL     1     -42.003   0.941  11.272  1.00  0.00    -0.330 N 
HETATM   13  C12 UNL     1     -41.287   2.067  11.402  1.00  0.00     0.269 A 
ATOM     14  H4  UNL     1     -41.817   0.279  10.518  1.00  0.00     0.168 HD
HETATM   15  O1  UNL     1     -40.371   2.249  10.533  1.00  0.00    -0.266 OA
HETATM   16  C13 UNL     1     -41.524   2.971  12.412  1.00  0.00     0.130 A 
HETATM   17 CL2  UNL     1     -40.491   4.385  12.425  1.00  0.00    -0.076 Cl
ENDBRANCH   7   8
BRANCH   1  18
HETATM   18  C3  UNL     1     -40.938   3.291  15.955  1.00  0.00     0.219 C 
HETATM   19  N1  UNL     1     -40.801   2.821  17.346  1.00  0.00    -0.056 N 
HETATM   20  C2  UNL     1     -39.405   2.398  17.476  1.00  0.00     0.243 C 
ATOM     21  H12 UNL     1     -41.475   2.099  17.605  1.00  0.00     0.279 HD
ATOM     22  H11 UNL     1     -41.090   3.508  18.043  1.00  0.00     0.279 HD
HETATM   23  C1  UNL     1     -39.068   2.305  18.936  1.00  0.00     0.051 C 
HETATM   24  S1  UNL     1     -38.583   3.856  16.710  1.00  0.00    -0.135 SA
HETATM   25  C14 UNL     1     -40.108   4.555  15.921  1.00  0.00     0.111 C 
ENDBRANCH   1  18
TORSDOF 2
ENDMDL
MODEL 2
REMARK VINA RESULT: -6.755893097      1.579      1.683
REMARK  2 active torsions:
REMARK  status: ('A' for Active; 'I' for Inactive)
REMARK    1  A    between atoms: C3_6  and  C4_7 
REMARK    2  A    between atoms: N2_13  and  C9_14 
ROOT
HETATM    1  C4  UNL     1     -42.886   2.657  14.471  1.00  0.00     0.116 C 
HETATM    2  C5  UNL     1     -44.031   3.100  15.356  1.00  0.00     0.029 C 
HETATM    3  C6  UNL     1     -45.341   2.972  14.604  1.00  0.00     0.024 C 
HETATM    4  C7  UNL     1     -45.374   3.822  13.383  1.00  0.00     0.100 C 
HETATM    5 CL1  UNL     1     -45.852   5.482  13.800  1.00  0.00    -0.123 Cl
HETATM    6  C8  UNL     1     -44.129   3.794  12.570  1.00  0.00     0.144 C 
HETATM    7  N2  UNL     1     -43.110   2.889  13.070  1.00  0.00    -0.369 N 
ENDROOT
BRANCH   7   8
HETATM    8  C9  UNL     1     -42.331   2.227  12.108  1.00  0.00     0.084 A 
HETATM    9  C10 UNL     1     -42.579   0.940  11.743  1.00  0.00     0.090 A 
HETATM   10  N3  UNL     1     -43.552   0.085  12.303  1.00  0.00    -0.099 NA
HETATM   11  C11 UNL     1     -41.781   0.369  10.745  1.00  0.00     0.120 A 
HETATM   12  N4  UNL     1     -40.792   1.021  10.136  1.00  0.00    -0.330 N 
HETATM   13  C12 UNL     1     -40.563   2.287  10.511  1.00  0.00     0.269 A 
ATOM     14  H4  UNL     1     -40.231   0.573   9.411  1.00  0.00     0.168 HD
HETATM   15  O1  UNL     1     -39.608   2.883   9.910  1.00  0.00    -0.266 OA
HETATM   16  C13 UNL     1     -41.310   2.907  11.485  1.00  0.00     0.130 A 
HETATM   17 CL2  UNL     1     -40.868   4.563  11.844  1.00  0.00    -0.076 Cl
ENDBRANCH   7   8
BRANCH   1  18
HETATM   18  C3  UNL     1     -41.573   3.035  15.023  1.00  0.00     0.219 C 
HETATM   19  N1  UNL     1     -41.556   2.615  16.436  1.00  0.00    -0.056 N 
HETATM   20  C2  UNL     1     -40.158   2.727  16.856  1.00  0.00     0.243 C 
ATOM     21  H12 UNL     1     -41.961   1.692  16.596  1.00  0.00     0.279 HD
ATOM     22  H11 UNL     1     -42.206   3.134  17.027  1.00  0.00     0.279 HD
HETATM   23  C1  UNL     1     -40.108   2.730  18.357  1.00  0.00     0.051 C 
HETATM   24  S1  UNL     1     -39.783   4.401  16.190  1.00  0.00    -0.135 SA
HETATM   25  C14 UNL     1     -41.266   4.515  15.085  1.00  0.00     0.111 C 
ENDBRANCH   1  18
TORSDOF 2
ENDMDL
MODEL 3
REMARK VINA RESULT: -6.650916891      1.792      2.073
REMARK  2 active torsions:
REMARK  status: ('A' for Active; 'I' for Inactive)
REMARK    1  A    between atoms: C3_6  and  C4_7 
REMARK    2  A    between atoms: N2_13  and  C9_14 
ROOT
HETATM    1  C4  UNL     1     -43.897   3.177  15.115  1.00  0.00     0.116 C 
HETATM    2  C5  UNL     1     -45.224   3.375  15.815  1.00  0.00     0.029 C 
HETATM    3  C6  UNL     1     -46.359   3.031  14.873  1.00  0.00     0.024 C 
HETATM    4  C7  UNL     1     -46.367   3.894  13.661  1.00  0.00     0.100 C 
HETATM    5 CL1  UNL     1     -47.202   5.426  14.002  1.00  0.00    -0.123 Cl
HETATM    6  C8  UNL     1     -45.032   4.120  13.048  1.00  0.00     0.144 C 
HETATM    7  N2  UNL     1     -43.948   3.404  13.697  1.00  0.00    -0.369 N 
ENDROOT
BRANCH   7   8
HETATM    8  C9  UNL     1     -42.924   2.925  12.864  1.00  0.00     0.084 A 
HETATM    9  C10 UNL     1     -42.910   1.644  12.406  1.00  0.00     0.090 A 
HETATM   10  N3  UNL     1     -43.826   0.625  12.742  1.00  0.00    -0.099 NA
HETATM   11  C11 UNL     1     -41.875   1.260  11.544  1.00  0.00     0.120 A 
HETATM   12  N4  UNL     1     -40.905   2.083  11.153  1.00  0.00    -0.330 N 
HETATM   13  C12 UNL     1     -40.936   3.341  11.617  1.00  0.00     0.269 A 
ATOM     14  H4  UNL     1     -40.166   1.769  10.523  1.00  0.00     0.168 HD
HETATM   15  O1  UNL     1     -39.992   4.103  11.225  1.00  0.00    -0.266 OA
HETATM   16  C13 UNL     1     -41.925   3.782  12.466  1.00  0.00     0.130 A 
HETATM   17 CL2  UNL     1     -41.804   5.455  12.970  1.00  0.00    -0.076 Cl
ENDBRANCH   7   8
BRANCH   1  18
HETATM   18  C3  UNL     1     -42.775   3.773  15.861  1.00  0.00     0.219 C 
HETATM   19  N1  UNL     1     -41.870   2.673  16.241  1.00  0.00    -0.056 N 
HETATM   20  C2  UNL     1     -40.642   3.324  16.703  1.00  0.00     0.243 C 
ATOM     21  H12 UNL     1     -41.718   1.989  15.499  1.00  0.00     0.279 HD
ATOM     22  H11 UNL     1     -42.272   2.025  16.919  1.00  0.00     0.279 HD
HETATM   23  C1  UNL     1     -39.839   2.330  17.490  1.00  0.00     0.051 C 
HETATM   24  S1  UNL     1     -41.381   4.591  17.816  1.00  0.00    -0.135 SA
HETATM   25  C14 UNL     1     -43.114   4.430  17.180  1.00  0.00     0.111 C 
ENDBRANCH   1  18
TORSDOF 2
ENDMDL
MODEL 4
REMARK VINA RESULT: -6.588494787      3.631      5.481
REMARK  2 active torsions:
REMARK  status: ('A' for Active; 'I' for Inactive)
REMARK    1  A    between atoms: C3_6  and  C4_7 
REMARK    2  A    between atoms: N2_13  and  C9_14 
ROOT
HETATM    1  C4  UNL     1     -45.600   4.047  16.160  1.00  0.00     0.116 C 
HETATM    2  C5  UNL     1     -46.871   3.771  16.934  1.00  0.00     0.029 C 
HETATM    3  C6  UNL     1     -46.681   2.557  17.821  1.00  0.00     0.024 C 
HETATM    4  C7  UNL     1     -46.368   1.331  17.037  1.00  0.00     0.100 C 
HETATM    5 CL1  UNL     1     -47.865   0.581  16.443  1.00  0.00    -0.123 Cl
HETATM    6  C8  UNL     1     -45.378   1.526  15.945  1.00  0.00     0.144 C 
HETATM    7  N2  UNL     1     -44.831   2.869  15.866  1.00  0.00    -0.369 N 
ENDROOT
BRANCH   7   8
HETATM    8  C9  UNL     1     -43.484   2.977  15.486  1.00  0.00     0.084 A 
HETATM    9  C10 UNL     1     -43.073   2.724  14.214  1.00  0.00     0.090 A 
HETATM   10  N3  UNL     1     -43.877   2.257  13.152  1.00  0.00    -0.099 NA
HETATM   11  C11 UNL     1     -41.718   2.897  13.908  1.00  0.00     0.120 A 
HETATM   12  N4  UNL     1     -40.812   3.296  14.798  1.00  0.00    -0.330 N 
HETATM   13  C12 UNL     1     -41.236   3.539  16.047  1.00  0.00     0.269 A 
ATOM     14  H4  UNL     1     -39.832   3.413  14.540  1.00  0.00     0.168 HD
HETATM   15  O1  UNL     1     -40.344   3.917  16.876  1.00  0.00    -0.266 OA
HETATM   16  C13 UNL     1     -42.554   3.388  16.413  1.00  0.00     0.130 A 
HETATM   17 CL2  UNL     1     -42.925   3.750  18.085  1.00  0.00    -0.076 Cl
ENDBRANCH   7   8
BRANCH   1  18
HETATM   18  C3  UNL     1     -45.806   5.015  15.070  1.00  0.00     0.219 C 
HETATM   19  N1  UNL     1     -45.985   4.243  13.827  1.00  0.00    -0.056 N 
HETATM   20  C2  UNL     1     -46.482   5.206  12.842  1.00  0.00     0.243 C 
ATOM     21  H12 UNL     1     -46.581   3.422  13.936  1.00  0.00     0.279 HD
ATOM     22  H11 UNL     1     -45.147   3.744  13.529  1.00  0.00     0.279 HD
HETATM   23  C1  UNL     1     -46.296   4.626  11.470  1.00  0.00     0.051 C 
HETATM   24  S1  UNL     1     -45.287   6.574  13.137  1.00  0.00    -0.135 SA
HETATM   25  C14 UNL     1     -44.648   5.937  14.756  1.00  0.00     0.111 C 
ENDBRANCH   1  18
TORSDOF 2
ENDMDL
MODEL 5
REMARK VINA RESULT: -6.528665633      3.986      6.003
REMARK  2 active torsions:
REMARK  status: ('A' for Active; 'I' for Inactive)
REMARK    1  A    between atoms: C3_6  and  C4_7 
REMARK    2  A    between atoms: N2_13  and  C9_14 
ROOT
HETATM    1  C4  UNL     1     -46.034   3.898  15.903  1.00  0.00     0.116 C 
HETATM    2  C5  UNL     1     -46.616   3.649  17.278  1.00  0.00     0.029 C 
HETATM    3  C6  UNL     1     -45.559   3.890  18.336  1.00  0.00     0.024 C 
HETATM    4  C7  UNL     1     -44.391   2.981  18.182  1.00  0.00     0.100 C 
HETATM    5 CL1  UNL     1     -44.720   1.417  18.960  1.00  0.00    -0.123 Cl
HETATM    6  C8  UNL     1     -43.915   2.811  16.784  1.00  0.00     0.144 C 
HETATM    7  N2  UNL     1     -44.629   3.614  15.807  1.00  0.00    -0.369 N 
ENDROOT
BRANCH   7   8
HETATM    8  C9  UNL     1     -43.874   4.120  14.737  1.00  0.00     0.084 A 
HETATM    9  C10 UNL     1     -43.506   5.428  14.671  1.00  0.00     0.090 A 
HETATM   10  N3  UNL     1     -43.873   6.447  15.576  1.00  0.00    -0.099 NA
HETATM   11  C11 UNL     1     -42.717   5.841  13.591  1.00  0.00     0.120 A 
HETATM   12  N4  UNL     1     -42.310   5.019  12.625  1.00  0.00    -0.330 N 
HETATM   13  C12 UNL     1     -42.686   3.734  12.707  1.00  0.00     0.269 A 
ATOM     14  H4  UNL     1     -41.735   5.354  11.853  1.00  0.00     0.168 HD
HETATM   15  O1  UNL     1     -42.282   2.974  11.766  1.00  0.00    -0.266 OA
HETATM   16  C13 UNL     1     -43.460   3.264  13.742  1.00  0.00     0.130 A 
HETATM   17 CL2  UNL     1     -43.853   1.559  13.684  1.00  0.00    -0.076 Cl
ENDBRANCH   7   8
BRANCH   1  18
HETATM   18  C3  UNL     1     -46.906   3.399  14.827  1.00  0.00     0.219 C 
HETATM   19  N1  UNL     1     -47.780   4.514  14.419  1.00  0.00    -0.056 N 
HETATM   20  C2  UNL     1     -48.405   4.078  13.168  1.00  0.00     0.243 C 
ATOM     21  H12 UNL     1     -47.297   5.410  14.346  1.00  0.00     0.279 HD
ATOM     22  H11 UNL     1     -48.448   4.796  15.136  1.00  0.00     0.279 HD
HETATM   23  C1  UNL     1     -49.602   4.944  12.904  1.00  0.00     0.051 C 
HETATM   24  S1  UNL     1     -48.926   2.386  13.672  1.00  0.00    -0.135 SA
HETATM   25  C14 UNL     1     -47.877   2.300  15.199  1.00  0.00     0.111 C 
ENDBRANCH   1  18
TORSDOF 2
ENDMDL
