MODEL 1
REMARK VINA RESULT: -6.786834987      0.000      0.000
REMARK  5 active torsions:
REMARK  status: ('A' for Active; 'I' for Inactive)
REMARK    1  A    between atoms: C3_3  and  C4_4 
REMARK    2  A    between atoms: N1_9  and  N2_10 
REMARK    3  A    between atoms: N2_10  and  C7_12 
REMARK    4  A    between atoms: C7_12  and  N3_14 
REMARK    5  A    between atoms: N3_14  and  N4_16 
ROOT
HETATM    1  C4  UNL     1     -42.379   1.989   9.939  1.00  0.00     0.213 C 
HETATM    2  S1  UNL     1     -44.024   2.622   9.397  1.00  0.00    -0.127 SA
HETATM    3  C5  UNL     1     -44.582   1.001   8.714  1.00  0.00     0.181 C 
HETATM    4  C6  UNL     1     -43.893   0.142   9.712  1.00  0.00     0.249 C 
HETATM    5  O1  UNL     1     -44.475  -0.892  10.189  1.00  0.00    -0.271 OA
HETATM    6  N1  UNL     1     -42.594   0.593  10.045  1.00  0.00    -0.238 N 
ENDROOT
BRANCH   6   7
HETATM    7  N2  UNL     1     -41.605  -0.354  10.438  1.00  0.00    -0.269 N 
ATOM      8  H2  UNL     1     -41.682  -0.808  11.348  1.00  0.00     0.190 HD
BRANCH   7   9
HETATM    9  C7  UNL     1     -40.510  -0.679   9.585  1.00  0.00     0.205 C 
HETATM   10  S2  UNL     1     -39.797   0.512   8.725  1.00  0.00    -0.038 SA
BRANCH   9  11
HETATM   11  N3  UNL     1     -40.037  -2.004   9.477  1.00  0.00    -0.282 N 
ATOM     12  H3  UNL     1     -40.687  -2.783   9.578  1.00  0.00     0.189 HD
BRANCH  11  13
HETATM   13  N4  UNL     1     -38.689  -2.257   9.232  1.00  0.00    -0.343 N 
ATOM     14  H42 UNL     1     -38.046  -1.467   9.166  1.00  0.00     0.176 HD
ATOM     15  H41 UNL     1     -38.353  -3.213   9.120  1.00  0.00     0.176 HD
ENDBRANCH  11  13
ENDBRANCH   9  11
ENDBRANCH   7   9
ENDBRANCH   6   7
BRANCH   1  16
HETATM   16  C3  UNL     1     -41.995   2.639  11.213  1.00  0.00     0.026 A 
HETATM   17  C2  UNL     1     -40.945   3.469  11.487  1.00  0.00    -0.022 A 
HETATM   18  C1  UNL     1     -39.989   3.855  10.373  1.00  0.00     0.051 C 
HETATM   19  C9  UNL     1     -40.818   3.910  12.751  1.00  0.00     0.069 A 
HETATM   20  C8  UNL     1     -41.752   3.490  13.655  1.00  0.00     0.097 A 
HETATM   21 CL2  UNL     1     -39.508   5.001  13.300  1.00  0.00    -0.081 Cl
HETATM   22  S3  UNL     1     -42.771   2.498  12.714  1.00  0.00    -0.077 SA
HETATM   23 CL1  UNL     1     -41.888   3.864  15.384  1.00  0.00    -0.074 Cl
ENDBRANCH   1  16
TORSDOF 5
ENDMDL
MODEL 2
REMARK VINA RESULT: -6.690740448      1.977      2.195
REMARK  5 active torsions:
REMARK  status: ('A' for Active; 'I' for Inactive)
REMARK    1  A    between atoms: C3_3  and  C4_4 
REMARK    2  A    between atoms: N1_9  and  N2_10 
REMARK    3  A    between atoms: N2_10  and  C7_12 
REMARK    4  A    between atoms: C7_12  and  N3_14 
REMARK    5  A    between atoms: N3_14  and  N4_16 
ROOT
HETATM    1  C4  UNL     1     -41.541   1.276   9.334  1.00  0.00     0.213 C 
HETATM    2  S1  UNL     1     -43.102   0.397   8.897  1.00  0.00    -0.127 SA
HETATM    3  C5  UNL     1     -42.251  -0.953   7.970  1.00  0.00     0.181 C 
HETATM    4  C6  UNL     1     -41.035  -1.013   8.823  1.00  0.00     0.249 C 
HETATM    5  O1  UNL     1     -40.516  -2.140   9.132  1.00  0.00    -0.271 OA
HETATM    6  N1  UNL     1     -40.561   0.259   9.220  1.00  0.00    -0.238 N 
ENDROOT
BRANCH   6   7
HETATM    7  N2  UNL     1     -39.169   0.442   9.462  1.00  0.00    -0.269 N 
ATOM      8  H2  UNL     1     -38.860   0.806  10.363  1.00  0.00     0.190 HD
BRANCH   7   9
HETATM    9  C7  UNL     1     -38.197   0.125   8.466  1.00  0.00     0.205 C 
HETATM   10  S2  UNL     1     -37.805   1.256   7.357  1.00  0.00    -0.038 SA
BRANCH   9  11
HETATM   11  N3  UNL     1     -37.575  -1.141   8.430  1.00  0.00    -0.282 N 
ATOM     12  H3  UNL     1     -37.056  -1.426   7.600  1.00  0.00     0.189 HD
BRANCH  11  13
HETATM   13  N4  UNL     1     -37.662  -2.003   9.521  1.00  0.00    -0.343 N 
ATOM     14  H42 UNL     1     -38.243  -1.732  10.315  1.00  0.00     0.176 HD
ATOM     15  H41 UNL     1     -37.156  -2.888   9.523  1.00  0.00     0.176 HD
ENDBRANCH  11  13
ENDBRANCH   9  11
ENDBRANCH   7   9
ENDBRANCH   6   7
BRANCH   1  16
HETATM   16  C3  UNL     1     -41.661   1.850  10.693  1.00  0.00     0.026 A 
HETATM   17  C2  UNL     1     -41.075   2.964  11.224  1.00  0.00    -0.022 A 
HETATM   18  C1  UNL     1     -40.165   3.814  10.355  1.00  0.00     0.051 C 
HETATM   19  C9  UNL     1     -41.345   3.253  12.510  1.00  0.00     0.069 A 
HETATM   20  C8  UNL     1     -42.186   2.406  13.175  1.00  0.00     0.097 A 
HETATM   21 CL2  UNL     1     -40.671   4.667  13.377  1.00  0.00    -0.081 Cl
HETATM   22  S3  UNL     1     -42.567   1.242  11.990  1.00  0.00    -0.077 SA
HETATM   23 CL1  UNL     1     -42.748   2.477  14.856  1.00  0.00    -0.074 Cl
ENDBRANCH   1  16
TORSDOF 5
ENDMDL
MODEL 3
REMARK VINA RESULT: -6.425123438      4.615      6.013
REMARK  5 active torsions:
REMARK  status: ('A' for Active; 'I' for Inactive)
REMARK    1  A    between atoms: C3_3  and  C4_4 
REMARK    2  A    between atoms: N1_9  and  N2_10 
REMARK    3  A    between atoms: N2_10  and  C7_12 
REMARK    4  A    between atoms: C7_12  and  N3_14 
REMARK    5  A    between atoms: N3_14  and  N4_16 
ROOT
HETATM    1  C4  UNL     1     -42.884   2.815  13.146  1.00  0.00     0.213 C 
HETATM    2  S1  UNL     1     -44.481   3.504  12.533  1.00  0.00    -0.127 SA
HETATM    3  C5  UNL     1     -44.544   4.855  13.789  1.00  0.00     0.181 C 
HETATM    4  C6  UNL     1     -43.079   5.097  13.862  1.00  0.00     0.249 C 
HETATM    5  O1  UNL     1     -42.621   6.288  13.937  1.00  0.00    -0.271 OA
HETATM    6  N1  UNL     1     -42.309   3.909  13.837  1.00  0.00    -0.238 N 
ENDROOT
BRANCH   6   7
HETATM    7  N2  UNL     1     -41.049   3.880  14.501  1.00  0.00    -0.269 N 
ATOM      8  H2  UNL     1     -40.226   4.254  14.028  1.00  0.00     0.190 HD
BRANCH   7   9
HETATM    9  C7  UNL     1     -40.916   3.338  15.814  1.00  0.00     0.205 C 
HETATM   10  S2  UNL     1     -41.218   4.297  17.099  1.00  0.00    -0.038 SA
BRANCH   9  11
HETATM   11  N3  UNL     1     -40.532   1.995  16.013  1.00  0.00    -0.282 N 
ATOM     12  H3  UNL     1     -40.887   1.270  15.390  1.00  0.00     0.189 HD
BRANCH  11  13
HETATM   13  N4  UNL     1     -39.672   1.652  17.054  1.00  0.00    -0.343 N 
ATOM     14  H42 UNL     1     -38.678   1.541  16.852  1.00  0.00     0.176 HD
ATOM     15  H41 UNL     1     -40.030   1.515  17.998  1.00  0.00     0.176 HD
ENDBRANCH  11  13
ENDBRANCH   9  11
ENDBRANCH   7   9
ENDBRANCH   6   7
BRANCH   1  16
HETATM   16  C3  UNL     1     -42.080   2.337  11.998  1.00  0.00     0.026 A 
HETATM   17  C2  UNL     1     -42.026   1.096  11.427  1.00  0.00    -0.022 A 
HETATM   18  C1  UNL     1     -42.904  -0.015  11.974  1.00  0.00     0.051 C 
HETATM   19  C9  UNL     1     -41.185   0.927  10.391  1.00  0.00     0.069 A 
HETATM   20  C8  UNL     1     -40.457   2.013   9.997  1.00  0.00     0.097 A 
HETATM   21 CL2  UNL     1     -40.977  -0.623   9.519  1.00  0.00    -0.081 Cl
HETATM   22  S3  UNL     1     -40.967   3.226  11.080  1.00  0.00    -0.077 SA
HETATM   23 CL1  UNL     1     -39.265   2.148   8.689  1.00  0.00    -0.074 Cl
ENDBRANCH   1  16
TORSDOF 5
ENDMDL
MODEL 4
REMARK VINA RESULT: -6.420171740      4.895      6.872
REMARK  5 active torsions:
REMARK  status: ('A' for Active; 'I' for Inactive)
REMARK    1  A    between atoms: C3_3  and  C4_4 
REMARK    2  A    between atoms: N1_9  and  N2_10 
REMARK    3  A    between atoms: N2_10  and  C7_12 
REMARK    4  A    between atoms: C7_12  and  N3_14 
REMARK    5  A    between atoms: N3_14  and  N4_16 
ROOT
HETATM    1  C4  UNL     1     -42.769   3.024  16.108  1.00  0.00     0.213 C 
HETATM    2  S1  UNL     1     -42.280   4.061  17.552  1.00  0.00    -0.127 SA
HETATM    3  C5  UNL     1     -40.485   4.069  17.121  1.00  0.00     0.181 C 
HETATM    4  C6  UNL     1     -40.658   4.067  15.645  1.00  0.00     0.249 C 
HETATM    5  O1  UNL     1     -39.905   4.787  14.904  1.00  0.00    -0.271 OA
HETATM    6  N1  UNL     1     -41.699   3.220  15.199  1.00  0.00    -0.238 N 
ENDROOT
BRANCH   6   7
HETATM    7  N2  UNL     1     -41.608   2.619  13.910  1.00  0.00    -0.269 N 
ATOM      8  H2  UNL     1     -41.186   1.696  13.817  1.00  0.00     0.190 HD
BRANCH   7   9
HETATM    9  C7  UNL     1     -42.096   3.286  12.747  1.00  0.00     0.205 C 
HETATM   10  S2  UNL     1     -43.410   2.688  11.986  1.00  0.00    -0.038 SA
BRANCH   9  11
HETATM   11  N3  UNL     1     -41.464   4.447  12.252  1.00  0.00    -0.282 N 
ATOM     12  H3  UNL     1     -40.770   4.367  11.509  1.00  0.00     0.189 HD
BRANCH  11  13
HETATM   13  N4  UNL     1     -41.781   5.700  12.771  1.00  0.00    -0.343 N 
ATOM     14  H42 UNL     1     -42.452   5.758  13.536  1.00  0.00     0.176 HD
ATOM     15  H41 UNL     1     -41.349   6.542  12.391  1.00  0.00     0.176 HD
ENDBRANCH  11  13
ENDBRANCH   9  11
ENDBRANCH   7   9
ENDBRANCH   6   7
BRANCH   1  16
HETATM   16  C3  UNL     1     -44.084   3.475  15.599  1.00  0.00     0.026 A 
HETATM   17  C2  UNL     1     -45.221   2.756  15.364  1.00  0.00    -0.022 A 
HETATM   18  C1  UNL     1     -45.237   1.267  15.662  1.00  0.00     0.051 C 
HETATM   19  C9  UNL     1     -46.285   3.420  14.877  1.00  0.00     0.069 A 
HETATM   20  C8  UNL     1     -46.136   4.760  14.660  1.00  0.00     0.097 A 
HETATM   21 CL2  UNL     1     -47.857   2.649  14.506  1.00  0.00    -0.081 Cl
HETATM   22  S3  UNL     1     -44.525   5.046  15.139  1.00  0.00    -0.077 SA
HETATM   23 CL1  UNL     1     -47.311   5.931  14.029  1.00  0.00    -0.074 Cl
ENDBRANCH   1  16
TORSDOF 5
ENDMDL
MODEL 5
REMARK VINA RESULT: -6.387132804      1.074      1.074
REMARK  5 active torsions:
REMARK  status: ('A' for Active; 'I' for Inactive)
REMARK    1  A    between atoms: C3_3  and  C4_4 
REMARK    2  A    between atoms: N1_9  and  N2_10 
REMARK    3  A    between atoms: N2_10  and  C7_12 
REMARK    4  A    between atoms: C7_12  and  N3_14 
REMARK    5  A    between atoms: N3_14  and  N4_16 
ROOT
HETATM    1  C4  UNL     1     -42.415   2.192   9.930  1.00  0.00     0.213 C 
HETATM    2  S1  UNL     1     -44.114   2.743   9.471  1.00  0.00    -0.127 SA
HETATM    3  C5  UNL     1     -44.629   1.094   8.823  1.00  0.00     0.181 C 
HETATM    4  C6  UNL     1     -43.850   0.274   9.787  1.00  0.00     0.249 C 
HETATM    5  O1  UNL     1     -44.357  -0.784  10.296  1.00  0.00    -0.271 OA
HETATM    6  N1  UNL     1     -42.558   0.787  10.051  1.00  0.00    -0.238 N 
ENDROOT
BRANCH   6   7
HETATM    7  N2  UNL     1     -41.506  -0.110  10.396  1.00  0.00    -0.269 N 
ATOM      8  H2  UNL     1     -41.511  -0.556  11.313  1.00  0.00     0.190 HD
BRANCH   7   9
HETATM    9  C7  UNL     1     -40.447  -0.395   9.483  1.00  0.00     0.205 C 
HETATM   10  S2  UNL     1     -40.418  -1.846   8.736  1.00  0.00    -0.038 SA
BRANCH   9  11
HETATM   11  N3  UNL     1     -39.436   0.553   9.220  1.00  0.00    -0.282 N 
ATOM     12  H3  UNL     1     -39.361   1.387   9.801  1.00  0.00     0.189 HD
BRANCH  11  13
HETATM   13  N4  UNL     1     -38.540   0.358   8.171  1.00  0.00    -0.343 N 
ATOM     14  H42 UNL     1     -38.864   0.507   7.215  1.00  0.00     0.176 HD
ATOM     15  H41 UNL     1     -37.580   0.072   8.357  1.00  0.00     0.176 HD
ENDBRANCH  11  13
ENDBRANCH   9  11
ENDBRANCH   7   9
ENDBRANCH   6   7
BRANCH   1  16
HETATM   16  C3  UNL     1     -41.998   2.866  11.180  1.00  0.00     0.026 A 
HETATM   17  C2  UNL     1     -40.869   3.588  11.447  1.00  0.00    -0.022 A 
HETATM   18  C1  UNL     1     -39.843   3.800  10.348  1.00  0.00     0.051 C 
HETATM   19  C9  UNL     1     -40.729   4.083  12.690  1.00  0.00     0.069 A 
HETATM   20  C8  UNL     1     -41.732   3.822  13.580  1.00  0.00     0.097 A 
HETATM   21 CL2  UNL     1     -39.321   5.050  13.225  1.00  0.00    -0.081 Cl
HETATM   22  S3  UNL     1     -42.828   2.899  12.658  1.00  0.00    -0.077 SA
HETATM   23 CL1  UNL     1     -41.875   4.306  15.281  1.00  0.00    -0.074 Cl
ENDBRANCH   1  16
TORSDOF 5
ENDMDL
