MODEL 1
REMARK VINA RESULT: -6.831960523      0.000      0.000
REMARK  5 active torsions:
REMARK  status: ('A' for Active; 'I' for Inactive)
REMARK    1  A    between atoms: N1_1  and  C1_4 
REMARK    2  A    between atoms: C1_4  and  S1_6 
REMARK    3  A    between atoms: S1_6  and  C2_7 
REMARK    4  A    between atoms: C2_7  and  N3_8 
REMARK    5  A    between atoms: N3_8  and  C3_10 
ROOT
HETATM    1  C3  UNL     1      40.821   2.191 -10.115  1.00  0.00     0.116 A 
HETATM    2  N4  UNL     1      41.845   1.665 -10.891  1.00  0.00    -0.318 N 
ATOM      3  H4  UNL     1      42.395   2.319 -11.449  1.00  0.00     0.170 HD
HETATM    4  C4  UNL     1      42.161   0.394 -10.964  1.00  0.00     0.180 A 
HETATM    5 CL1  UNL     1      43.479  -0.186 -11.979  1.00  0.00    -0.045 Cl
HETATM    6  N5  UNL     1      41.448  -0.482 -10.237  1.00  0.00    -0.336 N 
ATOM      7  H5  UNL     1      41.687  -1.472 -10.290  1.00  0.00     0.168 HD
HETATM    8  C5  UNL     1      40.438  -0.108  -9.450  1.00  0.00     0.023 A 
HETATM    9  C6  UNL     1      40.121   1.237  -9.387  1.00  0.00     0.018 A 
HETATM   10  C7  UNL     1      38.994   1.579  -8.505  1.00  0.00     0.118 C 
HETATM   11  S2  UNL     1      37.603   0.499  -9.052  1.00  0.00    -0.164 SA
HETATM   12  C8  UNL     1      38.248  -1.195  -9.016  1.00  0.00     0.080 C 
HETATM   13  C9  UNL     1      39.700  -1.120  -8.675  1.00  0.00     0.068 C 
ENDROOT
BRANCH   1  14
HETATM   14  N3  UNL     1      40.646   3.419 -10.146  1.00  0.00    -0.346 N 
ATOM     15  H3  UNL     1      40.828   3.766  -9.205  1.00  0.00     0.167 HD
BRANCH  14  16
HETATM   16  C2  UNL     1      40.312   4.504 -10.909  1.00  0.00     0.143 C 
BRANCH  16  17
HETATM   17  S1  UNL     1      41.098   4.517 -12.564  1.00  0.00    -0.052 SA
BRANCH  17  18
HETATM   18  C1  UNL     1      39.835   4.836 -13.783  1.00  0.00     0.153 C 
HETATM   19  N2  UNL     1      38.574   5.340 -13.347  1.00  0.00    -0.075 NA
BRANCH  18  20
HETATM   20  N1  UNL     1      40.046   4.618 -15.037  1.00  0.00    -0.382 N 
ATOM     21  H12 UNL     1      39.784   5.305 -15.744  1.00  0.00     0.157 HD
ATOM     22  H11 UNL     1      40.484   3.748 -15.339  1.00  0.00     0.157 HD
ENDBRANCH  18  20
ENDBRANCH  17  18
ENDBRANCH  16  17
ENDBRANCH  14  16
ENDBRANCH   1  14
TORSDOF 5
ENDMDL
MODEL 2
REMARK VINA RESULT: -6.745609647      2.830      3.960
REMARK  5 active torsions:
REMARK  status: ('A' for Active; 'I' for Inactive)
REMARK    1  A    between atoms: N1_1  and  C1_4 
REMARK    2  A    between atoms: C1_4  and  S1_6 
REMARK    3  A    between atoms: S1_6  and  C2_7 
REMARK    4  A    between atoms: C2_7  and  N3_8 
REMARK    5  A    between atoms: N3_8  and  C3_10 
ROOT
HETATM    1  C3  UNL     1      42.009   2.459  -9.689  1.00  0.00     0.116 A 
HETATM    2  N4  UNL     1      41.136   1.468  -9.262  1.00  0.00    -0.318 N 
ATOM      3  H4  UNL     1      40.137   1.671  -9.307  1.00  0.00     0.170 HD
HETATM    4  C4  UNL     1      41.493   0.292  -8.805  1.00  0.00     0.180 A 
HETATM    5 CL1  UNL     1      40.313  -0.908  -8.282  1.00  0.00    -0.045 Cl
HETATM    6  N5  UNL     1      42.804   0.006  -8.737  1.00  0.00    -0.336 N 
ATOM      7  H5  UNL     1      43.089  -0.906  -8.382  1.00  0.00     0.168 HD
HETATM    8  C5  UNL     1      43.747   0.869  -9.116  1.00  0.00     0.023 A 
HETATM    9  C6  UNL     1      43.349   2.105  -9.594  1.00  0.00     0.018 A 
HETATM   10  C7  UNL     1      44.441   3.010  -9.989  1.00  0.00     0.118 C 
HETATM   11  S2  UNL     1      45.558   3.091  -8.524  1.00  0.00    -0.164 SA
HETATM   12  C8  UNL     1      45.964   1.372  -8.115  1.00  0.00     0.080 C 
HETATM   13  C9  UNL     1      45.168   0.491  -9.021  1.00  0.00     0.068 C 
ENDROOT
BRANCH   1  14
HETATM   14  N3  UNL     1      41.520   3.521 -10.101  1.00  0.00    -0.346 N 
ATOM     15  H3  UNL     1      42.004   4.277  -9.616  1.00  0.00     0.167 HD
BRANCH  14  16
HETATM   16  C2  UNL     1      40.605   4.109 -10.930  1.00  0.00     0.143 C 
BRANCH  16  17
HETATM   17  S1  UNL     1      41.277   4.558 -12.576  1.00  0.00    -0.052 SA
BRANCH  17  18
HETATM   18  C1  UNL     1      39.908   4.821 -13.689  1.00  0.00     0.153 C 
HETATM   19  N2  UNL     1      38.681   5.319 -13.160  1.00  0.00    -0.075 NA
BRANCH  18  20
HETATM   20  N1  UNL     1      40.014   4.568 -14.949  1.00  0.00    -0.382 N 
ATOM     21  H12 UNL     1      39.387   3.909 -15.411  1.00  0.00     0.157 HD
ATOM     22  H11 UNL     1      40.732   5.030 -15.506  1.00  0.00     0.157 HD
ENDBRANCH  18  20
ENDBRANCH  17  18
ENDBRANCH  16  17
ENDBRANCH  14  16
ENDBRANCH   1  14
TORSDOF 5
ENDMDL
MODEL 3
REMARK VINA RESULT: -6.418298417      2.808      3.374
REMARK  5 active torsions:
REMARK  status: ('A' for Active; 'I' for Inactive)
REMARK    1  A    between atoms: N1_1  and  C1_4 
REMARK    2  A    between atoms: C1_4  and  S1_6 
REMARK    3  A    between atoms: S1_6  and  C2_7 
REMARK    4  A    between atoms: C2_7  and  N3_8 
REMARK    5  A    between atoms: N3_8  and  C3_10 
ROOT
HETATM    1  C3  UNL     1      41.701   2.144 -10.978  1.00  0.00     0.116 A 
HETATM    2  N4  UNL     1      40.627   2.769 -10.358  1.00  0.00    -0.318 N 
ATOM      3  H4  UNL     1      40.292   3.642 -10.765  1.00  0.00     0.170 HD
HETATM    4  C4  UNL     1      40.008   2.324  -9.290  1.00  0.00     0.180 A 
HETATM    5 CL1  UNL     1      38.651   3.185  -8.568  1.00  0.00    -0.045 Cl
HETATM    6  N5  UNL     1      40.434   1.175  -8.739  1.00  0.00    -0.336 N 
ATOM      7  H5  UNL     1      39.959   0.824  -7.908  1.00  0.00     0.168 HD
HETATM    8  C5  UNL     1      41.455   0.476  -9.236  1.00  0.00     0.023 A 
HETATM    9  C6  UNL     1      42.095   0.962 -10.363  1.00  0.00     0.018 A 
HETATM   10  C7  UNL     1      43.215   0.145 -10.854  1.00  0.00     0.118 C 
HETATM   11  S2  UNL     1      44.323  -0.087  -9.398  1.00  0.00    -0.164 SA
HETATM   12  C8  UNL     1      43.274  -0.759  -8.081  1.00  0.00     0.080 C 
HETATM   13  C9  UNL     1      41.869  -0.780  -8.586  1.00  0.00     0.068 C 
ENDROOT
BRANCH   1  14
HETATM   14  N3  UNL     1      42.179   2.685 -11.986  1.00  0.00    -0.346 N 
ATOM     15  H3  UNL     1      43.177   2.803 -11.812  1.00  0.00     0.167 HD
BRANCH  14  16
HETATM   16  C2  UNL     1      41.935   3.191 -13.233  1.00  0.00     0.143 C 
BRANCH  16  17
HETATM   17  S1  UNL     1      41.301   4.911 -13.224  1.00  0.00    -0.052 SA
BRANCH  17  18
HETATM   18  C1  UNL     1      39.699   4.923 -14.010  1.00  0.00     0.153 C 
HETATM   19  N2  UNL     1      38.565   5.325 -13.244  1.00  0.00    -0.075 NA
BRANCH  18  20
HETATM   20  N1  UNL     1      39.557   4.578 -15.244  1.00  0.00    -0.382 N 
ATOM     21  H12 UNL     1      38.704   4.125 -15.571  1.00  0.00     0.157 HD
ATOM     22  H11 UNL     1      40.304   4.756 -15.915  1.00  0.00     0.157 HD
ENDBRANCH  18  20
ENDBRANCH  17  18
ENDBRANCH  16  17
ENDBRANCH  14  16
ENDBRANCH   1  14
TORSDOF 5
ENDMDL
MODEL 4
REMARK VINA RESULT: -6.297197897      3.735      7.019
REMARK  5 active torsions:
REMARK  status: ('A' for Active; 'I' for Inactive)
REMARK    1  A    between atoms: N1_1  and  C1_4 
REMARK    2  A    between atoms: C1_4  and  S1_6 
REMARK    3  A    between atoms: S1_6  and  C2_7 
REMARK    4  A    between atoms: C2_7  and  N3_8 
REMARK    5  A    between atoms: N3_8  and  C3_10 
ROOT
HETATM    1  C3  UNL     1      42.528   3.241 -13.264  1.00  0.00     0.116 A 
HETATM    2  N4  UNL     1      41.190   3.605 -13.322  1.00  0.00    -0.318 N 
ATOM      3  H4  UNL     1      40.496   2.861 -13.248  1.00  0.00     0.170 HD
HETATM    4  C4  UNL     1      40.746   4.832 -13.465  1.00  0.00     0.180 A 
HETATM    5 CL1  UNL     1      39.025   5.203 -13.530  1.00  0.00    -0.045 Cl
HETATM    6  N5  UNL     1      41.644   5.826 -13.564  1.00  0.00    -0.336 N 
ATOM      7  H5  UNL     1      41.306   6.782 -13.676  1.00  0.00     0.168 HD
HETATM    8  C5  UNL     1      42.959   5.613 -13.522  1.00  0.00     0.023 A 
HETATM    9  C6  UNL     1      43.407   4.312 -13.372  1.00  0.00     0.018 A 
HETATM   10  C7  UNL     1      44.869   4.147 -13.339  1.00  0.00     0.118 C 
HETATM   11  S2  UNL     1      45.486   4.987 -14.860  1.00  0.00    -0.164 SA
HETATM   12  C8  UNL     1      44.802   6.666 -14.811  1.00  0.00     0.080 C 
HETATM   13  C9  UNL     1      43.890   6.749 -13.632  1.00  0.00     0.068 C 
ENDROOT
BRANCH   1  14
HETATM   14  N3  UNL     1      42.793   2.038 -13.121  1.00  0.00    -0.346 N 
ATOM     15  H3  UNL     1      43.667   1.868 -13.617  1.00  0.00     0.167 HD
BRANCH  14  16
HETATM   16  C2  UNL     1      42.408   0.842 -12.580  1.00  0.00     0.143 C 
BRANCH  16  17
HETATM   17  S1  UNL     1      41.925   0.948 -10.815  1.00  0.00    -0.052 SA
BRANCH  17  18
HETATM   18  C1  UNL     1      42.780   2.332 -10.080  1.00  0.00     0.153 C 
HETATM   19  N2  UNL     1      44.205   2.361 -10.133  1.00  0.00    -0.075 NA
BRANCH  18  20
HETATM   20  N1  UNL     1      42.134   3.291  -9.510  1.00  0.00    -0.382 N 
ATOM     21  H12 UNL     1      42.508   4.239  -9.486  1.00  0.00     0.157 HD
ATOM     22  H11 UNL     1      41.230   3.110  -9.074  1.00  0.00     0.157 HD
ENDBRANCH  18  20
ENDBRANCH  17  18
ENDBRANCH  16  17
ENDBRANCH  14  16
ENDBRANCH   1  14
TORSDOF 5
ENDMDL
MODEL 5
REMARK VINA RESULT: -6.268224294      5.739      7.681
REMARK  5 active torsions:
REMARK  status: ('A' for Active; 'I' for Inactive)
REMARK    1  A    between atoms: N1_1  and  C1_4 
REMARK    2  A    between atoms: C1_4  and  S1_6 
REMARK    3  A    between atoms: S1_6  and  C2_7 
REMARK    4  A    between atoms: C2_7  and  N3_8 
REMARK    5  A    between atoms: N3_8  and  C3_10 
ROOT
HETATM    1  C3  UNL     1      44.355   5.580 -14.923  1.00  0.00     0.116 A 
HETATM    2  N4  UNL     1      44.450   5.037 -16.198  1.00  0.00    -0.318 N 
ATOM      3  H4  UNL     1      43.590   4.959 -16.741  1.00  0.00     0.170 HD
HETATM    4  C4  UNL     1      45.559   4.617 -16.760  1.00  0.00     0.180 A 
HETATM    5 CL1  UNL     1      45.587   3.940 -18.386  1.00  0.00    -0.045 Cl
HETATM    6  N5  UNL     1      46.702   4.712 -16.061  1.00  0.00    -0.336 N 
ATOM      7  H5  UNL     1      47.568   4.387 -16.491  1.00  0.00     0.168 HD
HETATM    8  C5  UNL     1      46.750   5.214 -14.826  1.00  0.00     0.023 A 
HETATM    9  C6  UNL     1      45.569   5.651 -14.252  1.00  0.00     0.018 A 
HETATM   10  C7  UNL     1      45.693   6.188 -12.887  1.00  0.00     0.118 C 
HETATM   11  S2  UNL     1      46.561   4.876 -11.926  1.00  0.00    -0.164 SA
HETATM   12  C8  UNL     1      48.076   4.505 -12.850  1.00  0.00     0.080 C 
HETATM   13  C9  UNL     1      48.038   5.295 -14.117  1.00  0.00     0.068 C 
ENDROOT
BRANCH   1  14
HETATM   14  N3  UNL     1      43.235   5.937 -14.531  1.00  0.00    -0.346 N 
ATOM     15  H3  UNL     1      42.941   6.702 -15.138  1.00  0.00     0.167 HD
BRANCH  14  16
HETATM   16  C2  UNL     1      42.226   5.740 -13.629  1.00  0.00     0.143 C 
BRANCH  16  17
HETATM   17  S1  UNL     1      41.197   4.264 -13.978  1.00  0.00    -0.052 SA
BRANCH  17  18
HETATM   18  C1  UNL     1      39.558   4.812 -14.419  1.00  0.00     0.153 C 
HETATM   19  N2  UNL     1      38.698   5.295 -13.389  1.00  0.00    -0.075 NA
BRANCH  18  20
HETATM   20  N1  UNL     1      39.147   4.776 -15.642  1.00  0.00    -0.382 N 
ATOM     21  H12 UNL     1      39.802   4.666 -16.416  1.00  0.00     0.157 HD
ATOM     22  H11 UNL     1      38.152   4.857 -15.850  1.00  0.00     0.157 HD
ENDBRANCH  18  20
ENDBRANCH  17  18
ENDBRANCH  16  17
ENDBRANCH  14  16
ENDBRANCH   1  14
TORSDOF 5
ENDMDL
