MODEL 1
REMARK VINA RESULT: -6.220266695      0.000      0.000
REMARK  3 active torsions:
REMARK  status: ('A' for Active; 'I' for Inactive)
REMARK    1  A    between atoms: N1_2  and  C2_4 
REMARK    2  A    between atoms: C2_4  and  C4_12 
REMARK    3  A    between atoms: N2_5  and  N3_7 
ROOT
HETATM    1  C2  UNL     1      40.155  -0.653  -9.162  1.00  0.00     0.136 C 
HETATM    2  N2  UNL     1      39.002  -1.008  -9.590  1.00  0.00    -0.282 N 
ATOM      3  H2  UNL     1      38.625  -0.529 -10.408  1.00  0.00     0.188 HD
ENDROOT
BRANCH   1   4
HETATM    4  N1  UNL     1      40.805  -1.214  -8.054  1.00  0.00    -0.378 N 
HETATM    5  C1  UNL     1      42.203  -0.994  -7.762  1.00  0.00     0.147 C 
ATOM      6  H1  UNL     1      40.265  -1.807  -7.422  1.00  0.00     0.160 HD
ENDBRANCH   1   4
BRANCH   1   7
HETATM    7  C4  UNL     1      40.829   0.433  -9.914  1.00  0.00     0.091 A 
HETATM    8  S1  UNL     1      42.166   0.365 -10.967  1.00  0.00    -0.053 SA
HETATM    9  C5  UNL     1      42.259   2.011 -11.368  1.00  0.00     0.146 A 
HETATM   10  S2  UNL     1      43.336   2.756 -12.375  1.00  0.00    -0.052 SA
HETATM   11  N6  UNL     1      41.254   2.556 -10.674  1.00  0.00    -0.326 N 
HETATM   12  C6  UNL     1      41.010   4.027 -10.771  1.00  0.00     0.159 C 
HETATM   13  C7  UNL     1      40.519   1.769  -9.932  1.00  0.00     0.128 A 
HETATM   14 CL1  UNL     1      39.139   2.374  -8.950  1.00  0.00    -0.063 Cl
ENDBRANCH   1   7
BRANCH   2  15
HETATM   15  N3  UNL     1      38.234  -2.011  -9.001  1.00  0.00    -0.274 N 
HETATM   16  C3  UNL     1      36.967  -1.944  -9.073  1.00  0.00     0.215 C 
HETATM   17  N4  UNL     1      36.340  -0.874  -9.737  1.00  0.00    -0.065 NA
HETATM   18  N5  UNL     1      36.177  -2.952  -8.482  1.00  0.00    -0.065 NA
ATOM     19  H3  UNL     1      38.683  -2.788  -8.518  1.00  0.00     0.189 HD
ENDBRANCH   2  15
TORSDOF 3
ENDMDL
MODEL 2
REMARK VINA RESULT: -6.154458615      6.566      8.255
REMARK  3 active torsions:
REMARK  status: ('A' for Active; 'I' for Inactive)
REMARK    1  A    between atoms: N1_2  and  C2_4 
REMARK    2  A    between atoms: C2_4  and  C4_12 
REMARK    3  A    between atoms: N2_5  and  N3_7 
ROOT
HETATM    1  C2  UNL     1      42.509   4.644 -15.613  1.00  0.00     0.136 C 
HETATM    2  N2  UNL     1      41.893   4.816 -14.504  1.00  0.00    -0.282 N 
ATOM      3  H2  UNL     1      42.418   4.695 -13.638  1.00  0.00     0.188 HD
ENDROOT
BRANCH   1   4
HETATM    4  N1  UNL     1      41.925   4.774 -16.881  1.00  0.00    -0.378 N 
HETATM    5  C1  UNL     1      41.425   3.650 -17.639  1.00  0.00     0.147 C 
ATOM      6  H1  UNL     1      41.850   5.707 -17.289  1.00  0.00     0.160 HD
ENDBRANCH   1   4
BRANCH   1   7
HETATM    7  C4  UNL     1      43.944   4.284 -15.518  1.00  0.00     0.091 A 
HETATM    8  S1  UNL     1      44.708   2.778 -15.736  1.00  0.00    -0.053 SA
HETATM    9  C5  UNL     1      46.309   3.261 -15.449  1.00  0.00     0.146 A 
HETATM   10  S2  UNL     1      47.675   2.331 -15.479  1.00  0.00    -0.052 SA
HETATM   11  N6  UNL     1      46.198   4.569 -15.196  1.00  0.00    -0.326 N 
HETATM   12  C6  UNL     1      47.426   5.363 -14.890  1.00  0.00     0.159 C 
HETATM   13  C7  UNL     1      45.005   5.104 -15.227  1.00  0.00     0.128 A 
HETATM   14 CL1  UNL     1      44.717   6.850 -14.903  1.00  0.00    -0.063 Cl
ENDBRANCH   1   7
BRANCH   2  15
HETATM   15  N3  UNL     1      40.544   5.157 -14.414  1.00  0.00    -0.274 N 
HETATM   16  C3  UNL     1      39.906   4.886 -13.348  1.00  0.00     0.215 C 
HETATM   17  N4  UNL     1      40.546   4.249 -12.270  1.00  0.00    -0.065 NA
HETATM   18  N5  UNL     1      38.541   5.225 -13.243  1.00  0.00    -0.065 NA
ATOM     19  H3  UNL     1      40.075   5.618 -15.193  1.00  0.00     0.189 HD
ENDBRANCH   2  15
TORSDOF 3
ENDMDL
MODEL 3
REMARK VINA RESULT: -6.120553764      2.976      3.654
REMARK  3 active torsions:
REMARK  status: ('A' for Active; 'I' for Inactive)
REMARK    1  A    between atoms: N1_2  and  C2_4 
REMARK    2  A    between atoms: C2_4  and  C4_12 
REMARK    3  A    between atoms: N2_5  and  N3_7 
ROOT
HETATM    1  C2  UNL     1      42.079  -0.000 -10.155  1.00  0.00     0.136 C 
HETATM    2  N2  UNL     1      41.406  -0.783  -9.399  1.00  0.00    -0.282 N 
ATOM      3  H2  UNL     1      41.769  -0.982  -8.466  1.00  0.00     0.188 HD
ENDROOT
BRANCH   1   4
HETATM    4  N1  UNL     1      41.712   0.366 -11.457  1.00  0.00    -0.378 N 
HETATM    5  C1  UNL     1      42.669   0.745 -12.471  1.00  0.00     0.147 C 
ATOM      6  H1  UNL     1      40.721   0.366 -11.701  1.00  0.00     0.160 HD
ENDBRANCH   1   4
BRANCH   1   7
HETATM    7  C4  UNL     1      43.335   0.544  -9.584  1.00  0.00     0.091 A 
HETATM    8  S1  UNL     1      44.790  -0.250  -9.191  1.00  0.00    -0.053 SA
HETATM    9  C5  UNL     1      45.661   1.087  -8.615  1.00  0.00     0.146 A 
HETATM   10  S2  UNL     1      47.207   1.121  -8.032  1.00  0.00    -0.052 SA
HETATM   11  N6  UNL     1      44.799   2.100  -8.747  1.00  0.00    -0.326 N 
HETATM   12  C6  UNL     1      45.214   3.475  -8.335  1.00  0.00     0.159 C 
HETATM   13  C7  UNL     1      43.615   1.841  -9.237  1.00  0.00     0.128 A 
HETATM   14 CL1  UNL     1      42.362   3.112  -9.465  1.00  0.00    -0.063 Cl
ENDBRANCH   1   7
BRANCH   2  15
HETATM   15  N3  UNL     1      40.205  -1.381  -9.778  1.00  0.00    -0.274 N 
HETATM   16  C3  UNL     1      39.128  -1.026  -9.204  1.00  0.00     0.215 C 
HETATM   17  N4  UNL     1      39.139  -0.043  -8.198  1.00  0.00    -0.065 NA
HETATM   18  N5  UNL     1      37.905  -1.621  -9.579  1.00  0.00    -0.065 NA
ATOM     19  H3  UNL     1      40.191  -2.094 -10.507  1.00  0.00     0.189 HD
ENDBRANCH   2  15
TORSDOF 3
ENDMDL
MODEL 4
REMARK VINA RESULT: -6.054111847      6.116      7.555
REMARK  3 active torsions:
REMARK  status: ('A' for Active; 'I' for Inactive)
REMARK    1  A    between atoms: N1_2  and  C2_4 
REMARK    2  A    between atoms: C2_4  and  C4_12 
REMARK    3  A    between atoms: N2_5  and  N3_7 
ROOT
HETATM    1  C2  UNL     1      42.946   4.399 -13.477  1.00  0.00     0.136 C 
HETATM    2  N2  UNL     1      41.946   5.029 -13.967  1.00  0.00    -0.282 N 
ATOM      3  H2  UNL     1      42.035   5.417 -14.906  1.00  0.00     0.188 HD
ENDROOT
BRANCH   1   4
HETATM    4  N1  UNL     1      42.977   3.811 -12.204  1.00  0.00    -0.378 N 
HETATM    5  C1  UNL     1      43.273   2.414 -11.986  1.00  0.00     0.147 C 
ATOM      6  H1  UNL     1      42.780   4.398 -11.393  1.00  0.00     0.160 HD
ENDBRANCH   1   4
BRANCH   1   7
HETATM    7  C4  UNL     1      44.147   4.298 -14.342  1.00  0.00     0.091 A 
HETATM    8  S1  UNL     1      44.365   3.470 -15.813  1.00  0.00    -0.053 SA
HETATM    9  C5  UNL     1      45.987   3.880 -16.098  1.00  0.00     0.146 A 
HETATM   10  S2  UNL     1      46.941   3.438 -17.373  1.00  0.00    -0.052 SA
HETATM   11  N6  UNL     1      46.303   4.642 -15.047  1.00  0.00    -0.326 N 
HETATM   12  C6  UNL     1      47.682   5.207 -14.939  1.00  0.00     0.159 C 
HETATM   13  C7  UNL     1      45.381   4.865 -14.147  1.00  0.00     0.128 A 
HETATM   14 CL1  UNL     1      45.676   5.871 -12.686  1.00  0.00    -0.063 Cl
ENDBRANCH   1   7
BRANCH   2  15
HETATM   15  N3  UNL     1      40.742   5.215 -13.289  1.00  0.00    -0.274 N 
HETATM   16  C3  UNL     1      39.647   5.078 -13.920  1.00  0.00     0.215 C 
HETATM   17  N4  UNL     1      39.643   4.742 -15.286  1.00  0.00    -0.065 NA
HETATM   18  N5  UNL     1      38.422   5.263 -13.247  1.00  0.00    -0.065 NA
ATOM     19  H3  UNL     1      40.740   5.460 -12.299  1.00  0.00     0.189 HD
ENDBRANCH   2  15
TORSDOF 3
ENDMDL
MODEL 5
REMARK VINA RESULT: -6.048310637      2.076      2.539
REMARK  3 active torsions:
REMARK  status: ('A' for Active; 'I' for Inactive)
REMARK    1  A    between atoms: N1_2  and  C2_4 
REMARK    2  A    between atoms: C2_4  and  C4_12 
REMARK    3  A    between atoms: N2_5  and  N3_7 
ROOT
HETATM    1  C2  UNL     1      39.482  -0.254  -8.829  1.00  0.00     0.136 C 
HETATM    2  N2  UNL     1      39.106  -1.276  -9.502  1.00  0.00    -0.282 N 
ATOM      3  H2  UNL     1      39.685  -1.575 -10.287  1.00  0.00     0.188 HD
ENDROOT
BRANCH   1   4
HETATM    4  N1  UNL     1      38.795   0.276  -7.728  1.00  0.00    -0.378 N 
HETATM    5  C1  UNL     1      38.294   1.631  -7.687  1.00  0.00     0.147 C 
ATOM      6  H1  UNL     1      38.642  -0.323  -6.916  1.00  0.00     0.160 HD
ENDBRANCH   1   4
BRANCH   1   7
HETATM    7  C4  UNL     1      40.740   0.396  -9.271  1.00  0.00     0.091 A 
HETATM    8  S1  UNL     1      40.986   1.640 -10.406  1.00  0.00    -0.053 SA
HETATM    9  C5  UNL     1      42.675   1.760 -10.291  1.00  0.00     0.146 A 
HETATM   10  S2  UNL     1      43.683   2.779 -11.113  1.00  0.00    -0.052 SA
HETATM   11  N6  UNL     1      42.990   0.835  -9.379  1.00  0.00    -0.326 N 
HETATM   12  C6  UNL     1      44.421   0.636  -9.000  1.00  0.00     0.159 C 
HETATM   13  C7  UNL     1      42.020   0.134  -8.851  1.00  0.00     0.128 A 
HETATM   14 CL1  UNL     1      42.308  -1.142  -7.616  1.00  0.00    -0.063 Cl
ENDBRANCH   1   7
BRANCH   2  15
HETATM   15  N3  UNL     1      37.949  -2.002  -9.222  1.00  0.00    -0.274 N 
HETATM   16  C3  UNL     1      36.820  -1.521  -9.553  1.00  0.00     0.215 C 
HETATM   17  N4  UNL     1      36.731  -0.273 -10.195  1.00  0.00    -0.065 NA
HETATM   18  N5  UNL     1      35.642  -2.245  -9.277  1.00  0.00    -0.065 NA
ATOM     19  H3  UNL     1      38.009  -2.908  -8.757  1.00  0.00     0.189 HD
ENDBRANCH   2  15
TORSDOF 3
ENDMDL
