MODEL 1
REMARK VINA RESULT: -8.224254745      0.000      0.000
REMARK  8 active torsions:
REMARK  status: ('A' for Active; 'I' for Inactive)
REMARK    1  A    between atoms: C2_2  and  C3_3 
REMARK    2  A    between atoms: C3_3  and  O1_4 
REMARK    3  A    between atoms: O1_4  and  C4_5 
REMARK    4  A    between atoms: C4_5  and  C5_7 
REMARK    5  A    between atoms: C8_10  and  N1_11 
REMARK    6  A    between atoms: C13_18  and  C14_19 
REMARK    7  A    between atoms: C14_19  and  C15_20 
REMARK    8  A    between atoms: C21_30  and  N2_31 
ROOT
HETATM    1  C5  UNL     1      -2.908   2.344  11.046  1.00  0.00     0.086 C 
HETATM    2  C6  UNL     1      -1.481   2.393  11.542  1.00  0.00     0.017 C 
HETATM    3  C7  UNL     1      -0.571   3.213  10.680  1.00  0.00     0.026 C 
HETATM    4  C8  UNL     1      -1.396   3.816   9.563  1.00  0.00     0.087 C 
HETATM    5  C16 UNL     1      -2.446   4.681  10.243  1.00  0.00     0.026 C 
HETATM    6  C17 UNL     1      -3.491   3.701  10.780  1.00  0.00     0.017 C 
ENDROOT
BRANCH   1   7
HETATM    7  C4  UNL     1      -3.720   1.714  12.151  1.00  0.00     0.266 C 
HETATM    8  O2  UNL     1      -4.486   0.757  11.932  1.00  0.00    -0.265 OA
BRANCH   7   9
HETATM    9  O1  UNL     1      -3.611   2.195  13.387  1.00  0.00    -0.277 OA
BRANCH   9  10
HETATM   10  C3  UNL     1      -4.153   3.171  14.152  1.00  0.00     0.217 C 
HETATM   11  O6  UNL     1      -5.093   3.892  13.379  1.00  0.00    -0.349 OA
HETATM   12  C18 UNL     1      -5.570   5.004  14.014  1.00  0.00     0.177 C 
HETATM   13  C19 UNL     1      -6.332   4.720  15.264  1.00  0.00     0.075 C 
HETATM   14  C20 UNL     1      -6.026   3.319  15.718  1.00  0.00     0.016 A 
HETATM   15  S1  UNL     1      -6.757   2.310  16.887  1.00  0.00    -0.057 SA
HETATM   16  C22 UNL     1      -5.024   2.535  15.248  1.00  0.00     0.087 A 
HETATM   17  C21 UNL     1      -5.749   0.946  16.712  1.00  0.00     0.143 A 
HETATM   18  N3  UNL     1      -4.894   1.327  15.765  1.00  0.00    -0.335 N 
ATOM     19  H3  UNL     1      -4.157   0.698  15.445  1.00  0.00     0.168 HD
BRANCH  10  20
HETATM   20  C2  UNL     1      -3.218   4.054  14.862  1.00  0.00     0.071 C 
HETATM   21  C1  UNL     1      -2.015   4.563  14.165  1.00  0.00     0.011 C 
ENDBRANCH  10  20
BRANCH  17  22
HETATM   22  N2  UNL     1      -5.790  -0.206  17.349  1.00  0.00    -0.380 N 
ATOM     23  H22 UNL     1      -6.509  -0.542  17.989  1.00  0.00     0.158 HD
ATOM     24  H21 UNL     1      -5.122  -0.976  17.330  1.00  0.00     0.158 HD
ENDBRANCH  17  22
ENDBRANCH   9  10
ENDBRANCH   7   9
ENDBRANCH   1   7
BRANCH   4  25
HETATM   25  N1  UNL     1      -0.583   4.597   8.655  1.00  0.00    -0.339 N 
HETATM   26  C9  UNL     1      -1.026   5.058   7.385  1.00  0.00     0.260 C 
HETATM   27  O3  UNL     1      -1.881   4.572   6.611  1.00  0.00    -0.270 OA
HETATM   28  C10 UNL     1      -0.253   6.313   7.091  1.00  0.00     0.182 C 
HETATM   29  C11 UNL     1      -1.129   7.534   7.140  1.00  0.00     0.062 C 
HETATM   30  F1  UNL     1       0.338   6.139   5.870  1.00  0.00    -0.233 F 
HETATM   31  C12 UNL     1       0.796   6.409   8.179  1.00  0.00     0.079 C 
HETATM   32  C13 UNL     1       0.793   5.046   8.858  1.00  0.00     0.101 C 
BRANCH  32  33
HETATM   33  C14 UNL     1       1.775   4.106   8.220  1.00  0.00     0.138 C 
BRANCH  33  34
HETATM   34  C15 UNL     1       2.835   3.683   9.156  1.00  0.00     0.174 C 
HETATM   35  O4  UNL     1       2.789   4.021  10.356  1.00  0.00    -0.648 OA
HETATM   36  O5  UNL     1       3.907   2.905   8.737  1.00  0.00    -0.648 OA
ENDBRANCH  33  34
ENDBRANCH  32  33
ENDBRANCH   4  25
TORSDOF 8
ENDMDL
MODEL 2
REMARK VINA RESULT: -8.187060201      1.142      2.795
REMARK  8 active torsions:
REMARK  status: ('A' for Active; 'I' for Inactive)
REMARK    1  A    between atoms: C2_2  and  C3_3 
REMARK    2  A    between atoms: C3_3  and  O1_4 
REMARK    3  A    between atoms: O1_4  and  C4_5 
REMARK    4  A    between atoms: C4_5  and  C5_7 
REMARK    5  A    between atoms: C8_10  and  N1_11 
REMARK    6  A    between atoms: C13_18  and  C14_19 
REMARK    7  A    between atoms: C14_19  and  C15_20 
REMARK    8  A    between atoms: C21_30  and  N2_31 
ROOT
HETATM    1  C5  UNL     1      -2.989   2.392  10.948  1.00  0.00     0.086 C 
HETATM    2  C6  UNL     1      -1.605   2.068  11.463  1.00  0.00     0.017 C 
HETATM    3  C7  UNL     1      -0.503   2.683  10.657  1.00  0.00     0.026 C 
HETATM    4  C8  UNL     1      -1.129   3.522   9.564  1.00  0.00     0.087 C 
HETATM    5  C16 UNL     1      -1.955   4.583  10.275  1.00  0.00     0.026 C 
HETATM    6  C17 UNL     1      -3.219   3.861  10.747  1.00  0.00     0.017 C 
ENDROOT
BRANCH   1   7
HETATM    7  C4  UNL     1      -3.956   1.926  12.008  1.00  0.00     0.266 C 
HETATM    8  O2  UNL     1      -4.893   1.150  11.740  1.00  0.00    -0.265 OA
BRANCH   7   9
HETATM    9  O1  UNL     1      -3.800   2.353  13.258  1.00  0.00    -0.277 OA
BRANCH   9  10
HETATM   10  C3  UNL     1      -4.297   3.309  14.078  1.00  0.00     0.217 C 
HETATM   11  O6  UNL     1      -5.274   4.053  13.376  1.00  0.00    -0.349 OA
HETATM   12  C18 UNL     1      -5.712   5.148  14.066  1.00  0.00     0.177 C 
HETATM   13  C19 UNL     1      -6.406   4.831  15.347  1.00  0.00     0.075 C 
HETATM   14  C20 UNL     1      -6.082   3.418  15.746  1.00  0.00     0.016 A 
HETATM   15  S1  UNL     1      -6.753   2.380  16.925  1.00  0.00    -0.057 SA
HETATM   16  C22 UNL     1      -5.109   2.646  15.202  1.00  0.00     0.087 A 
HETATM   17  C21 UNL     1      -5.759   1.019  16.659  1.00  0.00     0.143 A 
HETATM   18  N3  UNL     1      -4.956   1.423  15.677  1.00  0.00    -0.335 N 
ATOM     19  H3  UNL     1      -4.239   0.802  15.301  1.00  0.00     0.168 HD
BRANCH  10  20
HETATM   20  C2  UNL     1      -3.321   4.171  14.760  1.00  0.00     0.071 C 
HETATM   21  C1  UNL     1      -2.031   4.483  14.104  1.00  0.00     0.011 C 
ENDBRANCH  10  20
BRANCH  17  22
HETATM   22  N2  UNL     1      -5.770  -0.150  17.266  1.00  0.00    -0.380 N 
ATOM     23  H22 UNL     1      -6.298  -0.420  18.096  1.00  0.00     0.158 HD
ATOM     24  H21 UNL     1      -5.260  -1.001  17.032  1.00  0.00     0.158 HD
ENDBRANCH  17  22
ENDBRANCH   9  10
ENDBRANCH   7   9
ENDBRANCH   1   7
BRANCH   4  25
HETATM   25  N1  UNL     1      -0.129   4.125   8.709  1.00  0.00    -0.339 N 
HETATM   26  C9  UNL     1       1.053   4.755   9.187  1.00  0.00     0.260 C 
HETATM   27  O3  UNL     1       1.270   5.327  10.278  1.00  0.00    -0.270 OA
HETATM   28  C10 UNL     1       2.081   4.617   8.099  1.00  0.00     0.182 C 
HETATM   29  C11 UNL     1       3.182   3.667   8.486  1.00  0.00     0.062 C 
HETATM   30  F1  UNL     1       2.544   5.875   7.828  1.00  0.00    -0.233 F 
HETATM   31  C12 UNL     1       1.338   4.057   6.905  1.00  0.00     0.079 C 
HETATM   32  C13 UNL     1      -0.138   4.202   7.249  1.00  0.00     0.101 C 
BRANCH  32  33
HETATM   33  C14 UNL     1      -0.693   5.514   6.774  1.00  0.00     0.138 C 
BRANCH  33  34
HETATM   34  C15 UNL     1      -2.053   5.378   6.217  1.00  0.00     0.174 C 
HETATM   35  O4  UNL     1      -2.278   5.664   5.024  1.00  0.00    -0.648 OA
HETATM   36  O5  UNL     1      -3.115   4.932   6.994  1.00  0.00    -0.648 OA
ENDBRANCH  33  34
ENDBRANCH  32  33
ENDBRANCH   4  25
TORSDOF 8
ENDMDL
MODEL 3
REMARK VINA RESULT: -8.038258815      4.201      9.291
REMARK  8 active torsions:
REMARK  status: ('A' for Active; 'I' for Inactive)
REMARK    1  A    between atoms: C2_2  and  C3_3 
REMARK    2  A    between atoms: C3_3  and  O1_4 
REMARK    3  A    between atoms: O1_4  and  C4_5 
REMARK    4  A    between atoms: C4_5  and  C5_7 
REMARK    5  A    between atoms: C8_10  and  N1_11 
REMARK    6  A    between atoms: C13_18  and  C14_19 
REMARK    7  A    between atoms: C14_19  and  C15_20 
REMARK    8  A    between atoms: C21_30  and  N2_31 
ROOT
HETATM    1  C5  UNL     1       0.934   3.695  10.269  1.00  0.00     0.086 C 
HETATM    2  C6  UNL     1      -0.323   3.548   9.443  1.00  0.00     0.017 C 
HETATM    3  C7  UNL     1      -1.585   3.663  10.240  1.00  0.00     0.026 C 
HETATM    4  C8  UNL     1      -1.211   3.962  11.676  1.00  0.00     0.087 C 
HETATM    5  C16 UNL     1      -0.452   5.280  11.642  1.00  0.00     0.026 C 
HETATM    6  C17 UNL     1       0.943   4.930  11.122  1.00  0.00     0.017 C 
ENDROOT
BRANCH   1   7
HETATM    7  C4  UNL     1       2.074   3.816   9.288  1.00  0.00     0.266 C 
HETATM    8  O2  UNL     1       3.257   3.635   9.637  1.00  0.00    -0.265 OA
BRANCH   7   9
HETATM    9  O1  UNL     1       1.807   4.123   8.022  1.00  0.00    -0.277 OA
BRANCH   9  10
HETATM   10  C3  UNL     1       2.422   4.103   6.816  1.00  0.00     0.217 C 
HETATM   11  O6  UNL     1       2.876   2.788   6.554  1.00  0.00    -0.349 OA
HETATM   12  C18 UNL     1       3.657   2.703   5.437  1.00  0.00     0.177 C 
HETATM   13  C19 UNL     1       2.960   3.062   4.169  1.00  0.00     0.075 C 
HETATM   14  C20 UNL     1       1.701   3.817   4.497  1.00  0.00     0.016 A 
HETATM   15  S1  UNL     1       0.353   4.260   3.546  1.00  0.00    -0.057 SA
HETATM   16  C22 UNL     1       1.382   4.336   5.708  1.00  0.00     0.087 A 
HETATM   17  C21 UNL     1      -0.543   5.080   4.744  1.00  0.00     0.143 A 
HETATM   18  N3  UNL     1       0.233   4.978   5.820  1.00  0.00    -0.335 N 
ATOM     19  H3  UNL     1      -0.053   5.385   6.710  1.00  0.00     0.168 HD
BRANCH  10  20
HETATM   20  C2  UNL     1       3.468   5.110   6.587  1.00  0.00     0.071 C 
HETATM   21  C1  UNL     1       3.236   6.515   6.993  1.00  0.00     0.011 C 
ENDBRANCH  10  20
BRANCH  17  22
HETATM   22  N2  UNL     1      -1.715   5.673   4.645  1.00  0.00    -0.380 N 
ATOM     23  H22 UNL     1      -2.066   6.243   3.875  1.00  0.00     0.158 HD
ATOM     24  H21 UNL     1      -2.490   5.681   5.307  1.00  0.00     0.158 HD
ENDBRANCH  17  22
ENDBRANCH   9  10
ENDBRANCH   7   9
ENDBRANCH   1   7
BRANCH   4  25
HETATM   25  N1  UNL     1      -2.376   4.052  12.529  1.00  0.00    -0.339 N 
HETATM   26  C9  UNL     1      -2.326   4.356  13.918  1.00  0.00     0.260 C 
HETATM   27  O3  UNL     1      -1.415   4.150  14.750  1.00  0.00    -0.270 OA
HETATM   28  C10 UNL     1      -3.634   5.014  14.259  1.00  0.00     0.182 C 
HETATM   29  C11 UNL     1      -3.461   6.475  14.573  1.00  0.00     0.062 C 
HETATM   30  F1  UNL     1      -4.170   4.313  15.304  1.00  0.00    -0.233 F 
HETATM   31  C12 UNL     1      -4.497   4.869  13.024  1.00  0.00     0.079 C 
HETATM   32  C13 UNL     1      -3.773   3.857  12.147  1.00  0.00     0.101 C 
BRANCH  32  33
HETATM   33  C14 UNL     1      -4.227   2.453  12.429  1.00  0.00     0.138 C 
BRANCH  33  34
HETATM   34  C15 UNL     1      -4.878   1.830  11.261  1.00  0.00     0.174 C 
HETATM   35  O4  UNL     1      -6.101   1.979  11.065  1.00  0.00    -0.648 OA
HETATM   36  O5  UNL     1      -4.159   1.063  10.351  1.00  0.00    -0.648 OA
ENDBRANCH  33  34
ENDBRANCH  32  33
ENDBRANCH   4  25
TORSDOF 8
ENDMDL
MODEL 4
REMARK VINA RESULT: -7.925758745      1.458      1.778
REMARK  8 active torsions:
REMARK  status: ('A' for Active; 'I' for Inactive)
REMARK    1  A    between atoms: C2_2  and  C3_3 
REMARK    2  A    between atoms: C3_3  and  O1_4 
REMARK    3  A    between atoms: O1_4  and  C4_5 
REMARK    4  A    between atoms: C4_5  and  C5_7 
REMARK    5  A    between atoms: C8_10  and  N1_11 
REMARK    6  A    between atoms: C13_18  and  C14_19 
REMARK    7  A    between atoms: C14_19  and  C15_20 
REMARK    8  A    between atoms: C21_30  and  N2_31 
ROOT
HETATM    1  C5  UNL     1      -2.448   3.551  10.326  1.00  0.00     0.086 C 
HETATM    2  C6  UNL     1      -1.196   2.886  10.853  1.00  0.00     0.017 C 
HETATM    3  C7  UNL     1       0.071   3.483  10.324  1.00  0.00     0.026 C 
HETATM    4  C8  UNL     1      -0.293   4.654   9.436  1.00  0.00     0.087 C 
HETATM    5  C16 UNL     1      -1.041   5.635  10.325  1.00  0.00     0.026 C 
HETATM    6  C17 UNL     1      -2.442   5.043  10.491  1.00  0.00     0.017 C 
ENDROOT
BRANCH   1   7
HETATM    7  C4  UNL     1      -3.592   3.012  11.149  1.00  0.00     0.266 C 
HETATM    8  O2  UNL     1      -4.560   2.434  10.619  1.00  0.00    -0.265 OA
BRANCH   7   9
HETATM    9  O1  UNL     1      -3.563   3.158  12.471  1.00  0.00    -0.277 OA
BRANCH   9  10
HETATM   10  C3  UNL     1      -4.100   3.960  13.420  1.00  0.00     0.217 C 
HETATM   11  O6  UNL     1      -5.193   4.664  12.862  1.00  0.00    -0.349 OA
HETATM   12  C18 UNL     1      -5.694   5.624  13.695  1.00  0.00     0.177 C 
HETATM   13  C19 UNL     1      -6.266   5.098  14.967  1.00  0.00     0.075 C 
HETATM   14  C20 UNL     1      -5.773   3.693  15.184  1.00  0.00     0.016 A 
HETATM   15  S1  UNL     1      -6.255   2.467  16.271  1.00  0.00    -0.057 SA
HETATM   16  C22 UNL     1      -4.765   3.094  14.503  1.00  0.00     0.087 A 
HETATM   17  C21 UNL     1      -5.147   1.260  15.799  1.00  0.00     0.143 A 
HETATM   18  N3  UNL     1      -4.456   1.852  14.827  1.00  0.00    -0.335 N 
ATOM     19  H3  UNL     1      -3.706   1.357  14.344  1.00  0.00     0.168 HD
BRANCH  10  20
HETATM   20  C2  UNL     1      -3.175   4.845  14.142  1.00  0.00     0.071 C 
HETATM   21  C1  UNL     1      -1.722   4.566  14.116  1.00  0.00     0.011 C 
ENDBRANCH  10  20
BRANCH  17  22
HETATM   22  N2  UNL     1      -4.998   0.038  16.268  1.00  0.00    -0.380 N 
ATOM     23  H22 UNL     1      -4.470  -0.731  15.856  1.00  0.00     0.158 HD
ATOM     24  H21 UNL     1      -5.374  -0.374  17.121  1.00  0.00     0.158 HD
ENDBRANCH  17  22
ENDBRANCH   9  10
ENDBRANCH   7   9
ENDBRANCH   1   7
BRANCH   4  25
HETATM   25  N1  UNL     1       0.878   5.269   8.849  1.00  0.00    -0.339 N 
HETATM   26  C9  UNL     1       0.849   6.465   8.080  1.00  0.00     0.260 C 
HETATM   27  O3  UNL     1      -0.071   6.945   7.381  1.00  0.00    -0.270 OA
HETATM   28  C10 UNL     1       2.194   7.115   8.250  1.00  0.00     0.182 C 
HETATM   29  C11 UNL     1       2.106   8.378   9.062  1.00  0.00     0.062 C 
HETATM   30  F1  UNL     1       2.691   7.333   6.995  1.00  0.00    -0.233 F 
HETATM   31  C12 UNL     1       3.044   6.105   8.990  1.00  0.00     0.079 C 
HETATM   32  C13 UNL     1       2.260   4.801   8.927  1.00  0.00     0.101 C 
BRANCH  32  33
HETATM   33  C14 UNL     1       2.632   3.987   7.721  1.00  0.00     0.138 C 
BRANCH  33  34
HETATM   34  C15 UNL     1       3.996   3.433   7.818  1.00  0.00     0.174 C 
HETATM   35  O4  UNL     1       4.305   2.675   8.759  1.00  0.00    -0.648 OA
HETATM   36  O5  UNL     1       4.972   3.735   6.875  1.00  0.00    -0.648 OA
ENDBRANCH  33  34
ENDBRANCH  32  33
ENDBRANCH   4  25
TORSDOF 8
ENDMDL
MODEL 5
REMARK VINA RESULT: -7.867835327      3.990      9.264
REMARK  8 active torsions:
REMARK  status: ('A' for Active; 'I' for Inactive)
REMARK    1  A    between atoms: C2_2  and  C3_3 
REMARK    2  A    between atoms: C3_3  and  O1_4 
REMARK    3  A    between atoms: O1_4  and  C4_5 
REMARK    4  A    between atoms: C4_5  and  C5_7 
REMARK    5  A    between atoms: C8_10  and  N1_11 
REMARK    6  A    between atoms: C13_18  and  C14_19 
REMARK    7  A    between atoms: C14_19  and  C15_20 
REMARK    8  A    between atoms: C21_30  and  N2_31 
ROOT
HETATM    1  C5  UNL     1      -1.743   3.961  10.152  1.00  0.00     0.086 C 
HETATM    2  C6  UNL     1      -1.968   2.520  10.547  1.00  0.00     0.017 C 
HETATM    3  C7  UNL     1      -2.829   2.355  11.762  1.00  0.00     0.026 C 
HETATM    4  C8  UNL     1      -3.279   3.729  12.211  1.00  0.00     0.087 C 
HETATM    5  C16 UNL     1      -4.067   4.309  11.046  1.00  0.00     0.026 C 
HETATM    6  C17 UNL     1      -3.015   4.748  10.026  1.00  0.00     0.017 C 
ENDROOT
BRANCH   1   7
HETATM    7  C4  UNL     1      -1.095   3.931   8.790  1.00  0.00     0.266 C 
HETATM    8  O2  UNL     1      -1.725   4.243   7.761  1.00  0.00    -0.265 OA
BRANCH   7   9
HETATM    9  O1  UNL     1       0.180   3.564   8.688  1.00  0.00    -0.277 OA
BRANCH   9  10
HETATM   10  C3  UNL     1       1.377   4.112   8.379  1.00  0.00     0.217 C 
HETATM   11  O6  UNL     1       2.406   3.303   8.916  1.00  0.00    -0.349 OA
HETATM   12  C18 UNL     1       3.646   3.864   8.801  1.00  0.00     0.177 C 
HETATM   13  C19 UNL     1       4.100   4.072   7.396  1.00  0.00     0.075 C 
HETATM   14  C20 UNL     1       2.911   3.991   6.478  1.00  0.00     0.016 A 
HETATM   15  S1  UNL     1       2.785   3.869   4.779  1.00  0.00    -0.057 SA
HETATM   16  C22 UNL     1       1.611   4.007   6.863  1.00  0.00     0.087 A 
HETATM   17  C21 UNL     1       1.085   3.845   4.652  1.00  0.00     0.143 A 
HETATM   18  N3  UNL     1       0.690   3.932   5.921  1.00  0.00    -0.335 N 
ATOM     19  H3  UNL     1      -0.302   3.940   6.159  1.00  0.00     0.168 HD
BRANCH  10  20
HETATM   20  C2  UNL     1       1.560   5.534   8.703  1.00  0.00     0.071 C 
HETATM   21  C1  UNL     1       1.384   5.998  10.098  1.00  0.00     0.011 C 
ENDBRANCH  10  20
BRANCH  17  22
HETATM   22  N2  UNL     1       0.332   3.762   3.575  1.00  0.00    -0.380 N 
ATOM     23  H22 UNL     1       0.585   3.996   2.614  1.00  0.00     0.158 HD
ATOM     24  H21 UNL     1      -0.636   3.454   3.487  1.00  0.00     0.158 HD
ENDBRANCH  17  22
ENDBRANCH   9  10
ENDBRANCH   7   9
ENDBRANCH   1   7
BRANCH   4  25
HETATM   25  N1  UNL     1      -4.089   3.665  13.409  1.00  0.00    -0.339 N 
HETATM   26  C9  UNL     1      -4.394   4.789  14.225  1.00  0.00     0.260 C 
HETATM   27  O3  UNL     1      -3.748   5.844  14.408  1.00  0.00    -0.270 OA
HETATM   28  C10 UNL     1      -5.713   4.494  14.883  1.00  0.00     0.182 C 
HETATM   29  C11 UNL     1      -6.813   5.372  14.352  1.00  0.00     0.062 C 
HETATM   30  F1  UNL     1      -5.527   4.644  16.230  1.00  0.00    -0.233 F 
HETATM   31  C12 UNL     1      -6.022   3.051  14.548  1.00  0.00     0.079 C 
HETATM   32  C13 UNL     1      -4.724   2.484  13.989  1.00  0.00     0.101 C 
BRANCH  32  33
HETATM   33  C14 UNL     1      -3.872   1.880  15.070  1.00  0.00     0.138 C 
BRANCH  33  34
HETATM   34  C15 UNL     1      -4.501   0.694  15.682  1.00  0.00     0.174 C 
HETATM   35  O4  UNL     1      -4.709  -0.332  15.003  1.00  0.00    -0.648 OA
HETATM   36  O5  UNL     1      -4.880   0.681  17.019  1.00  0.00    -0.648 OA
ENDBRANCH  33  34
ENDBRANCH  32  33
ENDBRANCH   4  25
TORSDOF 8
ENDMDL
