MODEL 1
REMARK VINA RESULT: -8.799056267      0.000      0.000
REMARK  8 active torsions:
REMARK  status: ('A' for Active; 'I' for Inactive)
REMARK    1  A    between atoms: C5_8  and  C6_9 
REMARK    2  A    between atoms: C6_9  and  C7_10 
REMARK    3  A    between atoms: C7_10  and  C8_11 
REMARK    4  A    between atoms: C13_16  and  O4_17 
REMARK    5  A    between atoms: C13_16  and  C14_19 
REMARK    6  A    between atoms: C14_19  and  O5_20 
REMARK    7  A    between atoms: C15_23  and  C17_25 
REMARK    8  A    between atoms: C17_25  and  O7_26 
ROOT
HETATM    1  C8  UNL     1      -3.615   3.547  12.932  1.00  0.00     0.023 C 
HETATM    2  C9  UNL     1      -2.809   4.659  13.567  1.00  0.00     0.015 C 
HETATM    3  C10 UNL     1      -2.562   5.793  12.601  1.00  0.00     0.020 C 
HETATM    4  C11 UNL     1      -3.402   5.716  11.375  1.00  0.00     0.130 C 
HETATM    5  C12 UNL     1      -3.297   4.400  10.650  1.00  0.00     0.073 C 
HETATM    6  C13 UNL     1      -3.136   3.210  11.565  1.00  0.00     0.085 C 
HETATM    7  O6  UNL     1      -2.924   6.761  10.588  1.00  0.00    -0.372 OA
HETATM    8  C15 UNL     1      -3.426   7.999  11.067  1.00  0.00     0.083 C 
HETATM    9  C16 UNL     1      -4.959   7.807  11.001  1.00  0.00     0.049 C 
HETATM   10  C18 UNL     1      -3.010   8.303  12.443  1.00  0.00     0.036 C 
HETATM   11  C19 UNL     1      -2.851   7.100  13.338  1.00  0.00    -0.000 C 
HETATM   12  C20 UNL     1      -1.739   7.168  14.335  1.00  0.00     0.007 C 
HETATM   13  C21 UNL     1      -1.569   8.461  15.028  1.00  0.00     0.021 C 
HETATM   14  C22 UNL     1      -1.974   9.608  14.196  1.00  0.00     0.090 C 
HETATM   15 CL1  UNL     1      -0.811  10.931  14.572  1.00  0.00    -0.124 Cl
HETATM   16  C23 UNL     1      -1.939   9.333  12.678  1.00  0.00    -0.024 C 
HETATM   17  C24 UNL     1      -0.564   8.917  12.351  1.00  0.00     0.016 C 
HETATM   18  C25 UNL     1      -2.300  10.710  12.115  1.00  0.00     0.016 C 
ENDROOT
BRANCH   1  19
HETATM   19  C7  UNL     1      -3.740   2.378  13.851  1.00  0.00     0.009 C 
BRANCH  19  20
HETATM   20  C6  UNL     1      -4.302   2.772  15.207  1.00  0.00     0.020 C 
BRANCH  20  21
HETATM   21  C5  UNL     1      -5.505   1.952  15.571  1.00  0.00     0.124 C 
HETATM   22  C2  UNL     1      -6.216   2.606  16.684  1.00  0.00     0.022 C 
HETATM   23  C1  UNL     1      -6.969   3.690  16.597  1.00  0.00     0.026 C 
HETATM   24  C3  UNL     1      -5.923   1.826  17.880  1.00  0.00     0.296 C 
HETATM   25  O1  UNL     1      -6.177   2.149  19.089  1.00  0.00    -0.259 OA
HETATM   26  O2  UNL     1      -5.308   0.644  17.484  1.00  0.00    -0.241 OA
HETATM   27  C4  UNL     1      -5.183   0.610  16.083  1.00  0.00     0.275 C 
HETATM   28  O3  UNL     1      -4.848  -0.440  15.477  1.00  0.00    -0.264 OA
ENDBRANCH  20  21
ENDBRANCH  19  20
ENDBRANCH   1  19
BRANCH   6  29
HETATM   29  O4  UNL     1      -3.941   2.153  11.078  1.00  0.00    -0.387 OA
ATOM     30  H4  UNL     1      -3.474   1.744  10.359  1.00  0.00     0.210 HD
ENDBRANCH   6  29
BRANCH   6  31
HETATM   31  C14 UNL     1      -1.726   2.743  11.461  1.00  0.00     0.202 C 
BRANCH  31  32
HETATM   32  O5  UNL     1      -1.538   1.386  11.437  1.00  0.00    -0.398 OA
ATOM     33  H5  UNL     1      -0.751   1.064  11.862  1.00  0.00     0.209 HD
ENDBRANCH  31  32
ENDBRANCH   6  31
BRANCH   8  34
HETATM   34  C17 UNL     1      -3.141   8.939   9.957  1.00  0.00     0.202 C 
BRANCH  34  35
HETATM   35  O7  UNL     1      -2.119   8.296   9.184  1.00  0.00    -0.398 OA
ATOM     36  H7  UNL     1      -2.324   8.511   8.282  1.00  0.00     0.209 HD
ENDBRANCH  34  35
ENDBRANCH   8  34
TORSDOF 8
ENDMDL
MODEL 2
REMARK VINA RESULT: -8.730293368      2.507      2.886
REMARK  8 active torsions:
REMARK  status: ('A' for Active; 'I' for Inactive)
REMARK    1  A    between atoms: C5_8  and  C6_9 
REMARK    2  A    between atoms: C6_9  and  C7_10 
REMARK    3  A    between atoms: C7_10  and  C8_11 
REMARK    4  A    between atoms: C13_16  and  O4_17 
REMARK    5  A    between atoms: C13_16  and  C14_19 
REMARK    6  A    between atoms: C14_19  and  O5_20 
REMARK    7  A    between atoms: C15_23  and  C17_25 
REMARK    8  A    between atoms: C17_25  and  O7_26 
ROOT
HETATM    1  C8  UNL     1      -3.549   2.863  12.929  1.00  0.00     0.023 C 
HETATM    2  C9  UNL     1      -2.379   3.707  12.474  1.00  0.00     0.015 C 
HETATM    3  C10 UNL     1      -2.550   4.182  11.051  1.00  0.00     0.020 C 
HETATM    4  C11 UNL     1      -3.930   3.986  10.527  1.00  0.00     0.130 C 
HETATM    5  C12 UNL     1      -4.431   2.572  10.654  1.00  0.00     0.073 C 
HETATM    6  C13 UNL     1      -3.962   1.868  11.903  1.00  0.00     0.085 C 
HETATM    7  O6  UNL     1      -3.825   4.363   9.191  1.00  0.00    -0.372 OA
HETATM    8  C15 UNL     1      -3.796   5.778   9.084  1.00  0.00     0.083 C 
HETATM    9  C16 UNL     1      -5.117   6.209   9.762  1.00  0.00     0.049 C 
HETATM   10  C18 UNL     1      -2.650   6.389   9.770  1.00  0.00     0.036 C 
HETATM   11  C19 UNL     1      -2.194   5.667  11.013  1.00  0.00    -0.000 C 
HETATM   12  C20 UNL     1      -0.719   5.658  11.261  1.00  0.00     0.007 C 
HETATM   13  C21 UNL     1      -0.013   6.931  11.011  1.00  0.00     0.021 C 
HETATM   14  C22 UNL     1      -0.643   7.730   9.946  1.00  0.00     0.090 C 
HETATM   15 CL1  UNL     1       0.707   8.507   9.041  1.00  0.00    -0.124 Cl
HETATM   16  C23 UNL     1      -1.495   6.906   8.956  1.00  0.00    -0.024 C 
HETATM   17  C24 UNL     1      -0.607   5.882   8.378  1.00  0.00     0.016 C 
HETATM   18  C25 UNL     1      -1.907   7.981   7.949  1.00  0.00     0.016 C 
ENDROOT
BRANCH   1  19
HETATM   19  C7  UNL     1      -3.309   2.292  14.286  1.00  0.00     0.009 C 
BRANCH  19  20
HETATM   20  C6  UNL     1      -4.217   2.910  15.337  1.00  0.00     0.020 C 
BRANCH  20  21
HETATM   21  C5  UNL     1      -5.435   2.068  15.585  1.00  0.00     0.124 C 
HETATM   22  C2  UNL     1      -6.184   2.628  16.723  1.00  0.00     0.022 C 
HETATM   23  C1  UNL     1      -6.931   3.720  16.702  1.00  0.00     0.026 C 
HETATM   24  C3  UNL     1      -5.939   1.746  17.857  1.00  0.00     0.296 C 
HETATM   25  O1  UNL     1      -6.236   1.966  19.079  1.00  0.00    -0.259 OA
HETATM   26  O2  UNL     1      -5.313   0.599  17.383  1.00  0.00    -0.241 OA
HETATM   27  C4  UNL     1      -5.136   0.685  15.990  1.00  0.00     0.275 C 
HETATM   28  O3  UNL     1      -4.782  -0.311  15.308  1.00  0.00    -0.264 OA
ENDBRANCH  20  21
ENDBRANCH  19  20
ENDBRANCH   1  19
BRANCH   6  29
HETATM   29  O4  UNL     1      -5.042   1.125  12.438  1.00  0.00    -0.387 OA
ATOM     30  H4  UNL     1      -5.762   1.182  11.822  1.00  0.00     0.210 HD
ENDBRANCH   6  29
BRANCH   6  31
HETATM   31  C14 UNL     1      -2.928   0.872  11.504  1.00  0.00     0.202 C 
BRANCH  31  32
HETATM   32  O5  UNL     1      -2.750   0.690  10.159  1.00  0.00    -0.398 OA
ATOM     33  H5  UNL     1      -1.862   0.508   9.874  1.00  0.00     0.209 HD
ENDBRANCH  31  32
ENDBRANCH   6  31
BRANCH   8  34
HETATM   34  C17 UNL     1      -4.043   6.021   7.644  1.00  0.00     0.202 C 
BRANCH  34  35
HETATM   35  O7  UNL     1      -4.293   4.722   7.089  1.00  0.00    -0.398 OA
ATOM     36  H7  UNL     1      -3.431   4.347   6.949  1.00  0.00     0.209 HD
ENDBRANCH  34  35
ENDBRANCH   8  34
TORSDOF 8
ENDMDL
MODEL 3
REMARK VINA RESULT: -8.498273173      2.540      4.042
REMARK  8 active torsions:
REMARK  status: ('A' for Active; 'I' for Inactive)
REMARK    1  A    between atoms: C5_8  and  C6_9 
REMARK    2  A    between atoms: C6_9  and  C7_10 
REMARK    3  A    between atoms: C7_10  and  C8_11 
REMARK    4  A    between atoms: C13_16  and  O4_17 
REMARK    5  A    between atoms: C13_16  and  C14_19 
REMARK    6  A    between atoms: C14_19  and  O5_20 
REMARK    7  A    between atoms: C15_23  and  C17_25 
REMARK    8  A    between atoms: C17_25  and  O7_26 
ROOT
HETATM    1  C8  UNL     1      -3.492   4.902  13.669  1.00  0.00     0.023 C 
HETATM    2  C9  UNL     1      -4.511   5.886  13.136  1.00  0.00     0.015 C 
HETATM    3  C10 UNL     1      -4.065   6.503  11.833  1.00  0.00     0.020 C 
HETATM    4  C11 UNL     1      -2.906   5.802  11.215  1.00  0.00     0.130 C 
HETATM    5  C12 UNL     1      -1.725   5.656  12.138  1.00  0.00     0.073 C 
HETATM    6  C13 UNL     1      -2.102   5.423  13.581  1.00  0.00     0.085 C 
HETATM    7  O6  UNL     1      -2.590   6.602  10.120  1.00  0.00    -0.372 OA
HETATM    8  C15 UNL     1      -3.514   6.373   9.067  1.00  0.00     0.083 C 
HETATM    9  C16 UNL     1      -3.379   4.855   8.804  1.00  0.00     0.049 C 
HETATM   10  C18 UNL     1      -4.899   6.705   9.427  1.00  0.00     0.036 C 
HETATM   11  C19 UNL     1      -5.253   6.469  10.873  1.00  0.00    -0.000 C 
HETATM   12  C20 UNL     1      -6.198   7.454  11.485  1.00  0.00     0.007 C 
HETATM   13  C21 UNL     1      -7.341   7.863  10.644  1.00  0.00     0.021 C 
HETATM   14  C22 UNL     1      -7.023   7.841   9.205  1.00  0.00     0.090 C 
HETATM   15 CL1  UNL     1      -7.886   9.248   8.483  1.00  0.00    -0.124 Cl
HETATM   16  C23 UNL     1      -5.518   7.966   8.887  1.00  0.00    -0.024 C 
HETATM   17  C24 UNL     1      -5.054   9.223   9.500  1.00  0.00     0.016 C 
HETATM   18  C25 UNL     1      -5.538   8.015   7.358  1.00  0.00     0.016 C 
ENDROOT
BRANCH   1  19
HETATM   19  C7  UNL     1      -3.882   4.398  15.018  1.00  0.00     0.009 C 
BRANCH  19  20
HETATM   20  C6  UNL     1      -3.634   2.905  15.166  1.00  0.00     0.020 C 
BRANCH  20  21
HETATM   21  C5  UNL     1      -4.817   2.098  14.715  1.00  0.00     0.124 C 
HETATM   22  C2  UNL     1      -5.683   1.823  15.874  1.00  0.00     0.022 C 
HETATM   23  C1  UNL     1      -6.489   2.690  16.467  1.00  0.00     0.026 C 
HETATM   24  C3  UNL     1      -5.475   0.425  16.228  1.00  0.00     0.296 C 
HETATM   25  O1  UNL     1      -5.878  -0.169  17.284  1.00  0.00    -0.259 OA
HETATM   26  O2  UNL     1      -4.748  -0.175  15.205  1.00  0.00    -0.241 OA
HETATM   27  C4  UNL     1      -4.469   0.764  14.196  1.00  0.00     0.275 C 
HETATM   28  O3  UNL     1      -4.005   0.414  13.080  1.00  0.00    -0.264 OA
ENDBRANCH  20  21
ENDBRANCH  19  20
ENDBRANCH   1  19
BRANCH   6  29
HETATM   29  O4  UNL     1      -1.241   4.438  14.121  1.00  0.00    -0.387 OA
ATOM     30  H4  UNL     1      -0.445   4.875  14.400  1.00  0.00     0.210 HD
ENDBRANCH   6  29
BRANCH   6  31
HETATM   31  C14 UNL     1      -1.824   6.678  14.333  1.00  0.00     0.202 C 
BRANCH  31  32
HETATM   32  O5  UNL     1      -1.080   7.624  13.680  1.00  0.00    -0.398 OA
ATOM     33  H5  UNL     1      -0.755   8.342  14.210  1.00  0.00     0.209 HD
ENDBRANCH  31  32
ENDBRANCH   6  31
BRANCH   8  34
HETATM   34  C17 UNL     1      -2.859   6.995   7.892  1.00  0.00     0.202 C 
BRANCH  34  35
HETATM   35  O7  UNL     1      -1.904   7.910   8.445  1.00  0.00    -0.398 OA
ATOM     36  H7  UNL     1      -1.467   8.291   7.692  1.00  0.00     0.209 HD
ENDBRANCH  34  35
ENDBRANCH   8  34
TORSDOF 8
ENDMDL
MODEL 4
REMARK VINA RESULT: -8.457804349      2.742      3.295
REMARK  8 active torsions:
REMARK  status: ('A' for Active; 'I' for Inactive)
REMARK    1  A    between atoms: C5_8  and  C6_9 
REMARK    2  A    between atoms: C6_9  and  C7_10 
REMARK    3  A    between atoms: C7_10  and  C8_11 
REMARK    4  A    between atoms: C13_16  and  O4_17 
REMARK    5  A    between atoms: C13_16  and  C14_19 
REMARK    6  A    between atoms: C14_19  and  O5_20 
REMARK    7  A    between atoms: C15_23  and  C17_25 
REMARK    8  A    between atoms: C17_25  and  O7_26 
ROOT
HETATM    1  C8  UNL     1      -4.489   3.790  12.719  1.00  0.00     0.023 C 
HETATM    2  C9  UNL     1      -3.078   4.318  12.865  1.00  0.00     0.015 C 
HETATM    3  C10 UNL     1      -2.291   4.174  11.585  1.00  0.00     0.020 C 
HETATM    4  C11 UNL     1      -3.138   3.844  10.406  1.00  0.00     0.130 C 
HETATM    5  C12 UNL     1      -4.009   2.632  10.606  1.00  0.00     0.073 C 
HETATM    6  C13 UNL     1      -4.533   2.482  12.013  1.00  0.00     0.085 C 
HETATM    7  O6  UNL     1      -2.211   3.633   9.389  1.00  0.00    -0.372 OA
HETATM    8  C15 UNL     1      -1.722   4.876   8.910  1.00  0.00     0.083 C 
HETATM    9  C16 UNL     1      -3.005   5.608   8.455  1.00  0.00     0.049 C 
HETATM   10  C18 UNL     1      -1.026   5.662   9.939  1.00  0.00     0.036 C 
HETATM   11  C19 UNL     1      -1.563   5.494  11.337  1.00  0.00    -0.000 C 
HETATM   12  C20 UNL     1      -0.548   5.520  12.435  1.00  0.00     0.007 C 
HETATM   13  C21 UNL     1       0.510   6.543  12.315  1.00  0.00     0.021 C 
HETATM   14  C22 UNL     1       0.835   6.862  10.914  1.00  0.00     0.090 C 
HETATM   15 CL1  UNL     1       2.614   7.135  10.864  1.00  0.00    -0.124 Cl
HETATM   16  C23 UNL     1       0.476   5.744   9.911  1.00  0.00    -0.024 C 
HETATM   17  C24 UNL     1       1.195   4.534  10.346  1.00  0.00     0.016 C 
HETATM   18  C25 UNL     1       1.019   6.328   8.605  1.00  0.00     0.016 C 
ENDROOT
BRANCH   1  19
HETATM   19  C7  UNL     1      -5.214   3.817  14.023  1.00  0.00     0.009 C 
BRANCH  19  20
HETATM   20  C6  UNL     1      -4.646   2.816  15.015  1.00  0.00     0.020 C 
BRANCH  20  21
HETATM   21  C5  UNL     1      -5.707   1.897  15.548  1.00  0.00     0.124 C 
HETATM   22  C2  UNL     1      -6.341   2.524  16.721  1.00  0.00     0.022 C 
HETATM   23  C1  UNL     1      -7.206   3.526  16.696  1.00  0.00     0.026 C 
HETATM   24  C3  UNL     1      -5.830   1.827  17.894  1.00  0.00     0.296 C 
HETATM   25  O1  UNL     1      -5.968   2.174  19.115  1.00  0.00    -0.259 OA
HETATM   26  O2  UNL     1      -5.150   0.695  17.460  1.00  0.00    -0.241 OA
HETATM   27  C4  UNL     1      -5.191   0.615  16.056  1.00  0.00     0.275 C 
HETATM   28  O3  UNL     1      -4.825  -0.421  15.444  1.00  0.00    -0.264 OA
ENDBRANCH  20  21
ENDBRANCH  19  20
ENDBRANCH   1  19
BRANCH   6  29
HETATM   29  O4  UNL     1      -5.888   2.075  11.951  1.00  0.00    -0.387 OA
ATOM     30  H4  UNL     1      -6.250   2.408  11.138  1.00  0.00     0.210 HD
ENDBRANCH   6  29
BRANCH   6  31
HETATM   31  C14 UNL     1      -3.792   1.364  12.660  1.00  0.00     0.202 C 
BRANCH  31  32
HETATM   32  O5  UNL     1      -4.407   0.141  12.646  1.00  0.00    -0.398 OA
ATOM     33  H5  UNL     1      -4.201  -0.426  11.912  1.00  0.00     0.209 HD
ENDBRANCH  31  32
ENDBRANCH   6  31
BRANCH   8  34
HETATM   34  C17 UNL     1      -1.050   4.516   7.639  1.00  0.00     0.202 C 
BRANCH  34  35
HETATM   35  O7  UNL     1      -0.711   3.130   7.782  1.00  0.00    -0.398 OA
ATOM     36  H7  UNL     1       0.230   3.122   7.913  1.00  0.00     0.209 HD
ENDBRANCH  34  35
ENDBRANCH   8  34
TORSDOF 8
ENDMDL
MODEL 5
REMARK VINA RESULT: -8.387761100      1.161      1.242
REMARK  8 active torsions:
REMARK  status: ('A' for Active; 'I' for Inactive)
REMARK    1  A    between atoms: C5_8  and  C6_9 
REMARK    2  A    between atoms: C6_9  and  C7_10 
REMARK    3  A    between atoms: C7_10  and  C8_11 
REMARK    4  A    between atoms: C13_16  and  O4_17 
REMARK    5  A    between atoms: C13_16  and  C14_19 
REMARK    6  A    between atoms: C14_19  and  O5_20 
REMARK    7  A    between atoms: C15_23  and  C17_25 
REMARK    8  A    between atoms: C17_25  and  O7_26 
ROOT
HETATM    1  C8  UNL     1      -3.885   2.589  13.020  1.00  0.00     0.023 C 
HETATM    2  C9  UNL     1      -2.996   3.717  13.495  1.00  0.00     0.015 C 
HETATM    3  C10 UNL     1      -2.930   4.840  12.488  1.00  0.00     0.020 C 
HETATM    4  C11 UNL     1      -3.967   4.739  11.424  1.00  0.00     0.130 C 
HETATM    5  C12 UNL     1      -3.972   3.414  10.708  1.00  0.00     0.073 C 
HETATM    6  C13 UNL     1      -3.644   2.239  11.595  1.00  0.00     0.085 C 
HETATM    7  O6  UNL     1      -3.643   5.777  10.555  1.00  0.00    -0.372 OA
HETATM    8  C15 UNL     1      -4.070   7.017  11.098  1.00  0.00     0.083 C 
HETATM    9  C16 UNL     1      -5.589   6.810  11.298  1.00  0.00     0.049 C 
HETATM   10  C18 UNL     1      -3.428   7.343  12.379  1.00  0.00     0.036 C 
HETATM   11  C19 UNL     1      -3.105   6.154  13.248  1.00  0.00    -0.000 C 
HETATM   12  C20 UNL     1      -1.839   6.247  14.039  1.00  0.00     0.007 C 
HETATM   13  C21 UNL     1      -1.568   7.551  14.677  1.00  0.00     0.021 C 
HETATM   14  C22 UNL     1      -2.123   8.682  13.914  1.00  0.00     0.090 C 
HETATM   15 CL1  UNL     1      -0.928  10.021  14.069  1.00  0.00    -0.124 Cl
HETATM   16  C23 UNL     1      -2.345   8.387  12.415  1.00  0.00    -0.024 C 
HETATM   17  C24 UNL     1      -1.041   7.980  11.862  1.00  0.00     0.016 C 
HETATM   18  C25 UNL     1      -2.812   9.752  11.906  1.00  0.00     0.016 C 
ENDROOT
BRANCH   1  19
HETATM   19  C7  UNL     1      -3.838   1.432  13.961  1.00  0.00     0.009 C 
BRANCH  19  20
HETATM   20  C6  UNL     1      -4.219   1.829  15.378  1.00  0.00     0.020 C 
BRANCH  20  21
HETATM   21  C5  UNL     1      -5.679   1.604  15.646  1.00  0.00     0.124 C 
HETATM   22  C2  UNL     1      -6.331   2.903  15.883  1.00  0.00     0.022 C 
HETATM   23  C1  UNL     1      -6.629   3.805  14.960  1.00  0.00     0.026 C 
HETATM   24  C3  UNL     1      -6.577   2.991  17.316  1.00  0.00     0.296 C 
HETATM   25  O1  UNL     1      -6.944   4.024  17.971  1.00  0.00    -0.259 OA
HETATM   26  O2  UNL     1      -6.341   1.738  17.871  1.00  0.00    -0.241 OA
HETATM   27  C4  UNL     1      -5.952   0.831  16.869  1.00  0.00     0.275 C 
HETATM   28  O3  UNL     1      -5.884  -0.405  17.090  1.00  0.00    -0.264 OA
ENDBRANCH  20  21
ENDBRANCH  19  20
ENDBRANCH   1  19
BRANCH   6  29
HETATM   29  O4  UNL     1      -4.508   1.167  11.266  1.00  0.00    -0.387 OA
ATOM     30  H4  UNL     1      -4.171   0.759  10.477  1.00  0.00     0.210 HD
ENDBRANCH   6  29
BRANCH   6  31
HETATM   31  C14 UNL     1      -2.266   1.783  11.258  1.00  0.00     0.202 C 
BRANCH  31  32
HETATM   32  O5  UNL     1      -2.023   1.518   9.936  1.00  0.00    -0.398 OA
ATOM     33  H5  UNL     1      -1.567   0.706   9.748  1.00  0.00     0.209 HD
ENDBRANCH  31  32
ENDBRANCH   6  31
BRANCH   8  34
HETATM   34  C17 UNL     1      -3.989   7.945   9.945  1.00  0.00     0.202 C 
BRANCH  34  35
HETATM   35  O7  UNL     1      -3.341   7.191   8.912  1.00  0.00    -0.398 OA
ATOM     36  H7  UNL     1      -2.762   7.812   8.484  1.00  0.00     0.209 HD
ENDBRANCH  34  35
ENDBRANCH   8  34
TORSDOF 8
ENDMDL
