MODEL 1
REMARK VINA RESULT: -8.065918757      0.000      0.000
REMARK  9 active torsions:
REMARK  status: ('A' for Active; 'I' for Inactive)
REMARK    1  A    between atoms: C4_10  and  N4_11 
REMARK    2  A    between atoms: N4_11  and  C5_13 
REMARK    3  A    between atoms: C5_13  and  O1_14 
REMARK    4  A    between atoms: C5_13  and  C6_16 
REMARK    5  A    between atoms: C6_16  and  N5_17 
REMARK    6  A    between atoms: N5_17  and  C7_18 
REMARK    7  A    between atoms: C9_20  and  N6_21 
REMARK    8  A    between atoms: C14_28  and  N8_29 
REMARK    9  A    between atoms: N8_29  and  C16_31 
ROOT
HETATM    1  C7  UNL     1      -3.191   3.781  11.288  1.00  0.00     0.135 A 
HETATM    2  C8  UNL     1      -4.309   4.561  10.960  1.00  0.00     0.095 A 
HETATM    3  C9  UNL     1      -4.287   5.908  10.780  1.00  0.00     0.107 A 
HETATM    4  N7  UNL     1      -3.093   6.541  10.929  1.00  0.00    -0.327 N 
ATOM      5  H7  UNL     1      -3.033   7.551  10.803  1.00  0.00     0.169 HD
HETATM    6  C14 UNL     1      -1.987   5.837  11.244  1.00  0.00     0.130 A 
HETATM    7  C24 UNL     1      -1.996   4.495  11.427  1.00  0.00     0.118 A 
HETATM    8 CL1  UNL     1      -0.496   3.673  11.836  1.00  0.00    -0.077 Cl
ENDROOT
BRANCH   1   9
HETATM    9  N5  UNL     1      -3.175   2.602  11.442  1.00  0.00    -0.416 NA
BRANCH   9  10
HETATM   10  C6  UNL     1      -3.224   1.345  11.813  1.00  0.00     0.208 C 
BRANCH  10  11
HETATM   11  C5  UNL     1      -4.306   0.974  12.829  1.00  0.00     0.272 C 
BRANCH  11  12
HETATM   12  N4  UNL     1      -3.887   1.581  14.090  1.00  0.00    -0.343 N 
ATOM     13  H4  UNL     1      -2.956   1.988  14.174  1.00  0.00     0.164 HD
BRANCH  12  14
HETATM   14  C4  UNL     1      -4.680   1.602  15.082  1.00  0.00     0.128 A 
HETATM   15  C2  UNL     1      -5.403   2.732  15.397  1.00  0.00     0.065 A 
HETATM   16  C1  UNL     1      -5.238   3.937  14.545  1.00  0.00     0.074 C 
HETATM   17  N1  UNL     1      -6.237   2.733  16.455  1.00  0.00    -0.301 N 
HETATM   18  N2  UNL     1      -6.385   1.664  17.215  1.00  0.00    -0.296 N 
ATOM     19  H1  UNL     1      -6.764   3.577  16.674  1.00  0.00     0.186 HD
HETATM   20  C3  UNL     1      -5.693   0.548  16.930  1.00  0.00     0.199 A 
ATOM     21  H2  UNL     1      -7.020   1.685  18.012  1.00  0.00     0.187 HD
HETATM   22  N3  UNL     1      -4.844   0.523  15.866  1.00  0.00    -0.336 N 
ATOM     23  H3  UNL     1      -4.323  -0.330  15.660  1.00  0.00     0.168 HD
ENDBRANCH  12  14
ENDBRANCH  11  12
BRANCH  11  24
HETATM   24  O1  UNL     1      -4.327  -0.415  12.975  1.00  0.00    -0.371 OA
ATOM     25  H1  UNL     1      -4.346  -0.817  12.114  1.00  0.00     0.212 HD
ENDBRANCH  11  24
ENDBRANCH  10  11
ENDBRANCH   9  10
ENDBRANCH   1   9
BRANCH   3  26
HETATM   26  N6  UNL     1      -5.445   6.669  10.450  1.00  0.00    -0.367 N 
HETATM   27  C10 UNL     1      -5.985   6.800   9.126  1.00  0.00     0.124 C 
HETATM   28  C11 UNL     1      -7.330   7.458   9.261  1.00  0.00     0.021 C 
HETATM   29  C12 UNL     1      -7.423   7.942  10.693  1.00  0.00     0.021 C 
HETATM   30  C13 UNL     1      -6.218   7.402  11.427  1.00  0.00     0.124 C 
ENDBRANCH   3  26
BRANCH   6  31
HETATM   31  N8  UNL     1      -0.798   6.615  11.353  1.00  0.00    -0.365 N 
HETATM   32  C15 UNL     1      -0.099   6.927  10.140  1.00  0.00     0.151 C 
BRANCH  31  33
HETATM   33  C16 UNL     1      -0.343   7.065  12.635  1.00  0.00     0.085 C 
HETATM   34  C17 UNL     1       0.482   8.305  12.620  1.00  0.00     0.026 C 
HETATM   35  C18 UNL     1      -0.223   9.589  12.857  1.00  0.00     0.011 C 
HETATM   36  C19 UNL     1      -1.217   9.577  13.968  1.00  0.00    -0.048 C 
HETATM   37  C20 UNL     1      -0.613   9.553  15.346  1.00  0.00     0.015 C 
HETATM   38  C21 UNL     1      -2.051  10.857  13.809  1.00  0.00     0.015 C 
HETATM   39  C22 UNL     1      -2.135   8.411  13.816  1.00  0.00     0.011 C 
HETATM   40  C23 UNL     1      -1.468   7.094  13.655  1.00  0.00     0.026 C 
ENDBRANCH  31  33
ENDBRANCH   6  31
TORSDOF 9
ENDMDL
MODEL 2
REMARK VINA RESULT: -7.901901778      1.799      3.569
REMARK  9 active torsions:
REMARK  status: ('A' for Active; 'I' for Inactive)
REMARK    1  A    between atoms: C4_10  and  N4_11 
REMARK    2  A    between atoms: N4_11  and  C5_13 
REMARK    3  A    between atoms: C5_13  and  O1_14 
REMARK    4  A    between atoms: C5_13  and  C6_16 
REMARK    5  A    between atoms: C6_16  and  N5_17 
REMARK    6  A    between atoms: N5_17  and  C7_18 
REMARK    7  A    between atoms: C9_20  and  N6_21 
REMARK    8  A    between atoms: C14_28  and  N8_29 
REMARK    9  A    between atoms: N8_29  and  C16_31 
ROOT
HETATM    1  C7  UNL     1      -3.064   3.427  11.328  1.00  0.00     0.135 A 
HETATM    2  C8  UNL     1      -4.145   4.289  11.097  1.00  0.00     0.095 A 
HETATM    3  C9  UNL     1      -4.032   5.606  10.783  1.00  0.00     0.107 A 
HETATM    4  N7  UNL     1      -2.777   6.122  10.688  1.00  0.00    -0.327 N 
ATOM      5  H7  UNL     1      -2.648   7.106  10.454  1.00  0.00     0.169 HD
HETATM    6  C14 UNL     1      -1.702   5.336  10.900  1.00  0.00     0.130 A 
HETATM    7  C24 UNL     1      -1.803   4.022  11.214  1.00  0.00     0.118 A 
HETATM    8 CL1  UNL     1      -0.336   3.086  11.471  1.00  0.00    -0.077 Cl
ENDROOT
BRANCH   1   9
HETATM    9  N5  UNL     1      -3.130   2.270  11.594  1.00  0.00    -0.416 NA
BRANCH   9  10
HETATM   10  C6  UNL     1      -3.216   1.060  12.092  1.00  0.00     0.208 C 
BRANCH  10  11
HETATM   11  C5  UNL     1      -4.363   0.805  13.072  1.00  0.00     0.272 C 
BRANCH  11  12
HETATM   12  N4  UNL     1      -3.998   1.514  14.297  1.00  0.00    -0.343 N 
ATOM     13  H4  UNL     1      -3.090   1.972  14.369  1.00  0.00     0.164 HD
BRANCH  12  14
HETATM   14  C4  UNL     1      -4.810   1.561  15.273  1.00  0.00     0.128 A 
HETATM   15  C2  UNL     1      -5.580   2.678  15.511  1.00  0.00     0.065 A 
HETATM   16  C1  UNL     1      -5.443   3.839  14.595  1.00  0.00     0.074 C 
HETATM   17  N1  UNL     1      -6.433   2.706  16.554  1.00  0.00    -0.301 N 
HETATM   18  N2  UNL     1      -6.556   1.677  17.370  1.00  0.00    -0.296 N 
ATOM     19  H1  UNL     1      -6.995   3.541  16.715  1.00  0.00     0.186 HD
HETATM   20  C3  UNL     1      -5.818   0.574  17.161  1.00  0.00     0.199 A 
ATOM     21  H2  UNL     1      -7.207   1.718  18.154  1.00  0.00     0.187 HD
HETATM   22  N3  UNL     1      -4.948   0.521  16.113  1.00  0.00    -0.336 N 
ATOM     23  H3  UNL     1      -4.393  -0.321  15.965  1.00  0.00     0.168 HD
ENDBRANCH  12  14
ENDBRANCH  11  12
BRANCH  11  24
HETATM   24  O1  UNL     1      -4.429  -0.564  13.339  1.00  0.00    -0.371 OA
ATOM     25  H1  UNL     1      -3.858  -1.026  12.737  1.00  0.00     0.212 HD
ENDBRANCH  11  24
ENDBRANCH  10  11
ENDBRANCH   9  10
ENDBRANCH   1   9
BRANCH   3  26
HETATM   26  N6  UNL     1      -5.154   6.454  10.558  1.00  0.00    -0.367 N 
HETATM   27  C10 UNL     1      -5.742   6.705   9.273  1.00  0.00     0.124 C 
HETATM   28  C11 UNL     1      -7.038   7.429   9.514  1.00  0.00     0.021 C 
HETATM   29  C12 UNL     1      -7.039   7.820  10.976  1.00  0.00     0.021 C 
HETATM   30  C13 UNL     1      -5.838   7.163  11.616  1.00  0.00     0.124 C 
ENDBRANCH   3  26
BRANCH   6  31
HETATM   31  N8  UNL     1      -0.447   5.992  10.751  1.00  0.00    -0.365 N 
HETATM   32  C15 UNL     1       0.246   6.375  11.948  1.00  0.00     0.151 C 
BRANCH  31  33
HETATM   33  C16 UNL     1       0.088   6.242   9.445  1.00  0.00     0.085 C 
HETATM   34  C17 UNL     1       1.444   6.858   9.419  1.00  0.00     0.026 C 
HETATM   35  C18 UNL     1       2.602   5.940   9.289  1.00  0.00     0.011 C 
HETATM   36  C19 UNL     1       2.447   4.856   8.277  1.00  0.00    -0.048 C 
HETATM   37  C20 UNL     1       2.539   5.317   6.848  1.00  0.00     0.015 C 
HETATM   38  C21 UNL     1       3.575   3.850   8.553  1.00  0.00     0.015 C 
HETATM   39  C22 UNL     1       1.147   4.152   8.482  1.00  0.00     0.011 C 
HETATM   40  C23 UNL     1      -0.048   5.031   8.539  1.00  0.00     0.026 C 
ENDBRANCH  31  33
ENDBRANCH   6  31
TORSDOF 9
ENDMDL
MODEL 3
REMARK VINA RESULT: -7.879538643      3.279      7.520
REMARK  9 active torsions:
REMARK  status: ('A' for Active; 'I' for Inactive)
REMARK    1  A    between atoms: C4_10  and  N4_11 
REMARK    2  A    between atoms: N4_11  and  C5_13 
REMARK    3  A    between atoms: C5_13  and  O1_14 
REMARK    4  A    between atoms: C5_13  and  C6_16 
REMARK    5  A    between atoms: C6_16  and  N5_17 
REMARK    6  A    between atoms: N5_17  and  C7_18 
REMARK    7  A    between atoms: C9_20  and  N6_21 
REMARK    8  A    between atoms: C14_28  and  N8_29 
REMARK    9  A    between atoms: N8_29  and  C16_31 
ROOT
HETATM    1  C7  UNL     1      -2.888   4.192  10.531  1.00  0.00     0.135 A 
HETATM    2  C8  UNL     1      -3.588   5.398  10.389  1.00  0.00     0.095 A 
HETATM    3  C9  UNL     1      -4.379   5.952  11.347  1.00  0.00     0.107 A 
HETATM    4  N7  UNL     1      -4.496   5.284  12.526  1.00  0.00    -0.327 N 
ATOM      5  H7  UNL     1      -5.080   5.666  13.270  1.00  0.00     0.169 HD
HETATM    6  C14 UNL     1      -3.844   4.119  12.714  1.00  0.00     0.130 A 
HETATM    7  C24 UNL     1      -3.054   3.558  11.768  1.00  0.00     0.118 A 
HETATM    8 CL1  UNL     1      -2.247   2.034  12.116  1.00  0.00    -0.077 Cl
ENDROOT
BRANCH   1   9
HETATM    9  N5  UNL     1      -2.182   3.687   9.719  1.00  0.00    -0.416 NA
BRANCH   9  10
HETATM   10  C6  UNL     1      -1.266   3.100   8.987  1.00  0.00     0.208 C 
BRANCH  10  11
HETATM   11  C5  UNL     1      -0.719   3.900   7.804  1.00  0.00     0.272 C 
BRANCH  11  12
HETATM   12  N4  UNL     1       0.437   4.627   8.322  1.00  0.00    -0.343 N 
ATOM     13  H4  UNL     1       0.301   5.465   8.887  1.00  0.00     0.164 HD
BRANCH  12  14
HETATM   14  C4  UNL     1       1.613   4.218   8.070  1.00  0.00     0.128 A 
HETATM   15  C2  UNL     1       2.533   4.017   9.076  1.00  0.00     0.065 A 
HETATM   16  C1  UNL     1       2.119   4.289  10.476  1.00  0.00     0.074 C 
HETATM   17  N1  UNL     1       3.775   3.584   8.786  1.00  0.00    -0.301 N 
HETATM   18  N2  UNL     1       4.146   3.343   7.542  1.00  0.00    -0.296 N 
ATOM     19  H1  UNL     1       4.443   3.441   9.542  1.00  0.00     0.186 HD
HETATM   20  C3  UNL     1       3.270   3.530   6.542  1.00  0.00     0.199 A 
ATOM     21  H2  UNL     1       5.091   3.017   7.343  1.00  0.00     0.187 HD
HETATM   22  N3  UNL     1       2.008   3.967   6.810  1.00  0.00    -0.336 N 
ATOM     23  H3  UNL     1       1.351   4.105   6.042  1.00  0.00     0.168 HD
ENDBRANCH  12  14
ENDBRANCH  11  12
BRANCH  11  24
HETATM   24  O1  UNL     1      -1.690   4.817   7.395  1.00  0.00    -0.371 OA
ATOM     25  H1  UNL     1      -2.165   5.127   8.158  1.00  0.00     0.212 HD
ENDBRANCH  11  24
ENDBRANCH  10  11
ENDBRANCH   9  10
ENDBRANCH   1   9
BRANCH   3  26
HETATM   26  N6  UNL     1      -5.078   7.180  11.166  1.00  0.00    -0.367 N 
HETATM   27  C10 UNL     1      -4.476   8.404  10.720  1.00  0.00     0.124 C 
HETATM   28  C11 UNL     1      -5.594   9.363  10.420  1.00  0.00     0.021 C 
HETATM   29  C12 UNL     1      -6.855   8.727  10.966  1.00  0.00     0.021 C 
HETATM   30  C13 UNL     1      -6.495   7.329  11.412  1.00  0.00     0.124 C 
ENDBRANCH   3  26
BRANCH   6  31
HETATM   31  N8  UNL     1      -4.036   3.532  13.997  1.00  0.00    -0.365 N 
HETATM   32  C15 UNL     1      -3.095   3.869  15.026  1.00  0.00     0.151 C 
BRANCH  31  33
HETATM   33  C16 UNL     1      -5.138   2.646  14.230  1.00  0.00     0.085 C 
HETATM   34  C17 UNL     1      -4.805   1.391  14.960  1.00  0.00     0.026 C 
HETATM   35  C18 UNL     1      -5.001   1.391  16.430  1.00  0.00     0.011 C 
HETATM   36  C19 UNL     1      -6.273   2.007  16.905  1.00  0.00    -0.048 C 
HETATM   37  C20 UNL     1      -7.502   1.177  16.652  1.00  0.00     0.015 C 
HETATM   38  C21 UNL     1      -6.109   2.211  18.419  1.00  0.00     0.015 C 
HETATM   39  C22 UNL     1      -6.451   3.350  16.280  1.00  0.00     0.011 C 
HETATM   40  C23 UNL     1      -6.340   3.380  14.799  1.00  0.00     0.026 C 
ENDBRANCH  31  33
ENDBRANCH   6  31
TORSDOF 9
ENDMDL
MODEL 4
REMARK VINA RESULT: -7.803338870      2.496      4.848
REMARK  9 active torsions:
REMARK  status: ('A' for Active; 'I' for Inactive)
REMARK    1  A    between atoms: C4_10  and  N4_11 
REMARK    2  A    between atoms: N4_11  and  C5_13 
REMARK    3  A    between atoms: C5_13  and  O1_14 
REMARK    4  A    between atoms: C5_13  and  C6_16 
REMARK    5  A    between atoms: C6_16  and  N5_17 
REMARK    6  A    between atoms: N5_17  and  C7_18 
REMARK    7  A    between atoms: C9_20  and  N6_21 
REMARK    8  A    between atoms: C14_28  and  N8_29 
REMARK    9  A    between atoms: N8_29  and  C16_31 
ROOT
HETATM    1  C7  UNL     1      -2.147   3.450  12.015  1.00  0.00     0.135 A 
HETATM    2  C8  UNL     1      -2.188   4.589  12.832  1.00  0.00     0.095 A 
HETATM    3  C9  UNL     1      -1.629   5.787  12.517  1.00  0.00     0.107 A 
HETATM    4  N7  UNL     1      -0.986   5.885  11.323  1.00  0.00    -0.327 N 
ATOM      5  H7  UNL     1      -0.552   6.767  11.049  1.00  0.00     0.169 HD
HETATM    6  C14 UNL     1      -0.918   4.819  10.500  1.00  0.00     0.130 A 
HETATM    7  C24 UNL     1      -1.470   3.620  10.802  1.00  0.00     0.118 A 
HETATM    8 CL1  UNL     1      -1.324   2.294   9.656  1.00  0.00    -0.077 Cl
ENDROOT
BRANCH   1   9
HETATM    9  N5  UNL     1      -2.634   2.393  12.256  1.00  0.00    -0.416 NA
BRANCH   9  10
HETATM   10  C6  UNL     1      -3.128   1.179  12.316  1.00  0.00     0.208 C 
BRANCH  10  11
HETATM   11  C5  UNL     1      -4.350   0.982  13.215  1.00  0.00     0.272 C 
BRANCH  11  12
HETATM   12  N4  UNL     1      -4.014   1.626  14.482  1.00  0.00    -0.343 N 
ATOM     13  H4  UNL     1      -3.107   2.078  14.599  1.00  0.00     0.164 HD
BRANCH  12  14
HETATM   14  C4  UNL     1      -4.849   1.625  15.439  1.00  0.00     0.128 A 
HETATM   15  C2  UNL     1      -5.627   2.728  15.713  1.00  0.00     0.065 A 
HETATM   16  C1  UNL     1      -5.472   3.932  14.856  1.00  0.00     0.074 C 
HETATM   17  N1  UNL     1      -6.505   2.706  16.735  1.00  0.00    -0.301 N 
HETATM   18  N2  UNL     1      -6.644   1.638  17.497  1.00  0.00    -0.296 N 
ATOM     19  H1  UNL     1      -7.073   3.531  16.922  1.00  0.00     0.186 HD
HETATM   20  C3  UNL     1      -5.899   0.548  17.254  1.00  0.00     0.199 A 
ATOM     21  H2  UNL     1      -7.314   1.641  18.267  1.00  0.00     0.187 HD
HETATM   22  N3  UNL     1      -5.004   0.547  16.226  1.00  0.00    -0.336 N 
ATOM     23  H3  UNL     1      -4.443  -0.287  16.052  1.00  0.00     0.168 HD
ENDBRANCH  12  14
ENDBRANCH  11  12
BRANCH  11  24
HETATM   24  O1  UNL     1      -4.531  -0.385  13.432  1.00  0.00    -0.371 OA
ATOM     25  H1  UNL     1      -4.380  -0.852  12.618  1.00  0.00     0.212 HD
ENDBRANCH  11  24
ENDBRANCH  10  11
ENDBRANCH   9  10
ENDBRANCH   1   9
BRANCH   3  26
HETATM   26  N6  UNL     1      -1.687   6.923  13.375  1.00  0.00    -0.367 N 
HETATM   27  C10 UNL     1      -2.700   7.146  14.366  1.00  0.00     0.124 C 
HETATM   28  C11 UNL     1      -2.247   8.306  15.208  1.00  0.00     0.021 C 
HETATM   29  C12 UNL     1      -1.058   8.911  14.492  1.00  0.00     0.021 C 
HETATM   30  C13 UNL     1      -0.714   7.992  13.343  1.00  0.00     0.124 C 
ENDBRANCH   3  26
BRANCH   6  31
HETATM   31  N8  UNL     1      -0.233   5.058   9.274  1.00  0.00    -0.365 N 
HETATM   32  C15 UNL     1      -0.806   6.016   8.373  1.00  0.00     0.151 C 
BRANCH  31  33
HETATM   33  C16 UNL     1       0.984   4.362   8.977  1.00  0.00     0.085 C 
HETATM   34  C17 UNL     1       1.121   3.888   7.571  1.00  0.00     0.026 C 
HETATM   35  C18 UNL     1       1.854   4.769   6.629  1.00  0.00     0.011 C 
HETATM   36  C19 UNL     1       3.116   5.360   7.158  1.00  0.00    -0.048 C 
HETATM   37  C20 UNL     1       4.259   4.389   7.279  1.00  0.00     0.015 C 
HETATM   38  C21 UNL     1       3.508   6.477   6.178  1.00  0.00     0.015 C 
HETATM   39  C22 UNL     1       2.864   5.988   8.488  1.00  0.00     0.011 C 
HETATM   40  C23 UNL     1       2.201   5.112   9.488  1.00  0.00     0.026 C 
ENDBRANCH  31  33
ENDBRANCH   6  31
TORSDOF 9
ENDMDL
MODEL 5
REMARK VINA RESULT: -7.748375179      2.581      4.949
REMARK  9 active torsions:
REMARK  status: ('A' for Active; 'I' for Inactive)
REMARK    1  A    between atoms: C4_10  and  N4_11 
REMARK    2  A    between atoms: N4_11  and  C5_13 
REMARK    3  A    between atoms: C5_13  and  O1_14 
REMARK    4  A    between atoms: C5_13  and  C6_16 
REMARK    5  A    between atoms: C6_16  and  N5_17 
REMARK    6  A    between atoms: N5_17  and  C7_18 
REMARK    7  A    between atoms: C9_20  and  N6_21 
REMARK    8  A    between atoms: C14_28  and  N8_29 
REMARK    9  A    between atoms: N8_29  and  C16_31 
ROOT
HETATM    1  C7  UNL     1      -2.199   3.274  12.184  1.00  0.00     0.135 A 
HETATM    2  C8  UNL     1      -2.317   4.463  12.919  1.00  0.00     0.095 A 
HETATM    3  C9  UNL     1      -1.589   5.589  12.692  1.00  0.00     0.107 A 
HETATM    4  N7  UNL     1      -0.684   5.556  11.678  1.00  0.00    -0.327 N 
ATOM      5  H7  UNL     1      -0.118   6.380  11.475  1.00  0.00     0.169 HD
HETATM    6  C14 UNL     1      -0.531   4.438  10.941  1.00  0.00     0.130 A 
HETATM    7  C24 UNL     1      -1.249   3.310  11.157  1.00  0.00     0.118 A 
HETATM    8 CL1  UNL     1      -0.972   1.905  10.136  1.00  0.00    -0.077 Cl
ENDROOT
BRANCH   1   9
HETATM    9  N5  UNL     1      -2.826   2.278  12.351  1.00  0.00    -0.416 NA
BRANCH   9  10
HETATM   10  C6  UNL     1      -3.374   1.088  12.402  1.00  0.00     0.208 C 
BRANCH  10  11
HETATM   11  C5  UNL     1      -4.572   0.926  13.339  1.00  0.00     0.272 C 
BRANCH  11  12
HETATM   12  N4  UNL     1      -4.287   1.776  14.493  1.00  0.00    -0.343 N 
ATOM     13  H4  UNL     1      -3.474   2.393  14.483  1.00  0.00     0.164 HD
BRANCH  12  14
HETATM   14  C4  UNL     1      -5.048   1.749  15.509  1.00  0.00     0.128 A 
HETATM   15  C2  UNL     1      -5.856   2.818  15.828  1.00  0.00     0.065 A 
HETATM   16  C1  UNL     1      -5.821   4.017  14.950  1.00  0.00     0.074 C 
HETATM   17  N1  UNL     1      -6.654   2.769  16.912  1.00  0.00    -0.301 N 
HETATM   18  N2  UNL     1      -6.687   1.706  17.693  1.00  0.00    -0.296 N 
ATOM     19  H1  UNL     1      -7.246   3.569  17.132  1.00  0.00     0.186 HD
HETATM   20  C3  UNL     1      -5.910   0.649  17.406  1.00  0.00     0.199 A 
ATOM     21  H2  UNL     1      -7.298   1.688  18.510  1.00  0.00     0.187 HD
HETATM   22  N3  UNL     1      -5.094   0.675  16.316  1.00  0.00    -0.336 N 
ATOM     23  H3  UNL     1      -4.509  -0.134  16.108  1.00  0.00     0.168 HD
ENDBRANCH  12  14
ENDBRANCH  11  12
BRANCH  11  24
HETATM   24  O1  UNL     1      -4.639  -0.404  13.757  1.00  0.00    -0.371 OA
ATOM     25  H1  UNL     1      -5.430  -0.530  14.268  1.00  0.00     0.212 HD
ENDBRANCH  11  24
ENDBRANCH  10  11
ENDBRANCH   9  10
ENDBRANCH   1   9
BRANCH   3  26
HETATM   26  N6  UNL     1      -1.734   6.778  13.462  1.00  0.00    -0.367 N 
HETATM   27  C10 UNL     1      -2.785   7.014  14.410  1.00  0.00     0.124 C 
HETATM   28  C11 UNL     1      -2.421   8.255  15.175  1.00  0.00     0.021 C 
HETATM   29  C12 UNL     1      -1.247   8.873  14.445  1.00  0.00     0.021 C 
HETATM   30  C13 UNL     1      -0.820   7.895  13.375  1.00  0.00     0.124 C 
ENDBRANCH   3  26
BRANCH   6  31
HETATM   31  N8  UNL     1       0.435   4.540   9.899  1.00  0.00    -0.365 N 
HETATM   32  C15 UNL     1       1.781   4.149  10.204  1.00  0.00     0.151 C 
BRANCH  31  33
HETATM   33  C16 UNL     1       0.052   5.011   8.600  1.00  0.00     0.085 C 
HETATM   34  C17 UNL     1       0.662   6.304   8.185  1.00  0.00     0.026 C 
HETATM   35  C18 UNL     1       1.897   6.237   7.365  1.00  0.00     0.011 C 
HETATM   36  C19 UNL     1       1.878   5.234   6.263  1.00  0.00    -0.048 C 
HETATM   37  C20 UNL     1       1.014   5.611   5.090  1.00  0.00     0.015 C 
HETATM   38  C21 UNL     1       3.333   5.093   5.789  1.00  0.00     0.015 C 
HETATM   39  C22 UNL     1       1.439   3.909   6.789  1.00  0.00     0.011 C 
HETATM   40  C23 UNL     1       0.164   3.920   7.550  1.00  0.00     0.026 C 
ENDBRANCH  31  33
ENDBRANCH   6  31
TORSDOF 9
ENDMDL
