MODEL 1
REMARK VINA RESULT: -8.708604588      0.000      0.000
REMARK  9 active torsions:
REMARK  status: ('A' for Active; 'I' for Inactive)
REMARK    1  A    between atoms: C2_2  and  C5_5 
REMARK    2  A    between atoms: C5_5  and  O1_6 
REMARK    3  A    between atoms: O1_6  and  C6_7 
REMARK       I    between atoms: C6_7  and  N1_9 
REMARK    4  A    between atoms: N1_9  and  C7_11 
REMARK    5  A    between atoms: N2_16  and  C11_17 
REMARK    6  A    between atoms: C11_17  and  C12_18 
REMARK    7  A    between atoms: C14_22  and  C15_23 
REMARK       I    between atoms: C15_23  and  N4_25 
REMARK    8  A    between atoms: N4_25  and  C16_27 
REMARK    9  A    between atoms: C19_30  and  O4_31 
ROOT
HETATM    1  C11 UNL     1      -3.587   3.391  10.679  1.00  0.00     0.190 C 
ENDROOT
BRANCH   1   2
HETATM    2  N2  UNL     1      -3.567   2.065  11.247  1.00  0.00    -0.342 N 
HETATM    3  C10 UNL     1      -2.782   1.042  10.584  1.00  0.00     0.163 C 
HETATM    4  C9  UNL     1      -3.599  -0.237  10.687  1.00  0.00     0.190 C 
HETATM    5  C8  UNL     1      -3.856  -0.662  12.098  1.00  0.00     0.073 C 
HETATM    6  F1  UNL     1      -4.815  -0.083  10.052  1.00  0.00    -0.248 F 
HETATM    7  C7  UNL     1      -3.831   0.458  13.106  1.00  0.00     0.181 C 
HETATM    8  C22 UNL     1      -4.277   1.701  12.423  1.00  0.00     0.243 C 
HETATM    9  O5  UNL     1      -5.222   2.409  12.842  1.00  0.00    -0.271 OA
BRANCH   7  10
HETATM   10  N1  UNL     1      -4.588   0.173  14.280  1.00  0.00    -0.324 N 
HETATM   11  C6  UNL     1      -4.134   0.693  15.554  1.00  0.00     0.361 C 
HETATM   12  O2  UNL     1      -3.087   1.373  15.549  1.00  0.00    -0.238 OA
ATOM     13  H1  UNL     1      -5.436  -0.390  14.224  1.00  0.00     0.165 HD
BRANCH  11  14
HETATM   14  O1  UNL     1      -4.802   0.461  16.701  1.00  0.00    -0.303 OA
BRANCH  14  15
HETATM   15  C5  UNL     1      -5.396   1.323  17.563  1.00  0.00     0.189 C 
BRANCH  15  16
HETATM   16  C2  UNL     1      -6.548   2.155  17.177  1.00  0.00    -0.029 C 
HETATM   17  C1  UNL     1      -6.421   3.143  16.085  1.00  0.00     0.016 C 
HETATM   18  C3  UNL     1      -6.948   2.952  18.442  1.00  0.00     0.016 C 
HETATM   19  C4  UNL     1      -7.769   1.260  16.876  1.00  0.00     0.016 C 
ENDBRANCH  15  16
ENDBRANCH  14  15
ENDBRANCH  11  14
ENDBRANCH   7  10
ENDBRANCH   1   2
BRANCH   1  20
HETATM   20  C12 UNL     1      -2.161   3.891  10.722  1.00  0.00     0.069 A 
HETATM   21  N3  UNL     1      -1.485   4.340  11.770  1.00  0.00    -0.361 N 
HETATM   22  C13 UNL     1      -0.260   4.732  11.622  1.00  0.00     0.113 A 
ATOM     23  H3  UNL     1      -1.927   4.376  12.688  1.00  0.00     0.165 HD
HETATM   24  C14 UNL     1       0.290   4.664  10.370  1.00  0.00     0.089 A 
HETATM   25  S1  UNL     1      -1.017   4.027   9.463  1.00  0.00    -0.068 SA
BRANCH  24  26
HETATM   26  C15 UNL     1       1.644   5.042   9.939  1.00  0.00     0.260 C 
HETATM   27  O3  UNL     1       2.247   5.917  10.599  1.00  0.00    -0.267 OA
HETATM   28  N4  UNL     1       2.188   4.402   8.810  1.00  0.00    -0.352 N 
ATOM     29  H4  UNL     1       1.634   3.696   8.324  1.00  0.00     0.163 HD
BRANCH  28  30
HETATM   30  C16 UNL     1       3.516   4.716   8.318  1.00  0.00     0.085 C 
HETATM   31  C17 UNL     1       3.492   5.825   7.302  1.00  0.00     0.028 C 
HETATM   32  C18 UNL     1       3.208   5.305   5.910  1.00  0.00     0.034 C 
HETATM   33  C19 UNL     1       4.416   4.514   5.463  1.00  0.00     0.118 C 
HETATM   34  C20 UNL     1       5.043   3.733   6.592  1.00  0.00     0.034 C 
HETATM   35  C21 UNL     1       4.064   3.447   7.703  1.00  0.00     0.028 C 
BRANCH  33  36
HETATM   36  O4  UNL     1       5.356   5.423   4.993  1.00  0.00    -0.396 OA
ATOM     37  H4  UNL     1       5.034   5.760   4.166  1.00  0.00     0.210 HD
ENDBRANCH  33  36
ENDBRANCH  28  30
ENDBRANCH  24  26
ENDBRANCH   1  20
TORSDOF 9
ENDMDL
MODEL 2
REMARK VINA RESULT: -8.681761700      4.603      5.798
REMARK  9 active torsions:
REMARK  status: ('A' for Active; 'I' for Inactive)
REMARK    1  A    between atoms: C2_2  and  C5_5 
REMARK    2  A    between atoms: C5_5  and  O1_6 
REMARK    3  A    between atoms: O1_6  and  C6_7 
REMARK       I    between atoms: C6_7  and  N1_9 
REMARK    4  A    between atoms: N1_9  and  C7_11 
REMARK    5  A    between atoms: N2_16  and  C11_17 
REMARK    6  A    between atoms: C11_17  and  C12_18 
REMARK    7  A    between atoms: C14_22  and  C15_23 
REMARK       I    between atoms: C15_23  and  N4_25 
REMARK    8  A    between atoms: N4_25  and  C16_27 
REMARK    9  A    between atoms: C19_30  and  O4_31 
ROOT
HETATM    1  C11 UNL     1      -3.537   3.487  10.418  1.00  0.00     0.190 C 
ENDROOT
BRANCH   1   2
HETATM    2  N2  UNL     1      -3.418   2.163  10.978  1.00  0.00    -0.342 N 
HETATM    3  C10 UNL     1      -2.428   1.263  10.421  1.00  0.00     0.163 C 
HETATM    4  C9  UNL     1      -3.079  -0.112  10.410  1.00  0.00     0.190 C 
HETATM    5  C8  UNL     1      -3.460  -0.596  11.773  1.00  0.00     0.073 C 
HETATM    6  F1  UNL     1      -4.212  -0.101   9.621  1.00  0.00    -0.248 F 
HETATM    7  C7  UNL     1      -3.712   0.497  12.780  1.00  0.00     0.181 C 
HETATM    8  C22 UNL     1      -4.222   1.687  12.049  1.00  0.00     0.243 C 
HETATM    9  O5  UNL     1      -5.298   2.259  12.343  1.00  0.00    -0.271 OA
BRANCH   7  10
HETATM   10  N1  UNL     1      -4.571   0.092  13.843  1.00  0.00    -0.324 N 
HETATM   11  C6  UNL     1      -4.251   0.491  15.198  1.00  0.00     0.361 C 
HETATM   12  O2  UNL     1      -3.221   1.179  15.360  1.00  0.00    -0.238 OA
ATOM     13  H1  UNL     1      -5.400  -0.470  13.652  1.00  0.00     0.165 HD
BRANCH  11  14
HETATM   14  O1  UNL     1      -5.020   0.144  16.248  1.00  0.00    -0.303 OA
BRANCH  14  15
HETATM   15  C5  UNL     1      -5.443   0.874  17.310  1.00  0.00     0.189 C 
BRANCH  15  16
HETATM   16  C2  UNL     1      -6.495   1.899  17.192  1.00  0.00    -0.029 C 
HETATM   17  C1  UNL     1      -6.339   3.021  16.242  1.00  0.00     0.016 C 
HETATM   18  C3  UNL     1      -6.638   2.533  18.597  1.00  0.00     0.016 C 
HETATM   19  C4  UNL     1      -7.859   1.229  16.924  1.00  0.00     0.016 C 
ENDBRANCH  15  16
ENDBRANCH  14  15
ENDBRANCH  11  14
ENDBRANCH   7  10
ENDBRANCH   1   2
BRANCH   1  20
HETATM   20  C12 UNL     1      -3.004   4.438  11.466  1.00  0.00     0.069 A 
HETATM   21  N3  UNL     1      -1.821   4.415  12.063  1.00  0.00    -0.361 N 
HETATM   22  C13 UNL     1      -1.530   5.317  12.945  1.00  0.00     0.113 A 
ATOM     23  H3  UNL     1      -1.143   3.690  11.828  1.00  0.00     0.165 HD
HETATM   24  C14 UNL     1      -2.473   6.269  13.225  1.00  0.00     0.089 A 
HETATM   25  S1  UNL     1      -3.747   5.798  12.180  1.00  0.00    -0.068 SA
BRANCH  24  26
HETATM   26  C15 UNL     1      -2.395   7.389  14.174  1.00  0.00     0.260 C 
HETATM   27  O3  UNL     1      -3.189   7.397  15.140  1.00  0.00    -0.267 OA
HETATM   28  N4  UNL     1      -1.433   8.392  13.946  1.00  0.00    -0.352 N 
ATOM     29  H4  UNL     1      -0.819   8.314  13.134  1.00  0.00     0.163 HD
BRANCH  28  30
HETATM   30  C16 UNL     1      -1.290   9.530  14.833  1.00  0.00     0.085 C 
HETATM   31  C17 UNL     1      -2.093  10.713  14.365  1.00  0.00     0.028 C 
HETATM   32  C18 UNL     1      -1.338  11.537  13.346  1.00  0.00     0.034 C 
HETATM   33  C19 UNL     1      -0.195  12.217  14.065  1.00  0.00     0.118 C 
HETATM   34  C20 UNL     1       0.419  11.340  15.128  1.00  0.00     0.034 C 
HETATM   35  C21 UNL     1       0.184   9.873  14.866  1.00  0.00     0.028 C 
BRANCH  33  36
HETATM   36  O4  UNL     1      -0.710  13.349  14.684  1.00  0.00    -0.396 OA
ATOM     37  H4  UNL     1      -0.262  13.444  15.517  1.00  0.00     0.210 HD
ENDBRANCH  33  36
ENDBRANCH  28  30
ENDBRANCH  24  26
ENDBRANCH   1  20
TORSDOF 9
ENDMDL
MODEL 3
REMARK VINA RESULT: -8.611934422      1.032      1.189
REMARK  9 active torsions:
REMARK  status: ('A' for Active; 'I' for Inactive)
REMARK    1  A    between atoms: C2_2  and  C5_5 
REMARK    2  A    between atoms: C5_5  and  O1_6 
REMARK    3  A    between atoms: O1_6  and  C6_7 
REMARK       I    between atoms: C6_7  and  N1_9 
REMARK    4  A    between atoms: N1_9  and  C7_11 
REMARK    5  A    between atoms: N2_16  and  C11_17 
REMARK    6  A    between atoms: C11_17  and  C12_18 
REMARK    7  A    between atoms: C14_22  and  C15_23 
REMARK       I    between atoms: C15_23  and  N4_25 
REMARK    8  A    between atoms: N4_25  and  C16_27 
REMARK    9  A    between atoms: C19_30  and  O4_31 
ROOT
HETATM    1  C11 UNL     1      -3.309   3.404  10.655  1.00  0.00     0.190 C 
ENDROOT
BRANCH   1   2
HETATM    2  N2  UNL     1      -3.366   2.053  11.158  1.00  0.00    -0.342 N 
HETATM    3  C10 UNL     1      -2.580   1.033  10.492  1.00  0.00     0.163 C 
HETATM    4  C9  UNL     1      -3.445  -0.218  10.487  1.00  0.00     0.190 C 
HETATM    5  C8  UNL     1      -3.796  -0.698  11.860  1.00  0.00     0.073 C 
HETATM    6  F1  UNL     1      -4.616   0.010   9.794  1.00  0.00    -0.248 F 
HETATM    7  C7  UNL     1      -3.791   0.373  12.920  1.00  0.00     0.181 C 
HETATM    8  C22 UNL     1      -4.154   1.662  12.274  1.00  0.00     0.243 C 
HETATM    9  O5  UNL     1      -5.098   2.383  12.673  1.00  0.00    -0.271 OA
BRANCH   7  10
HETATM   10  N1  UNL     1      -4.623   0.061  14.035  1.00  0.00    -0.324 N 
HETATM   11  C6  UNL     1      -4.226   0.505  15.356  1.00  0.00     0.361 C 
HETATM   12  O2  UNL     1      -3.157   1.146  15.443  1.00  0.00    -0.238 OA
ATOM     13  H1  UNL     1      -5.486  -0.466  13.905  1.00  0.00     0.165 HD
BRANCH  11  14
HETATM   14  O1  UNL     1      -4.966   0.245  16.452  1.00  0.00    -0.303 OA
BRANCH  14  15
HETATM   15  C5  UNL     1      -5.406   1.071  17.432  1.00  0.00     0.189 C 
BRANCH  15  16
HETATM   16  C2  UNL     1      -6.527   2.005  17.232  1.00  0.00    -0.029 C 
HETATM   17  C1  UNL     1      -6.415   3.103  16.249  1.00  0.00     0.016 C 
HETATM   18  C3  UNL     1      -6.785   2.672  18.605  1.00  0.00     0.016 C 
HETATM   19  C4  UNL     1      -7.821   1.220  16.929  1.00  0.00     0.016 C 
ENDBRANCH  15  16
ENDBRANCH  14  15
ENDBRANCH  11  14
ENDBRANCH   7  10
ENDBRANCH   1   2
BRANCH   1  20
HETATM   20  C12 UNL     1      -1.848   3.701  10.407  1.00  0.00     0.069 A 
HETATM   21  N3  UNL     1      -0.880   3.838  11.302  1.00  0.00    -0.361 N 
HETATM   22  C13 UNL     1       0.327   4.094  10.907  1.00  0.00     0.113 A 
ATOM     23  H3  UNL     1      -1.084   3.740  12.297  1.00  0.00     0.165 HD
HETATM   24  C14 UNL     1       0.550   4.215   9.562  1.00  0.00     0.089 A 
HETATM   25  S1  UNL     1      -1.021   3.946   8.934  1.00  0.00    -0.068 SA
BRANCH  24  26
HETATM   26  C15 UNL     1       1.812   4.500   8.862  1.00  0.00     0.260 C 
HETATM   27  O3  UNL     1       2.614   5.294   9.400  1.00  0.00    -0.267 OA
HETATM   28  N4  UNL     1       2.048   3.866   7.628  1.00  0.00    -0.352 N 
ATOM     29  H4  UNL     1       1.344   3.230   7.254  1.00  0.00     0.163 HD
BRANCH  28  30
HETATM   30  C16 UNL     1       3.266   4.093   6.873  1.00  0.00     0.085 C 
HETATM   31  C17 UNL     1       3.071   3.842   5.402  1.00  0.00     0.028 C 
HETATM   32  C18 UNL     1       3.245   2.380   5.055  1.00  0.00     0.034 C 
HETATM   33  C19 UNL     1       4.708   2.040   5.226  1.00  0.00     0.118 C 
HETATM   34  C20 UNL     1       5.330   2.754   6.401  1.00  0.00     0.034 C 
HETATM   35  C21 UNL     1       4.308   3.152   7.436  1.00  0.00     0.028 C 
BRANCH  33  36
HETATM   36  O4  UNL     1       5.366   2.452   4.074  1.00  0.00    -0.396 OA
ATOM     37  H4  UNL     1       5.330   3.401   4.051  1.00  0.00     0.210 HD
ENDBRANCH  33  36
ENDBRANCH  28  30
ENDBRANCH  24  26
ENDBRANCH   1  20
TORSDOF 9
ENDMDL
MODEL 4
REMARK VINA RESULT: -8.385161429      5.462      7.920
REMARK  9 active torsions:
REMARK  status: ('A' for Active; 'I' for Inactive)
REMARK    1  A    between atoms: C2_2  and  C5_5 
REMARK    2  A    between atoms: C5_5  and  O1_6 
REMARK    3  A    between atoms: O1_6  and  C6_7 
REMARK       I    between atoms: C6_7  and  N1_9 
REMARK    4  A    between atoms: N1_9  and  C7_11 
REMARK    5  A    between atoms: N2_16  and  C11_17 
REMARK    6  A    between atoms: C11_17  and  C12_18 
REMARK    7  A    between atoms: C14_22  and  C15_23 
REMARK       I    between atoms: C15_23  and  N4_25 
REMARK    8  A    between atoms: N4_25  and  C16_27 
REMARK    9  A    between atoms: C19_30  and  O4_31 
ROOT
HETATM    1  C11 UNL     1      -2.952   6.017  12.121  1.00  0.00     0.190 C 
ENDROOT
BRANCH   1   2
HETATM    2  N2  UNL     1      -2.954   4.574  12.160  1.00  0.00    -0.342 N 
HETATM    3  C10 UNL     1      -2.175   3.855  11.171  1.00  0.00     0.163 C 
HETATM    4  C9  UNL     1      -3.009   2.641  10.792  1.00  0.00     0.190 C 
HETATM    5  C8  UNL     1      -3.285   1.730  11.946  1.00  0.00     0.073 C 
HETATM    6  F1  UNL     1      -4.216   3.037  10.253  1.00  0.00    -0.248 F 
HETATM    7  C7  UNL     1      -3.257   2.400  13.295  1.00  0.00     0.181 C 
HETATM    8  C22 UNL     1      -3.679   3.814  13.116  1.00  0.00     0.243 C 
HETATM    9  O5  UNL     1      -4.621   4.332  13.762  1.00  0.00    -0.271 OA
BRANCH   7  10
HETATM   10  N1  UNL     1      -4.028   1.714  14.278  1.00  0.00    -0.324 N 
HETATM   11  C6  UNL     1      -3.554   1.679  15.647  1.00  0.00     0.361 C 
HETATM   12  O2  UNL     1      -2.478   2.262  15.891  1.00  0.00    -0.238 OA
ATOM     13  H1  UNL     1      -4.901   1.254  14.021  1.00  0.00     0.165 HD
BRANCH  11  14
HETATM   14  O1  UNL     1      -4.235   1.049  16.624  1.00  0.00    -0.303 OA
BRANCH  14  15
HETATM   15  C5  UNL     1      -5.553   0.749  16.727  1.00  0.00     0.189 C 
BRANCH  15  16
HETATM   16  C2  UNL     1      -6.570   1.764  17.051  1.00  0.00    -0.029 C 
HETATM   17  C1  UNL     1      -6.608   3.042  16.310  1.00  0.00     0.016 C 
HETATM   18  C3  UNL     1      -6.357   2.129  18.540  1.00  0.00     0.016 C 
HETATM   19  C4  UNL     1      -7.979   1.137  16.999  1.00  0.00     0.016 C 
ENDBRANCH  15  16
ENDBRANCH  14  15
ENDBRANCH  11  14
ENDBRANCH   7  10
ENDBRANCH   1   2
BRANCH   1  20
HETATM   20  C12 UNL     1      -4.209   6.421  11.384  1.00  0.00     0.069 A 
HETATM   21  N3  UNL     1      -5.348   6.864  11.897  1.00  0.00    -0.361 N 
HETATM   22  C13 UNL     1      -6.331   7.166  11.110  1.00  0.00     0.113 A 
ATOM     23  H3  UNL     1      -5.450   6.968  12.907  1.00  0.00     0.165 HD
HETATM   24  C14 UNL     1      -6.146   7.010   9.763  1.00  0.00     0.089 A 
HETATM   25  S1  UNL     1      -4.535   6.427   9.709  1.00  0.00    -0.068 SA
BRANCH  24  26
HETATM   26  C15 UNL     1      -7.090   7.278   8.668  1.00  0.00     0.260 C 
HETATM   27  O3  UNL     1      -7.571   6.298   8.056  1.00  0.00    -0.267 OA
HETATM   28  N4  UNL     1      -7.403   8.617   8.368  1.00  0.00    -0.352 N 
ATOM     29  H4  UNL     1      -6.970   9.362   8.915  1.00  0.00     0.163 HD
BRANCH  28  30
HETATM   30  C16 UNL     1      -8.325   8.967   7.304  1.00  0.00     0.085 C 
HETATM   31  C17 UNL     1      -8.057  10.343   6.757  1.00  0.00     0.028 C 
HETATM   32  C18 UNL     1      -8.746  11.414   7.573  1.00  0.00     0.034 C 
HETATM   33  C19 UNL     1     -10.233  11.283   7.337  1.00  0.00     0.118 C 
HETATM   34  C20 UNL     1     -10.670   9.844   7.211  1.00  0.00     0.034 C 
HETATM   35  C21 UNL     1      -9.717   8.894   7.893  1.00  0.00     0.028 C 
BRANCH  33  36
HETATM   36  O4  UNL     1     -10.521  11.926   6.140  1.00  0.00    -0.396 OA
ATOM     37  H4  UNL     1     -11.425  12.215   6.184  1.00  0.00     0.210 HD
ENDBRANCH  33  36
ENDBRANCH  28  30
ENDBRANCH  24  26
ENDBRANCH   1  20
TORSDOF 9
ENDMDL
MODEL 5
REMARK VINA RESULT: -8.253447932      1.940      2.509
REMARK  9 active torsions:
REMARK  status: ('A' for Active; 'I' for Inactive)
REMARK    1  A    between atoms: C2_2  and  C5_5 
REMARK    2  A    between atoms: C5_5  and  O1_6 
REMARK    3  A    between atoms: O1_6  and  C6_7 
REMARK       I    between atoms: C6_7  and  N1_9 
REMARK    4  A    between atoms: N1_9  and  C7_11 
REMARK    5  A    between atoms: N2_16  and  C11_17 
REMARK    6  A    between atoms: C11_17  and  C12_18 
REMARK    7  A    between atoms: C14_22  and  C15_23 
REMARK       I    between atoms: C15_23  and  N4_25 
REMARK    8  A    between atoms: N4_25  and  C16_27 
REMARK    9  A    between atoms: C19_30  and  O4_31 
ROOT
HETATM    1  C11 UNL     1      -1.297   5.595  11.717  1.00  0.00     0.190 C 
ENDROOT
BRANCH   1   2
HETATM    2  N2  UNL     1      -2.230   4.495  11.743  1.00  0.00    -0.342 N 
HETATM    3  C10 UNL     1      -2.560   3.839  10.493  1.00  0.00     0.163 C 
HETATM    4  C9  UNL     1      -4.045   3.522  10.573  1.00  0.00     0.190 C 
HETATM    5  C8  UNL     1      -4.393   2.608  11.706  1.00  0.00     0.073 C 
HETATM    6  F1  UNL     1      -4.779   4.683  10.710  1.00  0.00    -0.248 F 
HETATM    7  C7  UNL     1      -3.432   2.650  12.865  1.00  0.00     0.181 C 
HETATM    8  C22 UNL     1      -2.848   4.016  12.929  1.00  0.00     0.243 C 
HETATM    9  O5  UNL     1      -2.885   4.726  13.962  1.00  0.00    -0.271 OA
BRANCH   7  10
HETATM   10  N1  UNL     1      -4.022   2.244  14.097  1.00  0.00    -0.324 N 
HETATM   11  C6  UNL     1      -4.474   0.875  14.245  1.00  0.00     0.361 C 
HETATM   12  O2  UNL     1      -4.317   0.117  13.265  1.00  0.00    -0.238 OA
ATOM     13  H1  UNL     1      -4.125   2.908  14.864  1.00  0.00     0.165 HD
BRANCH  11  14
HETATM   14  O1  UNL     1      -5.038   0.426  15.382  1.00  0.00    -0.303 OA
BRANCH  14  15
HETATM   15  C5  UNL     1      -5.152   1.011  16.600  1.00  0.00     0.189 C 
BRANCH  15  16
HETATM   16  C2  UNL     1      -6.315   1.835  16.973  1.00  0.00    -0.029 C 
HETATM   17  C1  UNL     1      -6.550   3.135  16.311  1.00  0.00     0.016 C 
HETATM   18  C3  UNL     1      -6.164   2.135  18.484  1.00  0.00     0.016 C 
HETATM   19  C4  UNL     1      -7.609   1.000  16.867  1.00  0.00     0.016 C 
ENDBRANCH  15  16
ENDBRANCH  14  15
ENDBRANCH  11  14
ENDBRANCH   7  10
ENDBRANCH   1   2
BRANCH   1  20
HETATM   20  C12 UNL     1      -0.025   5.057  11.101  1.00  0.00     0.069 A 
HETATM   21  N3  UNL     1       1.040   4.573  11.723  1.00  0.00    -0.361 N 
HETATM   22  C13 UNL     1       2.050   4.151  11.030  1.00  0.00     0.113 A 
ATOM     23  H3  UNL     1       1.065   4.531  12.742  1.00  0.00     0.165 HD
HETATM   24  C14 UNL     1       1.969   4.227   9.666  1.00  0.00     0.089 A 
HETATM   25  S1  UNL     1       0.413   4.914   9.458  1.00  0.00    -0.068 SA
BRANCH  24  26
HETATM   26  C15 UNL     1       2.964   3.821   8.662  1.00  0.00     0.260 C 
HETATM   27  O3  UNL     1       3.884   3.055   9.024  1.00  0.00    -0.267 OA
HETATM   28  N4  UNL     1       2.829   4.315   7.350  1.00  0.00    -0.352 N 
ATOM     29  H4  UNL     1       2.050   4.937   7.132  1.00  0.00     0.163 HD
BRANCH  28  30
HETATM   30  C16 UNL     1       3.767   3.965   6.301  1.00  0.00     0.085 C 
HETATM   31  C17 UNL     1       3.985   5.100   5.338  1.00  0.00     0.028 C 
HETATM   32  C18 UNL     1       2.932   5.125   4.253  1.00  0.00     0.034 C 
HETATM   33  C19 UNL     1       3.166   3.926   3.361  1.00  0.00     0.118 C 
HETATM   34  C20 UNL     1       3.614   2.712   4.136  1.00  0.00     0.034 C 
HETATM   35  C21 UNL     1       3.187   2.766   5.582  1.00  0.00     0.028 C 
BRANCH  33  36
HETATM   36  O4  UNL     1       4.177   4.265   2.469  1.00  0.00    -0.396 OA
ATOM     37  H4  UNL     1       5.004   4.047   2.883  1.00  0.00     0.210 HD
ENDBRANCH  33  36
ENDBRANCH  28  30
ENDBRANCH  24  26
ENDBRANCH   1  20
TORSDOF 9
ENDMDL
