MODEL 1
REMARK VINA RESULT: -6.758329061      0.000      0.000
REMARK  12 active torsions:
REMARK  status: ('A' for Active; 'I' for Inactive)
REMARK    1  A    between atoms: C2_3  and  C3_4 
REMARK    2  A    between atoms: C3_4  and  N2_5 
REMARK    3  A    between atoms: N2_5  and  C4_7 
REMARK    4  A    between atoms: C4_7  and  C5_8 
REMARK    5  A    between atoms: C5_8  and  C6_9 
REMARK    6  A    between atoms: C6_9  and  N3_10 
REMARK    7  A    between atoms: N3_10  and  C7_13 
REMARK    8  A    between atoms: C7_13  and  C8_14 
REMARK    9  A    between atoms: C8_14  and  C9_15 
REMARK   10  A    between atoms: C9_15  and  N4_16 
REMARK   11  A    between atoms: N4_16  and  C10_18 
REMARK   12  A    between atoms: C17_25  and  O1_26 
ROOT
HETATM    1  N1  UNL     1      -1.566  78.378  24.838  1.00  0.00    -0.197 NA
HETATM    2  C1  UNL     1      -1.831  77.660  25.720  1.00  0.00     0.060 C 
HETATM    3  C2  UNL     1      -2.190  76.764  26.833  1.00  0.00     0.143 C 
ENDROOT
BRANCH   3   4
HETATM    4  C3  UNL     1      -1.420  77.240  28.048  1.00  0.00     0.127 C 
BRANCH   4   5
HETATM    5  N2  UNL     1      -0.210  77.922  27.692  1.00  0.00    -0.420 N 
ATOM      6  H2  UNL     1      -0.211  78.833  27.234  1.00  0.00     0.153 HD
BRANCH   5   7
HETATM    7  C4  UNL     1       1.001  77.233  28.026  1.00  0.00     0.115 C 
BRANCH   7   8
HETATM    8  C5  UNL     1       1.755  78.008  29.092  1.00  0.00     0.046 C 
BRANCH   8   9
HETATM    9  C6  UNL     1       2.273  79.317  28.557  1.00  0.00     0.234 C 
BRANCH   9  10
HETATM   10  N3  UNL     1       3.430  79.019  27.702  1.00  0.00    -0.075 N 
ATOM     11  H32 UNL     1       3.212  78.265  27.049  1.00  0.00     0.277 HD
ATOM     12  H31 UNL     1       3.593  79.776  27.039  1.00  0.00     0.277 HD
BRANCH  10  13
HETATM   13  C7  UNL     1       4.617  78.724  28.429  1.00  0.00     0.234 C 
BRANCH  13  14
HETATM   14  C8  UNL     1       5.291  77.476  28.002  1.00  0.00     0.047 C 
BRANCH  14  15
HETATM   15  C9  UNL     1       4.890  76.191  28.592  1.00  0.00     0.121 C 
BRANCH  15  16
HETATM   16  N4  UNL     1       4.914  75.026  27.749  1.00  0.00    -0.388 N 
ATOM     17  H4  UNL     1       4.502  75.026  26.816  1.00  0.00     0.159 HD
BRANCH  16  18
HETATM   18  C10 UNL     1       5.543  73.878  28.293  1.00  0.00     0.050 A 
HETATM   19  C11 UNL     1       4.832  72.953  29.007  1.00  0.00     0.004 A 
HETATM   20  C12 UNL     1       3.475  73.090  29.233  1.00  0.00     0.014 A 
HETATM   21  C16 UNL     1       5.482  71.825  29.540  1.00  0.00     0.010 A 
HETATM   22  C13 UNL     1       2.734  72.174  29.955  1.00  0.00     0.001 A 
HETATM   23  C14 UNL     1       3.401  71.081  30.462  1.00  0.00     0.001 A 
HETATM   24  C15 UNL     1       4.753  70.905  30.260  1.00  0.00     0.015 A 
HETATM   25  C17 UNL     1       6.834  71.687  29.321  1.00  0.00     0.089 A 
HETATM   26  C18 UNL     1       7.571  72.628  28.591  1.00  0.00     0.035 A 
HETATM   27  C19 UNL     1       8.923  72.475  28.378  1.00  0.00     0.060 A 
HETATM   28  C23 UNL     1       6.897  73.717  28.087  1.00  0.00     0.006 A 
HETATM   29  N5  UNL     1       9.571  71.349  28.914  1.00  0.00    -0.101 NA
HETATM   30  C20 UNL     1       9.615  73.435  27.642  1.00  0.00     0.027 A 
HETATM   31  C21 UNL     1       8.965  74.523  27.132  1.00  0.00     0.003 A 
HETATM   32  C22 UNL     1       7.618  74.667  27.351  1.00  0.00     0.015 A 
BRANCH  25  33
HETATM   33  O1  UNL     1       7.532  70.614  29.811  1.00  0.00    -0.359 OA
ATOM     34  H1  UNL     1       8.412  70.711  30.157  1.00  0.00     0.217 HD
ENDBRANCH  25  33
ENDBRANCH  16  18
ENDBRANCH  15  16
ENDBRANCH  14  15
ENDBRANCH  13  14
ENDBRANCH  10  13
ENDBRANCH   9  10
ENDBRANCH   8   9
ENDBRANCH   7   8
ENDBRANCH   5   7
ENDBRANCH   4   5
ENDBRANCH   3   4
TORSDOF 12
ENDMDL
MODEL 2
REMARK VINA RESULT: -6.670155820      1.288      3.591
REMARK  12 active torsions:
REMARK  status: ('A' for Active; 'I' for Inactive)
REMARK    1  A    between atoms: C2_3  and  C3_4 
REMARK    2  A    between atoms: C3_4  and  N2_5 
REMARK    3  A    between atoms: N2_5  and  C4_7 
REMARK    4  A    between atoms: C4_7  and  C5_8 
REMARK    5  A    between atoms: C5_8  and  C6_9 
REMARK    6  A    between atoms: C6_9  and  N3_10 
REMARK    7  A    between atoms: N3_10  and  C7_13 
REMARK    8  A    between atoms: C7_13  and  C8_14 
REMARK    9  A    between atoms: C8_14  and  C9_15 
REMARK   10  A    between atoms: C9_15  and  N4_16 
REMARK   11  A    between atoms: N4_16  and  C10_18 
REMARK   12  A    between atoms: C17_25  and  O1_26 
ROOT
HETATM    1  N1  UNL     1      -2.971  79.846  26.078  1.00  0.00    -0.197 NA
HETATM    2  C1  UNL     1      -3.122  79.010  26.880  1.00  0.00     0.060 C 
HETATM    3  C2  UNL     1      -3.315  77.975  27.910  1.00  0.00     0.143 C 
ENDROOT
BRANCH   3   4
HETATM    4  C3  UNL     1      -1.998  77.236  28.043  1.00  0.00     0.127 C 
BRANCH   4   5
HETATM    5  N2  UNL     1      -0.906  77.962  27.465  1.00  0.00    -0.420 N 
ATOM      6  H2  UNL     1      -0.916  78.978  27.367  1.00  0.00     0.153 HD
BRANCH   5   7
HETATM    7  C4  UNL     1       0.201  77.162  27.034  1.00  0.00     0.115 C 
BRANCH   7   8
HETATM    8  C5  UNL     1       1.168  76.960  28.187  1.00  0.00     0.046 C 
BRANCH   8   9
HETATM    9  C6  UNL     1       1.642  78.277  28.743  1.00  0.00     0.234 C 
BRANCH   9  10
HETATM   10  N3  UNL     1       2.627  78.826  27.801  1.00  0.00    -0.075 N 
ATOM     11  H32 UNL     1       2.553  78.367  26.894  1.00  0.00     0.277 HD
ATOM     12  H31 UNL     1       2.375  79.777  27.531  1.00  0.00     0.277 HD
BRANCH  10  13
HETATM   13  C7  UNL     1       3.965  78.778  28.281  1.00  0.00     0.234 C 
BRANCH  13  14
HETATM   14  C8  UNL     1       4.839  77.842  27.536  1.00  0.00     0.047 C 
BRANCH  14  15
HETATM   15  C9  UNL     1       5.293  76.600  28.177  1.00  0.00     0.121 C 
BRANCH  15  16
HETATM   16  N4  UNL     1       5.222  75.383  27.414  1.00  0.00    -0.388 N 
ATOM     17  H4  UNL     1       4.803  75.351  26.485  1.00  0.00     0.159 HD
BRANCH  16  18
HETATM   18  C10 UNL     1       5.769  74.229  28.032  1.00  0.00     0.050 A 
HETATM   19  C11 UNL     1       7.095  73.921  27.906  1.00  0.00     0.004 A 
HETATM   20  C12 UNL     1       7.962  74.711  27.174  1.00  0.00     0.014 A 
HETATM   21  C16 UNL     1       7.611  72.768  28.526  1.00  0.00     0.010 A 
HETATM   22  C13 UNL     1       9.306  74.420  27.026  1.00  0.00     0.001 A 
HETATM   23  C14 UNL     1       9.778  73.284  27.647  1.00  0.00     0.001 A 
HETATM   24  C15 UNL     1       8.948  72.469  28.386  1.00  0.00     0.015 A 
HETATM   25  C17 UNL     1       6.750  71.977  29.252  1.00  0.00     0.089 A 
HETATM   26  C18 UNL     1       5.391  72.285  29.388  1.00  0.00     0.035 A 
HETATM   27  C19 UNL     1       4.542  71.484  30.120  1.00  0.00     0.060 A 
HETATM   28  C23 UNL     1       4.927  73.421  28.765  1.00  0.00     0.006 A 
HETATM   29  N5  UNL     1       5.059  70.331  30.735  1.00  0.00    -0.101 NA
HETATM   30  C20 UNL     1       3.196  71.832  30.231  1.00  0.00     0.027 A 
HETATM   31  C21 UNL     1       2.716  72.955  29.621  1.00  0.00     0.003 A 
HETATM   32  C22 UNL     1       3.569  73.746  28.893  1.00  0.00     0.015 A 
BRANCH  25  33
HETATM   33  O1  UNL     1       7.184  70.840  29.882  1.00  0.00    -0.359 OA
ATOM     34  H1  UNL     1       6.700  70.459  30.606  1.00  0.00     0.217 HD
ENDBRANCH  25  33
ENDBRANCH  16  18
ENDBRANCH  15  16
ENDBRANCH  14  15
ENDBRANCH  13  14
ENDBRANCH  10  13
ENDBRANCH   9  10
ENDBRANCH   8   9
ENDBRANCH   7   8
ENDBRANCH   5   7
ENDBRANCH   4   5
ENDBRANCH   3   4
TORSDOF 12
ENDMDL
MODEL 3
REMARK VINA RESULT: -6.666657354      1.502      2.461
REMARK  12 active torsions:
REMARK  status: ('A' for Active; 'I' for Inactive)
REMARK    1  A    between atoms: C2_3  and  C3_4 
REMARK    2  A    between atoms: C3_4  and  N2_5 
REMARK    3  A    between atoms: N2_5  and  C4_7 
REMARK    4  A    between atoms: C4_7  and  C5_8 
REMARK    5  A    between atoms: C5_8  and  C6_9 
REMARK    6  A    between atoms: C6_9  and  N3_10 
REMARK    7  A    between atoms: N3_10  and  C7_13 
REMARK    8  A    between atoms: C7_13  and  C8_14 
REMARK    9  A    between atoms: C8_14  and  C9_15 
REMARK   10  A    between atoms: C9_15  and  N4_16 
REMARK   11  A    between atoms: N4_16  and  C10_18 
REMARK   12  A    between atoms: C17_25  and  O1_26 
ROOT
HETATM    1  N1  UNL     1      -3.309  80.567  27.439  1.00  0.00    -0.197 NA
HETATM    2  C1  UNL     1      -3.710  79.609  26.904  1.00  0.00     0.060 C 
HETATM    3  C2  UNL     1      -4.211  78.387  26.250  1.00  0.00     0.143 C 
ENDROOT
BRANCH   3   4
HETATM    4  C3  UNL     1      -3.240  78.055  25.135  1.00  0.00     0.127 C 
BRANCH   4   5
HETATM    5  N2  UNL     1      -1.902  78.475  25.435  1.00  0.00    -0.420 N 
ATOM      6  H2  UNL     1      -1.675  79.438  25.681  1.00  0.00     0.153 HD
BRANCH   5   7
HETATM    7  C4  UNL     1      -0.908  77.446  25.367  1.00  0.00     0.115 C 
BRANCH   7   8
HETATM    8  C5  UNL     1      -0.986  76.573  26.607  1.00  0.00     0.046 C 
BRANCH   8   9
HETATM    9  C6  UNL     1      -0.692  77.364  27.854  1.00  0.00     0.234 C 
BRANCH   9  10
HETATM   10  N3  UNL     1       0.692  77.847  27.756  1.00  0.00    -0.075 N 
ATOM     11  H32 UNL     1       0.828  78.377  26.894  1.00  0.00     0.277 HD
ATOM     12  H31 UNL     1       0.865  78.585  28.438  1.00  0.00     0.277 HD
BRANCH  10  13
HETATM   13  C7  UNL     1       1.666  76.818  27.871  1.00  0.00     0.234 C 
BRANCH  13  14
HETATM   14  C8  UNL     1       2.311  76.744  29.203  1.00  0.00     0.047 C 
BRANCH  14  15
HETATM   15  C9  UNL     1       2.808  75.455  29.703  1.00  0.00     0.121 C 
BRANCH  15  16
HETATM   16  N4  UNL     1       2.978  74.385  28.757  1.00  0.00    -0.388 N 
ATOM     17  H4  UNL     1       2.330  74.239  27.983  1.00  0.00     0.159 HD
BRANCH  16  18
HETATM   18  C10 UNL     1       4.102  73.545  28.965  1.00  0.00     0.050 A 
HETATM   19  C11 UNL     1       4.021  72.441  29.766  1.00  0.00     0.004 A 
HETATM   20  C12 UNL     1       2.849  72.089  30.409  1.00  0.00     0.014 A 
HETATM   21  C16 UNL     1       5.153  71.627  29.959  1.00  0.00     0.010 A 
HETATM   22  C13 UNL     1       2.741  70.981  31.229  1.00  0.00     0.001 A 
HETATM   23  C14 UNL     1       3.867  70.206  31.395  1.00  0.00     0.001 A 
HETATM   24  C15 UNL     1       5.056  70.520  30.773  1.00  0.00     0.015 A 
HETATM   25  C17 UNL     1       6.323  71.976  29.323  1.00  0.00     0.089 A 
HETATM   26  C18 UNL     1       6.416  73.105  28.500  1.00  0.00     0.035 A 
HETATM   27  C19 UNL     1       7.594  73.440  27.868  1.00  0.00     0.060 A 
HETATM   28  C23 UNL     1       5.286  73.873  28.338  1.00  0.00     0.006 A 
HETATM   29  N5  UNL     1       8.724  72.627  28.065  1.00  0.00    -0.101 NA
HETATM   30  C20 UNL     1       7.638  74.571  27.055  1.00  0.00     0.027 A 
HETATM   31  C21 UNL     1       6.528  75.347  26.881  1.00  0.00     0.003 A 
HETATM   32  C22 UNL     1       5.360  75.005  27.515  1.00  0.00     0.015 A 
BRANCH  25  33
HETATM   33  O1  UNL     1       7.464  71.230  29.466  1.00  0.00    -0.359 OA
ATOM     34  H1  UNL     1       7.865  70.790  28.725  1.00  0.00     0.217 HD
ENDBRANCH  25  33
ENDBRANCH  16  18
ENDBRANCH  15  16
ENDBRANCH  14  15
ENDBRANCH  13  14
ENDBRANCH  10  13
ENDBRANCH   9  10
ENDBRANCH   8   9
ENDBRANCH   7   8
ENDBRANCH   5   7
ENDBRANCH   4   5
ENDBRANCH   3   4
TORSDOF 12
ENDMDL
MODEL 4
REMARK VINA RESULT: -6.601867152      1.201      1.497
REMARK  12 active torsions:
REMARK  status: ('A' for Active; 'I' for Inactive)
REMARK    1  A    between atoms: C2_3  and  C3_4 
REMARK    2  A    between atoms: C3_4  and  N2_5 
REMARK    3  A    between atoms: N2_5  and  C4_7 
REMARK    4  A    between atoms: C4_7  and  C5_8 
REMARK    5  A    between atoms: C5_8  and  C6_9 
REMARK    6  A    between atoms: C6_9  and  N3_10 
REMARK    7  A    between atoms: N3_10  and  C7_13 
REMARK    8  A    between atoms: C7_13  and  C8_14 
REMARK    9  A    between atoms: C8_14  and  C9_15 
REMARK   10  A    between atoms: C9_15  and  N4_16 
REMARK   11  A    between atoms: N4_16  and  C10_18 
REMARK   12  A    between atoms: C17_25  and  O1_26 
ROOT
HETATM    1  N1  UNL     1      -4.734  78.953  27.549  1.00  0.00    -0.197 NA
HETATM    2  C1  UNL     1      -4.202  78.568  26.583  1.00  0.00     0.060 C 
HETATM    3  C2  UNL     1      -3.549  78.063  25.363  1.00  0.00     0.143 C 
ENDROOT
BRANCH   3   4
HETATM    4  C3  UNL     1      -2.203  77.506  25.782  1.00  0.00     0.127 C 
BRANCH   4   5
HETATM    5  N2  UNL     1      -2.202  77.051  27.141  1.00  0.00    -0.420 N 
ATOM      6  H2  UNL     1      -2.929  76.439  27.512  1.00  0.00     0.153 HD
BRANCH   5   7
HETATM    7  C4  UNL     1      -1.110  77.515  27.942  1.00  0.00     0.115 C 
BRANCH   7   8
HETATM    8  C5  UNL     1       0.205  77.092  27.311  1.00  0.00     0.046 C 
BRANCH   8   9
HETATM    9  C6  UNL     1       1.362  77.322  28.247  1.00  0.00     0.234 C 
BRANCH   9  10
HETATM   10  N3  UNL     1       2.164  78.424  27.697  1.00  0.00    -0.075 N 
ATOM     11  H32 UNL     1       2.044  78.487  26.686  1.00  0.00     0.277 HD
ATOM     12  H31 UNL     1       1.773  79.325  27.972  1.00  0.00     0.277 HD
BRANCH  10  13
HETATM   13  C7  UNL     1       3.543  78.350  28.035  1.00  0.00     0.234 C 
BRANCH  13  14
HETATM   14  C8  UNL     1       3.933  77.089  28.708  1.00  0.00     0.047 C 
BRANCH  14  15
HETATM   15  C9  UNL     1       5.215  76.451  28.378  1.00  0.00     0.121 C 
BRANCH  15  16
HETATM   16  N4  UNL     1       5.190  75.273  27.552  1.00  0.00    -0.388 N 
ATOM     17  H4  UNL     1       4.803  75.283  26.609  1.00  0.00     0.159 HD
BRANCH  16  18
HETATM   18  C10 UNL     1       5.734  74.098  28.130  1.00  0.00     0.050 A 
HETATM   19  C11 UNL     1       4.950  73.230  28.839  1.00  0.00     0.004 A 
HETATM   20  C12 UNL     1       3.599  73.454  29.028  1.00  0.00     0.014 A 
HETATM   21  C16 UNL     1       5.517  72.074  29.406  1.00  0.00     0.010 A 
HETATM   22  C13 UNL     1       2.785  72.596  29.744  1.00  0.00     0.001 A 
HETATM   23  C14 UNL     1       3.372  71.473  30.285  1.00  0.00     0.001 A 
HETATM   24  C15 UNL     1       4.715  71.212  30.121  1.00  0.00     0.015 A 
HETATM   25  C17 UNL     1       6.862  71.850  29.224  1.00  0.00     0.089 A 
HETATM   26  C18 UNL     1       7.673  72.732  28.499  1.00  0.00     0.035 A 
HETATM   27  C19 UNL     1       9.019  72.494  28.323  1.00  0.00     0.060 A 
HETATM   28  C23 UNL     1       7.080  73.851  27.961  1.00  0.00     0.006 A 
HETATM   29  N5  UNL     1       9.583  71.339  28.893  1.00  0.00    -0.101 NA
HETATM   30  C20 UNL     1       9.786  73.398  27.591  1.00  0.00     0.027 A 
HETATM   31  C21 UNL     1       9.216  74.514  27.048  1.00  0.00     0.003 A 
HETATM   32  C22 UNL     1       7.876  74.744  27.230  1.00  0.00     0.015 A 
BRANCH  25  33
HETATM   33  O1  UNL     1       7.481  70.745  29.748  1.00  0.00    -0.359 OA
ATOM     34  H1  UNL     1       7.151  70.316  30.530  1.00  0.00     0.217 HD
ENDBRANCH  25  33
ENDBRANCH  16  18
ENDBRANCH  15  16
ENDBRANCH  14  15
ENDBRANCH  13  14
ENDBRANCH  10  13
ENDBRANCH   9  10
ENDBRANCH   8   9
ENDBRANCH   7   8
ENDBRANCH   5   7
ENDBRANCH   4   5
ENDBRANCH   3   4
TORSDOF 12
ENDMDL
MODEL 5
REMARK VINA RESULT: -6.544535279      1.773      4.042
REMARK  12 active torsions:
REMARK  status: ('A' for Active; 'I' for Inactive)
REMARK    1  A    between atoms: C2_3  and  C3_4 
REMARK    2  A    between atoms: C3_4  and  N2_5 
REMARK    3  A    between atoms: N2_5  and  C4_7 
REMARK    4  A    between atoms: C4_7  and  C5_8 
REMARK    5  A    between atoms: C5_8  and  C6_9 
REMARK    6  A    between atoms: C6_9  and  N3_10 
REMARK    7  A    between atoms: N3_10  and  C7_13 
REMARK    8  A    between atoms: C7_13  and  C8_14 
REMARK    9  A    between atoms: C8_14  and  C9_15 
REMARK   10  A    between atoms: C9_15  and  N4_16 
REMARK   11  A    between atoms: N4_16  and  C10_18 
REMARK   12  A    between atoms: C17_25  and  O1_26 
ROOT
HETATM    1  N1  UNL     1      -3.426  81.002  27.427  1.00  0.00    -0.197 NA
HETATM    2  C1  UNL     1      -3.785  79.943  27.091  1.00  0.00     0.060 C 
HETATM    3  C2  UNL     1      -4.228  78.597  26.688  1.00  0.00     0.143 C 
ENDROOT
BRANCH   3   4
HETATM    4  C3  UNL     1      -3.392  78.199  25.488  1.00  0.00     0.127 C 
BRANCH   4   5
HETATM    5  N2  UNL     1      -1.993  78.428  25.700  1.00  0.00    -0.420 N 
ATOM      6  H2  UNL     1      -1.634  79.308  26.073  1.00  0.00     0.153 HD
BRANCH   5   7
HETATM    7  C4  UNL     1      -1.134  77.337  25.350  1.00  0.00     0.115 C 
BRANCH   7   8
HETATM    8  C5  UNL     1      -0.616  76.667  26.611  1.00  0.00     0.046 C 
BRANCH   8   9
HETATM    9  C6  UNL     1      -0.546  77.637  27.760  1.00  0.00     0.234 C 
BRANCH   9  10
HETATM   10  N3  UNL     1       0.868  77.987  27.958  1.00  0.00    -0.075 N 
ATOM     11  H32 UNL     1       1.220  78.528  27.168  1.00  0.00     0.277 HD
ATOM     12  H31 UNL     1       0.967  78.681  28.698  1.00  0.00     0.277 HD
BRANCH  10  13
HETATM   13  C7  UNL     1       1.704  76.863  28.207  1.00  0.00     0.234 C 
BRANCH  13  14
HETATM   14  C8  UNL     1       2.539  76.992  29.425  1.00  0.00     0.047 C 
BRANCH  14  15
HETATM   15  C9  UNL     1       3.149  75.796  30.021  1.00  0.00     0.121 C 
BRANCH  15  16
HETATM   16  N4  UNL     1       3.012  74.547  29.319  1.00  0.00    -0.388 N 
ATOM     17  H4  UNL     1       2.146  74.284  28.849  1.00  0.00     0.159 HD
BRANCH  16  18
HETATM   18  C10 UNL     1       4.153  73.705  29.321  1.00  0.00     0.050 A 
HETATM   19  C11 UNL     1       5.259  74.011  28.577  1.00  0.00     0.004 A 
HETATM   20  C12 UNL     1       5.320  75.147  27.792  1.00  0.00     0.014 A 
HETATM   21  C16 UNL     1       6.376  73.155  28.594  1.00  0.00     0.010 A 
HETATM   22  C13 UNL     1       6.423  75.477  27.027  1.00  0.00     0.001 A 
HETATM   23  C14 UNL     1       7.499  74.618  27.067  1.00  0.00     0.001 A 
HETATM   24  C15 UNL     1       7.480  73.475  27.836  1.00  0.00     0.015 A 
HETATM   25  C17 UNL     1       6.317  72.021  29.372  1.00  0.00     0.089 A 
HETATM   26  C18 UNL     1       5.189  71.700  30.137  1.00  0.00     0.035 A 
HETATM   27  C19 UNL     1       5.147  70.562  30.912  1.00  0.00     0.060 A 
HETATM   28  C23 UNL     1       4.119  72.563  30.092  1.00  0.00     0.006 A 
HETATM   29  N5  UNL     1       6.262  69.707  30.925  1.00  0.00    -0.101 NA
HETATM   30  C20 UNL     1       4.004  70.284  31.661  1.00  0.00     0.027 A 
HETATM   31  C21 UNL     1       2.931  71.128  31.631  1.00  0.00     0.003 A 
HETATM   32  C22 UNL     1       2.983  72.258  30.855  1.00  0.00     0.015 A 
BRANCH  25  33
HETATM   33  O1  UNL     1       7.367  71.143  29.435  1.00  0.00    -0.359 OA
ATOM     34  H1  UNL     1       7.414  70.473  30.108  1.00  0.00     0.217 HD
ENDBRANCH  25  33
ENDBRANCH  16  18
ENDBRANCH  15  16
ENDBRANCH  14  15
ENDBRANCH  13  14
ENDBRANCH  10  13
ENDBRANCH   9  10
ENDBRANCH   8   9
ENDBRANCH   7   8
ENDBRANCH   5   7
ENDBRANCH   4   5
ENDBRANCH   3   4
TORSDOF 12
ENDMDL
