MODEL 1
REMARK VINA RESULT: -8.469058774      0.000      0.000
REMARK  11 active torsions:
REMARK  status: ('A' for Active; 'I' for Inactive)
REMARK    1  A    between atoms: O1_2  and  C2_3 
REMARK    2  A    between atoms: C5_6  and  N1_7 
REMARK    3  A    between atoms: N1_7  and  C6_9 
REMARK    4  A    between atoms: C9_14  and  N3_15 
REMARK    5  A    between atoms: N3_15  and  C10_17 
REMARK    6  A    between atoms: C10_17  and  C11_18 
REMARK    7  A    between atoms: C11_18  and  N4_19 
REMARK    8  A    between atoms: N4_19  and  C12_21 
REMARK    9  A    between atoms: C12_21  and  C13_22 
REMARK   10  A    between atoms: C13_22  and  N5_23 
REMARK   11  A    between atoms: N5_23  and  C14_25 
ROOT
HETATM    1  C6  UNL     1       3.984  74.944  28.495  1.00  0.00     0.050 A 
HETATM    2  C7  UNL     1       5.174  75.558  28.193  1.00  0.00     0.117 A 
HETATM    3  N2  UNL     1       5.295  76.893  28.031  1.00  0.00    -0.371 N 
ATOM      4  H2  UNL     1       6.212  77.278  27.808  1.00  0.00     0.164 HD
HETATM    5  C8  UNL     1       4.260  77.728  28.152  1.00  0.00     0.116 A 
HETATM    6  C9  UNL     1       3.018  77.156  28.459  1.00  0.00     0.046 A 
HETATM    7  C20 UNL     1       2.878  75.797  28.628  1.00  0.00     0.061 A 
ENDROOT
BRANCH   6   8
HETATM    8  N3  UNL     1       1.937  78.041  28.608  1.00  0.00    -0.384 N 
ATOM      9  H3  UNL     1       2.089  79.026  28.388  1.00  0.00     0.160 HD
BRANCH   8  10
HETATM   10  C10 UNL     1       0.639  77.644  29.048  1.00  0.00     0.164 C 
BRANCH  10  11
HETATM   11  C11 UNL     1      -0.335  77.298  27.969  1.00  0.00     0.079 C 
BRANCH  11  12
HETATM   12  N4  UNL     1      -0.065  77.649  26.652  1.00  0.00    -0.379 N 
ATOM     13  H4  UNL     1       0.719  78.278  26.479  1.00  0.00     0.164 HD
BRANCH  12  14
HETATM   14  C12 UNL     1      -0.793  77.200  25.550  1.00  0.00     0.079 C 
BRANCH  14  15
HETATM   15  C13 UNL     1      -2.164  77.731  25.318  1.00  0.00     0.164 C 
BRANCH  15  16
HETATM   16  N5  UNL     1      -2.252  79.076  25.893  1.00  0.00    -0.385 N 
ATOM     17  H5  UNL     1      -1.476  79.720  25.740  1.00  0.00     0.160 HD
BRANCH  16  18
HETATM   18  C14 UNL     1      -3.360  79.524  26.649  1.00  0.00     0.028 A 
HETATM   19  C15 UNL     1      -3.562  80.826  27.044  1.00  0.00     0.031 A 
HETATM   20  C16 UNL     1      -4.660  81.228  27.773  1.00  0.00     0.029 A 
HETATM   21  C17 UNL     1      -5.615  80.303  28.138  1.00  0.00     0.046 A 
HETATM   22  N6  UNL     1      -6.768  80.653  28.891  1.00  0.00    -0.102 NA
HETATM   23  C18 UNL     1      -5.416  79.008  27.748  1.00  0.00     0.029 A 
HETATM   24  C19 UNL     1      -4.329  78.576  27.019  1.00  0.00     0.031 A 
ENDBRANCH  16  18
ENDBRANCH  15  16
ENDBRANCH  14  15
ENDBRANCH  12  14
ENDBRANCH  11  12
ENDBRANCH  10  11
ENDBRANCH   8  10
ENDBRANCH   6   8
BRANCH   1  25
HETATM   25  N1  UNL     1       3.810  73.557  28.708  1.00  0.00    -0.355 N 
ATOM     26  H1  UNL     1       3.314  73.038  27.983  1.00  0.00     0.166 HD
BRANCH  25  27
HETATM   27  C5  UNL     1       4.258  72.817  29.830  1.00  0.00     0.032 A 
HETATM   28  C4  UNL     1       3.672  72.873  31.072  1.00  0.00     0.032 A 
HETATM   29  C3  UNL     1       4.184  72.134  32.147  1.00  0.00     0.039 A 
HETATM   30  C2  UNL     1       5.288  71.322  32.014  1.00  0.00     0.068 A 
HETATM   31  C22 UNL     1       5.881  71.260  30.774  1.00  0.00     0.039 A 
HETATM   32  C21 UNL     1       5.380  71.985  29.715  1.00  0.00     0.032 A 
BRANCH  30  33
HETATM   33  O1  UNL     1       5.799  70.587  33.084  1.00  0.00    -0.356 OA
HETATM   34  C1  UNL     1       7.192  70.495  33.327  1.00  0.00     0.210 C 
ENDBRANCH  30  33
ENDBRANCH  25  27
ENDBRANCH   1  25
TORSDOF 11
ENDMDL
MODEL 2
REMARK VINA RESULT: -8.346957344      0.950      1.320
REMARK  11 active torsions:
REMARK  status: ('A' for Active; 'I' for Inactive)
REMARK    1  A    between atoms: O1_2  and  C2_3 
REMARK    2  A    between atoms: C5_6  and  N1_7 
REMARK    3  A    between atoms: N1_7  and  C6_9 
REMARK    4  A    between atoms: C9_14  and  N3_15 
REMARK    5  A    between atoms: N3_15  and  C10_17 
REMARK    6  A    between atoms: C10_17  and  C11_18 
REMARK    7  A    between atoms: C11_18  and  N4_19 
REMARK    8  A    between atoms: N4_19  and  C12_21 
REMARK    9  A    between atoms: C12_21  and  C13_22 
REMARK   10  A    between atoms: C13_22  and  N5_23 
REMARK   11  A    between atoms: N5_23  and  C14_25 
ROOT
HETATM    1  C6  UNL     1       3.566  75.051  28.593  1.00  0.00     0.050 A 
HETATM    2  C7  UNL     1       4.693  75.824  28.456  1.00  0.00     0.117 A 
HETATM    3  N2  UNL     1       4.656  77.169  28.351  1.00  0.00    -0.371 N 
ATOM      4  H2  UNL     1       5.535  77.677  28.252  1.00  0.00     0.164 HD
HETATM    5  C8  UNL     1       3.515  77.861  28.372  1.00  0.00     0.116 A 
HETATM    6  C9  UNL     1       2.330  77.123  28.510  1.00  0.00     0.046 A 
HETATM    7  C20 UNL     1       2.350  75.751  28.618  1.00  0.00     0.061 A 
ENDROOT
BRANCH   6   8
HETATM    8  N3  UNL     1       1.133  77.858  28.554  1.00  0.00    -0.384 N 
ATOM      9  H3  UNL     1       1.154  78.784  28.982  1.00  0.00     0.160 HD
BRANCH   8  10
HETATM   10  C10 UNL     1      -0.109  77.384  28.035  1.00  0.00     0.164 C 
BRANCH  10  11
HETATM   11  C11 UNL     1      -0.185  77.254  26.548  1.00  0.00     0.079 C 
BRANCH  11  12
HETATM   12  N4  UNL     1      -0.803  76.147  25.980  1.00  0.00    -0.379 N 
ATOM     13  H4  UNL     1      -0.210  75.372  25.684  1.00  0.00     0.164 HD
BRANCH  12  14
HETATM   14  C12 UNL     1      -2.179  76.023  25.787  1.00  0.00     0.079 C 
BRANCH  14  15
HETATM   15  C13 UNL     1      -2.997  77.247  25.574  1.00  0.00     0.164 C 
BRANCH  15  16
HETATM   16  N5  UNL     1      -3.719  77.553  26.812  1.00  0.00    -0.385 N 
ATOM     17  H5  UNL     1      -3.921  76.789  27.457  1.00  0.00     0.160 HD
BRANCH  16  18
HETATM   18  C14 UNL     1      -4.150  78.856  27.156  1.00  0.00     0.028 A 
HETATM   19  C15 UNL     1      -5.265  79.136  27.910  1.00  0.00     0.031 A 
HETATM   20  C16 UNL     1      -5.650  80.419  28.234  1.00  0.00     0.029 A 
HETATM   21  C17 UNL     1      -4.900  81.489  27.795  1.00  0.00     0.046 A 
HETATM   22  N6  UNL     1      -5.244  82.836  28.093  1.00  0.00    -0.102 NA
HETATM   23  C18 UNL     1      -3.791  81.213  27.044  1.00  0.00     0.029 A 
HETATM   24  C19 UNL     1      -3.382  79.942  26.705  1.00  0.00     0.031 A 
ENDBRANCH  16  18
ENDBRANCH  15  16
ENDBRANCH  14  15
ENDBRANCH  12  14
ENDBRANCH  11  12
ENDBRANCH  10  11
ENDBRANCH   8  10
ENDBRANCH   6   8
BRANCH   1  25
HETATM   25  N1  UNL     1       3.551  73.645  28.740  1.00  0.00    -0.355 N 
ATOM     26  H1  UNL     1       3.146  73.106  27.974  1.00  0.00     0.166 HD
BRANCH  25  27
HETATM   27  C5  UNL     1       4.043  72.911  29.848  1.00  0.00     0.032 A 
HETATM   28  C4  UNL     1       3.542  73.015  31.123  1.00  0.00     0.032 A 
HETATM   29  C3  UNL     1       4.095  72.279  32.180  1.00  0.00     0.039 A 
HETATM   30  C2  UNL     1       5.158  71.423  31.995  1.00  0.00     0.068 A 
HETATM   31  C22 UNL     1       5.666  71.313  30.721  1.00  0.00     0.039 A 
HETATM   32  C21 UNL     1       5.124  72.035  29.680  1.00  0.00     0.032 A 
BRANCH  30  33
HETATM   33  O1  UNL     1       5.710  70.691  33.046  1.00  0.00    -0.356 OA
HETATM   34  C1  UNL     1       7.112  70.573  33.217  1.00  0.00     0.210 C 
ENDBRANCH  30  33
ENDBRANCH  25  27
ENDBRANCH   1  25
TORSDOF 11
ENDMDL
MODEL 3
REMARK VINA RESULT: -8.295013759      0.775      1.260
REMARK  11 active torsions:
REMARK  status: ('A' for Active; 'I' for Inactive)
REMARK    1  A    between atoms: O1_2  and  C2_3 
REMARK    2  A    between atoms: C5_6  and  N1_7 
REMARK    3  A    between atoms: N1_7  and  C6_9 
REMARK    4  A    between atoms: C9_14  and  N3_15 
REMARK    5  A    between atoms: N3_15  and  C10_17 
REMARK    6  A    between atoms: C10_17  and  C11_18 
REMARK    7  A    between atoms: C11_18  and  N4_19 
REMARK    8  A    between atoms: N4_19  and  C12_21 
REMARK    9  A    between atoms: C12_21  and  C13_22 
REMARK   10  A    between atoms: C13_22  and  N5_23 
REMARK   11  A    between atoms: N5_23  and  C14_25 
ROOT
HETATM    1  C6  UNL     1       3.769  74.903  28.520  1.00  0.00     0.050 A 
HETATM    2  C7  UNL     1       4.900  75.599  28.169  1.00  0.00     0.117 A 
HETATM    3  N2  UNL     1       4.925  76.941  28.029  1.00  0.00    -0.371 N 
ATOM      4  H2  UNL     1       5.802  77.390  27.766  1.00  0.00     0.164 HD
HETATM    5  C8  UNL     1       3.846  77.704  28.219  1.00  0.00     0.116 A 
HETATM    6  C9  UNL     1       2.661  77.046  28.578  1.00  0.00     0.046 A 
HETATM    7  C20 UNL     1       2.619  75.678  28.727  1.00  0.00     0.061 A 
ENDROOT
BRANCH   6   8
HETATM    8  N3  UNL     1       1.534  77.856  28.800  1.00  0.00    -0.384 N 
ATOM      9  H3  UNL     1       1.674  78.758  29.256  1.00  0.00     0.160 HD
BRANCH   8  10
HETATM   10  C10 UNL     1       0.208  77.491  28.424  1.00  0.00     0.164 C 
BRANCH  10  11
HETATM   11  C11 UNL     1       0.021  77.100  26.994  1.00  0.00     0.079 C 
BRANCH  11  12
HETATM   12  N4  UNL     1      -0.717  77.915  26.144  1.00  0.00    -0.379 N 
ATOM     13  H4  UNL     1      -0.489  78.909  26.120  1.00  0.00     0.164 HD
BRANCH  12  14
HETATM   14  C12 UNL     1      -1.749  77.466  25.320  1.00  0.00     0.079 C 
BRANCH  14  15
HETATM   15  C13 UNL     1      -3.119  77.319  25.883  1.00  0.00     0.164 C 
BRANCH  15  16
HETATM   16  N5  UNL     1      -3.175  78.014  27.172  1.00  0.00    -0.385 N 
ATOM     17  H5  UNL     1      -2.710  77.587  27.974  1.00  0.00     0.160 HD
BRANCH  16  18
HETATM   18  C14 UNL     1      -3.841  79.248  27.358  1.00  0.00     0.028 A 
HETATM   19  C15 UNL     1      -3.375  80.463  26.913  1.00  0.00     0.031 A 
HETATM   20  C16 UNL     1      -4.056  81.645  27.104  1.00  0.00     0.029 A 
HETATM   21  C17 UNL     1      -5.263  81.639  27.771  1.00  0.00     0.046 A 
HETATM   22  N6  UNL     1      -6.013  82.824  28.002  1.00  0.00    -0.102 NA
HETATM   23  C18 UNL     1      -5.728  80.432  28.216  1.00  0.00     0.029 A 
HETATM   24  C19 UNL     1      -5.070  79.235  28.040  1.00  0.00     0.031 A 
ENDBRANCH  16  18
ENDBRANCH  15  16
ENDBRANCH  14  15
ENDBRANCH  12  14
ENDBRANCH  11  12
ENDBRANCH  10  11
ENDBRANCH   8  10
ENDBRANCH   6   8
BRANCH   1  25
HETATM   25  N1  UNL     1       3.697  73.504  28.713  1.00  0.00    -0.355 N 
ATOM     26  H1  UNL     1       3.184  72.968  28.013  1.00  0.00     0.166 HD
BRANCH  25  27
HETATM   27  C5  UNL     1       4.267  72.774  29.785  1.00  0.00     0.032 A 
HETATM   28  C4  UNL     1       5.335  71.918  29.651  1.00  0.00     0.032 A 
HETATM   29  C3  UNL     1       5.833  71.205  30.751  1.00  0.00     0.039 A 
HETATM   30  C2  UNL     1       5.283  71.325  32.007  1.00  0.00     0.068 A 
HETATM   31  C22 UNL     1       4.213  72.179  32.150  1.00  0.00     0.039 A 
HETATM   32  C21 UNL     1       3.722  72.882  31.072  1.00  0.00     0.032 A 
BRANCH  30  33
HETATM   33  O1  UNL     1       5.777  70.615  33.101  1.00  0.00    -0.356 OA
HETATM   34  C1  UNL     1       7.166  70.516  33.360  1.00  0.00     0.210 C 
ENDBRANCH  30  33
ENDBRANCH  25  27
ENDBRANCH   1  25
TORSDOF 11
ENDMDL
MODEL 4
REMARK VINA RESULT: -8.286894161      2.081      2.556
REMARK  11 active torsions:
REMARK  status: ('A' for Active; 'I' for Inactive)
REMARK    1  A    between atoms: O1_2  and  C2_3 
REMARK    2  A    between atoms: C5_6  and  N1_7 
REMARK    3  A    between atoms: N1_7  and  C6_9 
REMARK    4  A    between atoms: C9_14  and  N3_15 
REMARK    5  A    between atoms: N3_15  and  C10_17 
REMARK    6  A    between atoms: C10_17  and  C11_18 
REMARK    7  A    between atoms: C11_18  and  N4_19 
REMARK    8  A    between atoms: N4_19  and  C12_21 
REMARK    9  A    between atoms: C12_21  and  C13_22 
REMARK   10  A    between atoms: C13_22  and  N5_23 
REMARK   11  A    between atoms: N5_23  and  C14_25 
ROOT
HETATM    1  C6  UNL     1       4.444  77.019  28.439  1.00  0.00     0.050 A 
HETATM    2  C7  UNL     1       5.067  78.237  28.554  1.00  0.00     0.117 A 
HETATM    3  N2  UNL     1       4.422  79.412  28.400  1.00  0.00    -0.371 N 
ATOM      4  H2  UNL     1       4.951  80.278  28.501  1.00  0.00     0.164 HD
HETATM    5  C8  UNL     1       3.119  79.486  28.121  1.00  0.00     0.116 A 
HETATM    6  C9  UNL     1       2.430  78.272  27.990  1.00  0.00     0.046 A 
HETATM    7  C20 UNL     1       3.073  77.064  28.145  1.00  0.00     0.061 A 
ENDROOT
BRANCH   6   8
HETATM    8  N3  UNL     1       1.054  78.355  27.719  1.00  0.00    -0.384 N 
ATOM      9  H3  UNL     1       0.656  79.276  27.535  1.00  0.00     0.160 HD
BRANCH   8  10
HETATM   10  C10 UNL     1       0.181  77.227  27.685  1.00  0.00     0.164 C 
BRANCH  10  11
HETATM   11  C11 UNL     1      -0.383  76.881  26.345  1.00  0.00     0.079 C 
BRANCH  11  12
HETATM   12  N4  UNL     1      -1.000  77.862  25.579  1.00  0.00    -0.379 N 
ATOM     13  H4  UNL     1      -0.405  78.469  25.015  1.00  0.00     0.164 HD
BRANCH  12  14
HETATM   14  C12 UNL     1      -2.378  78.075  25.527  1.00  0.00     0.079 C 
BRANCH  14  15
HETATM   15  C13 UNL     1      -3.242  77.509  26.599  1.00  0.00     0.164 C 
BRANCH  15  16
HETATM   16  N5  UNL     1      -3.248  78.434  27.736  1.00  0.00    -0.385 N 
ATOM     17  H5  UNL     1      -2.704  78.190  28.563  1.00  0.00     0.160 HD
BRANCH  16  18
HETATM   18  C14 UNL     1      -3.973  79.649  27.741  1.00  0.00     0.028 A 
HETATM   19  C15 UNL     1      -3.458  80.868  27.362  1.00  0.00     0.031 A 
HETATM   20  C16 UNL     1      -4.197  82.030  27.371  1.00  0.00     0.029 A 
HETATM   21  C17 UNL     1      -5.515  82.000  27.774  1.00  0.00     0.046 A 
HETATM   22  N6  UNL     1      -6.330  83.164  27.807  1.00  0.00    -0.102 NA
HETATM   23  C18 UNL     1      -6.029  80.791  28.151  1.00  0.00     0.029 A 
HETATM   24  C19 UNL     1      -5.315  79.612  28.153  1.00  0.00     0.031 A 
ENDBRANCH  16  18
ENDBRANCH  15  16
ENDBRANCH  14  15
ENDBRANCH  12  14
ENDBRANCH  11  12
ENDBRANCH  10  11
ENDBRANCH   8  10
ENDBRANCH   6   8
BRANCH   1  25
HETATM   25  N1  UNL     1       5.064  75.761  28.624  1.00  0.00    -0.355 N 
ATOM     26  H1  UNL     1       6.076  75.725  28.502  1.00  0.00     0.166 HD
BRANCH  25  27
HETATM   27  C5  UNL     1       4.416  74.547  28.962  1.00  0.00     0.032 A 
HETATM   28  C4  UNL     1       4.578  73.371  28.269  1.00  0.00     0.032 A 
HETATM   29  C3  UNL     1       3.884  72.211  28.642  1.00  0.00     0.039 A 
HETATM   30  C2  UNL     1       3.015  72.193  29.710  1.00  0.00     0.068 A 
HETATM   31  C22 UNL     1       2.847  73.367  30.408  1.00  0.00     0.039 A 
HETATM   32  C21 UNL     1       3.528  74.508  30.045  1.00  0.00     0.032 A 
BRANCH  30  33
HETATM   33  O1  UNL     1       2.323  71.040  30.081  1.00  0.00    -0.356 OA
HETATM   34  C1  UNL     1       2.715  69.757  29.625  1.00  0.00     0.210 C 
ENDBRANCH  30  33
ENDBRANCH  25  27
ENDBRANCH   1  25
TORSDOF 11
ENDMDL
MODEL 5
REMARK VINA RESULT: -8.207883950      0.328      1.280
REMARK  11 active torsions:
REMARK  status: ('A' for Active; 'I' for Inactive)
REMARK    1  A    between atoms: O1_2  and  C2_3 
REMARK    2  A    between atoms: C5_6  and  N1_7 
REMARK    3  A    between atoms: N1_7  and  C6_9 
REMARK    4  A    between atoms: C9_14  and  N3_15 
REMARK    5  A    between atoms: N3_15  and  C10_17 
REMARK    6  A    between atoms: C10_17  and  C11_18 
REMARK    7  A    between atoms: C11_18  and  N4_19 
REMARK    8  A    between atoms: N4_19  and  C12_21 
REMARK    9  A    between atoms: C12_21  and  C13_22 
REMARK   10  A    between atoms: C13_22  and  N5_23 
REMARK   11  A    between atoms: N5_23  and  C14_25 
ROOT
HETATM    1  C6  UNL     1       3.994  74.916  28.568  1.00  0.00     0.050 A 
HETATM    2  C7  UNL     1       5.080  75.628  28.121  1.00  0.00     0.117 A 
HETATM    3  N2  UNL     1       5.091  76.975  28.030  1.00  0.00    -0.371 N 
ATOM      4  H2  UNL     1       5.935  77.436  27.690  1.00  0.00     0.164 HD
HETATM    5  C8  UNL     1       4.042  77.727  28.370  1.00  0.00     0.116 A 
HETATM    6  C9  UNL     1       2.904  77.053  28.833  1.00  0.00     0.046 A 
HETATM    7  C20 UNL     1       2.876  75.680  28.932  1.00  0.00     0.061 A 
ENDROOT
BRANCH   6   8
HETATM    8  N3  UNL     1       1.810  77.851  29.210  1.00  0.00    -0.384 N 
ATOM      9  H3  UNL     1       1.958  78.558  29.930  1.00  0.00     0.160 HD
BRANCH   8  10
HETATM   10  C10 UNL     1       0.506  77.730  28.644  1.00  0.00     0.164 C 
BRANCH  10  11
HETATM   11  C11 UNL     1       0.428  77.001  27.341  1.00  0.00     0.079 C 
BRANCH  11  12
HETATM   12  N4  UNL     1      -0.084  77.640  26.219  1.00  0.00    -0.379 N 
ATOM     13  H4  UNL     1       0.344  78.523  25.939  1.00  0.00     0.164 HD
BRANCH  12  14
HETATM   14  C12 UNL     1      -1.141  77.157  25.449  1.00  0.00     0.079 C 
BRANCH  14  15
HETATM   15  C13 UNL     1      -2.232  78.086  25.047  1.00  0.00     0.164 C 
BRANCH  15  16
HETATM   16  N5  UNL     1      -2.299  79.182  26.017  1.00  0.00    -0.385 N 
ATOM     17  H5  UNL     1      -1.461  79.740  26.177  1.00  0.00     0.160 HD
BRANCH  16  18
HETATM   18  C14 UNL     1      -3.471  79.504  26.742  1.00  0.00     0.028 A 
HETATM   19  C15 UNL     1      -4.456  78.603  27.075  1.00  0.00     0.031 A 
HETATM   20  C16 UNL     1      -5.580  78.951  27.791  1.00  0.00     0.029 A 
HETATM   21  C17 UNL     1      -5.752  80.255  28.204  1.00  0.00     0.046 A 
HETATM   22  N6  UNL     1      -6.890  80.678  28.944  1.00  0.00    -0.102 NA
HETATM   23  C18 UNL     1      -4.775  81.152  27.873  1.00  0.00     0.029 A 
HETATM   24  C19 UNL     1      -3.640  80.834  27.159  1.00  0.00     0.031 A 
ENDBRANCH  16  18
ENDBRANCH  15  16
ENDBRANCH  14  15
ENDBRANCH  12  14
ENDBRANCH  11  12
ENDBRANCH  10  11
ENDBRANCH   8  10
ENDBRANCH   6   8
BRANCH   1  25
HETATM   25  N1  UNL     1       3.941  73.510  28.714  1.00  0.00    -0.355 N 
ATOM     26  H1  UNL     1       3.470  72.988  27.975  1.00  0.00     0.166 HD
BRANCH  25  27
HETATM   27  C5  UNL     1       4.479  72.757  29.786  1.00  0.00     0.032 A 
HETATM   28  C4  UNL     1       5.607  71.977  29.688  1.00  0.00     0.032 A 
HETATM   29  C3  UNL     1       6.070  71.234  30.783  1.00  0.00     0.039 A 
HETATM   30  C2  UNL     1       5.424  71.249  32.000  1.00  0.00     0.068 A 
HETATM   31  C22 UNL     1       4.295  72.027  32.106  1.00  0.00     0.039 A 
HETATM   32  C21 UNL     1       3.838  72.759  31.032  1.00  0.00     0.032 A 
BRANCH  30  33
HETATM   33  O1  UNL     1       5.884  70.509  33.089  1.00  0.00    -0.356 OA
HETATM   34  C1  UNL     1       7.265  70.392  33.382  1.00  0.00     0.210 C 
ENDBRANCH  30  33
ENDBRANCH  25  27
ENDBRANCH   1  25
TORSDOF 11
ENDMDL
