MODEL 1
REMARK VINA RESULT: -8.631935401      0.000      0.000
REMARK  11 active torsions:
REMARK  status: ('A' for Active; 'I' for Inactive)
REMARK    1  A    between atoms: C3_4  and  N2_5 
REMARK    2  A    between atoms: N2_5  and  C4_7 
REMARK    3  A    between atoms: C4_7  and  C5_8 
REMARK    4  A    between atoms: C5_8  and  C6_9 
REMARK    5  A    between atoms: C6_9  and  C7_10 
REMARK    6  A    between atoms: C7_10  and  C8_11 
REMARK    7  A    between atoms: C8_11  and  C9_12 
REMARK    8  A    between atoms: C9_12  and  C10_13 
REMARK    9  A    between atoms: C10_13  and  O1_14 
REMARK   10  A    between atoms: O1_14  and  C11_15 
REMARK   11  A    between atoms: C17_21  and  N3_22 
ROOT
HETATM    1  N1  UNL     1       2.385  72.109  29.849  1.00  0.00    -0.191 NA
HETATM    2  C1  UNL     1       3.267  72.705  29.404  1.00  0.00     0.105 C 
HETATM    3  C2  UNL     1       4.398  73.413  28.843  1.00  0.00     0.117 A 
HETATM    4  C3  UNL     1       4.450  74.769  28.714  1.00  0.00     0.089 A 
HETATM    5  C17 UNL     1       5.615  75.318  28.157  1.00  0.00     0.171 A 
HETATM    6  C18 UNL     1       6.686  74.568  27.743  1.00  0.00     0.153 A 
HETATM    7  N4  UNL     1       7.837  75.212  27.186  1.00  0.00    -0.080 NA
HETATM    8  N5  UNL     1       6.604  73.238  27.883  1.00  0.00    -0.328 N 
ATOM      9  H5  UNL     1       7.381  72.647  27.587  1.00  0.00     0.168 HD
HETATM   10  C19 UNL     1       5.506  72.680  28.411  1.00  0.00     0.123 A 
HETATM   11  N6  UNL     1       5.441  71.407  28.538  1.00  0.00    -0.384 N 
ATOM     12  H61 UNL     1       6.250  70.872  28.223  1.00  0.00     0.157 HD
ATOM     13  H62 UNL     1       4.606  70.983  28.940  1.00  0.00     0.157 HD
ENDROOT
BRANCH   4  14
HETATM   14  N2  UNL     1       3.405  75.624  29.099  1.00  0.00    -0.386 N 
ATOM     15  H2  UNL     1       3.473  76.010  30.040  1.00  0.00     0.159 HD
BRANCH  14  16
HETATM   16  C4  UNL     1       2.252  76.026  28.343  1.00  0.00     0.120 C 
BRANCH  16  17
HETATM   17  C5  UNL     1       1.619  77.234  29.087  1.00  0.00     0.020 C 
BRANCH  17  18
HETATM   18  C6  UNL     1       0.297  77.612  28.511  1.00  0.00     0.002 C 
BRANCH  18  19
HETATM   19  C7  UNL     1       0.014  76.915  27.221  1.00  0.00     0.000 C 
BRANCH  19  20
HETATM   20  C8  UNL     1      -1.427  77.116  26.831  1.00  0.00     0.002 C 
BRANCH  20  21
HETATM   21  C9  UNL     1      -1.541  77.583  25.390  1.00  0.00     0.027 C 
BRANCH  21  22
HETATM   22  C10 UNL     1      -2.590  78.660  25.358  1.00  0.00     0.175 C 
BRANCH  22  23
HETATM   23  O1  UNL     1      -2.657  79.484  26.445  1.00  0.00    -0.351 OA
BRANCH  23  24
HETATM   24  C11 UNL     1      -3.709  80.103  27.046  1.00  0.00     0.068 A 
HETATM   25  C12 UNL     1      -3.791  81.509  27.071  1.00  0.00     0.037 A 
HETATM   26  C13 UNL     1      -4.830  82.161  27.661  1.00  0.00     0.003 A 
HETATM   27  C14 UNL     1      -5.860  81.475  28.268  1.00  0.00     0.000 A 
HETATM   28  C15 UNL     1      -5.821  80.102  28.266  1.00  0.00     0.003 A 
HETATM   29  C16 UNL     1      -4.745  79.440  27.655  1.00  0.00     0.037 A 
ENDBRANCH  23  24
ENDBRANCH  22  23
ENDBRANCH  21  22
ENDBRANCH  20  21
ENDBRANCH  19  20
ENDBRANCH  18  19
ENDBRANCH  17  18
ENDBRANCH  16  17
ENDBRANCH  14  16
ENDBRANCH   4  14
BRANCH   5  30
HETATM   30  N3  UNL     1       5.679  76.726  28.019  1.00  0.00    -0.110 N 
HETATM   31  O2  UNL     1       5.303  77.212  26.920  1.00  0.00    -0.532 OA
HETATM   32  O3  UNL     1       6.120  77.579  28.981  1.00  0.00    -0.532 OA
ENDBRANCH   5  30
TORSDOF 11
ENDMDL
MODEL 2
REMARK VINA RESULT: -8.434636912      2.137      3.824
REMARK  11 active torsions:
REMARK  status: ('A' for Active; 'I' for Inactive)
REMARK    1  A    between atoms: C3_4  and  N2_5 
REMARK    2  A    between atoms: N2_5  and  C4_7 
REMARK    3  A    between atoms: C4_7  and  C5_8 
REMARK    4  A    between atoms: C5_8  and  C6_9 
REMARK    5  A    between atoms: C6_9  and  C7_10 
REMARK    6  A    between atoms: C7_10  and  C8_11 
REMARK    7  A    between atoms: C8_11  and  C9_12 
REMARK    8  A    between atoms: C9_12  and  C10_13 
REMARK    9  A    between atoms: C10_13  and  O1_14 
REMARK   10  A    between atoms: O1_14  and  C11_15 
REMARK   11  A    between atoms: C17_21  and  N3_22 
ROOT
HETATM    1  N1  UNL     1       2.063  80.634  28.625  1.00  0.00    -0.191 NA
HETATM    2  C1  UNL     1       2.613  79.621  28.586  1.00  0.00     0.105 C 
HETATM    3  C2  UNL     1       3.342  78.372  28.519  1.00  0.00     0.117 A 
HETATM    4  C3  UNL     1       2.793  77.161  28.822  1.00  0.00     0.089 A 
HETATM    5  C17 UNL     1       3.619  76.033  28.706  1.00  0.00     0.171 A 
HETATM    6  C18 UNL     1       4.929  76.088  28.308  1.00  0.00     0.153 A 
HETATM    7  N4  UNL     1       5.700  74.885  28.215  1.00  0.00    -0.080 NA
HETATM    8  N5  UNL     1       5.440  77.293  28.016  1.00  0.00    -0.328 N 
ATOM      9  H5  UNL     1       6.412  77.374  27.717  1.00  0.00     0.168 HD
HETATM   10  C19 UNL     1       4.680  78.391  28.117  1.00  0.00     0.123 A 
HETATM   11  N6  UNL     1       5.182  79.536  27.837  1.00  0.00    -0.384 N 
ATOM     12  H61 UNL     1       6.159  79.551  27.543  1.00  0.00     0.157 HD
ATOM     13  H62 UNL     1       4.603  80.372  27.914  1.00  0.00     0.157 HD
ENDROOT
BRANCH   4  14
HETATM   14  N2  UNL     1       1.465  76.999  29.247  1.00  0.00    -0.386 N 
ATOM     15  H2  UNL     1       1.342  76.549  30.154  1.00  0.00     0.159 HD
BRANCH  14  16
HETATM   16  C4  UNL     1       0.255  77.384  28.575  1.00  0.00     0.120 C 
BRANCH  16  17
HETATM   17  C5  UNL     1       0.390  76.923  27.098  1.00  0.00     0.020 C 
BRANCH  17  18
HETATM   18  C6  UNL     1      -0.913  76.468  26.535  1.00  0.00     0.002 C 
BRANCH  18  19
HETATM   19  C7  UNL     1      -1.289  77.205  25.293  1.00  0.00     0.000 C 
BRANCH  19  20
HETATM   20  C8  UNL     1      -2.191  78.363  25.631  1.00  0.00     0.002 C 
BRANCH  20  21
HETATM   21  C9  UNL     1      -3.613  77.889  25.884  1.00  0.00     0.027 C 
BRANCH  21  22
HETATM   22  C10 UNL     1      -3.746  77.667  27.364  1.00  0.00     0.175 C 
BRANCH  22  23
HETATM   23  O1  UNL     1      -3.713  78.778  28.157  1.00  0.00    -0.351 OA
BRANCH  23  24
HETATM   24  C11 UNL     1      -4.383  79.961  28.084  1.00  0.00     0.068 A 
HETATM   25  C12 UNL     1      -3.722  81.130  27.661  1.00  0.00     0.037 A 
HETATM   26  C13 UNL     1      -4.361  82.329  27.574  1.00  0.00     0.003 A 
HETATM   27  C14 UNL     1      -5.695  82.459  27.897  1.00  0.00     0.000 A 
HETATM   28  C15 UNL     1      -6.378  81.343  28.314  1.00  0.00     0.003 A 
HETATM   29  C16 UNL     1      -5.710  80.113  28.400  1.00  0.00     0.037 A 
ENDBRANCH  23  24
ENDBRANCH  22  23
ENDBRANCH  21  22
ENDBRANCH  20  21
ENDBRANCH  19  20
ENDBRANCH  18  19
ENDBRANCH  17  18
ENDBRANCH  16  17
ENDBRANCH  14  16
ENDBRANCH   4  14
BRANCH   5  30
HETATM   30  N3  UNL     1       3.057  74.770  29.019  1.00  0.00    -0.110 N 
HETATM   31  O2  UNL     1       2.871  74.512  30.237  1.00  0.00    -0.532 OA
HETATM   32  O3  UNL     1       2.715  73.827  28.102  1.00  0.00    -0.532 OA
ENDBRANCH   5  30
TORSDOF 11
ENDMDL
MODEL 3
REMARK VINA RESULT: -8.314997158      0.879      1.323
REMARK  11 active torsions:
REMARK  status: ('A' for Active; 'I' for Inactive)
REMARK    1  A    between atoms: C3_4  and  N2_5 
REMARK    2  A    between atoms: N2_5  and  C4_7 
REMARK    3  A    between atoms: C4_7  and  C5_8 
REMARK    4  A    between atoms: C5_8  and  C6_9 
REMARK    5  A    between atoms: C6_9  and  C7_10 
REMARK    6  A    between atoms: C7_10  and  C8_11 
REMARK    7  A    between atoms: C8_11  and  C9_12 
REMARK    8  A    between atoms: C9_12  and  C10_13 
REMARK    9  A    between atoms: C10_13  and  O1_14 
REMARK   10  A    between atoms: O1_14  and  C11_15 
REMARK   11  A    between atoms: C17_21  and  N3_22 
ROOT
HETATM    1  N1  UNL     1       2.546  71.895  29.650  1.00  0.00    -0.191 NA
HETATM    2  C1  UNL     1       3.440  72.494  29.235  1.00  0.00     0.105 C 
HETATM    3  C2  UNL     1       4.590  73.207  28.721  1.00  0.00     0.117 A 
HETATM    4  C3  UNL     1       4.569  74.526  28.380  1.00  0.00     0.089 A 
HETATM    5  C17 UNL     1       5.762  75.087  27.900  1.00  0.00     0.171 A 
HETATM    6  C18 UNL     1       6.930  74.383  27.761  1.00  0.00     0.153 A 
HETATM    7  N4  UNL     1       8.104  75.035  27.264  1.00  0.00    -0.080 NA
HETATM    8  N5  UNL     1       6.919  73.087  28.104  1.00  0.00    -0.328 N 
ATOM      9  H5  UNL     1       7.769  72.530  28.014  1.00  0.00     0.168 HD
HETATM   10  C19 UNL     1       5.797  72.520  28.566  1.00  0.00     0.123 A 
HETATM   11  N6  UNL     1       5.801  71.280  28.889  1.00  0.00    -0.384 N 
ATOM     12  H61 UNL     1       6.681  70.778  28.775  1.00  0.00     0.157 HD
ATOM     13  H62 UNL     1       4.946  70.849  29.240  1.00  0.00     0.157 HD
ENDROOT
BRANCH   4  14
HETATM   14  N2  UNL     1       3.422  75.332  28.478  1.00  0.00    -0.386 N 
ATOM     15  H2  UNL     1       2.789  75.298  27.679  1.00  0.00     0.159 HD
BRANCH  14  16
HETATM   16  C4  UNL     1       3.024  76.197  29.552  1.00  0.00     0.120 C 
BRANCH  16  17
HETATM   17  C5  UNL     1       2.136  77.311  28.933  1.00  0.00     0.020 C 
BRANCH  17  18
HETATM   18  C6  UNL     1       0.780  77.351  29.550  1.00  0.00     0.002 C 
BRANCH  18  19
HETATM   19  C7  UNL     1      -0.304  77.530  28.540  1.00  0.00     0.000 C 
BRANCH  19  20
HETATM   20  C8  UNL     1       0.168  77.069  27.187  1.00  0.00     0.002 C 
BRANCH  20  21
HETATM   21  C9  UNL     1      -1.005  76.679  26.304  1.00  0.00     0.027 C 
BRANCH  21  22
HETATM   22  C10 UNL     1      -2.216  76.598  27.191  1.00  0.00     0.175 C 
BRANCH  22  23
HETATM   23  O1  UNL     1      -3.316  77.303  26.793  1.00  0.00    -0.351 OA
BRANCH  23  24
HETATM   24  C11 UNL     1      -3.787  78.526  27.162  1.00  0.00     0.068 A 
HETATM   25  C12 UNL     1      -3.104  79.698  26.783  1.00  0.00     0.037 A 
HETATM   26  C13 UNL     1      -3.549  80.937  27.132  1.00  0.00     0.003 A 
HETATM   27  C14 UNL     1      -4.696  81.107  27.878  1.00  0.00     0.000 A 
HETATM   28  C15 UNL     1      -5.393  79.990  28.268  1.00  0.00     0.003 A 
HETATM   29  C16 UNL     1      -4.926  78.718  27.903  1.00  0.00     0.037 A 
ENDBRANCH  23  24
ENDBRANCH  22  23
ENDBRANCH  21  22
ENDBRANCH  20  21
ENDBRANCH  19  20
ENDBRANCH  18  19
ENDBRANCH  17  18
ENDBRANCH  16  17
ENDBRANCH  14  16
ENDBRANCH   4  14
BRANCH   5  30
HETATM   30  N3  UNL     1       5.750  76.458  27.544  1.00  0.00    -0.110 N 
HETATM   31  O2  UNL     1       6.088  77.285  28.432  1.00  0.00    -0.532 OA
HETATM   32  O3  UNL     1       5.396  76.937  26.321  1.00  0.00    -0.532 OA
ENDBRANCH   5  30
TORSDOF 11
ENDMDL
MODEL 4
REMARK VINA RESULT: -8.052084122      1.891      3.137
REMARK  11 active torsions:
REMARK  status: ('A' for Active; 'I' for Inactive)
REMARK    1  A    between atoms: C3_4  and  N2_5 
REMARK    2  A    between atoms: N2_5  and  C4_7 
REMARK    3  A    between atoms: C4_7  and  C5_8 
REMARK    4  A    between atoms: C5_8  and  C6_9 
REMARK    5  A    between atoms: C6_9  and  C7_10 
REMARK    6  A    between atoms: C7_10  and  C8_11 
REMARK    7  A    between atoms: C8_11  and  C9_12 
REMARK    8  A    between atoms: C9_12  and  C10_13 
REMARK    9  A    between atoms: C10_13  and  O1_14 
REMARK   10  A    between atoms: O1_14  and  C11_15 
REMARK   11  A    between atoms: C17_21  and  N3_22 
ROOT
HETATM    1  N1  UNL     1       5.243  77.349  27.023  1.00  0.00    -0.191 NA
HETATM    2  C1  UNL     1       5.243  76.284  27.465  1.00  0.00     0.105 C 
HETATM    3  C2  UNL     1       5.285  74.938  27.998  1.00  0.00     0.117 A 
HETATM    4  C3  UNL     1       4.270  74.379  28.714  1.00  0.00     0.089 A 
HETATM    5  C17 UNL     1       4.448  73.061  29.163  1.00  0.00     0.171 A 
HETATM    6  C18 UNL     1       5.575  72.322  28.918  1.00  0.00     0.153 A 
HETATM    7  N4  UNL     1       5.673  70.981  29.413  1.00  0.00    -0.080 NA
HETATM    8  N5  UNL     1       6.557  72.899  28.211  1.00  0.00    -0.328 N 
ATOM      9  H5  UNL     1       7.411  72.380  28.009  1.00  0.00     0.168 HD
HETATM   10  C19 UNL     1       6.420  74.156  27.767  1.00  0.00     0.123 A 
HETATM   11  N6  UNL     1       7.366  74.696  27.094  1.00  0.00    -0.384 N 
ATOM     12  H61 UNL     1       8.194  74.125  26.925  1.00  0.00     0.157 HD
ATOM     13  H62 UNL     1       7.262  75.652  26.756  1.00  0.00     0.157 HD
ENDROOT
BRANCH   4  14
HETATM   14  N2  UNL     1       3.079  75.055  29.026  1.00  0.00    -0.386 N 
ATOM     15  H2  UNL     1       2.257  74.773  28.492  1.00  0.00     0.159 HD
BRANCH  14  16
HETATM   16  C4  UNL     1       2.865  76.092  29.996  1.00  0.00     0.120 C 
BRANCH  16  17
HETATM   17  C5  UNL     1       2.121  77.246  29.271  1.00  0.00     0.020 C 
BRANCH  17  18
HETATM   18  C6  UNL     1       1.310  76.751  28.122  1.00  0.00     0.002 C 
BRANCH  18  19
HETATM   19  C7  UNL     1       0.116  77.606  27.853  1.00  0.00     0.000 C 
BRANCH  19  20
HETATM   20  C8  UNL     1      -0.896  76.840  27.042  1.00  0.00     0.002 C 
BRANCH  20  21
HETATM   21  C9  UNL     1      -0.831  77.236  25.576  1.00  0.00     0.027 C 
BRANCH  21  22
HETATM   22  C10 UNL     1      -2.150  77.870  25.233  1.00  0.00     0.175 C 
BRANCH  22  23
HETATM   23  O1  UNL     1      -2.406  79.092  25.787  1.00  0.00    -0.351 OA
BRANCH  23  24
HETATM   24  C11 UNL     1      -3.395  79.517  26.620  1.00  0.00     0.068 A 
HETATM   25  C12 UNL     1      -4.409  78.632  27.034  1.00  0.00     0.037 A 
HETATM   26  C13 UNL     1      -5.412  79.023  27.868  1.00  0.00     0.003 A 
HETATM   27  C14 UNL     1      -5.485  80.312  28.353  1.00  0.00     0.000 A 
HETATM   28  C15 UNL     1      -4.515  81.208  27.974  1.00  0.00     0.003 A 
HETATM   29  C16 UNL     1      -3.487  80.794  27.114  1.00  0.00     0.037 A 
ENDBRANCH  23  24
ENDBRANCH  22  23
ENDBRANCH  21  22
ENDBRANCH  20  21
ENDBRANCH  19  20
ENDBRANCH  18  19
ENDBRANCH  17  18
ENDBRANCH  16  17
ENDBRANCH  14  16
ENDBRANCH   4  14
BRANCH   5  30
HETATM   30  N3  UNL     1       3.397  72.472  29.909  1.00  0.00    -0.110 N 
HETATM   31  O2  UNL     1       2.537  71.814  29.266  1.00  0.00    -0.532 OA
HETATM   32  O3  UNL     1       3.255  72.571  31.257  1.00  0.00    -0.532 OA
ENDBRANCH   5  30
TORSDOF 11
ENDMDL
MODEL 5
REMARK VINA RESULT: -7.951944088      2.072      3.263
REMARK  11 active torsions:
REMARK  status: ('A' for Active; 'I' for Inactive)
REMARK    1  A    between atoms: C3_4  and  N2_5 
REMARK    2  A    between atoms: N2_5  and  C4_7 
REMARK    3  A    between atoms: C4_7  and  C5_8 
REMARK    4  A    between atoms: C5_8  and  C6_9 
REMARK    5  A    between atoms: C6_9  and  C7_10 
REMARK    6  A    between atoms: C7_10  and  C8_11 
REMARK    7  A    between atoms: C8_11  and  C9_12 
REMARK    8  A    between atoms: C9_12  and  C10_13 
REMARK    9  A    between atoms: C10_13  and  O1_14 
REMARK   10  A    between atoms: O1_14  and  C11_15 
REMARK   11  A    between atoms: C17_21  and  N3_22 
ROOT
HETATM    1  N1  UNL     1       2.609  72.520  29.803  1.00  0.00    -0.191 NA
HETATM    2  C1  UNL     1       3.701  72.575  29.435  1.00  0.00     0.105 C 
HETATM    3  C2  UNL     1       5.081  72.605  28.998  1.00  0.00     0.117 A 
HETATM    4  C3  UNL     1       5.624  73.632  28.286  1.00  0.00     0.089 A 
HETATM    5  C17 UNL     1       6.979  73.527  27.936  1.00  0.00     0.171 A 
HETATM    6  C18 UNL     1       7.769  72.458  28.270  1.00  0.00     0.153 A 
HETATM    7  N4  UNL     1       9.144  72.433  27.872  1.00  0.00    -0.080 NA
HETATM    8  N5  UNL     1       7.205  71.463  28.970  1.00  0.00    -0.328 N 
ATOM      9  H5  UNL     1       7.761  70.651  29.237  1.00  0.00     0.168 HD
HETATM   10  C19 UNL     1       5.914  71.532  29.321  1.00  0.00     0.123 A 
HETATM   11  N6  UNL     1       5.389  70.573  29.989  1.00  0.00    -0.384 N 
ATOM     12  H61 UNL     1       5.997  69.789  30.225  1.00  0.00     0.157 HD
ATOM     13  H62 UNL     1       4.406  70.625  30.256  1.00  0.00     0.157 HD
ENDROOT
BRANCH   4  14
HETATM   14  N2  UNL     1       4.898  74.766  27.888  1.00  0.00    -0.386 N 
ATOM     15  H2  UNL     1       4.583  74.772  26.917  1.00  0.00     0.159 HD
BRANCH  14  16
HETATM   16  C4  UNL     1       4.540  75.920  28.664  1.00  0.00     0.120 C 
BRANCH  16  17
HETATM   17  C5  UNL     1       5.127  77.159  27.935  1.00  0.00     0.020 C 
BRANCH  17  18
HETATM   18  C6  UNL     1       4.528  78.432  28.428  1.00  0.00     0.002 C 
BRANCH  18  19
HETATM   19  C7  UNL     1       3.284  78.803  27.690  1.00  0.00     0.000 C 
BRANCH  19  20
HETATM   20  C8  UNL     1       2.159  79.042  28.662  1.00  0.00     0.002 C 
BRANCH  20  21
HETATM   21  C9  UNL     1       1.329  77.783  28.855  1.00  0.00     0.027 C 
BRANCH  21  22
HETATM   22  C10 UNL     1       0.793  77.398  27.504  1.00  0.00     0.175 C 
BRANCH  22  23
HETATM   23  O1  UNL     1      -0.458  76.851  27.474  1.00  0.00    -0.351 OA
BRANCH  23  24
HETATM   24  C11 UNL     1      -1.655  77.355  27.066  1.00  0.00     0.068 A 
HETATM   25  C12 UNL     1      -2.646  77.691  28.008  1.00  0.00     0.037 A 
HETATM   26  C13 UNL     1      -3.853  78.199  27.635  1.00  0.00     0.003 A 
HETATM   27  C14 UNL     1      -4.167  78.412  26.309  1.00  0.00     0.000 A 
HETATM   28  C15 UNL     1      -3.228  78.097  25.357  1.00  0.00     0.003 A 
HETATM   29  C16 UNL     1      -1.988  77.574  25.752  1.00  0.00     0.037 A 
ENDBRANCH  23  24
ENDBRANCH  22  23
ENDBRANCH  21  22
ENDBRANCH  20  21
ENDBRANCH  19  20
ENDBRANCH  18  19
ENDBRANCH  17  18
ENDBRANCH  16  17
ENDBRANCH  14  16
ENDBRANCH   4  14
BRANCH   5  30
HETATM   30  N3  UNL     1       7.553  74.590  27.196  1.00  0.00    -0.110 N 
HETATM   31  O2  UNL     1       8.207  75.450  27.842  1.00  0.00    -0.532 OA
HETATM   32  O3  UNL     1       7.441  74.745  25.850  1.00  0.00    -0.532 OA
ENDBRANCH   5  30
TORSDOF 11
ENDMDL
