MODEL 1
REMARK VINA RESULT: -9.532653737      0.000      0.000
REMARK  16 active torsions:
REMARK  status: ('A' for Active; 'I' for Inactive)
REMARK    1  A    between atoms: N1_1  and  S1_4 
REMARK    2  A    between atoms: S1_4  and  C1_7 
REMARK    3  A    between atoms: C6_12  and  C7_13 
REMARK    4  A    between atoms: C10_16  and  C11_17 
REMARK    5  A    between atoms: C11_17  and  N2_18 
REMARK    6  A    between atoms: C13_24  and  C14_25 
REMARK    7  A    between atoms: C14_25  and  C15_26 
REMARK    8  A    between atoms: C15_26  and  C16_27 
REMARK    9  A    between atoms: C16_27  and  O3_28 
REMARK   10  A    between atoms: C16_27  and  N5_30 
REMARK   11  A    between atoms: N5_30  and  C17_31 
REMARK   12  A    between atoms: C17_31  and  C18_32 
REMARK   13  A    between atoms: C17_31  and  C23_38 
REMARK   14  A    between atoms: C18_32  and  C19_33 
REMARK       I    between atoms: C23_38  and  N6_40 
REMARK   15  A    between atoms: N6_40  and  C24_42 
REMARK   16  A    between atoms: C24_42  and  C25_43 
ROOT
HETATM    1  N2  UNL     1      12.675  21.043  15.053  1.00  0.00    -0.277 N 
HETATM    2  N3  UNL     1      12.407  22.347  15.113  1.00  0.00    -0.240 N 
ATOM      3  H3  UNL     1      12.262  22.880  15.971  1.00  0.00     0.208 HD
HETATM    4  N4  UNL     1      12.359  22.841  13.890  1.00  0.00    -0.295 N 
ATOM      5  H4  UNL     1      12.174  23.811  13.635  1.00  0.00     0.187 HD
HETATM    6  C12 UNL     1      12.605  21.799  13.024  1.00  0.00     0.135 A 
HETATM    7  C13 UNL     1      12.797  20.681  13.775  1.00  0.00     0.047 A 
ENDROOT
BRANCH   7   8
HETATM    8  C14 UNL     1      13.036  19.301  13.332  1.00  0.00     0.069 C 
BRANCH   8   9
HETATM    9  C15 UNL     1      12.071  18.891  12.201  1.00  0.00     0.106 C 
BRANCH   9  10
HETATM   10  C16 UNL     1      10.877  18.171  12.724  1.00  0.00     0.190 C 
BRANCH  10  11
HETATM   11  O3  UNL     1       9.752  18.770  12.440  1.00  0.00    -0.339 OA
ATOM     12  H3  UNL     1       9.401  18.523  11.593  1.00  0.00     0.220 HD
ENDBRANCH  10  11
BRANCH  10  13
HETATM   13  N5  UNL     1      10.890  17.050  13.398  1.00  0.00    -0.384 NA
BRANCH  13  14
HETATM   14  C17 UNL     1      10.900  16.016  14.019  1.00  0.00     0.159 C 
BRANCH  14  15
HETATM   15  C18 UNL     1      11.118  14.744  13.228  1.00  0.00     0.124 C 
BRANCH  15  16
HETATM   16  C19 UNL     1      11.923  14.994  11.990  1.00  0.00    -0.011 A 
HETATM   17  C20 UNL     1      13.221  15.368  11.816  1.00  0.00     0.015 A 
HETATM   18  C21 UNL     1      13.679  15.518  10.571  1.00  0.00     0.008 A 
HETATM   19  C22 UNL     1      12.812  15.284   9.544  1.00  0.00     0.050 A 
HETATM   20  S2  UNL     1      11.372  14.859  10.347  1.00  0.00    -0.106 SA
ENDBRANCH  15  16
ENDBRANCH  14  15
BRANCH  14  21
HETATM   21  C23 UNL     1      10.791  15.901  15.473  1.00  0.00     0.278 C 
HETATM   22  O4  UNL     1      10.822  14.686  15.908  1.00  0.00    -0.265 OA
HETATM   23  N6  UNL     1      10.667  16.915  16.413  1.00  0.00    -0.351 N 
ATOM     24  H6  UNL     1      10.644  17.892  16.119  1.00  0.00     0.163 HD
BRANCH  23  25
HETATM   25  C24 UNL     1      10.568  16.562  17.835  1.00  0.00     0.161 C 
BRANCH  25  26
HETATM   26  C25 UNL     1      11.668  17.175  18.629  1.00  0.00    -0.041 A 
HETATM   27  C26 UNL     1      12.983  17.005  18.266  1.00  0.00     0.009 A 
HETATM   28  C27 UNL     1      13.988  17.613  19.022  1.00  0.00     0.001 A 
HETATM   29  C28 UNL     1      13.689  18.378  20.121  1.00  0.00     0.000 A 
HETATM   30  C29 UNL     1      12.372  18.550  20.487  1.00  0.00     0.001 A 
HETATM   31  C30 UNL     1      11.391  17.950  19.741  1.00  0.00     0.009 A 
ENDBRANCH  25  26
ENDBRANCH  23  25
ENDBRANCH  14  21
ENDBRANCH  13  14
ENDBRANCH  10  13
ENDBRANCH   9  10
ENDBRANCH   8   9
ENDBRANCH   7   8
BRANCH   1  32
HETATM   32  C11 UNL     1      12.885  20.222  16.221  1.00  0.00     0.189 C 
BRANCH  32  33
HETATM   33  C10 UNL     1      14.062  20.662  16.990  1.00  0.00    -0.038 A 
HETATM   34  C9  UNL     1      13.845  21.427  18.118  1.00  0.00     0.010 A 
HETATM   35  C8  UNL     1      14.879  21.913  18.891  1.00  0.00     0.013 A 
HETATM   36  C7  UNL     1      16.166  21.612  18.504  1.00  0.00    -0.024 A 
HETATM   37  C32 UNL     1      16.408  20.863  17.400  1.00  0.00     0.013 A 
HETATM   38  C31 UNL     1      15.334  20.380  16.631  1.00  0.00     0.010 A 
BRANCH  36  39
HETATM   39  C6  UNL     1      17.258  22.157  19.288  1.00  0.00    -0.003 A 
HETATM   40  C1  UNL     1      17.701  23.425  19.065  1.00  0.00     0.090 A 
HETATM   41  C2  UNL     1      18.763  23.870  19.866  1.00  0.00     0.026 A 
HETATM   42  C3  UNL     1      19.325  23.064  20.829  1.00  0.00     0.002 A 
HETATM   43  C4  UNL     1      18.874  21.780  21.053  1.00  0.00     0.001 A 
HETATM   44  C5  UNL     1      17.839  21.334  20.277  1.00  0.00     0.014 A 
BRANCH  40  45
HETATM   45  S1  UNL     1      17.022  24.468  17.864  1.00  0.00     0.257 S 
HETATM   46  O1  UNL     1      16.908  23.707  16.551  1.00  0.00    -0.201 OA
HETATM   47  O2  UNL     1      18.008  25.606  17.624  1.00  0.00    -0.201 OA
BRANCH  45  48
HETATM   48  N1  UNL     1      15.533  25.180  18.271  1.00  0.00    -0.324 N 
ATOM     49  H12 UNL     1      14.821  25.439  17.588  1.00  0.00     0.169 HD
ATOM     50  H11 UNL     1      15.461  25.306  19.281  1.00  0.00     0.169 HD
ENDBRANCH  45  48
ENDBRANCH  40  45
ENDBRANCH  36  39
ENDBRANCH  32  33
ENDBRANCH   1  32
TORSDOF 16
ENDMDL
MODEL 2
REMARK VINA RESULT: -9.520202190      3.978     10.046
REMARK  16 active torsions:
REMARK  status: ('A' for Active; 'I' for Inactive)
REMARK    1  A    between atoms: N1_1  and  S1_4 
REMARK    2  A    between atoms: S1_4  and  C1_7 
REMARK    3  A    between atoms: C6_12  and  C7_13 
REMARK    4  A    between atoms: C10_16  and  C11_17 
REMARK    5  A    between atoms: C11_17  and  N2_18 
REMARK    6  A    between atoms: C13_24  and  C14_25 
REMARK    7  A    between atoms: C14_25  and  C15_26 
REMARK    8  A    between atoms: C15_26  and  C16_27 
REMARK    9  A    between atoms: C16_27  and  O3_28 
REMARK   10  A    between atoms: C16_27  and  N5_30 
REMARK   11  A    between atoms: N5_30  and  C17_31 
REMARK   12  A    between atoms: C17_31  and  C18_32 
REMARK   13  A    between atoms: C17_31  and  C23_38 
REMARK   14  A    between atoms: C18_32  and  C19_33 
REMARK       I    between atoms: C23_38  and  N6_40 
REMARK   15  A    between atoms: N6_40  and  C24_42 
REMARK   16  A    between atoms: C24_42  and  C25_43 
ROOT
HETATM    1  N2  UNL     1      18.335  22.119  19.653  1.00  0.00    -0.277 N 
HETATM    2  N3  UNL     1      18.449  21.002  20.370  1.00  0.00    -0.240 N 
ATOM      3  H3  UNL     1      18.231  20.063  20.037  1.00  0.00     0.208 HD
HETATM    4  N4  UNL     1      18.888  21.300  21.579  1.00  0.00    -0.295 N 
ATOM      5  H4  UNL     1      19.070  20.643  22.337  1.00  0.00     0.187 HD
HETATM    6  C12 UNL     1      19.055  22.667  21.622  1.00  0.00     0.135 A 
HETATM    7  C13 UNL     1      18.699  23.160  20.406  1.00  0.00     0.047 A 
ENDROOT
BRANCH   7   8
HETATM    8  C14 UNL     1      18.643  24.558  19.956  1.00  0.00     0.069 C 
BRANCH   8   9
HETATM    9  C15 UNL     1      20.038  25.212  19.958  1.00  0.00     0.106 C 
BRANCH   9  10
HETATM   10  C16 UNL     1      20.601  25.323  18.583  1.00  0.00     0.190 C 
BRANCH  10  11
HETATM   11  O3  UNL     1      21.887  25.549  18.573  1.00  0.00    -0.339 OA
ATOM     12  H3  UNL     1      22.333  25.133  17.844  1.00  0.00     0.220 HD
ENDBRANCH  10  11
BRANCH  10  13
HETATM   13  N5  UNL     1      19.930  25.211  17.467  1.00  0.00    -0.384 NA
BRANCH  13  14
HETATM   14  C17 UNL     1      19.312  25.107  16.436  1.00  0.00     0.159 C 
BRANCH  14  15
HETATM   15  C18 UNL     1      20.119  25.023  15.159  1.00  0.00     0.124 C 
BRANCH  15  16
HETATM   16  C19 UNL     1      20.637  26.366  14.743  1.00  0.00    -0.011 A 
HETATM   17  C20 UNL     1      20.108  27.328  13.938  1.00  0.00     0.015 A 
HETATM   18  C21 UNL     1      20.807  28.449  13.741  1.00  0.00     0.008 A 
HETATM   19  C22 UNL     1      22.016  28.560  14.365  1.00  0.00     0.050 A 
HETATM   20  S2  UNL     1      22.145  27.090  15.214  1.00  0.00    -0.106 SA
ENDBRANCH  15  16
ENDBRANCH  14  15
BRANCH  14  21
HETATM   21  C23 UNL     1      17.858  24.986  16.329  1.00  0.00     0.278 C 
HETATM   22  O4  UNL     1      17.206  25.793  17.097  1.00  0.00    -0.265 OA
HETATM   23  N6  UNL     1      17.120  24.133  15.520  1.00  0.00    -0.351 N 
ATOM     24  H6  UNL     1      17.590  23.481  14.892  1.00  0.00     0.163 HD
BRANCH  23  25
HETATM   25  C24 UNL     1      15.653  24.181  15.582  1.00  0.00     0.161 C 
BRANCH  25  26
HETATM   26  C25 UNL     1      15.034  23.198  14.651  1.00  0.00    -0.041 A 
HETATM   27  C26 UNL     1      15.749  22.127  14.172  1.00  0.00     0.009 A 
HETATM   28  C27 UNL     1      15.127  21.214  13.317  1.00  0.00     0.001 A 
HETATM   29  C28 UNL     1      13.816  21.364  12.945  1.00  0.00     0.000 A 
HETATM   30  C29 UNL     1      13.096  22.437  13.424  1.00  0.00     0.001 A 
HETATM   31  C30 UNL     1      13.712  23.330  14.261  1.00  0.00     0.009 A 
ENDBRANCH  25  26
ENDBRANCH  23  25
ENDBRANCH  14  21
ENDBRANCH  13  14
ENDBRANCH  10  13
ENDBRANCH   9  10
ENDBRANCH   8   9
ENDBRANCH   7   8
BRANCH   1  32
HETATM   32  C11 UNL     1      17.965  22.133  18.259  1.00  0.00     0.189 C 
BRANCH  32  33
HETATM   33  C10 UNL     1      16.629  21.549  18.045  1.00  0.00    -0.038 A 
HETATM   34  C9  UNL     1      16.544  20.396  17.290  1.00  0.00     0.010 A 
HETATM   35  C8  UNL     1      15.340  19.787  17.007  1.00  0.00     0.013 A 
HETATM   36  C7  UNL     1      14.194  20.367  17.505  1.00  0.00    -0.024 A 
HETATM   37  C32 UNL     1      14.249  21.499  18.249  1.00  0.00     0.013 A 
HETATM   38  C31 UNL     1      15.491  22.099  18.523  1.00  0.00     0.010 A 
BRANCH  36  39
HETATM   39  C6  UNL     1      12.921  19.755  17.174  1.00  0.00    -0.003 A 
HETATM   40  C1  UNL     1      12.464  18.688  17.886  1.00  0.00     0.090 A 
HETATM   41  C2  UNL     1      11.226  18.156  17.496  1.00  0.00     0.026 A 
HETATM   42  C3  UNL     1      10.511  18.689  16.448  1.00  0.00     0.002 A 
HETATM   43  C4  UNL     1      10.977  19.771  15.729  1.00  0.00     0.001 A 
HETATM   44  C5  UNL     1      12.184  20.298  16.100  1.00  0.00     0.014 A 
BRANCH  40  45
HETATM   45  S1  UNL     1      13.333  17.988  19.208  1.00  0.00     0.257 S 
HETATM   46  O1  UNL     1      14.563  17.271  18.670  1.00  0.00    -0.201 OA
HETATM   47  O2  UNL     1      12.444  16.920  19.836  1.00  0.00    -0.201 OA
BRANCH  45  48
HETATM   48  N1  UNL     1      13.766  19.065  20.449  1.00  0.00    -0.324 N 
ATOM     49  H12 UNL     1      14.728  19.246  20.735  1.00  0.00     0.169 HD
ATOM     50  H11 UNL     1      12.935  19.493  20.857  1.00  0.00     0.169 HD
ENDBRANCH  45  48
ENDBRANCH  40  45
ENDBRANCH  36  39
ENDBRANCH  32  33
ENDBRANCH   1  32
TORSDOF 16
ENDMDL
MODEL 3
REMARK VINA RESULT: -9.438366739      5.125     12.268
REMARK  16 active torsions:
REMARK  status: ('A' for Active; 'I' for Inactive)
REMARK    1  A    between atoms: N1_1  and  S1_4 
REMARK    2  A    between atoms: S1_4  and  C1_7 
REMARK    3  A    between atoms: C6_12  and  C7_13 
REMARK    4  A    between atoms: C10_16  and  C11_17 
REMARK    5  A    between atoms: C11_17  and  N2_18 
REMARK    6  A    between atoms: C13_24  and  C14_25 
REMARK    7  A    between atoms: C14_25  and  C15_26 
REMARK    8  A    between atoms: C15_26  and  C16_27 
REMARK    9  A    between atoms: C16_27  and  O3_28 
REMARK   10  A    between atoms: C16_27  and  N5_30 
REMARK   11  A    between atoms: N5_30  and  C17_31 
REMARK   12  A    between atoms: C17_31  and  C18_32 
REMARK   13  A    between atoms: C17_31  and  C23_38 
REMARK   14  A    between atoms: C18_32  and  C19_33 
REMARK       I    between atoms: C23_38  and  N6_40 
REMARK   15  A    between atoms: N6_40  and  C24_42 
REMARK   16  A    between atoms: C24_42  and  C25_43 
ROOT
HETATM    1  N2  UNL     1      18.512  24.890  18.815  1.00  0.00    -0.277 N 
HETATM    2  N3  UNL     1      17.351  24.813  19.465  1.00  0.00    -0.240 N 
ATOM      3  H3  UNL     1      16.431  24.950  19.046  1.00  0.00     0.208 HD
HETATM    4  N4  UNL     1      17.578  24.534  20.734  1.00  0.00    -0.295 N 
ATOM      5  H4  UNL     1      16.875  24.416  21.465  1.00  0.00     0.187 HD
HETATM    6  C12 UNL     1      18.942  24.432  20.888  1.00  0.00     0.135 A 
HETATM    7  C13 UNL     1      19.508  24.663  19.673  1.00  0.00     0.047 A 
ENDROOT
BRANCH   7   8
HETATM    8  C14 UNL     1      20.931  24.725  19.314  1.00  0.00     0.069 C 
BRANCH   8   9
HETATM    9  C15 UNL     1      21.830  24.216  20.458  1.00  0.00     0.106 C 
BRANCH   9  10
HETATM   10  C16 UNL     1      23.135  24.932  20.500  1.00  0.00     0.190 C 
BRANCH  10  11
HETATM   11  O3  UNL     1      23.627  25.029  21.705  1.00  0.00    -0.339 OA
ATOM     12  H3  UNL     1      24.335  25.660  21.769  1.00  0.00     0.220 HD
ENDBRANCH  10  11
BRANCH  10  13
HETATM   13  N5  UNL     1      23.771  25.429  19.472  1.00  0.00    -0.384 NA
BRANCH  13  14
HETATM   14  C17 UNL     1      24.359  25.887  18.522  1.00  0.00     0.159 C 
BRANCH  14  15
HETATM   15  C18 UNL     1      25.849  25.637  18.453  1.00  0.00     0.124 C 
BRANCH  15  16
HETATM   16  C19 UNL     1      26.217  24.317  19.058  1.00  0.00    -0.011 A 
HETATM   17  C20 UNL     1      25.929  23.040  18.683  1.00  0.00     0.015 A 
HETATM   18  C21 UNL     1      26.401  22.037  19.428  1.00  0.00     0.008 A 
HETATM   19  C22 UNL     1      27.148  22.357  20.524  1.00  0.00     0.050 A 
HETATM   20  S2  UNL     1      27.173  24.058  20.487  1.00  0.00    -0.106 SA
ENDBRANCH  15  16
ENDBRANCH  14  15
BRANCH  14  21
HETATM   21  C23 UNL     1      23.737  26.597  17.404  1.00  0.00     0.278 C 
HETATM   22  O4  UNL     1      24.294  27.728  17.125  1.00  0.00    -0.265 OA
HETATM   23  N6  UNL     1      22.653  26.208  16.629  1.00  0.00    -0.351 N 
ATOM     24  H6  UNL     1      22.184  25.320  16.807  1.00  0.00     0.163 HD
BRANCH  23  25
HETATM   25  C24 UNL     1      22.193  27.091  15.550  1.00  0.00     0.161 C 
BRANCH  25  26
HETATM   26  C25 UNL     1      21.022  26.515  14.833  1.00  0.00    -0.041 A 
HETATM   27  C26 UNL     1      20.997  25.190  14.468  1.00  0.00     0.009 A 
HETATM   28  C27 UNL     1      19.872  24.679  13.816  1.00  0.00     0.001 A 
HETATM   29  C28 UNL     1      18.791  25.474  13.531  1.00  0.00     0.000 A 
HETATM   30  C29 UNL     1      18.814  26.803  13.896  1.00  0.00     0.001 A 
HETATM   31  C30 UNL     1      19.920  27.297  14.535  1.00  0.00     0.009 A 
ENDBRANCH  25  26
ENDBRANCH  23  25
ENDBRANCH  14  21
ENDBRANCH  13  14
ENDBRANCH  10  13
ENDBRANCH   9  10
ENDBRANCH   8   9
ENDBRANCH   7   8
BRANCH   1  32
HETATM   32  C11 UNL     1      18.611  25.092  17.390  1.00  0.00     0.189 C 
BRANCH  32  33
HETATM   33  C10 UNL     1      17.685  24.215  16.650  1.00  0.00    -0.038 A 
HETATM   34  C9  UNL     1      18.017  22.881  16.533  1.00  0.00     0.010 A 
HETATM   35  C8  UNL     1      17.233  21.984  15.837  1.00  0.00     0.013 A 
HETATM   36  C7  UNL     1      16.084  22.460  15.246  1.00  0.00    -0.024 A 
HETATM   37  C32 UNL     1      15.734  23.766  15.346  1.00  0.00     0.013 A 
HETATM   38  C31 UNL     1      16.552  24.659  16.062  1.00  0.00     0.010 A 
BRANCH  36  39
HETATM   39  C6  UNL     1      15.278  21.530  14.476  1.00  0.00    -0.003 A 
HETATM   40  C1  UNL     1      14.409  20.691  15.102  1.00  0.00     0.090 A 
HETATM   41  C2  UNL     1      13.673  19.823  14.282  1.00  0.00     0.026 A 
HETATM   42  C3  UNL     1      13.824  19.823  12.914  1.00  0.00     0.002 A 
HETATM   43  C4  UNL     1      14.706  20.676  12.283  1.00  0.00     0.001 A 
HETATM   44  C5  UNL     1      15.430  21.527  13.073  1.00  0.00     0.014 A 
BRANCH  40  45
HETATM   45  S1  UNL     1      14.191  20.658  16.818  1.00  0.00     0.257 S 
HETATM   46  O1  UNL     1      15.400  19.993  17.460  1.00  0.00    -0.201 OA
HETATM   47  O2  UNL     1      12.991  19.766  17.118  1.00  0.00    -0.201 OA
BRANCH  45  48
HETATM   48  N1  UNL     1      13.884  22.163  17.545  1.00  0.00    -0.324 N 
ATOM     49  H12 UNL     1      13.600  22.278  18.518  1.00  0.00     0.169 HD
ATOM     50  H11 UNL     1      14.023  22.919  16.874  1.00  0.00     0.169 HD
ENDBRANCH  45  48
ENDBRANCH  40  45
ENDBRANCH  36  39
ENDBRANCH  32  33
ENDBRANCH   1  32
TORSDOF 16
ENDMDL
MODEL 4
REMARK VINA RESULT: -9.438147273      1.343      2.002
REMARK  16 active torsions:
REMARK  status: ('A' for Active; 'I' for Inactive)
REMARK    1  A    between atoms: N1_1  and  S1_4 
REMARK    2  A    between atoms: S1_4  and  C1_7 
REMARK    3  A    between atoms: C6_12  and  C7_13 
REMARK    4  A    between atoms: C10_16  and  C11_17 
REMARK    5  A    between atoms: C11_17  and  N2_18 
REMARK    6  A    between atoms: C13_24  and  C14_25 
REMARK    7  A    between atoms: C14_25  and  C15_26 
REMARK    8  A    between atoms: C15_26  and  C16_27 
REMARK    9  A    between atoms: C16_27  and  O3_28 
REMARK   10  A    between atoms: C16_27  and  N5_30 
REMARK   11  A    between atoms: N5_30  and  C17_31 
REMARK   12  A    between atoms: C17_31  and  C18_32 
REMARK   13  A    between atoms: C17_31  and  C23_38 
REMARK   14  A    between atoms: C18_32  and  C19_33 
REMARK       I    between atoms: C23_38  and  N6_40 
REMARK   15  A    between atoms: N6_40  and  C24_42 
REMARK   16  A    between atoms: C24_42  and  C25_43 
ROOT
HETATM    1  N2  UNL     1      12.686  20.954  14.967  1.00  0.00    -0.277 N 
HETATM    2  N3  UNL     1      12.429  22.257  15.076  1.00  0.00    -0.240 N 
ATOM      3  H3  UNL     1      12.323  22.765  15.954  1.00  0.00     0.208 HD
HETATM    4  N4  UNL     1      12.333  22.786  13.871  1.00  0.00    -0.295 N 
ATOM      5  H4  UNL     1      12.143  23.765  13.652  1.00  0.00     0.187 HD
HETATM    6  C12 UNL     1      12.537  21.770  12.965  1.00  0.00     0.135 A 
HETATM    7  C13 UNL     1      12.754  20.629  13.674  1.00  0.00     0.047 A 
ENDROOT
BRANCH   7   8
HETATM    8  C14 UNL     1      12.966  19.262  13.181  1.00  0.00     0.069 C 
BRANCH   8   9
HETATM    9  C15 UNL     1      11.965  18.897  12.067  1.00  0.00     0.106 C 
BRANCH   9  10
HETATM   10  C16 UNL     1      10.762  18.206  12.606  1.00  0.00     0.190 C 
BRANCH  10  11
HETATM   11  O3  UNL     1       9.641  18.704  12.158  1.00  0.00    -0.339 OA
ATOM     12  H3  UNL     1       8.878  18.394  12.634  1.00  0.00     0.220 HD
ENDBRANCH  10  11
BRANCH  10  13
HETATM   13  N5  UNL     1      10.763  17.197  13.438  1.00  0.00    -0.384 NA
BRANCH  13  14
HETATM   14  C17 UNL     1      10.765  16.266  14.205  1.00  0.00     0.159 C 
BRANCH  14  15
HETATM   15  C18 UNL     1      11.116  14.909  13.635  1.00  0.00     0.124 C 
BRANCH  15  16
HETATM   16  C19 UNL     1      10.237  13.831  14.192  1.00  0.00    -0.011 A 
HETATM   17  C20 UNL     1      10.504  12.793  15.032  1.00  0.00     0.015 A 
HETATM   18  C21 UNL     1       9.505  11.973  15.367  1.00  0.00     0.008 A 
HETATM   19  C22 UNL     1       8.271  12.229  14.843  1.00  0.00     0.050 A 
HETATM   20  S2  UNL     1       8.539  13.616  13.892  1.00  0.00    -0.106 SA
ENDBRANCH  15  16
ENDBRANCH  14  15
BRANCH  14  21
HETATM   21  C23 UNL     1      10.527  16.355  15.646  1.00  0.00     0.278 C 
HETATM   22  O4  UNL     1       9.327  16.714  15.959  1.00  0.00    -0.265 OA
HETATM   23  N6  UNL     1      11.412  16.103  16.685  1.00  0.00    -0.351 N 
ATOM     24  H6  UNL     1      12.370  15.811  16.489  1.00  0.00     0.163 HD
BRANCH  23  25
HETATM   25  C24 UNL     1      10.952  16.263  18.071  1.00  0.00     0.161 C 
BRANCH  25  26
HETATM   26  C25 UNL     1      11.912  17.066  18.877  1.00  0.00    -0.041 A 
HETATM   27  C26 UNL     1      13.252  17.081  18.574  1.00  0.00     0.009 A 
HETATM   28  C27 UNL     1      14.120  17.864  19.340  1.00  0.00     0.001 A 
HETATM   29  C28 UNL     1      13.661  18.619  20.389  1.00  0.00     0.000 A 
HETATM   30  C29 UNL     1      12.317  18.605  20.695  1.00  0.00     0.001 A 
HETATM   31  C30 UNL     1      11.472  17.835  19.940  1.00  0.00     0.009 A 
ENDBRANCH  25  26
ENDBRANCH  23  25
ENDBRANCH  14  21
ENDBRANCH  13  14
ENDBRANCH  10  13
ENDBRANCH   9  10
ENDBRANCH   8   9
ENDBRANCH   7   8
BRANCH   1  32
HETATM   32  C11 UNL     1      12.940  20.097  16.099  1.00  0.00     0.189 C 
BRANCH  32  33
HETATM   33  C10 UNL     1      14.098  20.562  16.884  1.00  0.00    -0.038 A 
HETATM   34  C9  UNL     1      13.848  21.312  18.016  1.00  0.00     0.010 A 
HETATM   35  C8  UNL     1      14.861  21.820  18.803  1.00  0.00     0.013 A 
HETATM   36  C7  UNL     1      16.160  21.556  18.427  1.00  0.00    -0.024 A 
HETATM   37  C32 UNL     1      16.433  20.822  17.320  1.00  0.00     0.013 A 
HETATM   38  C31 UNL     1      15.380  20.317  16.536  1.00  0.00     0.010 A 
BRANCH  36  39
HETATM   39  C6  UNL     1      17.230  22.123  19.226  1.00  0.00    -0.003 A 
HETATM   40  C1  UNL     1      17.635  23.406  19.022  1.00  0.00     0.090 A 
HETATM   41  C2  UNL     1      18.677  23.873  19.837  1.00  0.00     0.026 A 
HETATM   42  C3  UNL     1      19.257  23.072  20.794  1.00  0.00     0.002 A 
HETATM   43  C4  UNL     1      18.842  21.772  20.999  1.00  0.00     0.001 A 
HETATM   44  C5  UNL     1      17.827  21.305  20.209  1.00  0.00     0.014 A 
BRANCH  40  45
HETATM   45  S1  UNL     1      16.935  24.444  17.829  1.00  0.00     0.257 S 
HETATM   46  O1  UNL     1      16.779  23.670  16.527  1.00  0.00    -0.201 OA
HETATM   47  O2  UNL     1      17.924  25.570  17.552  1.00  0.00    -0.201 OA
BRANCH  45  48
HETATM   48  N1  UNL     1      15.464  25.173  18.267  1.00  0.00    -0.324 N 
ATOM     49  H12 UNL     1      15.391  26.099  18.688  1.00  0.00     0.169 HD
ATOM     50  H11 UNL     1      14.680  24.557  18.050  1.00  0.00     0.169 HD
ENDBRANCH  45  48
ENDBRANCH  40  45
ENDBRANCH  36  39
ENDBRANCH  32  33
ENDBRANCH   1  32
TORSDOF 16
ENDMDL
MODEL 5
REMARK VINA RESULT: -9.407969562      4.093      7.308
REMARK  16 active torsions:
REMARK  status: ('A' for Active; 'I' for Inactive)
REMARK    1  A    between atoms: N1_1  and  S1_4 
REMARK    2  A    between atoms: S1_4  and  C1_7 
REMARK    3  A    between atoms: C6_12  and  C7_13 
REMARK    4  A    between atoms: C10_16  and  C11_17 
REMARK    5  A    between atoms: C11_17  and  N2_18 
REMARK    6  A    between atoms: C13_24  and  C14_25 
REMARK    7  A    between atoms: C14_25  and  C15_26 
REMARK    8  A    between atoms: C15_26  and  C16_27 
REMARK    9  A    between atoms: C16_27  and  O3_28 
REMARK   10  A    between atoms: C16_27  and  N5_30 
REMARK   11  A    between atoms: N5_30  and  C17_31 
REMARK   12  A    between atoms: C17_31  and  C18_32 
REMARK   13  A    between atoms: C17_31  and  C23_38 
REMARK   14  A    between atoms: C18_32  and  C19_33 
REMARK       I    between atoms: C23_38  and  N6_40 
REMARK   15  A    between atoms: N6_40  and  C24_42 
REMARK   16  A    between atoms: C24_42  and  C25_43 
ROOT
HETATM    1  N2  UNL     1      15.839  23.557  16.102  1.00  0.00    -0.277 N 
HETATM    2  N3  UNL     1      14.539  23.789  15.928  1.00  0.00    -0.240 N 
ATOM      3  H3  UNL     1      14.078  23.916  15.027  1.00  0.00     0.208 HD
HETATM    4  N4  UNL     1      13.941  23.831  17.103  1.00  0.00    -0.295 N 
ATOM      5  H4  UNL     1      12.947  23.992  17.273  1.00  0.00     0.187 HD
HETATM    6  C12 UNL     1      14.910  23.617  18.058  1.00  0.00     0.135 A 
HETATM    7  C13 UNL     1      16.093  23.451  17.408  1.00  0.00     0.047 A 
ENDROOT
BRANCH   7   8
HETATM    8  C14 UNL     1      17.436  23.250  17.970  1.00  0.00     0.069 C 
BRANCH   8   9
HETATM    9  C15 UNL     1      17.635  21.804  18.464  1.00  0.00     0.106 C 
BRANCH   9  10
HETATM   10  C16 UNL     1      17.265  20.806  17.423  1.00  0.00     0.190 C 
BRANCH  10  11
HETATM   11  O3  UNL     1      18.200  20.626  16.530  1.00  0.00    -0.339 OA
ATOM     12  H3  UNL     1      17.959  20.944  15.667  1.00  0.00     0.220 HD
ENDBRANCH  10  11
BRANCH  10  13
HETATM   13  N5  UNL     1      16.141  20.142  17.360  1.00  0.00    -0.384 NA
BRANCH  13  14
HETATM   14  C17 UNL     1      15.103  19.529  17.301  1.00  0.00     0.159 C 
BRANCH  14  15
HETATM   15  C18 UNL     1      15.023  18.240  18.088  1.00  0.00     0.124 C 
BRANCH  15  16
HETATM   16  C19 UNL     1      13.710  18.105  18.797  1.00  0.00    -0.011 A 
HETATM   17  C20 UNL     1      12.609  17.352  18.522  1.00  0.00     0.015 A 
HETATM   18  C21 UNL     1      11.561  17.433  19.346  1.00  0.00     0.008 A 
HETATM   19  C22 UNL     1      11.661  18.271  20.418  1.00  0.00     0.050 A 
HETATM   20  S2  UNL     1      13.223  18.926  20.249  1.00  0.00    -0.106 SA
ENDBRANCH  15  16
ENDBRANCH  14  15
BRANCH  14  21
HETATM   21  C23 UNL     1      13.901  19.966  16.591  1.00  0.00     0.278 C 
HETATM   22  O4  UNL     1      13.286  20.950  17.156  1.00  0.00    -0.265 OA
HETATM   23  N6  UNL     1      13.364  19.465  15.413  1.00  0.00    -0.351 N 
ATOM     24  H6  UNL     1      13.817  18.692  14.925  1.00  0.00     0.163 HD
BRANCH  23  25
HETATM   25  C24 UNL     1      12.133  20.063  14.879  1.00  0.00     0.161 C 
BRANCH  25  26
HETATM   26  C25 UNL     1      12.415  20.955  13.721  1.00  0.00    -0.041 A 
HETATM   27  C26 UNL     1      12.080  22.288  13.754  1.00  0.00     0.009 A 
HETATM   28  C27 UNL     1      12.381  23.099  12.657  1.00  0.00     0.001 A 
HETATM   29  C28 UNL     1      13.004  22.592  11.546  1.00  0.00     0.000 A 
HETATM   30  C29 UNL     1      13.342  21.256  11.510  1.00  0.00     0.001 A 
HETATM   31  C30 UNL     1      13.044  20.466  12.589  1.00  0.00     0.009 A 
ENDBRANCH  25  26
ENDBRANCH  23  25
ENDBRANCH  14  21
ENDBRANCH  13  14
ENDBRANCH  10  13
ENDBRANCH   9  10
ENDBRANCH   8   9
ENDBRANCH   7   8
BRANCH   1  32
HETATM   32  C11 UNL     1      16.763  23.362  15.011  1.00  0.00     0.189 C 
BRANCH  32  33
HETATM   33  C10 UNL     1      17.769  24.437  14.952  1.00  0.00    -0.038 A 
HETATM   34  C9  UNL     1      19.056  24.095  14.587  1.00  0.00     0.010 A 
HETATM   35  C8  UNL     1      20.077  25.021  14.529  1.00  0.00     0.013 A 
HETATM   36  C7  UNL     1      19.779  26.327  14.852  1.00  0.00    -0.024 A 
HETATM   37  C32 UNL     1      18.523  26.689  15.214  1.00  0.00     0.013 A 
HETATM   38  C31 UNL     1      17.501  25.724  15.264  1.00  0.00     0.010 A 
BRANCH  36  39
HETATM   39  C6  UNL     1      20.858  27.296  14.835  1.00  0.00    -0.003 A 
HETATM   40  C1  UNL     1      21.594  27.526  15.956  1.00  0.00     0.090 A 
HETATM   41  C2  UNL     1      22.616  28.482  15.852  1.00  0.00     0.026 A 
HETATM   42  C3  UNL     1      22.859  29.151  14.674  1.00  0.00     0.002 A 
HETATM   43  C4  UNL     1      22.111  28.914  13.540  1.00  0.00     0.001 A 
HETATM   44  C5  UNL     1      21.111  27.984  13.629  1.00  0.00     0.014 A 
BRANCH  40  45
HETATM   45  S1  UNL     1      21.319  26.709  17.456  1.00  0.00     0.257 S 
HETATM   46  O1  UNL     1      20.349  27.527  18.297  1.00  0.00    -0.201 OA
HETATM   47  O2  UNL     1      22.639  26.677  18.218  1.00  0.00    -0.201 OA
BRANCH  45  48
HETATM   48  N1  UNL     1      20.784  25.102  17.325  1.00  0.00    -0.324 N 
ATOM     49  H12 UNL     1      19.801  24.829  17.296  1.00  0.00     0.169 HD
ATOM     50  H11 UNL     1      21.578  24.463  17.280  1.00  0.00     0.169 HD
ENDBRANCH  45  48
ENDBRANCH  40  45
ENDBRANCH  36  39
ENDBRANCH  32  33
ENDBRANCH   1  32
TORSDOF 16
ENDMDL
