MODEL 1
REMARK VINA RESULT: -11.179787200      0.000      0.000
REMARK  14 active torsions:
REMARK  status: ('A' for Active; 'I' for Inactive)
REMARK    1  A    between atoms: C1_2  and  C2_3 
REMARK       I    between atoms: C1_2  and  N1_10 
REMARK    2  A    between atoms: C2_3  and  C3_4 
REMARK    3  A    between atoms: N1_10  and  C9_12 
REMARK    4  A    between atoms: C12_15  and  C13_16 
REMARK    5  A    between atoms: C13_16  and  C14_17 
REMARK    6  A    between atoms: C14_17  and  C15_18 
REMARK    7  A    between atoms: C15_18  and  C16_19 
REMARK    8  A    between atoms: C16_19  and  C17_20 
REMARK    9  A    between atoms: C18_23  and  C19_24 
REMARK   10  A    between atoms: C24_31  and  C25_32 
REMARK   11  A    between atoms: C25_32  and  O2_33 
REMARK   12  A    between atoms: N4_35  and  S1_37 
REMARK   13  A    between atoms: S1_37  and  C26_40 
REMARK   14  A    between atoms: C26_40  and  C27_41 
ROOT
HETATM    1  C17 UNL     1      16.496  21.138  17.675  1.00  0.00     0.052 A 
HETATM    2  N2  UNL     1      15.762  20.256  18.283  1.00  0.00    -0.351 N 
ATOM      3  H2  UNL     1      16.131  19.788  19.111  1.00  0.00     0.166 HD
HETATM    4  C18 UNL     1      14.558  19.953  17.861  1.00  0.00     0.081 A 
HETATM    5  C24 UNL     1      14.082  20.574  16.771  1.00  0.00     0.087 A 
HETATM    6  S2  UNL     1      15.493  21.621  16.406  1.00  0.00    -0.070 SA
ENDROOT
BRANCH   1   7
HETATM    7  C16 UNL     1      17.905  21.597  18.031  1.00  0.00     0.065 C 
BRANCH   7   8
HETATM    8  C15 UNL     1      18.121  21.394  19.488  1.00  0.00     0.007 C 
BRANCH   8   9
HETATM    9  C14 UNL     1      17.721  22.631  20.232  1.00  0.00     0.006 C 
BRANCH   9  10
HETATM   10  C13 UNL     1      18.830  23.287  20.996  1.00  0.00     0.058 C 
BRANCH  10  11
HETATM   11  C12 UNL     1      19.520  24.234  20.082  1.00  0.00     0.026 A 
HETATM   12  C11 UNL     1      20.877  24.441  20.077  1.00  0.00     0.030 A 
HETATM   13  C10 UNL     1      21.483  25.350  19.202  1.00  0.00     0.052 A 
HETATM   14  C9  UNL     1      20.673  26.039  18.335  1.00  0.00     0.122 A 
HETATM   15  N6  UNL     1      19.322  25.817  18.355  1.00  0.00    -0.285 N 
HETATM   16  N5  UNL     1      18.802  24.957  19.194  1.00  0.00    -0.303 N 
ATOM     17  H6  UNL     1      18.716  26.326  17.712  1.00  0.00     0.188 HD
ATOM     18  H5  UNL     1      17.791  24.823  19.175  1.00  0.00     0.186 HD
BRANCH  14  19
HETATM   19  N1  UNL     1      21.100  26.888  17.501  1.00  0.00    -0.312 N 
HETATM   20  C1  UNL     1      22.217  26.856  16.672  1.00  0.00     0.227 C 
HETATM   21  O1  UNL     1      23.327  26.472  17.094  1.00  0.00    -0.273 OA
ATOM     22  H1  UNL     1      20.533  27.733  17.423  1.00  0.00     0.170 HD
BRANCH  20  23
HETATM   23  C2  UNL     1      22.092  27.283  15.263  1.00  0.00     0.141 C 
BRANCH  23  24
HETATM   24  C3  UNL     1      20.881  26.709  14.642  1.00  0.00    -0.050 A 
HETATM   25  C4  UNL     1      19.810  27.526  14.287  1.00  0.00     0.007 A 
HETATM   26  C5  UNL     1      18.717  26.928  13.723  1.00  0.00     0.001 A 
HETATM   27  C6  UNL     1      18.647  25.573  13.501  1.00  0.00     0.000 A 
HETATM   28  C7  UNL     1      19.717  24.789  13.860  1.00  0.00     0.001 A 
HETATM   29  C8  UNL     1      20.852  25.352  14.437  1.00  0.00     0.007 A 
ENDBRANCH  23  24
ENDBRANCH  20  23
ENDBRANCH  14  19
ENDBRANCH  10  11
ENDBRANCH   9  10
ENDBRANCH   8   9
ENDBRANCH   7   8
ENDBRANCH   1   7
BRANCH   4  30
HETATM   30  C19 UNL     1      13.785  18.922  18.622  1.00  0.00     0.060 A 
HETATM   31  C20 UNL     1      13.540  19.154  19.976  1.00  0.00     0.032 A 
HETATM   32  C21 UNL     1      12.842  18.264  20.749  1.00  0.00     0.004 A 
HETATM   33  C22 UNL     1      12.360  17.104  20.200  1.00  0.00     0.017 A 
HETATM   34  C23 UNL     1      12.622  16.901  18.838  1.00  0.00     0.088 A 
HETATM   35  N3  UNL     1      13.310  17.815  18.147  1.00  0.00    -0.364 N 
ATOM     36  H3  UNL     1      13.475  17.624  17.159  1.00  0.00     0.165 HD
ENDBRANCH   4  30
BRANCH   5  37
HETATM   37  C25 UNL     1      12.901  20.605  15.942  1.00  0.00     0.169 C 
HETATM   38  N4  UNL     1      12.097  21.533  15.369  1.00  0.00    -0.263 N 
ATOM     39  H4  UNL     1      12.286  22.528  15.494  1.00  0.00     0.180 HD
BRANCH  37  40
HETATM   40  O2  UNL     1      12.467  19.352  15.649  1.00  0.00    -0.345 OA
ATOM     41  H2  UNL     1      12.744  18.726  16.307  1.00  0.00     0.219 HD
ENDBRANCH  37  40
BRANCH  38  42
HETATM   42  S1  UNL     1      10.704  20.995  14.393  1.00  0.00     0.236 S 
HETATM   43  O3  UNL     1       9.449  21.640  14.863  1.00  0.00    -0.205 OA
HETATM   44  O4  UNL     1      10.554  19.501  14.552  1.00  0.00    -0.205 OA
BRANCH  42  45
HETATM   45  C26 UNL     1      11.077  21.303  12.693  1.00  0.00     0.202 C 
BRANCH  45  46
HETATM   46  C27 UNL     1      12.455  20.863  12.376  1.00  0.00    -0.043 A 
HETATM   47  C28 UNL     1      13.404  21.869  12.234  1.00  0.00     0.008 A 
HETATM   48  C29 UNL     1      14.709  21.552  11.937  1.00  0.00     0.001 A 
HETATM   49  C30 UNL     1      15.051  20.216  11.786  1.00  0.00     0.000 A 
HETATM   50  C31 UNL     1      14.112  19.235  11.927  1.00  0.00     0.001 A 
HETATM   51  C32 UNL     1      12.798  19.544  12.224  1.00  0.00     0.008 A 
ENDBRANCH  45  46
ENDBRANCH  42  45
ENDBRANCH  38  42
ENDBRANCH   5  37
TORSDOF 14
ENDMDL
MODEL 2
REMARK VINA RESULT: -11.141118190      2.708     11.087
REMARK  14 active torsions:
REMARK  status: ('A' for Active; 'I' for Inactive)
REMARK    1  A    between atoms: C1_2  and  C2_3 
REMARK       I    between atoms: C1_2  and  N1_10 
REMARK    2  A    between atoms: C2_3  and  C3_4 
REMARK    3  A    between atoms: N1_10  and  C9_12 
REMARK    4  A    between atoms: C12_15  and  C13_16 
REMARK    5  A    between atoms: C13_16  and  C14_17 
REMARK    6  A    between atoms: C14_17  and  C15_18 
REMARK    7  A    between atoms: C15_18  and  C16_19 
REMARK    8  A    between atoms: C16_19  and  C17_20 
REMARK    9  A    between atoms: C18_23  and  C19_24 
REMARK   10  A    between atoms: C24_31  and  C25_32 
REMARK   11  A    between atoms: C25_32  and  O2_33 
REMARK   12  A    between atoms: N4_35  and  S1_37 
REMARK   13  A    between atoms: S1_37  and  C26_40 
REMARK   14  A    between atoms: C26_40  and  C27_41 
ROOT
HETATM    1  C17 UNL     1      15.270  23.500  15.932  1.00  0.00     0.052 A 
HETATM    2  N2  UNL     1      15.916  23.380  17.051  1.00  0.00    -0.351 N 
ATOM      3  H2  UNL     1      15.533  22.783  17.785  1.00  0.00     0.166 HD
HETATM    4  C18 UNL     1      17.048  24.007  17.265  1.00  0.00     0.081 A 
HETATM    5  C24 UNL     1      17.543  24.791  16.294  1.00  0.00     0.087 A 
HETATM    6  S2  UNL     1      16.260  24.554  15.061  1.00  0.00    -0.070 SA
ENDROOT
BRANCH   1   7
HETATM    7  C16 UNL     1      13.952  22.849  15.531  1.00  0.00     0.065 C 
BRANCH   7   8
HETATM    8  C15 UNL     1      13.358  23.622  14.408  1.00  0.00     0.007 C 
BRANCH   8   9
HETATM    9  C14 UNL     1      13.075  22.703  13.260  1.00  0.00     0.006 C 
BRANCH   9  10
HETATM   10  C13 UNL     1      11.636  22.316  13.109  1.00  0.00     0.058 C 
BRANCH  10  11
HETATM   11  C12 UNL     1      11.322  21.299  14.145  1.00  0.00     0.026 A 
HETATM   12  C11 UNL     1      11.907  20.057  14.200  1.00  0.00     0.030 A 
HETATM   13  C10 UNL     1      11.575  19.127  15.192  1.00  0.00     0.052 A 
HETATM   14  C9  UNL     1      10.636  19.493  16.123  1.00  0.00     0.122 A 
HETATM   15  N6  UNL     1      10.065  20.736  16.050  1.00  0.00    -0.285 N 
HETATM   16  N5  UNL     1      10.409  21.571  15.103  1.00  0.00    -0.303 N 
ATOM     17  H6  UNL     1       9.368  21.013  16.740  1.00  0.00     0.188 HD
ATOM     18  H5  UNL     1       9.958  22.486  15.087  1.00  0.00     0.186 HD
BRANCH  14  19
HETATM   19  N1  UNL     1      10.250  18.742  17.063  1.00  0.00    -0.312 N 
HETATM   20  C1  UNL     1      10.037  17.366  17.088  1.00  0.00     0.227 C 
HETATM   21  O1  UNL     1       9.439  16.785  16.160  1.00  0.00    -0.273 OA
ATOM     22  H1  UNL     1      10.064  19.220  17.945  1.00  0.00     0.170 HD
BRANCH  20  23
HETATM   23  C2  UNL     1      10.527  16.574  18.235  1.00  0.00     0.141 C 
BRANCH  23  24
HETATM   24  C3  UNL     1      11.699  17.221  18.861  1.00  0.00    -0.050 A 
HETATM   25  C4  UNL     1      12.970  17.072  18.311  1.00  0.00     0.007 A 
HETATM   26  C5  UNL     1      14.011  17.691  18.945  1.00  0.00     0.001 A 
HETATM   27  C6  UNL     1      13.843  18.440  20.085  1.00  0.00     0.000 A 
HETATM   28  C7  UNL     1      12.579  18.573  20.608  1.00  0.00     0.001 A 
HETATM   29  C8  UNL     1      11.488  17.960  19.998  1.00  0.00     0.007 A 
ENDBRANCH  23  24
ENDBRANCH  20  23
ENDBRANCH  14  19
ENDBRANCH  10  11
ENDBRANCH   9  10
ENDBRANCH   8   9
ENDBRANCH   7   8
ENDBRANCH   1   7
BRANCH   4  30
HETATM   30  C19 UNL     1      17.721  23.813  18.587  1.00  0.00     0.060 A 
HETATM   31  C20 UNL     1      18.441  22.636  18.790  1.00  0.00     0.032 A 
HETATM   32  C21 UNL     1      19.086  22.375  19.970  1.00  0.00     0.004 A 
HETATM   33  C22 UNL     1      19.039  23.282  20.997  1.00  0.00     0.017 A 
HETATM   34  C23 UNL     1      18.309  24.455  20.761  1.00  0.00     0.088 A 
HETATM   35  N3  UNL     1      17.705  24.640  19.583  1.00  0.00    -0.364 N 
ATOM     36  H3  UNL     1      17.186  25.510  19.458  1.00  0.00     0.165 HD
ENDBRANCH   4  30
BRANCH   5  37
HETATM   37  C25 UNL     1      18.674  25.648  16.033  1.00  0.00     0.169 C 
HETATM   38  N4  UNL     1      19.713  26.182  16.720  1.00  0.00    -0.263 N 
ATOM     39  H4  UNL     1      19.826  25.991  17.716  1.00  0.00     0.180 HD
BRANCH  37  40
HETATM   40  O2  UNL     1      18.717  26.031  14.732  1.00  0.00    -0.345 OA
ATOM     41  H2  UNL     1      18.259  26.852  14.596  1.00  0.00     0.219 HD
ENDBRANCH  37  40
BRANCH  38  42
HETATM   42  S1  UNL     1      20.881  27.223  15.862  1.00  0.00     0.236 S 
HETATM   43  O3  UNL     1      20.212  28.437  15.326  1.00  0.00    -0.205 OA
HETATM   44  O4  UNL     1      21.453  26.448  14.701  1.00  0.00    -0.205 OA
BRANCH  42  45
HETATM   45  C26 UNL     1      22.218  27.568  16.966  1.00  0.00     0.202 C 
BRANCH  45  46
HETATM   46  C27 UNL     1      23.439  27.923  16.209  1.00  0.00    -0.043 A 
HETATM   47  C28 UNL     1      24.462  26.982  16.217  1.00  0.00     0.008 A 
HETATM   48  C29 UNL     1      25.635  27.228  15.540  1.00  0.00     0.001 A 
HETATM   49  C30 UNL     1      25.768  28.428  14.857  1.00  0.00     0.000 A 
HETATM   50  C31 UNL     1      24.757  29.346  14.854  1.00  0.00     0.001 A 
HETATM   51  C32 UNL     1      23.577  29.107  15.532  1.00  0.00     0.008 A 
ENDBRANCH  45  46
ENDBRANCH  42  45
ENDBRANCH  38  42
ENDBRANCH   5  37
TORSDOF 14
ENDMDL
MODEL 3
REMARK VINA RESULT: -11.042608185      3.139     10.000
REMARK  14 active torsions:
REMARK  status: ('A' for Active; 'I' for Inactive)
REMARK    1  A    between atoms: C1_2  and  C2_3 
REMARK       I    between atoms: C1_2  and  N1_10 
REMARK    2  A    between atoms: C2_3  and  C3_4 
REMARK    3  A    between atoms: N1_10  and  C9_12 
REMARK    4  A    between atoms: C12_15  and  C13_16 
REMARK    5  A    between atoms: C13_16  and  C14_17 
REMARK    6  A    between atoms: C14_17  and  C15_18 
REMARK    7  A    between atoms: C15_18  and  C16_19 
REMARK    8  A    between atoms: C16_19  and  C17_20 
REMARK    9  A    between atoms: C18_23  and  C19_24 
REMARK   10  A    between atoms: C24_31  and  C25_32 
REMARK   11  A    between atoms: C25_32  and  O2_33 
REMARK   12  A    between atoms: N4_35  and  S1_37 
REMARK   13  A    between atoms: S1_37  and  C26_40 
REMARK   14  A    between atoms: C26_40  and  C27_41 
ROOT
HETATM    1  C17 UNL     1      14.596  19.054  17.786  1.00  0.00     0.052 A 
HETATM    2  N2  UNL     1      13.840  19.557  16.858  1.00  0.00    -0.351 N 
ATOM      3  H2  UNL     1      12.980  19.071  16.602  1.00  0.00     0.166 HD
HETATM    4  C18 UNL     1      14.152  20.671  16.241  1.00  0.00     0.081 A 
HETATM    5  C24 UNL     1      15.286  21.301  16.585  1.00  0.00     0.087 A 
HETATM    6  S2  UNL     1      15.860  20.171  17.856  1.00  0.00    -0.070 SA
ENDROOT
BRANCH   1   7
HETATM    7  C16 UNL     1      14.380  17.778  18.589  1.00  0.00     0.065 C 
BRANCH   7   8
HETATM    8  C15 UNL     1      13.610  18.108  19.817  1.00  0.00     0.007 C 
BRANCH   8   9
HETATM    9  C14 UNL     1      12.418  17.208  19.919  1.00  0.00     0.006 C 
BRANCH   9  10
HETATM   10  C13 UNL     1      11.166  17.757  19.308  1.00  0.00     0.058 C 
BRANCH  10  11
HETATM   11  C12 UNL     1      10.936  17.055  18.020  1.00  0.00     0.026 A 
HETATM   12  C11 UNL     1      10.667  15.712  17.917  1.00  0.00     0.030 A 
HETATM   13  C10 UNL     1      10.464  15.090  16.679  1.00  0.00     0.052 A 
HETATM   14  C9  UNL     1      10.543  15.870  15.553  1.00  0.00     0.122 A 
HETATM   15  N6  UNL     1      10.812  17.207  15.677  1.00  0.00    -0.285 N 
HETATM   16  N5  UNL     1      10.994  17.742  16.857  1.00  0.00    -0.303 N 
ATOM     17  H6  UNL     1      10.870  17.790  14.843  1.00  0.00     0.188 HD
ATOM     18  H5  UNL     1      11.193  18.741  16.902  1.00  0.00     0.186 HD
BRANCH  14  19
HETATM   19  N1  UNL     1      10.383  15.426  14.380  1.00  0.00    -0.312 N 
HETATM   20  C1  UNL     1       9.810  16.021  13.260  1.00  0.00     0.227 C 
HETATM   21  O1  UNL     1       8.740  16.656  13.340  1.00  0.00    -0.273 OA
ATOM     22  H1  UNL     1      10.731  14.478  14.231  1.00  0.00     0.170 HD
BRANCH  20  23
HETATM   23  C2  UNL     1      10.480  15.901  11.948  1.00  0.00     0.141 C 
BRANCH  23  24
HETATM   24  C3  UNL     1      11.716  16.710  11.911  1.00  0.00    -0.050 A 
HETATM   25  C4  UNL     1      11.692  18.060  12.254  1.00  0.00     0.007 A 
HETATM   26  C5  UNL     1      12.871  18.751  12.190  1.00  0.00     0.001 A 
HETATM   27  C6  UNL     1      14.053  18.163  11.806  1.00  0.00     0.000 A 
HETATM   28  C7  UNL     1      14.050  16.831  11.474  1.00  0.00     0.001 A 
HETATM   29  C8  UNL     1      12.875  16.085  11.523  1.00  0.00     0.007 A 
ENDBRANCH  23  24
ENDBRANCH  20  23
ENDBRANCH  14  19
ENDBRANCH  10  11
ENDBRANCH   9  10
ENDBRANCH   8   9
ENDBRANCH   7   8
ENDBRANCH   1   7
BRANCH   4  30
HETATM   30  C19 UNL     1      13.223  21.174  15.182  1.00  0.00     0.060 A 
HETATM   31  C20 UNL     1      13.777  21.807  14.071  1.00  0.00     0.032 A 
HETATM   32  C21 UNL     1      13.001  22.300  13.055  1.00  0.00     0.004 A 
HETATM   33  C22 UNL     1      11.636  22.179  13.109  1.00  0.00     0.017 A 
HETATM   34  C23 UNL     1      11.111  21.536  14.238  1.00  0.00     0.088 A 
HETATM   35  N3  UNL     1      11.931  21.081  15.190  1.00  0.00    -0.364 N 
ATOM     36  H3  UNL     1      11.502  20.620  15.992  1.00  0.00     0.165 HD
ENDBRANCH   4  30
BRANCH   5  37
HETATM   37  C25 UNL     1      16.046  22.479  16.241  1.00  0.00     0.169 C 
HETATM   38  N4  UNL     1      17.059  22.816  15.406  1.00  0.00    -0.263 N 
ATOM     39  H4  UNL     1      17.484  22.113  14.800  1.00  0.00     0.180 HD
BRANCH  37  40
HETATM   40  O2  UNL     1      15.634  23.560  16.951  1.00  0.00    -0.345 OA
ATOM     41  H2  UNL     1      16.082  24.350  16.672  1.00  0.00     0.219 HD
ENDBRANCH  37  40
BRANCH  38  42
HETATM   42  S1  UNL     1      17.640  24.502  15.378  1.00  0.00     0.236 S 
HETATM   43  O3  UNL     1      18.239  24.877  16.687  1.00  0.00    -0.205 OA
HETATM   44  O4  UNL     1      16.463  25.412  15.121  1.00  0.00    -0.205 OA
BRANCH  42  45
HETATM   45  C26 UNL     1      18.742  24.676  14.007  1.00  0.00     0.202 C 
BRANCH  45  46
HETATM   46  C27 UNL     1      19.759  25.716  14.287  1.00  0.00    -0.043 A 
HETATM   47  C28 UNL     1      19.363  27.033  14.084  1.00  0.00     0.008 A 
HETATM   48  C29 UNL     1      20.244  28.064  14.317  1.00  0.00     0.001 A 
HETATM   49  C30 UNL     1      21.524  27.759  14.755  1.00  0.00     0.000 A 
HETATM   50  C31 UNL     1      21.904  26.461  14.952  1.00  0.00     0.001 A 
HETATM   51  C32 UNL     1      21.026  25.419  14.719  1.00  0.00     0.008 A 
ENDBRANCH  45  46
ENDBRANCH  42  45
ENDBRANCH  38  42
ENDBRANCH   5  37
TORSDOF 14
ENDMDL
MODEL 4
REMARK VINA RESULT: -10.989989866      1.339      1.887
REMARK  14 active torsions:
REMARK  status: ('A' for Active; 'I' for Inactive)
REMARK    1  A    between atoms: C1_2  and  C2_3 
REMARK       I    between atoms: C1_2  and  N1_10 
REMARK    2  A    between atoms: C2_3  and  C3_4 
REMARK    3  A    between atoms: N1_10  and  C9_12 
REMARK    4  A    between atoms: C12_15  and  C13_16 
REMARK    5  A    between atoms: C13_16  and  C14_17 
REMARK    6  A    between atoms: C14_17  and  C15_18 
REMARK    7  A    between atoms: C15_18  and  C16_19 
REMARK    8  A    between atoms: C16_19  and  C17_20 
REMARK    9  A    between atoms: C18_23  and  C19_24 
REMARK   10  A    between atoms: C24_31  and  C25_32 
REMARK   11  A    between atoms: C25_32  and  O2_33 
REMARK   12  A    between atoms: N4_35  and  S1_37 
REMARK   13  A    between atoms: S1_37  and  C26_40 
REMARK   14  A    between atoms: C26_40  and  C27_41 
ROOT
HETATM    1  C17 UNL     1      16.315  21.076  17.521  1.00  0.00     0.052 A 
HETATM    2  N2  UNL     1      15.585  20.254  18.212  1.00  0.00    -0.351 N 
ATOM      3  H2  UNL     1      15.896  19.977  19.143  1.00  0.00     0.166 HD
HETATM    4  C18 UNL     1      14.459  19.772  17.745  1.00  0.00     0.081 A 
HETATM    5  C24 UNL     1      14.058  20.143  16.519  1.00  0.00     0.087 A 
HETATM    6  S2  UNL     1      15.421  21.232  16.097  1.00  0.00    -0.070 SA
ENDROOT
BRANCH   1   7
HETATM    7  C16 UNL     1      17.639  21.718  17.913  1.00  0.00     0.065 C 
BRANCH   7   8
HETATM    8  C15 UNL     1      17.940  21.371  19.327  1.00  0.00     0.007 C 
BRANCH   8   9
HETATM    9  C14 UNL     1      17.615  22.536  20.209  1.00  0.00     0.006 C 
BRANCH   9  10
HETATM   10  C13 UNL     1      18.781  23.091  20.968  1.00  0.00     0.058 C 
BRANCH  10  11
HETATM   11  C12 UNL     1      19.471  24.074  20.094  1.00  0.00     0.026 A 
HETATM   12  C11 UNL     1      20.830  24.273  20.091  1.00  0.00     0.030 A 
HETATM   13  C10 UNL     1      21.438  25.216  19.254  1.00  0.00     0.052 A 
HETATM   14  C9  UNL     1      20.627  25.949  18.424  1.00  0.00     0.122 A 
HETATM   15  N6  UNL     1      19.275  25.735  18.442  1.00  0.00    -0.285 N 
HETATM   16  N5  UNL     1      18.754  24.841  19.244  1.00  0.00    -0.303 N 
ATOM     17  H6  UNL     1      18.669  26.276  17.826  1.00  0.00     0.188 HD
ATOM     18  H5  UNL     1      17.742  24.715  19.225  1.00  0.00     0.186 HD
BRANCH  14  19
HETATM   19  N1  UNL     1      21.055  26.832  17.627  1.00  0.00    -0.312 N 
HETATM   20  C1  UNL     1      22.177  26.836  16.803  1.00  0.00     0.227 C 
HETATM   21  O1  UNL     1      23.285  26.439  17.214  1.00  0.00    -0.273 OA
ATOM     22  H1  UNL     1      20.486  27.678  17.580  1.00  0.00     0.170 HD
BRANCH  20  23
HETATM   23  C2  UNL     1      22.057  27.320  15.411  1.00  0.00     0.141 C 
BRANCH  23  24
HETATM   24  C3  UNL     1      20.908  26.688  14.729  1.00  0.00    -0.050 A 
HETATM   25  C4  UNL     1      20.901  25.318  14.474  1.00  0.00     0.007 A 
HETATM   26  C5  UNL     1      19.809  24.800  13.833  1.00  0.00     0.001 A 
HETATM   27  C6  UNL     1      18.743  25.575  13.442  1.00  0.00     0.000 A 
HETATM   28  C7  UNL     1      18.775  26.923  13.706  1.00  0.00     0.001 A 
HETATM   29  C8  UNL     1      19.864  27.497  14.356  1.00  0.00     0.007 A 
ENDBRANCH  23  24
ENDBRANCH  20  23
ENDBRANCH  14  19
ENDBRANCH  10  11
ENDBRANCH   9  10
ENDBRANCH   8   9
ENDBRANCH   7   8
ENDBRANCH   1   7
BRANCH   4  30
HETATM   30  C19 UNL     1      13.685  18.828  18.611  1.00  0.00     0.060 A 
HETATM   31  C20 UNL     1      13.609  19.103  19.976  1.00  0.00     0.032 A 
HETATM   32  C21 UNL     1      12.924  18.292  20.842  1.00  0.00     0.004 A 
HETATM   33  C22 UNL     1      12.285  17.170  20.378  1.00  0.00     0.017 A 
HETATM   34  C23 UNL     1      12.380  16.924  19.001  1.00  0.00     0.088 A 
HETATM   35  N3  UNL     1      13.066  17.761  18.218  1.00  0.00    -0.364 N 
ATOM     36  H3  UNL     1      13.106  17.539  17.223  1.00  0.00     0.165 HD
ENDBRANCH   4  30
BRANCH   5  37
HETATM   37  C25 UNL     1      12.974  19.918  15.594  1.00  0.00     0.169 C 
HETATM   38  N4  UNL     1      12.812  19.530  14.306  1.00  0.00    -0.263 N 
ATOM     39  H4  UNL     1      13.624  19.307  13.728  1.00  0.00     0.180 HD
BRANCH  37  40
HETATM   40  O2  UNL     1      11.770  20.164  16.172  1.00  0.00    -0.345 OA
ATOM     41  H2  UNL     1      11.247  20.757  15.647  1.00  0.00     0.219 HD
ENDBRANCH  37  40
BRANCH  38  42
HETATM   42  S1  UNL     1      11.165  19.411  13.631  1.00  0.00     0.236 S 
HETATM   43  O3  UNL     1      10.416  20.678  13.841  1.00  0.00    -0.205 OA
HETATM   44  O4  UNL     1      10.431  18.304  14.349  1.00  0.00    -0.205 OA
BRANCH  42  45
HETATM   45  C26 UNL     1      11.303  18.930  11.936  1.00  0.00     0.202 C 
BRANCH  45  46
HETATM   46  C27 UNL     1      12.028  17.644  11.818  1.00  0.00    -0.043 A 
HETATM   47  C28 UNL     1      13.398  17.729  11.596  1.00  0.00     0.008 A 
HETATM   48  C29 UNL     1      14.151  16.585  11.472  1.00  0.00     0.001 A 
HETATM   49  C30 UNL     1      13.516  15.356  11.573  1.00  0.00     0.000 A 
HETATM   50  C31 UNL     1      12.169  15.283  11.792  1.00  0.00     0.001 A 
HETATM   51  C32 UNL     1      11.405  16.427  11.917  1.00  0.00     0.008 A 
ENDBRANCH  45  46
ENDBRANCH  42  45
ENDBRANCH  38  42
ENDBRANCH   5  37
TORSDOF 14
ENDMDL
MODEL 5
REMARK VINA RESULT: -10.943313785      1.647      4.632
REMARK  14 active torsions:
REMARK  status: ('A' for Active; 'I' for Inactive)
REMARK    1  A    between atoms: C1_2  and  C2_3 
REMARK       I    between atoms: C1_2  and  N1_10 
REMARK    2  A    between atoms: C2_3  and  C3_4 
REMARK    3  A    between atoms: N1_10  and  C9_12 
REMARK    4  A    between atoms: C12_15  and  C13_16 
REMARK    5  A    between atoms: C13_16  and  C14_17 
REMARK    6  A    between atoms: C14_17  and  C15_18 
REMARK    7  A    between atoms: C15_18  and  C16_19 
REMARK    8  A    between atoms: C16_19  and  C17_20 
REMARK    9  A    between atoms: C18_23  and  C19_24 
REMARK   10  A    between atoms: C24_31  and  C25_32 
REMARK   11  A    between atoms: C25_32  and  O2_33 
REMARK   12  A    between atoms: N4_35  and  S1_37 
REMARK   13  A    between atoms: S1_37  and  C26_40 
REMARK   14  A    between atoms: C26_40  and  C27_41 
ROOT
HETATM    1  C17 UNL     1      15.631  22.246  17.547  1.00  0.00     0.052 A 
HETATM    2  N2  UNL     1      15.291  22.394  16.303  1.00  0.00    -0.351 N 
ATOM      3  H2  UNL     1      15.803  23.061  15.724  1.00  0.00     0.166 HD
HETATM    4  C18 UNL     1      14.308  21.710  15.771  1.00  0.00     0.081 A 
HETATM    5  C24 UNL     1      13.640  20.836  16.540  1.00  0.00     0.087 A 
HETATM    6  S2  UNL     1      14.535  21.077  18.077  1.00  0.00    -0.070 SA
ENDROOT
BRANCH   1   7
HETATM    7  C16 UNL     1      16.737  22.961  18.313  1.00  0.00     0.065 C 
BRANCH   7   8
HETATM    8  C15 UNL     1      16.883  22.325  19.649  1.00  0.00     0.007 C 
BRANCH   8   9
HETATM    9  C14 UNL     1      18.165  21.553  19.699  1.00  0.00     0.006 C 
BRANCH   9  10
HETATM   10  C13 UNL     1      19.218  22.146  20.584  1.00  0.00     0.058 C 
BRANCH  10  11
HETATM   11  C12 UNL     1      19.651  23.434  19.983  1.00  0.00     0.026 A 
HETATM   12  C11 UNL     1      19.550  24.647  20.619  1.00  0.00     0.030 A 
HETATM   13  C10 UNL     1      19.965  25.837  20.011  1.00  0.00     0.052 A 
HETATM   14  C9  UNL     1      20.483  25.760  18.742  1.00  0.00     0.122 A 
HETATM   15  N6  UNL     1      20.575  24.541  18.126  1.00  0.00    -0.285 N 
HETATM   16  N5  UNL     1      20.173  23.455  18.737  1.00  0.00    -0.303 N 
ATOM     17  H6  UNL     1      20.959  24.478  17.184  1.00  0.00     0.188 HD
ATOM     18  H5  UNL     1      20.259  22.568  18.240  1.00  0.00     0.186 HD
BRANCH  14  19
HETATM   19  N1  UNL     1      20.887  26.763  18.088  1.00  0.00    -0.312 N 
HETATM   20  C1  UNL     1      22.052  26.948  17.350  1.00  0.00     0.227 C 
HETATM   21  O1  UNL     1      23.162  26.583  17.787  1.00  0.00    -0.273 OA
ATOM     22  H1  UNL     1      20.257  27.565  18.102  1.00  0.00     0.170 HD
BRANCH  20  23
HETATM   23  C2  UNL     1      21.978  27.590  16.020  1.00  0.00     0.141 C 
BRANCH  23  24
HETATM   24  C3  UNL     1      20.976  26.921  15.165  1.00  0.00    -0.050 A 
HETATM   25  C4  UNL     1      21.156  25.599  14.763  1.00  0.00     0.007 A 
HETATM   26  C5  UNL     1      20.194  25.043  13.967  1.00  0.00     0.001 A 
HETATM   27  C6  UNL     1      19.078  25.737  13.560  1.00  0.00     0.000 A 
HETATM   28  C7  UNL     1      18.924  27.038  13.970  1.00  0.00     0.001 A 
HETATM   29  C8  UNL     1      19.877  27.648  14.782  1.00  0.00     0.007 A 
ENDBRANCH  23  24
ENDBRANCH  20  23
ENDBRANCH  14  19
ENDBRANCH  10  11
ENDBRANCH   9  10
ENDBRANCH   8   9
ENDBRANCH   7   8
ENDBRANCH   1   7
BRANCH   4  30
HETATM   30  C19 UNL     1      13.984  21.949  14.329  1.00  0.00     0.060 A 
HETATM   31  C20 UNL     1      12.871  22.733  14.029  1.00  0.00     0.032 A 
HETATM   32  C21 UNL     1      12.500  23.001  12.738  1.00  0.00     0.004 A 
HETATM   33  C22 UNL     1      13.228  22.494  11.691  1.00  0.00     0.017 A 
HETATM   34  C23 UNL     1      14.341  21.711  12.027  1.00  0.00     0.088 A 
HETATM   35  N3  UNL     1      14.641  21.493  13.311  1.00  0.00    -0.364 N 
ATOM     36  H3  UNL     1      15.461  20.917  13.506  1.00  0.00     0.165 HD
ENDBRANCH   4  30
BRANCH   5  37
HETATM   37  C25 UNL     1      12.549  19.897  16.456  1.00  0.00     0.169 C 
HETATM   38  N4  UNL     1      12.298  18.691  15.890  1.00  0.00    -0.263 N 
ATOM     39  H4  UNL     1      13.017  18.220  15.340  1.00  0.00     0.180 HD
BRANCH  37  40
HETATM   40  O2  UNL     1      11.460  20.339  17.136  1.00  0.00    -0.345 OA
ATOM     41  H2  UNL     1      11.127  21.150  16.771  1.00  0.00     0.219 HD
ENDBRANCH  37  40
BRANCH  38  42
HETATM   42  S1  UNL     1      10.696  17.938  16.116  1.00  0.00     0.236 S 
HETATM   43  O3  UNL     1      10.181  17.395  14.832  1.00  0.00    -0.205 OA
HETATM   44  O4  UNL     1       9.734  18.994  16.602  1.00  0.00    -0.205 OA
BRANCH  42  45
HETATM   45  C26 UNL     1      10.838  16.733  17.401  1.00  0.00     0.202 C 
BRANCH  45  46
HETATM   46  C27 UNL     1      11.763  17.204  18.457  1.00  0.00    -0.043 A 
HETATM   47  C28 UNL     1      11.189  17.919  19.502  1.00  0.00     0.008 A 
HETATM   48  C29 UNL     1      11.974  18.397  20.526  1.00  0.00     0.001 A 
HETATM   49  C30 UNL     1      13.339  18.149  20.489  1.00  0.00     0.000 A 
HETATM   50  C31 UNL     1      13.893  17.445  19.458  1.00  0.00     0.001 A 
HETATM   51  C32 UNL     1      13.112  16.963  18.425  1.00  0.00     0.008 A 
ENDBRANCH  45  46
ENDBRANCH  42  45
ENDBRANCH  38  42
ENDBRANCH   5  37
TORSDOF 14
ENDMDL
