MODEL 1
REMARK VINA RESULT: -9.975067387      0.000      0.000
REMARK  14 active torsions:
REMARK  status: ('A' for Active; 'I' for Inactive)
REMARK    1  A    between atoms: C5_5  and  C6_6 
REMARK    2  A    between atoms: C6_6  and  C7_7 
REMARK       I    between atoms: C7_7  and  N1_9 
REMARK    3  A    between atoms: C9_16  and  C10_17 
REMARK    4  A    between atoms: C10_17  and  C11_18 
REMARK    5  A    between atoms: C11_18  and  S1_19 
REMARK    6  A    between atoms: S1_19  and  C12_20 
REMARK    7  A    between atoms: C12_20  and  C13_21 
REMARK    8  A    between atoms: C13_21  and  C14_22 
REMARK    9  A    between atoms: N6_28  and  C16_30 
REMARK   10  A    between atoms: C16_30  and  O2_31 
REMARK   11  A    between atoms: C16_30  and  C17_33 
REMARK   12  A    between atoms: C17_33  and  C18_34 
REMARK   13  A    between atoms: C22_38  and  C23_39 
REMARK   14  A    between atoms: C23_39  and  C24_40 
ROOT
HETATM    1  C14 UNL     1      18.830  23.779  20.094  1.00  0.00     0.070 A 
HETATM    2  N4  UNL     1      17.591  23.643  20.530  1.00  0.00    -0.296 N 
ATOM      3  H4  UNL     1      17.234  24.279  21.244  1.00  0.00     0.187 HD
HETATM    4  N5  UNL     1      16.841  22.727  20.071  1.00  0.00    -0.279 N 
ATOM      5  H5  UNL     1      15.885  22.631  20.413  1.00  0.00     0.189 HD
HETATM    6  C15 UNL     1      17.301  21.894  19.144  1.00  0.00     0.166 A 
HETATM    7  N6  UNL     1      16.806  20.902  18.521  1.00  0.00    -0.320 N 
ATOM      8  H6  UNL     1      17.443  20.469  17.852  1.00  0.00     0.169 HD
HETATM    9  S2  UNL     1      18.931  22.520  18.956  1.00  0.00    -0.038 SA
ENDROOT
BRANCH   1  10
HETATM   10  C13 UNL     1      19.864  24.794  20.524  1.00  0.00     0.076 C 
BRANCH  10  11
HETATM   11  C12 UNL     1      20.937  24.822  19.441  1.00  0.00     0.080 C 
BRANCH  11  12
HETATM   12  S1  UNL     1      20.574  25.911  18.112  1.00  0.00    -0.168 SA
BRANCH  12  13
HETATM   13  C11 UNL     1      19.959  25.303  16.594  1.00  0.00     0.080 C 
BRANCH  13  14
HETATM   14  C10 UNL     1      18.758  25.894  15.957  1.00  0.00     0.076 C 
BRANCH  14  15
HETATM   15  C9  UNL     1      17.492  25.318  16.457  1.00  0.00     0.070 A 
HETATM   16  N3  UNL     1      16.852  25.515  17.600  1.00  0.00    -0.296 N 
HETATM   17  N2  UNL     1      15.768  24.923  17.856  1.00  0.00    -0.279 N 
ATOM     18  H3  UNL     1      17.245  26.158  18.289  1.00  0.00     0.187 HD
HETATM   19  C8  UNL     1      15.262  24.079  16.945  1.00  0.00     0.167 A 
ATOM     20  H2  UNL     1      15.285  25.084  18.739  1.00  0.00     0.189 HD
HETATM   21  N1  UNL     1      14.148  23.387  17.049  1.00  0.00    -0.306 N 
HETATM   22  S3  UNL     1      16.424  24.179  15.699  1.00  0.00    -0.038 SA
HETATM   23  C7  UNL     1      13.819  22.555  15.945  1.00  0.00     0.229 C 
ATOM     24  H1  UNL     1      13.553  23.446  17.875  1.00  0.00     0.171 HD
HETATM   25  O1  UNL     1      13.893  21.285  16.064  1.00  0.00    -0.273 OA
BRANCH  23  26
HETATM   26  C6  UNL     1      13.389  23.117  14.651  1.00  0.00     0.160 C 
BRANCH  26  27
HETATM   27  C5  UNL     1      12.595  22.070  13.937  1.00  0.00     0.017 A 
HETATM   28  C4  UNL     1      12.991  21.737  12.661  1.00  0.00     0.026 A 
HETATM   29  C3  UNL     1      12.304  20.780  11.957  1.00  0.00     0.010 A 
HETATM   30  C2  UNL     1      11.204  20.157  12.560  1.00  0.00    -0.047 A 
HETATM   31  C1  UNL     1      10.445  19.113  11.813  1.00  0.00     0.049 C 
HETATM   32  C31 UNL     1      10.849  20.523  13.829  1.00  0.00     0.094 A 
HETATM   33  N7  UNL     1      11.530  21.472  14.529  1.00  0.00    -0.368 N 
ATOM     34  H7  UNL     1      11.246  21.728  15.475  1.00  0.00     0.165 HD
ENDBRANCH  26  27
ENDBRANCH  23  26
ENDBRANCH  14  15
ENDBRANCH  13  14
ENDBRANCH  12  13
ENDBRANCH  11  12
ENDBRANCH  10  11
ENDBRANCH   1  10
BRANCH   7  35
HETATM   35  C16 UNL     1      15.567  20.304  18.583  1.00  0.00     0.121 C 
BRANCH  35  36
HETATM   36  O2  UNL     1      14.620  21.097  19.012  1.00  0.00    -0.349 OA
ATOM     37  H2  UNL     1      13.778  20.947  18.598  1.00  0.00     0.219 HD
ENDBRANCH  35  36
BRANCH  35  38
HETATM   38  C17 UNL     1      15.200  18.905  18.230  1.00  0.00     0.122 C 
BRANCH  38  39
HETATM   39  C18 UNL     1      13.877  18.606  18.892  1.00  0.00    -0.050 A 
HETATM   40  C19 UNL     1      13.794  18.465  20.259  1.00  0.00     0.007 A 
HETATM   41  C20 UNL     1      12.544  18.177  20.821  1.00  0.00     0.001 A 
HETATM   42  C21 UNL     1      11.423  18.038  20.025  1.00  0.00     0.007 A 
HETATM   43  C22 UNL     1      11.502  18.179  18.657  1.00  0.00    -0.053 A 
HETATM   44  C30 UNL     1      12.741  18.461  18.128  1.00  0.00     0.015 A 
BRANCH  43  45
HETATM   45  C23 UNL     1      10.308  18.018  17.790  1.00  0.00     0.077 C 
BRANCH  45  46
HETATM   46  C24 UNL     1      10.354  16.819  16.962  1.00  0.00    -0.054 A 
HETATM   47  C25 UNL     1      10.265  15.573  17.527  1.00  0.00     0.007 A 
HETATM   48  C26 UNL     1      10.307  14.411  16.772  1.00  0.00     0.001 A 
HETATM   49  C27 UNL     1      10.445  14.518  15.402  1.00  0.00     0.000 A 
HETATM   50  C28 UNL     1      10.536  15.738  14.804  1.00  0.00     0.001 A 
HETATM   51  C29 UNL     1      10.489  16.890  15.598  1.00  0.00     0.007 A 
ENDBRANCH  45  46
ENDBRANCH  43  45
ENDBRANCH  38  39
ENDBRANCH  35  38
ENDBRANCH   7  35
TORSDOF 14
ENDMDL
MODEL 2
REMARK VINA RESULT: -9.795424285      2.924      8.544
REMARK  14 active torsions:
REMARK  status: ('A' for Active; 'I' for Inactive)
REMARK    1  A    between atoms: C5_5  and  C6_6 
REMARK    2  A    between atoms: C6_6  and  C7_7 
REMARK       I    between atoms: C7_7  and  N1_9 
REMARK    3  A    between atoms: C9_16  and  C10_17 
REMARK    4  A    between atoms: C10_17  and  C11_18 
REMARK    5  A    between atoms: C11_18  and  S1_19 
REMARK    6  A    between atoms: S1_19  and  C12_20 
REMARK    7  A    between atoms: C12_20  and  C13_21 
REMARK    8  A    between atoms: C13_21  and  C14_22 
REMARK    9  A    between atoms: N6_28  and  C16_30 
REMARK   10  A    between atoms: C16_30  and  O2_31 
REMARK   11  A    between atoms: C16_30  and  C17_33 
REMARK   12  A    between atoms: C17_33  and  C18_34 
REMARK   13  A    between atoms: C22_38  and  C23_39 
REMARK   14  A    between atoms: C23_39  and  C24_40 
ROOT
HETATM    1  C14 UNL     1      11.148  19.111  14.285  1.00  0.00     0.070 A 
HETATM    2  N4  UNL     1      11.503  18.020  14.940  1.00  0.00    -0.296 N 
ATOM      3  H4  UNL     1      11.706  17.164  14.424  1.00  0.00     0.187 HD
HETATM    4  N5  UNL     1      11.594  18.028  16.207  1.00  0.00    -0.279 N 
ATOM      5  H5  UNL     1      11.870  17.181  16.703  1.00  0.00     0.189 HD
HETATM    6  C15 UNL     1      11.328  19.139  16.885  1.00  0.00     0.166 A 
HETATM    7  N6  UNL     1      11.320  19.441  18.120  1.00  0.00    -0.320 N 
ATOM      8  H6  UNL     1      11.066  20.411  18.311  1.00  0.00     0.169 HD
HETATM    9  S2  UNL     1      10.929  20.217  15.557  1.00  0.00    -0.038 SA
ENDROOT
BRANCH   1  10
HETATM   10  C13 UNL     1      10.980  19.289  12.794  1.00  0.00     0.076 C 
BRANCH  10  11
HETATM   11  C12 UNL     1      11.281  20.752  12.485  1.00  0.00     0.080 C 
BRANCH  11  12
HETATM   12  S1  UNL     1      12.893  21.025  11.845  1.00  0.00    -0.168 SA
BRANCH  12  13
HETATM   13  C11 UNL     1      14.282  20.223  12.538  1.00  0.00     0.080 C 
BRANCH  13  14
HETATM   14  C10 UNL     1      14.540  20.250  13.998  1.00  0.00     0.076 C 
BRANCH  14  15
HETATM   15  C9  UNL     1      14.764  21.613  14.523  1.00  0.00     0.070 A 
HETATM   16  N3  UNL     1      13.952  22.420  15.189  1.00  0.00    -0.296 N 
HETATM   17  N2  UNL     1      14.325  23.567  15.559  1.00  0.00    -0.279 N 
ATOM     18  H3  UNL     1      13.006  22.108  15.408  1.00  0.00     0.187 HD
HETATM   19  C8  UNL     1      15.570  23.968  15.266  1.00  0.00     0.167 A 
ATOM     20  H2  UNL     1      13.691  24.179  16.072  1.00  0.00     0.189 HD
HETATM   21  N1  UNL     1      16.118  25.123  15.576  1.00  0.00    -0.306 N 
HETATM   22  S3  UNL     1      16.181  22.611  14.431  1.00  0.00    -0.038 SA
HETATM   23  C7  UNL     1      17.460  25.318  15.152  1.00  0.00     0.229 C 
ATOM     24  H1  UNL     1      15.607  25.839  16.093  1.00  0.00     0.171 HD
HETATM   25  O1  UNL     1      17.715  26.149  14.216  1.00  0.00    -0.273 OA
BRANCH  23  26
HETATM   26  C6  UNL     1      18.582  24.583  15.767  1.00  0.00     0.160 C 
BRANCH  26  27
HETATM   27  C5  UNL     1      19.780  25.477  15.751  1.00  0.00     0.017 A 
HETATM   28  C4  UNL     1      20.788  25.167  14.866  1.00  0.00     0.026 A 
HETATM   29  C3  UNL     1      21.911  25.954  14.802  1.00  0.00     0.010 A 
HETATM   30  C2  UNL     1      22.006  27.066  15.648  1.00  0.00    -0.047 A 
HETATM   31  C1  UNL     1      23.217  27.935  15.593  1.00  0.00     0.049 C 
HETATM   32  C31 UNL     1      20.978  27.332  16.510  1.00  0.00     0.094 A 
HETATM   33  N7  UNL     1      19.864  26.553  16.574  1.00  0.00    -0.368 N 
ATOM     34  H7  UNL     1      19.110  26.772  17.226  1.00  0.00     0.165 HD
ENDBRANCH  26  27
ENDBRANCH  23  26
ENDBRANCH  14  15
ENDBRANCH  13  14
ENDBRANCH  12  13
ENDBRANCH  11  12
ENDBRANCH  10  11
ENDBRANCH   1  10
BRANCH   7  35
HETATM   35  C16 UNL     1      11.591  18.700  19.249  1.00  0.00     0.121 C 
BRANCH  35  36
HETATM   36  O2  UNL     1      10.608  17.919  19.616  1.00  0.00    -0.349 OA
ATOM     37  H2  UNL     1      10.004  18.326  20.226  1.00  0.00     0.219 HD
ENDBRANCH  35  36
BRANCH  35  38
HETATM   38  C17 UNL     1      12.834  18.690  20.068  1.00  0.00     0.122 C 
BRANCH  38  39
HETATM   39  C18 UNL     1      13.952  19.203  19.195  1.00  0.00    -0.050 A 
HETATM   40  C19 UNL     1      14.604  18.360  18.324  1.00  0.00     0.007 A 
HETATM   41  C20 UNL     1      15.642  18.885  17.545  1.00  0.00     0.001 A 
HETATM   42  C21 UNL     1      16.004  20.215  17.646  1.00  0.00     0.007 A 
HETATM   43  C22 UNL     1      15.353  21.062  18.517  1.00  0.00    -0.053 A 
HETATM   44  C30 UNL     1      14.338  20.523  19.272  1.00  0.00     0.015 A 
BRANCH  43  45
HETATM   45  C23 UNL     1      15.741  22.489  18.646  1.00  0.00     0.077 C 
BRANCH  45  46
HETATM   46  C24 UNL     1      17.000  22.682  19.355  1.00  0.00    -0.054 A 
HETATM   47  C25 UNL     1      17.634  23.899  19.338  1.00  0.00     0.007 A 
HETATM   48  C26 UNL     1      18.833  24.119  19.998  1.00  0.00     0.001 A 
HETATM   49  C27 UNL     1      19.405  23.074  20.696  1.00  0.00     0.000 A 
HETATM   50  C28 UNL     1      18.806  21.853  20.737  1.00  0.00     0.001 A 
HETATM   51  C29 UNL     1      17.596  21.666  20.059  1.00  0.00     0.007 A 
ENDBRANCH  45  46
ENDBRANCH  43  45
ENDBRANCH  38  39
ENDBRANCH  35  38
ENDBRANCH   7  35
TORSDOF 14
ENDMDL
MODEL 3
REMARK VINA RESULT: -9.782099669      3.796     10.176
REMARK  14 active torsions:
REMARK  status: ('A' for Active; 'I' for Inactive)
REMARK    1  A    between atoms: C5_5  and  C6_6 
REMARK    2  A    between atoms: C6_6  and  C7_7 
REMARK       I    between atoms: C7_7  and  N1_9 
REMARK    3  A    between atoms: C9_16  and  C10_17 
REMARK    4  A    between atoms: C10_17  and  C11_18 
REMARK    5  A    between atoms: C11_18  and  S1_19 
REMARK    6  A    between atoms: S1_19  and  C12_20 
REMARK    7  A    between atoms: C12_20  and  C13_21 
REMARK    8  A    between atoms: C13_21  and  C14_22 
REMARK    9  A    between atoms: N6_28  and  C16_30 
REMARK   10  A    between atoms: C16_30  and  O2_31 
REMARK   11  A    between atoms: C16_30  and  C17_33 
REMARK   12  A    between atoms: C17_33  and  C18_34 
REMARK   13  A    between atoms: C22_38  and  C23_39 
REMARK   14  A    between atoms: C23_39  and  C24_40 
ROOT
HETATM    1  C14 UNL     1      10.950  16.856  12.619  1.00  0.00     0.070 A 
HETATM    2  N4  UNL     1      11.604  17.410  13.623  1.00  0.00    -0.296 N 
ATOM      3  H4  UNL     1      12.080  16.818  14.304  1.00  0.00     0.187 HD
HETATM    4  N5  UNL     1      11.646  18.673  13.749  1.00  0.00    -0.279 N 
ATOM      5  H5  UNL     1      12.156  19.092  14.527  1.00  0.00     0.189 HD
HETATM    6  C15 UNL     1      11.026  19.449  12.866  1.00  0.00     0.166 A 
HETATM    7  N6  UNL     1      10.884  20.707  12.739  1.00  0.00    -0.320 N 
ATOM      8  H6  UNL     1      10.336  20.984  11.925  1.00  0.00     0.169 HD
HETATM    9  S2  UNL     1      10.355  18.224  11.802  1.00  0.00    -0.038 SA
ENDROOT
BRANCH   1  10
HETATM   10  C13 UNL     1      10.783  15.385  12.313  1.00  0.00     0.076 C 
BRANCH  10  11
HETATM   11  C12 UNL     1       9.646  14.875  13.191  1.00  0.00     0.080 C 
BRANCH  11  12
HETATM   12  S1  UNL     1      10.112  13.569  14.268  1.00  0.00    -0.168 SA
BRANCH  12  13
HETATM   13  C11 UNL     1       9.311  13.341  15.803  1.00  0.00     0.080 C 
BRANCH  13  14
HETATM   14  C10 UNL     1      10.027  13.547  17.086  1.00  0.00     0.076 C 
BRANCH  14  15
HETATM   15  C9  UNL     1      10.078  14.964  17.501  1.00  0.00     0.070 A 
HETATM   16  N3  UNL     1       9.281  15.652  18.305  1.00  0.00    -0.296 N 
HETATM   17  N2  UNL     1       9.486  16.874  18.543  1.00  0.00    -0.279 N 
ATOM     18  H3  UNL     1       8.486  15.184  18.741  1.00  0.00     0.187 HD
HETATM   19  C8  UNL     1      10.533  17.479  17.965  1.00  0.00     0.167 A 
ATOM     20  H2  UNL     1       8.865  17.392  19.165  1.00  0.00     0.189 HD
HETATM   21  N1  UNL     1      10.890  18.737  18.106  1.00  0.00    -0.306 N 
HETATM   22  S3  UNL     1      11.213  16.201  17.060  1.00  0.00    -0.038 SA
HETATM   23  C7  UNL     1      12.043  19.149  17.387  1.00  0.00     0.229 C 
ATOM     24  H1  UNL     1      10.367  19.381  18.700  1.00  0.00     0.171 HD
HETATM   25  O1  UNL     1      11.921  19.938  16.389  1.00  0.00    -0.273 OA
BRANCH  23  26
HETATM   26  C6  UNL     1      13.395  18.689  17.758  1.00  0.00     0.160 C 
BRANCH  26  27
HETATM   27  C5  UNL     1      14.227  19.897  18.050  1.00  0.00     0.017 A 
HETATM   28  C4  UNL     1      15.592  19.725  18.104  1.00  0.00     0.026 A 
HETATM   29  C3  UNL     1      16.408  20.798  18.363  1.00  0.00     0.010 A 
HETATM   30  C2  UNL     1      15.828  22.055  18.568  1.00  0.00    -0.047 A 
HETATM   31  C1  UNL     1      16.697  23.235  18.848  1.00  0.00     0.049 C 
HETATM   32  C31 UNL     1      14.467  22.175  18.505  1.00  0.00     0.094 A 
HETATM   33  N7  UNL     1      13.655  21.112  18.248  1.00  0.00    -0.368 N 
ATOM     34  H7  UNL     1      12.642  21.226  18.205  1.00  0.00     0.165 HD
ENDBRANCH  26  27
ENDBRANCH  23  26
ENDBRANCH  14  15
ENDBRANCH  13  14
ENDBRANCH  12  13
ENDBRANCH  11  12
ENDBRANCH  10  11
ENDBRANCH   1  10
BRANCH   7  35
HETATM   35  C16 UNL     1      11.335  21.763  13.499  1.00  0.00     0.121 C 
BRANCH  35  36
HETATM   36  O2  UNL     1      10.859  21.779  14.717  1.00  0.00    -0.349 OA
ATOM     37  H2  UNL     1      10.495  22.617  14.975  1.00  0.00     0.219 HD
ENDBRANCH  35  36
BRANCH  35  38
HETATM   38  C17 UNL     1      12.271  22.851  13.102  1.00  0.00     0.122 C 
BRANCH  38  39
HETATM   39  C18 UNL     1      13.605  22.553  13.741  1.00  0.00    -0.050 A 
HETATM   40  C19 UNL     1      14.101  21.269  13.760  1.00  0.00     0.007 A 
HETATM   41  C20 UNL     1      15.339  21.046  14.376  1.00  0.00     0.001 A 
HETATM   42  C21 UNL     1      16.045  22.087  14.948  1.00  0.00     0.007 A 
HETATM   43  C22 UNL     1      15.552  23.373  14.930  1.00  0.00    -0.053 A 
HETATM   44  C30 UNL     1      14.334  23.567  14.321  1.00  0.00     0.015 A 
BRANCH  43  45
HETATM   45  C23 UNL     1      16.294  24.497  15.554  1.00  0.00     0.077 C 
BRANCH  45  46
HETATM   46  C24 UNL     1      17.681  24.588  15.114  1.00  0.00    -0.054 A 
HETATM   47  C25 UNL     1      17.988  25.037  13.855  1.00  0.00     0.007 A 
HETATM   48  C26 UNL     1      19.294  25.134  13.401  1.00  0.00     0.001 A 
HETATM   49  C27 UNL     1      20.318  24.764  14.250  1.00  0.00     0.000 A 
HETATM   50  C28 UNL     1      20.053  24.315  15.507  1.00  0.00     0.001 A 
HETATM   51  C29 UNL     1      18.722  24.229  15.933  1.00  0.00     0.007 A 
ENDBRANCH  45  46
ENDBRANCH  43  45
ENDBRANCH  38  39
ENDBRANCH  35  38
ENDBRANCH   7  35
TORSDOF 14
ENDMDL
MODEL 4
REMARK VINA RESULT: -9.717577317      1.416      1.614
REMARK  14 active torsions:
REMARK  status: ('A' for Active; 'I' for Inactive)
REMARK    1  A    between atoms: C5_5  and  C6_6 
REMARK    2  A    between atoms: C6_6  and  C7_7 
REMARK       I    between atoms: C7_7  and  N1_9 
REMARK    3  A    between atoms: C9_16  and  C10_17 
REMARK    4  A    between atoms: C10_17  and  C11_18 
REMARK    5  A    between atoms: C11_18  and  S1_19 
REMARK    6  A    between atoms: S1_19  and  C12_20 
REMARK    7  A    between atoms: C12_20  and  C13_21 
REMARK    8  A    between atoms: C13_21  and  C14_22 
REMARK    9  A    between atoms: N6_28  and  C16_30 
REMARK   10  A    between atoms: C16_30  and  O2_31 
REMARK   11  A    between atoms: C16_30  and  C17_33 
REMARK   12  A    between atoms: C17_33  and  C18_34 
REMARK   13  A    between atoms: C22_38  and  C23_39 
REMARK   14  A    between atoms: C23_39  and  C24_40 
ROOT
HETATM    1  C14 UNL     1      18.835  24.215  19.803  1.00  0.00     0.070 A 
HETATM    2  N4  UNL     1      17.581  24.423  19.447  1.00  0.00    -0.296 N 
ATOM      3  H4  UNL     1      17.232  25.377  19.360  1.00  0.00     0.187 HD
HETATM    4  N5  UNL     1      16.805  23.445  19.214  1.00  0.00    -0.279 N 
ATOM      5  H5  UNL     1      15.838  23.616  18.937  1.00  0.00     0.189 HD
HETATM    6  C15 UNL     1      17.252  22.199  19.329  1.00  0.00     0.166 A 
HETATM    7  N6  UNL     1      16.725  21.052  19.178  1.00  0.00    -0.320 N 
ATOM      8  H6  UNL     1      17.364  20.275  19.345  1.00  0.00     0.169 HD
HETATM    9  S2  UNL     1      18.913  22.516  19.806  1.00  0.00    -0.038 SA
ENDROOT
BRANCH   1  10
HETATM   10  C13 UNL     1      19.895  25.242  20.127  1.00  0.00     0.076 C 
BRANCH  10  11
HETATM   11  C12 UNL     1      20.887  25.238  18.969  1.00  0.00     0.080 C 
BRANCH  11  12
HETATM   12  S1  UNL     1      20.690  26.587  17.862  1.00  0.00    -0.168 SA
BRANCH  12  13
HETATM   13  C11 UNL     1      21.304  26.506  16.228  1.00  0.00     0.080 C 
BRANCH  13  14
HETATM   14  C10 UNL     1      20.844  25.459  15.283  1.00  0.00     0.076 C 
BRANCH  14  15
HETATM   15  C9  UNL     1      19.374  25.400  15.151  1.00  0.00     0.070 A 
HETATM   16  N3  UNL     1      18.534  26.216  14.533  1.00  0.00    -0.296 N 
HETATM   17  N2  UNL     1      17.291  26.000  14.530  1.00  0.00    -0.279 N 
ATOM     18  H3  UNL     1      18.900  27.037  14.049  1.00  0.00     0.187 HD
HETATM   19  C8  UNL     1      16.821  24.920  15.170  1.00  0.00     0.167 A 
ATOM     20  H2  UNL     1      16.655  26.637  14.049  1.00  0.00     0.189 HD
HETATM   21  N1  UNL     1      15.563  24.547  15.263  1.00  0.00    -0.306 N 
HETATM   22  S3  UNL     1      18.257  24.227  15.777  1.00  0.00    -0.038 SA
HETATM   23  C7  UNL     1      15.311  23.359  15.999  1.00  0.00     0.229 C 
ATOM     24  H1  UNL     1      14.810  25.082  14.830  1.00  0.00     0.171 HD
HETATM   25  O1  UNL     1      14.732  23.427  17.135  1.00  0.00    -0.273 OA
BRANCH  23  26
HETATM   26  C6  UNL     1      15.701  22.032  15.486  1.00  0.00     0.160 C 
BRANCH  26  27
HETATM   27  C5  UNL     1      14.465  21.343  15.004  1.00  0.00     0.017 A 
HETATM   28  C4  UNL     1      14.601  20.460  13.956  1.00  0.00     0.026 A 
HETATM   29  C3  UNL     1      13.502  19.795  13.473  1.00  0.00     0.010 A 
HETATM   30  C2  UNL     1      12.255  20.031  14.063  1.00  0.00    -0.047 A 
HETATM   31  C1  UNL     1      11.049  19.316  13.554  1.00  0.00     0.049 C 
HETATM   32  C31 UNL     1      12.171  20.918  15.101  1.00  0.00     0.094 A 
HETATM   33  N7  UNL     1      13.259  21.579  15.582  1.00  0.00    -0.368 N 
ATOM     34  H7  UNL     1      13.171  22.236  16.357  1.00  0.00     0.165 HD
ENDBRANCH  26  27
ENDBRANCH  23  26
ENDBRANCH  14  15
ENDBRANCH  13  14
ENDBRANCH  12  13
ENDBRANCH  11  12
ENDBRANCH  10  11
ENDBRANCH   1  10
BRANCH   7  35
HETATM   35  C16 UNL     1      15.450  20.666  18.828  1.00  0.00     0.121 C 
BRANCH  35  36
HETATM   36  O2  UNL     1      14.524  21.513  19.195  1.00  0.00    -0.349 OA
ATOM     37  H2  UNL     1      14.320  22.166  18.536  1.00  0.00     0.219 HD
ENDBRANCH  35  36
BRANCH  35  38
HETATM   38  C17 UNL     1      15.025  19.436  18.107  1.00  0.00     0.122 C 
BRANCH  38  39
HETATM   39  C18 UNL     1      13.786  18.916  18.793  1.00  0.00    -0.050 A 
HETATM   40  C19 UNL     1      13.788  18.667  20.147  1.00  0.00     0.007 A 
HETATM   41  C20 UNL     1      12.614  18.176  20.732  1.00  0.00     0.001 A 
HETATM   42  C21 UNL     1      11.483  17.948  19.972  1.00  0.00     0.007 A 
HETATM   43  C22 UNL     1      11.477  18.196  18.617  1.00  0.00    -0.053 A 
HETATM   44  C30 UNL     1      12.642  18.678  18.064  1.00  0.00     0.015 A 
BRANCH  43  45
HETATM   45  C23 UNL     1      10.274  17.942  17.786  1.00  0.00     0.077 C 
BRANCH  45  46
HETATM   46  C24 UNL     1      10.299  16.648  17.115  1.00  0.00    -0.054 A 
HETATM   47  C25 UNL     1      10.044  15.493  17.810  1.00  0.00     0.007 A 
HETATM   48  C26 UNL     1      10.062  14.245  17.207  1.00  0.00     0.001 A 
HETATM   49  C27 UNL     1      10.347  14.167  15.859  1.00  0.00     0.000 A 
HETATM   50  C28 UNL     1      10.605  15.291  15.135  1.00  0.00     0.001 A 
HETATM   51  C29 UNL     1      10.578  16.535  15.776  1.00  0.00     0.007 A 
ENDBRANCH  45  46
ENDBRANCH  43  45
ENDBRANCH  38  39
ENDBRANCH  35  38
ENDBRANCH   7  35
TORSDOF 14
ENDMDL
MODEL 5
REMARK VINA RESULT: -9.708962407      3.114      9.904
REMARK  14 active torsions:
REMARK  status: ('A' for Active; 'I' for Inactive)
REMARK    1  A    between atoms: C5_5  and  C6_6 
REMARK    2  A    between atoms: C6_6  and  C7_7 
REMARK       I    between atoms: C7_7  and  N1_9 
REMARK    3  A    between atoms: C9_16  and  C10_17 
REMARK    4  A    between atoms: C10_17  and  C11_18 
REMARK    5  A    between atoms: C11_18  and  S1_19 
REMARK    6  A    between atoms: S1_19  and  C12_20 
REMARK    7  A    between atoms: C12_20  and  C13_21 
REMARK    8  A    between atoms: C13_21  and  C14_22 
REMARK    9  A    between atoms: N6_28  and  C16_30 
REMARK   10  A    between atoms: C16_30  and  O2_31 
REMARK   11  A    between atoms: C16_30  and  C17_33 
REMARK   12  A    between atoms: C17_33  and  C18_34 
REMARK   13  A    between atoms: C22_38  and  C23_39 
REMARK   14  A    between atoms: C23_39  and  C24_40 
ROOT
HETATM    1  C14 UNL     1      10.651  16.785  14.164  1.00  0.00     0.070 A 
HETATM    2  N4  UNL     1      11.613  16.439  13.328  1.00  0.00    -0.296 N 
ATOM      3  H4  UNL     1      11.710  15.463  13.046  1.00  0.00     0.187 HD
HETATM    4  N5  UNL     1      12.419  17.309  12.874  1.00  0.00    -0.279 N 
ATOM      5  H5  UNL     1      13.158  17.032  12.227  1.00  0.00     0.189 HD
HETATM    6  C15 UNL     1      12.299  18.580  13.240  1.00  0.00     0.166 A 
HETATM    7  N6  UNL     1      12.943  19.643  12.971  1.00  0.00    -0.320 N 
ATOM      8  H6  UNL     1      12.579  20.479  13.429  1.00  0.00     0.169 HD
HETATM    9  S2  UNL     1      10.913  18.458  14.312  1.00  0.00    -0.038 SA
ENDROOT
BRANCH   1  10
HETATM   10  C13 UNL     1       9.613  15.896  14.810  1.00  0.00     0.076 C 
BRANCH  10  11
HETATM   11  C12 UNL     1      10.363  14.913  15.702  1.00  0.00     0.080 C 
BRANCH  11  12
HETATM   12  S1  UNL     1      10.518  15.443  17.369  1.00  0.00    -0.168 SA
BRANCH  12  13
HETATM   13  C11 UNL     1      10.156  17.091  17.825  1.00  0.00     0.080 C 
BRANCH  13  14
HETATM   14  C10 UNL     1      10.928  17.784  18.885  1.00  0.00     0.076 C 
BRANCH  14  15
HETATM   15  C9  UNL     1      11.835  18.825  18.356  1.00  0.00     0.070 A 
HETATM   16  N3  UNL     1      11.599  19.823  17.518  1.00  0.00    -0.296 N 
HETATM   17  N2  UNL     1      12.514  20.622  17.175  1.00  0.00    -0.279 N 
ATOM     18  H3  UNL     1      10.659  19.949  17.142  1.00  0.00     0.187 HD
HETATM   19  C8  UNL     1      13.746  20.447  17.675  1.00  0.00     0.167 A 
ATOM     20  H2  UNL     1      12.320  21.386  16.529  1.00  0.00     0.189 HD
HETATM   21  N1  UNL     1      14.806  21.184  17.427  1.00  0.00    -0.306 N 
HETATM   22  S3  UNL     1      13.524  19.075  18.666  1.00  0.00    -0.038 SA
HETATM   23  C7  UNL     1      16.008  20.797  18.078  1.00  0.00     0.229 C 
ATOM     24  H1  UNL     1      14.768  21.989  16.801  1.00  0.00     0.171 HD
HETATM   25  O1  UNL     1      16.964  20.290  17.399  1.00  0.00    -0.273 OA
BRANCH  23  26
HETATM   26  C6  UNL     1      16.191  20.965  19.532  1.00  0.00     0.160 C 
BRANCH  26  27
HETATM   27  C5  UNL     1      17.170  22.075  19.747  1.00  0.00     0.017 A 
HETATM   28  C4  UNL     1      18.345  21.763  20.393  1.00  0.00     0.026 A 
HETATM   29  C3  UNL     1      19.285  22.739  20.615  1.00  0.00     0.010 A 
HETATM   30  C2  UNL     1      19.024  24.042  20.174  1.00  0.00    -0.047 A 
HETATM   31  C1  UNL     1      20.034  25.116  20.403  1.00  0.00     0.049 C 
HETATM   32  C31 UNL     1      17.842  24.302  19.538  1.00  0.00     0.094 A 
HETATM   33  N7  UNL     1      16.908  23.335  19.317  1.00  0.00    -0.368 N 
ATOM     34  H7  UNL     1      16.033  23.553  18.839  1.00  0.00     0.165 HD
ENDBRANCH  26  27
ENDBRANCH  23  26
ENDBRANCH  14  15
ENDBRANCH  13  14
ENDBRANCH  12  13
ENDBRANCH  11  12
ENDBRANCH  10  11
ENDBRANCH   1  10
BRANCH   7  35
HETATM   35  C16 UNL     1      14.042  19.874  12.173  1.00  0.00     0.121 C 
BRANCH  35  36
HETATM   36  O2  UNL     1      14.644  18.784  11.776  1.00  0.00    -0.349 OA
ATOM     37  H2  UNL     1      15.582  18.787  11.927  1.00  0.00     0.219 HD
ENDBRANCH  35  36
BRANCH  35  38
HETATM   38  C17 UNL     1      14.601  21.181  11.730  1.00  0.00     0.122 C 
BRANCH  38  39
HETATM   39  C18 UNL     1      14.578  22.107  12.921  1.00  0.00    -0.050 A 
HETATM   40  C19 UNL     1      13.427  22.781  13.262  1.00  0.00     0.007 A 
HETATM   41  C20 UNL     1      13.464  23.637  14.370  1.00  0.00     0.001 A 
HETATM   42  C21 UNL     1      14.625  23.801  15.103  1.00  0.00     0.007 A 
HETATM   43  C22 UNL     1      15.778  23.128  14.764  1.00  0.00    -0.053 A 
HETATM   44  C30 UNL     1      15.718  22.294  13.672  1.00  0.00     0.015 A 
BRANCH  43  45
HETATM   45  C23 UNL     1      17.034  23.307  15.534  1.00  0.00     0.077 C 
BRANCH  45  46
HETATM   46  C24 UNL     1      17.919  24.318  14.968  1.00  0.00    -0.054 A 
HETATM   47  C25 UNL     1      19.272  24.104  14.895  1.00  0.00     0.007 A 
HETATM   48  C26 UNL     1      20.144  25.043  14.366  1.00  0.00     0.001 A 
HETATM   49  C27 UNL     1      19.627  26.234  13.898  1.00  0.00     0.000 A 
HETATM   50  C28 UNL     1      18.290  26.483  13.953  1.00  0.00     0.001 A 
HETATM   51  C29 UNL     1      17.438  25.513  14.493  1.00  0.00     0.007 A 
ENDBRANCH  45  46
ENDBRANCH  43  45
ENDBRANCH  38  39
ENDBRANCH  35  38
ENDBRANCH   7  35
TORSDOF 14
ENDMDL
