MODEL 1
REMARK VINA RESULT: -7.390353940      0.000      0.000
REMARK  15 active torsions:
REMARK  status: ('A' for Active; 'I' for Inactive)
REMARK    1  A    between atoms: C2_2  and  C3_3 
REMARK    2  A    between atoms: C3_3  and  C4_4 
REMARK    3  A    between atoms: C4_4  and  C5_5 
REMARK    4  A    between atoms: C5_5  and  C6_6 
REMARK    5  A    between atoms: C6_6  and  C7_7 
REMARK    6  A    between atoms: C7_7  and  C10_10 
REMARK    7  A    between atoms: C11_13  and  O1_14 
REMARK    8  A    between atoms: C12_16  and  C13_17 
REMARK    9  A    between atoms: C13_17  and  C15_19 
REMARK   10  A    between atoms: C18_23  and  O2_24 
REMARK   11  A    between atoms: C19_26  and  C20_27 
REMARK   12  A    between atoms: C20_27  and  C21_28 
REMARK   13  A    between atoms: C29_40  and  C30_41 
REMARK   14  A    between atoms: C30_41  and  C31_42 
REMARK   15  A    between atoms: C31_42  and  S1_43 
ROOT
HETATM    1  C10 UNL     1      20.530  25.125  17.768  1.00  0.00     0.125 C 
HETATM    2  N1  UNL     1      20.236  25.791  19.031  1.00  0.00    -0.360 N 
ATOM      3  H1  UNL     1      19.768  26.688  18.902  1.00  0.00     0.162 HD
HETATM    4  C11 UNL     1      20.443  25.486  20.357  1.00  0.00     0.160 C 
HETATM    5  C12 UNL     1      21.647  25.351  21.221  1.00  0.00     0.067 C 
HETATM    6  N2  UNL     1      22.427  24.190  20.953  1.00  0.00    -0.333 N 
HETATM    7  C17 UNL     1      21.964  23.001  21.775  1.00  0.00     0.158 C 
HETATM    8  C18 UNL     1      23.481  23.848  20.120  1.00  0.00     0.148 C 
HETATM    9  C19 UNL     1      24.820  24.309  19.812  1.00  0.00     0.210 C 
HETATM   10  O5  UNL     1      25.139  25.580  19.536  1.00  0.00    -0.306 OA
HETATM   11  C28 UNL     1      24.876  26.575  18.705  1.00  0.00     0.282 C 
HETATM   12  O6  UNL     1      25.194  27.758  19.094  1.00  0.00    -0.263 OA
HETATM   13  C29 UNL     1      24.251  26.533  17.356  1.00  0.00     0.185 C 
HETATM   14  N3  UNL     1      23.183  27.495  17.239  1.00  0.00    -0.344 N 
ATOM     15  H3  UNL     1      23.471  28.464  17.098  1.00  0.00     0.163 HD
HETATM   16  C33 UNL     1      21.796  27.272  17.294  1.00  0.00     0.246 C 
HETATM   17  O7  UNL     1      21.134  28.252  17.798  1.00  0.00    -0.268 OA
HETATM   18  C34 UNL     1      21.176  26.026  16.813  1.00  0.00     0.007 C 
HETATM   19  C35 UNL     1      20.471  26.325  15.513  1.00  0.00     0.051 C 
ENDROOT
BRANCH   9  20
HETATM   20  C20 UNL     1      25.847  23.775  20.863  1.00  0.00     0.079 C 
BRANCH  20  21
HETATM   21  C21 UNL     1      26.433  22.512  20.434  1.00  0.00    -0.052 A 
HETATM   22  C22 UNL     1      26.043  21.939  19.244  1.00  0.00     0.010 A 
HETATM   23  C23 UNL     1      26.620  20.733  18.868  1.00  0.00     0.040 A 
HETATM   24  C24 UNL     1      27.566  20.099  19.651  1.00  0.00     0.105 A 
HETATM   25  C25 UNL     1      27.948  20.671  20.827  1.00  0.00     0.105 A 
HETATM   26  O4  UNL     1      28.285  18.899  19.500  1.00  0.00    -0.323 OA
HETATM   27  C26 UNL     1      27.375  21.882  21.213  1.00  0.00     0.047 A 
HETATM   28  O3  UNL     1      28.895  19.828  21.393  1.00  0.00    -0.323 OA
HETATM   29  C27 UNL     1      29.243  18.795  20.509  1.00  0.00     0.352 C 
ENDBRANCH  20  21
ENDBRANCH   9  20
BRANCH   8  30
HETATM   30  O2  UNL     1      23.168  22.780  19.393  1.00  0.00    -0.347 OA
ATOM     31  H2  UNL     1      23.909  22.513  18.861  1.00  0.00     0.219 HD
ENDBRANCH   8  30
BRANCH   5  32
HETATM   32  C13 UNL     1      22.291  26.660  21.533  1.00  0.00     0.036 C 
HETATM   33  C14 UNL     1      23.576  26.529  22.302  1.00  0.00     0.016 C 
BRANCH  32  34
HETATM   34  C15 UNL     1      21.400  27.424  22.492  1.00  0.00     0.006 C 
HETATM   35  C16 UNL     1      21.777  27.291  23.930  1.00  0.00     0.006 C 
ENDBRANCH  32  34
ENDBRANCH   5  32
BRANCH  13  36
HETATM   36  C30 UNL     1      25.333  26.718  16.327  1.00  0.00     0.045 C 
BRANCH  36  37
HETATM   37  C31 UNL     1      25.347  27.984  15.576  1.00  0.00     0.076 C 
BRANCH  37  38
HETATM   38  S1  UNL     1      26.902  28.857  16.018  1.00  0.00    -0.173 SA
HETATM   39  C32 UNL     1      28.018  27.765  16.902  1.00  0.00     0.089 C 
ENDBRANCH  37  38
ENDBRANCH  36  37
ENDBRANCH  13  36
BRANCH   4  40
HETATM   40  O1  UNL     1      19.328  25.263  21.022  1.00  0.00    -0.345 OA
ATOM     41  H1  UNL     1      19.473  24.902  21.889  1.00  0.00     0.219 HD
ENDBRANCH   4  40
BRANCH   1  42
HETATM   42  C7  UNL     1      19.271  24.396  17.329  1.00  0.00    -0.023 C 
HETATM   43  C8  UNL     1      18.010  25.132  17.674  1.00  0.00     0.017 C 
HETATM   44  C9  UNL     1      19.231  23.138  18.232  1.00  0.00     0.017 C 
BRANCH  42  45
HETATM   45  C6  UNL     1      19.215  23.874  15.958  1.00  0.00     0.011 C 
BRANCH  45  46
HETATM   46  C5  UNL     1      17.904  24.019  15.242  1.00  0.00     0.001 C 
BRANCH  46  47
HETATM   47  C4  UNL     1      17.228  22.668  15.211  1.00  0.00     0.000 C 
BRANCH  47  48
HETATM   48  C3  UNL     1      15.939  22.661  14.417  1.00  0.00    -0.000 C 
BRANCH  48  49
HETATM   49  C2  UNL     1      15.029  23.795  14.851  1.00  0.00    -0.005 C 
HETATM   50  C1  UNL     1      13.583  23.428  14.565  1.00  0.00     0.005 C 
ENDBRANCH  48  49
ENDBRANCH  47  48
ENDBRANCH  46  47
ENDBRANCH  45  46
ENDBRANCH  42  45
ENDBRANCH   1  42
TORSDOF 15
ENDMDL
MODEL 2
REMARK VINA RESULT: -7.334699513      0.766      1.280
REMARK  15 active torsions:
REMARK  status: ('A' for Active; 'I' for Inactive)
REMARK    1  A    between atoms: C2_2  and  C3_3 
REMARK    2  A    between atoms: C3_3  and  C4_4 
REMARK    3  A    between atoms: C4_4  and  C5_5 
REMARK    4  A    between atoms: C5_5  and  C6_6 
REMARK    5  A    between atoms: C6_6  and  C7_7 
REMARK    6  A    between atoms: C7_7  and  C10_10 
REMARK    7  A    between atoms: C11_13  and  O1_14 
REMARK    8  A    between atoms: C12_16  and  C13_17 
REMARK    9  A    between atoms: C13_17  and  C15_19 
REMARK   10  A    between atoms: C18_23  and  O2_24 
REMARK   11  A    between atoms: C19_26  and  C20_27 
REMARK   12  A    between atoms: C20_27  and  C21_28 
REMARK   13  A    between atoms: C29_40  and  C30_41 
REMARK   14  A    between atoms: C30_41  and  C31_42 
REMARK   15  A    between atoms: C31_42  and  S1_43 
ROOT
HETATM    1  C10 UNL     1      20.518  25.070  17.902  1.00  0.00     0.125 C 
HETATM    2  N1  UNL     1      20.284  25.734  19.179  1.00  0.00    -0.360 N 
ATOM      3  H1  UNL     1      19.791  26.620  19.076  1.00  0.00     0.162 HD
HETATM    4  C11 UNL     1      20.574  25.438  20.491  1.00  0.00     0.160 C 
HETATM    5  C12 UNL     1      21.830  25.331  21.283  1.00  0.00     0.067 C 
HETATM    6  N2  UNL     1      22.616  24.185  20.972  1.00  0.00    -0.333 N 
HETATM    7  C17 UNL     1      22.228  22.990  21.822  1.00  0.00     0.158 C 
HETATM    8  C18 UNL     1      23.627  23.863  20.080  1.00  0.00     0.148 C 
HETATM    9  C19 UNL     1      24.936  24.350  19.694  1.00  0.00     0.210 C 
HETATM   10  O5  UNL     1      25.211  25.627  19.397  1.00  0.00    -0.306 OA
HETATM   11  C28 UNL     1      24.880  26.613  18.580  1.00  0.00     0.282 C 
HETATM   12  O6  UNL     1      25.195  27.805  18.948  1.00  0.00    -0.263 OA
HETATM   13  C29 UNL     1      24.177  26.555  17.270  1.00  0.00     0.185 C 
HETATM   14  N3  UNL     1      23.085  27.494  17.214  1.00  0.00    -0.344 N 
ATOM     15  H3  UNL     1      23.344  28.467  17.055  1.00  0.00     0.163 HD
HETATM   16  C33 UNL     1      21.709  27.242  17.351  1.00  0.00     0.246 C 
HETATM   17  O7  UNL     1      21.056  28.210  17.890  1.00  0.00    -0.268 OA
HETATM   18  C34 UNL     1      21.088  25.981  16.909  1.00  0.00     0.007 C 
HETATM   19  C35 UNL     1      20.302  26.262  15.652  1.00  0.00     0.051 C 
ENDROOT
BRANCH   9  20
HETATM   20  C20 UNL     1      26.034  23.841  20.684  1.00  0.00     0.079 C 
BRANCH  20  21
HETATM   21  C21 UNL     1      26.476  22.498  20.336  1.00  0.00    -0.052 A 
HETATM   22  C22 UNL     1      27.466  21.884  21.070  1.00  0.00     0.010 A 
HETATM   23  C23 UNL     1      27.864  20.604  20.706  1.00  0.00     0.040 A 
HETATM   24  C24 UNL     1      27.297  19.937  19.637  1.00  0.00     0.105 A 
HETATM   25  C25 UNL     1      26.318  20.549  18.915  1.00  0.00     0.105 A 
HETATM   26  O4  UNL     1      27.519  18.666  19.076  1.00  0.00    -0.323 OA
HETATM   27  C26 UNL     1      25.911  21.834  19.271  1.00  0.00     0.047 A 
HETATM   28  O3  UNL     1      25.940  19.660  17.918  1.00  0.00    -0.323 OA
HETATM   29  C27 UNL     1      26.560  18.413  18.094  1.00  0.00     0.352 C 
ENDBRANCH  20  21
ENDBRANCH   9  20
BRANCH   8  30
HETATM   30  O2  UNL     1      23.295  22.786  19.375  1.00  0.00    -0.347 OA
ATOM     31  H2  UNL     1      23.684  22.008  19.757  1.00  0.00     0.219 HD
ENDBRANCH   8  30
BRANCH   5  32
HETATM   32  C13 UNL     1      22.463  26.654  21.554  1.00  0.00     0.036 C 
HETATM   33  C14 UNL     1      23.741  26.558  22.341  1.00  0.00     0.016 C 
BRANCH  32  34
HETATM   34  C15 UNL     1      21.558  27.446  22.477  1.00  0.00     0.006 C 
HETATM   35  C16 UNL     1      21.831  27.253  23.932  1.00  0.00     0.006 C 
ENDBRANCH  32  34
ENDBRANCH   5  32
BRANCH  13  36
HETATM   36  C30 UNL     1      25.194  26.759  16.180  1.00  0.00     0.045 C 
BRANCH  36  37
HETATM   37  C31 UNL     1      25.215  28.068  15.508  1.00  0.00     0.076 C 
BRANCH  37  38
HETATM   38  S1  UNL     1      26.979  28.506  15.234  1.00  0.00    -0.173 SA
HETATM   39  C32 UNL     1      27.971  28.085  16.668  1.00  0.00     0.089 C 
ENDBRANCH  37  38
ENDBRANCH  36  37
ENDBRANCH  13  36
BRANCH   4  40
HETATM   40  O1  UNL     1      19.505  25.193  21.220  1.00  0.00    -0.345 OA
ATOM     41  H1  UNL     1      19.663  25.264  22.155  1.00  0.00     0.219 HD
ENDBRANCH   4  40
BRANCH   1  42
HETATM   42  C7  UNL     1      19.251  24.313  17.539  1.00  0.00    -0.023 C 
HETATM   43  C8  UNL     1      17.996  25.048  17.910  1.00  0.00     0.017 C 
HETATM   44  C9  UNL     1      19.262  23.087  18.484  1.00  0.00     0.017 C 
BRANCH  42  45
HETATM   45  C6  UNL     1      19.146  23.745  16.190  1.00  0.00     0.011 C 
BRANCH  45  46
HETATM   46  C5  UNL     1      17.875  23.014  15.871  1.00  0.00     0.001 C 
BRANCH  46  47
HETATM   47  C4  UNL     1      17.194  23.723  14.724  1.00  0.00     0.000 C 
BRANCH  47  48
HETATM   48  C3  UNL     1      15.768  23.268  14.499  1.00  0.00    -0.000 C 
BRANCH  48  49
HETATM   49  C2  UNL     1      15.702  22.211  13.411  1.00  0.00    -0.005 C 
HETATM   50  C1  UNL     1      14.907  22.742  12.231  1.00  0.00     0.005 C 
ENDBRANCH  48  49
ENDBRANCH  47  48
ENDBRANCH  46  47
ENDBRANCH  45  46
ENDBRANCH  42  45
ENDBRANCH   1  42
TORSDOF 15
ENDMDL
MODEL 3
REMARK VINA RESULT: -7.297710220      1.016      1.591
REMARK  15 active torsions:
REMARK  status: ('A' for Active; 'I' for Inactive)
REMARK    1  A    between atoms: C2_2  and  C3_3 
REMARK    2  A    between atoms: C3_3  and  C4_4 
REMARK    3  A    between atoms: C4_4  and  C5_5 
REMARK    4  A    between atoms: C5_5  and  C6_6 
REMARK    5  A    between atoms: C6_6  and  C7_7 
REMARK    6  A    between atoms: C7_7  and  C10_10 
REMARK    7  A    between atoms: C11_13  and  O1_14 
REMARK    8  A    between atoms: C12_16  and  C13_17 
REMARK    9  A    between atoms: C13_17  and  C15_19 
REMARK   10  A    between atoms: C18_23  and  O2_24 
REMARK   11  A    between atoms: C19_26  and  C20_27 
REMARK   12  A    between atoms: C20_27  and  C21_28 
REMARK   13  A    between atoms: C29_40  and  C30_41 
REMARK   14  A    between atoms: C30_41  and  C31_42 
REMARK   15  A    between atoms: C31_42  and  S1_43 
ROOT
HETATM    1  C10 UNL     1      20.487  25.021  17.975  1.00  0.00     0.125 C 
HETATM    2  N1  UNL     1      20.272  25.680  19.258  1.00  0.00    -0.360 N 
ATOM      3  H1  UNL     1      19.769  26.563  19.165  1.00  0.00     0.162 HD
HETATM    4  C11 UNL     1      20.590  25.386  20.564  1.00  0.00     0.160 C 
HETATM    5  C12 UNL     1      21.862  25.289  21.331  1.00  0.00     0.067 C 
HETATM    6  N2  UNL     1      22.652  24.151  21.004  1.00  0.00    -0.333 N 
HETATM    7  C17 UNL     1      22.291  22.951  21.859  1.00  0.00     0.158 C 
HETATM    8  C18 UNL     1      23.648  23.838  20.092  1.00  0.00     0.148 C 
HETATM    9  C19 UNL     1      24.945  24.338  19.681  1.00  0.00     0.210 C 
HETATM   10  O5  UNL     1      25.203  25.617  19.380  1.00  0.00    -0.306 OA
HETATM   11  C28 UNL     1      24.848  26.602  18.572  1.00  0.00     0.282 C 
HETATM   12  O6  UNL     1      25.160  27.795  18.935  1.00  0.00    -0.263 OA
HETATM   13  C29 UNL     1      24.121  26.538  17.276  1.00  0.00     0.185 C 
HETATM   14  N3  UNL     1      23.019  27.468  17.242  1.00  0.00    -0.344 N 
ATOM     15  H3  UNL     1      23.267  28.444  17.079  1.00  0.00     0.163 HD
HETATM   16  C33 UNL     1      21.648  27.204  17.404  1.00  0.00     0.246 C 
HETATM   17  O7  UNL     1      20.998  28.165  17.958  1.00  0.00    -0.268 OA
HETATM   18  C34 UNL     1      21.030  25.938  16.973  1.00  0.00     0.007 C 
HETATM   19  C35 UNL     1      20.218  26.213  15.732  1.00  0.00     0.051 C 
ENDROOT
BRANCH   9  20
HETATM   20  C20 UNL     1      26.066  23.838  20.649  1.00  0.00     0.079 C 
BRANCH  20  21
HETATM   21  C21 UNL     1      26.492  22.486  20.309  1.00  0.00    -0.052 A 
HETATM   22  C22 UNL     1      27.470  21.862  21.052  1.00  0.00     0.010 A 
HETATM   23  C23 UNL     1      27.853  20.576  20.697  1.00  0.00     0.040 A 
HETATM   24  C24 UNL     1      27.283  19.912  19.627  1.00  0.00     0.105 A 
HETATM   25  C25 UNL     1      26.317  20.534  18.896  1.00  0.00     0.105 A 
HETATM   26  O4  UNL     1      27.491  18.636  19.073  1.00  0.00    -0.323 OA
HETATM   27  C26 UNL     1      25.925  21.826  19.244  1.00  0.00     0.047 A 
HETATM   28  O3  UNL     1      25.933  19.646  17.901  1.00  0.00    -0.323 OA
HETATM   29  C27 UNL     1      26.534  18.391  18.086  1.00  0.00     0.352 C 
ENDBRANCH  20  21
ENDBRANCH   9  20
BRANCH   8  30
HETATM   30  O2  UNL     1      23.312  22.760  19.392  1.00  0.00    -0.347 OA
ATOM     31  H2  UNL     1      22.926  23.011  18.560  1.00  0.00     0.219 HD
ENDBRANCH   8  30
BRANCH   5  32
HETATM   32  C13 UNL     1      22.488  26.618  21.592  1.00  0.00     0.036 C 
HETATM   33  C14 UNL     1      23.771  26.534  22.371  1.00  0.00     0.016 C 
BRANCH  32  34
HETATM   34  C15 UNL     1      21.584  27.409  22.516  1.00  0.00     0.006 C 
HETATM   35  C16 UNL     1      21.876  27.236  23.970  1.00  0.00     0.006 C 
ENDBRANCH  32  34
ENDBRANCH   5  32
BRANCH  13  36
HETATM   36  C30 UNL     1      25.114  26.752  16.166  1.00  0.00     0.045 C 
BRANCH  36  37
HETATM   37  C31 UNL     1      25.163  28.087  15.547  1.00  0.00     0.076 C 
BRANCH  37  38
HETATM   38  S1  UNL     1      26.927  28.449  15.182  1.00  0.00    -0.173 SA
HETATM   39  C32 UNL     1      27.957  28.112  16.612  1.00  0.00     0.089 C 
ENDBRANCH  37  38
ENDBRANCH  36  37
ENDBRANCH  13  36
BRANCH   4  40
HETATM   40  O1  UNL     1      19.538  25.131  21.313  1.00  0.00    -0.345 OA
ATOM     41  H1  UNL     1      19.291  24.213  21.316  1.00  0.00     0.219 HD
ENDBRANCH   4  40
BRANCH   1  42
HETATM   42  C7  UNL     1      19.221  24.253  17.636  1.00  0.00    -0.023 C 
HETATM   43  C8  UNL     1      17.968  24.951  18.080  1.00  0.00     0.017 C 
HETATM   44  C9  UNL     1      19.290  22.996  18.537  1.00  0.00     0.017 C 
BRANCH  42  45
HETATM   45  C6  UNL     1      19.073  23.728  16.273  1.00  0.00     0.011 C 
BRANCH  45  46
HETATM   46  C5  UNL     1      17.685  23.740  15.700  1.00  0.00     0.001 C 
BRANCH  46  47
HETATM   47  C4  UNL     1      17.191  22.314  15.626  1.00  0.00     0.000 C 
BRANCH  47  48
HETATM   48  C3  UNL     1      16.132  21.993  16.660  1.00  0.00    -0.000 C 
BRANCH  48  49
HETATM   49  C2  UNL     1      16.593  20.877  17.579  1.00  0.00    -0.005 C 
HETATM   50  C1  UNL     1      16.041  21.104  18.975  1.00  0.00     0.005 C 
ENDBRANCH  48  49
ENDBRANCH  47  48
ENDBRANCH  46  47
ENDBRANCH  45  46
ENDBRANCH  42  45
ENDBRANCH   1  42
TORSDOF 15
ENDMDL
MODEL 4
REMARK VINA RESULT: -7.253562400      1.023      1.435
REMARK  15 active torsions:
REMARK  status: ('A' for Active; 'I' for Inactive)
REMARK    1  A    between atoms: C2_2  and  C3_3 
REMARK    2  A    between atoms: C3_3  and  C4_4 
REMARK    3  A    between atoms: C4_4  and  C5_5 
REMARK    4  A    between atoms: C5_5  and  C6_6 
REMARK    5  A    between atoms: C6_6  and  C7_7 
REMARK    6  A    between atoms: C7_7  and  C10_10 
REMARK    7  A    between atoms: C11_13  and  O1_14 
REMARK    8  A    between atoms: C12_16  and  C13_17 
REMARK    9  A    between atoms: C13_17  and  C15_19 
REMARK   10  A    between atoms: C18_23  and  O2_24 
REMARK   11  A    between atoms: C19_26  and  C20_27 
REMARK   12  A    between atoms: C20_27  and  C21_28 
REMARK   13  A    between atoms: C29_40  and  C30_41 
REMARK   14  A    between atoms: C30_41  and  C31_42 
REMARK   15  A    between atoms: C31_42  and  S1_43 
ROOT
HETATM    1  C10 UNL     1      20.569  25.073  17.697  1.00  0.00     0.125 C 
HETATM    2  N1  UNL     1      20.235  25.746  18.947  1.00  0.00    -0.360 N 
ATOM      3  H1  UNL     1      19.749  26.630  18.800  1.00  0.00     0.162 HD
HETATM    4  C11 UNL     1      20.425  25.462  20.280  1.00  0.00     0.160 C 
HETATM    5  C12 UNL     1      21.616  25.366  21.168  1.00  0.00     0.067 C 
HETATM    6  N2  UNL     1      22.428  24.221  20.927  1.00  0.00    -0.333 N 
HETATM    7  C17 UNL     1      21.979  23.030  21.754  1.00  0.00     0.158 C 
HETATM    8  C18 UNL     1      23.505  23.895  20.118  1.00  0.00     0.148 C 
HETATM    9  C19 UNL     1      24.838  24.384  19.829  1.00  0.00     0.210 C 
HETATM   10  O5  UNL     1      25.132  25.659  19.544  1.00  0.00    -0.306 OA
HETATM   11  C28 UNL     1      24.861  26.638  18.696  1.00  0.00     0.282 C 
HETATM   12  O6  UNL     1      25.143  27.834  19.077  1.00  0.00    -0.263 OA
HETATM   13  C29 UNL     1      24.262  26.566  17.337  1.00  0.00     0.185 C 
HETATM   14  N3  UNL     1      23.173  27.501  17.189  1.00  0.00    -0.344 N 
ATOM     15  H3  UNL     1      23.441  28.474  17.043  1.00  0.00     0.163 HD
HETATM   16  C33 UNL     1      21.792  27.245  17.221  1.00  0.00     0.246 C 
HETATM   17  O7  UNL     1      21.097  28.215  17.702  1.00  0.00    -0.268 OA
HETATM   18  C34 UNL     1      21.211  25.979  16.744  1.00  0.00     0.007 C 
HETATM   19  C35 UNL     1      20.523  26.247  15.428  1.00  0.00     0.051 C 
ENDROOT
BRANCH   9  20
HETATM   20  C20 UNL     1      25.859  23.887  20.905  1.00  0.00     0.079 C 
BRANCH  20  21
HETATM   21  C21 UNL     1      26.446  22.609  20.524  1.00  0.00    -0.052 A 
HETATM   22  C22 UNL     1      26.070  21.999  19.348  1.00  0.00     0.010 A 
HETATM   23  C23 UNL     1      26.648  20.780  19.019  1.00  0.00     0.040 A 
HETATM   24  C24 UNL     1      27.581  20.169  19.835  1.00  0.00     0.105 A 
HETATM   25  C25 UNL     1      27.950  20.777  20.997  1.00  0.00     0.105 A 
HETATM   26  O4  UNL     1      28.298  18.963  19.732  1.00  0.00    -0.323 OA
HETATM   27  C26 UNL     1      27.375  22.002  21.337  1.00  0.00     0.047 A 
HETATM   28  O3  UNL     1      28.886  19.951  21.603  1.00  0.00    -0.323 OA
HETATM   29  C27 UNL     1      29.243  18.889  20.757  1.00  0.00     0.352 C 
ENDBRANCH  20  21
ENDBRANCH   9  20
BRANCH   8  30
HETATM   30  O2  UNL     1      23.232  22.811  19.398  1.00  0.00    -0.347 OA
ATOM     31  H2  UNL     1      22.601  23.017  18.717  1.00  0.00     0.219 HD
ENDBRANCH   8  30
BRANCH   5  32
HETATM   32  C13 UNL     1      22.223  26.693  21.476  1.00  0.00     0.036 C 
HETATM   33  C14 UNL     1      23.521  26.600  22.229  1.00  0.00     0.016 C 
BRANCH  32  34
HETATM   34  C15 UNL     1      21.320  27.426  22.449  1.00  0.00     0.006 C 
HETATM   35  C16 UNL     1      21.686  27.256  23.885  1.00  0.00     0.006 C 
ENDBRANCH  32  34
ENDBRANCH   5  32
BRANCH  13  36
HETATM   36  C30 UNL     1      25.358  26.766  16.326  1.00  0.00     0.045 C 
BRANCH  36  37
HETATM   37  C31 UNL     1      25.390  28.047  15.603  1.00  0.00     0.076 C 
BRANCH  37  38
HETATM   38  S1  UNL     1      26.930  28.914  16.107  1.00  0.00    -0.173 SA
HETATM   39  C32 UNL     1      28.050  27.789  16.943  1.00  0.00     0.089 C 
ENDBRANCH  37  38
ENDBRANCH  36  37
ENDBRANCH  13  36
BRANCH   4  40
HETATM   40  O1  UNL     1      19.304  25.219  20.927  1.00  0.00    -0.345 OA
ATOM     41  H1  UNL     1      18.894  24.399  20.676  1.00  0.00     0.219 HD
ENDBRANCH   4  40
BRANCH   1  42
HETATM   42  C7  UNL     1      19.336  24.309  17.245  1.00  0.00    -0.023 C 
HETATM   43  C8  UNL     1      19.267  24.124  15.757  1.00  0.00     0.017 C 
HETATM   44  C9  UNL     1      18.162  25.268  17.559  1.00  0.00     0.017 C 
BRANCH  42  45
HETATM   45  C6  UNL     1      18.999  23.063  17.944  1.00  0.00     0.011 C 
BRANCH  45  46
HETATM   46  C5  UNL     1      18.537  21.920  17.086  1.00  0.00     0.001 C 
BRANCH  46  47
HETATM   47  C4  UNL     1      17.629  21.042  17.914  1.00  0.00     0.000 C 
BRANCH  47  48
HETATM   48  C3  UNL     1      16.978  21.773  19.069  1.00  0.00    -0.000 C 
BRANCH  48  49
HETATM   49  C2  UNL     1      15.469  21.792  18.917  1.00  0.00    -0.005 C 
HETATM   50  C1  UNL     1      15.058  22.962  18.040  1.00  0.00     0.005 C 
ENDBRANCH  48  49
ENDBRANCH  47  48
ENDBRANCH  46  47
ENDBRANCH  45  46
ENDBRANCH  42  45
ENDBRANCH   1  42
TORSDOF 15
ENDMDL
MODEL 5
REMARK VINA RESULT: -7.240138359      2.052      3.078
REMARK  15 active torsions:
REMARK  status: ('A' for Active; 'I' for Inactive)
REMARK    1  A    between atoms: C2_2  and  C3_3 
REMARK    2  A    between atoms: C3_3  and  C4_4 
REMARK    3  A    between atoms: C4_4  and  C5_5 
REMARK    4  A    between atoms: C5_5  and  C6_6 
REMARK    5  A    between atoms: C6_6  and  C7_7 
REMARK    6  A    between atoms: C7_7  and  C10_10 
REMARK    7  A    between atoms: C11_13  and  O1_14 
REMARK    8  A    between atoms: C12_16  and  C13_17 
REMARK    9  A    between atoms: C13_17  and  C15_19 
REMARK   10  A    between atoms: C18_23  and  O2_24 
REMARK   11  A    between atoms: C19_26  and  C20_27 
REMARK   12  A    between atoms: C20_27  and  C21_28 
REMARK   13  A    between atoms: C29_40  and  C30_41 
REMARK   14  A    between atoms: C30_41  and  C31_42 
REMARK   15  A    between atoms: C31_42  and  S1_43 
ROOT
HETATM    1  C10 UNL     1      20.485  25.101  17.805  1.00  0.00     0.125 C 
HETATM    2  N1  UNL     1      20.193  25.762  19.071  1.00  0.00    -0.360 N 
ATOM      3  H1  UNL     1      19.740  26.668  18.946  1.00  0.00     0.162 HD
HETATM    4  C11 UNL     1      20.387  25.445  20.396  1.00  0.00     0.160 C 
HETATM    5  C12 UNL     1      21.583  25.285  21.267  1.00  0.00     0.067 C 
HETATM    6  N2  UNL     1      22.346  24.114  20.995  1.00  0.00    -0.333 N 
HETATM    7  C17 UNL     1      21.859  22.927  21.806  1.00  0.00     0.158 C 
HETATM    8  C18 UNL     1      23.400  23.761  20.166  1.00  0.00     0.148 C 
HETATM    9  C19 UNL     1      24.748  24.203  19.870  1.00  0.00     0.210 C 
HETATM   10  O5  UNL     1      25.088  25.470  19.605  1.00  0.00    -0.306 OA
HETATM   11  C28 UNL     1      24.847  26.475  18.779  1.00  0.00     0.282 C 
HETATM   12  O6  UNL     1      25.181  27.651  19.179  1.00  0.00    -0.263 OA
HETATM   13  C29 UNL     1      24.229  26.453  17.426  1.00  0.00     0.185 C 
HETATM   14  N3  UNL     1      23.178  27.433  17.310  1.00  0.00    -0.344 N 
ATOM     15  H3  UNL     1      23.482  28.397  17.178  1.00  0.00     0.163 HD
HETATM   16  C33 UNL     1      21.787  27.231  17.354  1.00  0.00     0.246 C 
HETATM   17  O7  UNL     1      21.137  28.218  17.861  1.00  0.00    -0.268 OA
HETATM   18  C34 UNL     1      21.151  25.998  16.861  1.00  0.00     0.007 C 
HETATM   19  C35 UNL     1      20.459  26.318  15.559  1.00  0.00     0.051 C 
ENDROOT
BRANCH   9  20
HETATM   20  C20 UNL     1      25.760  23.645  20.924  1.00  0.00     0.079 C 
BRANCH  20  21
HETATM   21  C21 UNL     1      26.716  24.667  21.328  1.00  0.00    -0.052 A 
HETATM   22  C22 UNL     1      27.896  24.823  20.636  1.00  0.00     0.010 A 
HETATM   23  C23 UNL     1      28.785  25.805  21.052  1.00  0.00     0.040 A 
HETATM   24  C24 UNL     1      28.518  26.622  22.134  1.00  0.00     0.105 A 
HETATM   25  C25 UNL     1      27.350  26.465  22.815  1.00  0.00     0.105 A 
HETATM   26  O4  UNL     1      29.237  27.666  22.744  1.00  0.00    -0.323 OA
HETATM   27  C26 UNL     1      26.450  25.481  22.405  1.00  0.00     0.047 A 
HETATM   28  O3  UNL     1      27.350  27.405  23.835  1.00  0.00    -0.323 OA
HETATM   29  C27 UNL     1      28.443  28.278  23.716  1.00  0.00     0.352 C 
ENDBRANCH  20  21
ENDBRANCH   9  20
BRANCH   8  30
HETATM   30  O2  UNL     1      23.075  22.703  19.430  1.00  0.00    -0.347 OA
ATOM     31  H2  UNL     1      23.761  22.515  18.800  1.00  0.00     0.219 HD
ENDBRANCH   8  30
BRANCH   5  32
HETATM   32  C13 UNL     1      22.246  26.582  21.592  1.00  0.00     0.036 C 
HETATM   33  C14 UNL     1      23.494  26.428  22.416  1.00  0.00     0.016 C 
BRANCH  32  34
HETATM   34  C15 UNL     1      21.335  27.378  22.505  1.00  0.00     0.006 C 
HETATM   35  C16 UNL     1      21.714  27.341  23.948  1.00  0.00     0.006 C 
ENDBRANCH  32  34
ENDBRANCH   5  32
BRANCH  13  36
HETATM   36  C30 UNL     1      25.321  26.628  16.406  1.00  0.00     0.045 C 
BRANCH  36  37
HETATM   37  C31 UNL     1      25.288  27.844  15.578  1.00  0.00     0.076 C 
BRANCH  37  38
HETATM   38  S1  UNL     1      27.027  28.390  15.350  1.00  0.00    -0.173 SA
HETATM   39  C32 UNL     1      27.783  28.787  16.927  1.00  0.00     0.089 C 
ENDBRANCH  37  38
ENDBRANCH  36  37
ENDBRANCH  13  36
BRANCH   4  40
HETATM   40  O1  UNL     1      19.264  25.235  21.052  1.00  0.00    -0.345 OA
ATOM     41  H1  UNL     1      19.004  25.968  21.598  1.00  0.00     0.219 HD
ENDBRANCH   4  40
BRANCH   1  42
HETATM   42  C7  UNL     1      19.217  24.395  17.353  1.00  0.00    -0.023 C 
HETATM   43  C8  UNL     1      17.967  25.160  17.673  1.00  0.00     0.017 C 
HETATM   44  C9  UNL     1      19.137  23.146  18.265  1.00  0.00     0.017 C 
BRANCH  42  45
HETATM   45  C6  UNL     1      19.171  23.862  15.986  1.00  0.00     0.011 C 
BRANCH  45  46
HETATM   46  C5  UNL     1      17.878  24.042  15.244  1.00  0.00     0.001 C 
BRANCH  46  47
HETATM   47  C4  UNL     1      17.183  22.703  15.171  1.00  0.00     0.000 C 
BRANCH  47  48
HETATM   48  C3  UNL     1      15.741  22.750  15.629  1.00  0.00    -0.000 C 
BRANCH  48  49
HETATM   49  C2  UNL     1      15.612  22.268  17.062  1.00  0.00    -0.005 C 
HETATM   50  C1  UNL     1      14.831  23.285  17.875  1.00  0.00     0.005 C 
ENDBRANCH  48  49
ENDBRANCH  47  48
ENDBRANCH  46  47
ENDBRANCH  45  46
ENDBRANCH  42  45
ENDBRANCH   1  42
TORSDOF 15
ENDMDL
