MODEL 1
REMARK VINA RESULT: -10.670411550      0.000      0.000
REMARK  11 active torsions:
REMARK  status: ('A' for Active; 'I' for Inactive)
REMARK    1  A    between atoms: C2_3  and  N2_4 
REMARK    2  A    between atoms: N2_4  and  C3_5 
REMARK    3  A    between atoms: N2_4  and  C20_26 
REMARK    4  A    between atoms: C3_5  and  C4_6 
REMARK    5  A    between atoms: C4_6  and  S1_7 
REMARK    6  A    between atoms: S1_7  and  C5_10 
REMARK    7  A    between atoms: C5_10  and  C6_11 
REMARK    8  A    between atoms: C6_11  and  N3_12 
REMARK    9  A    between atoms: C20_26  and  C21_27 
REMARK   10  A    between atoms: N5_39  and  C29_40 
REMARK   11  A    between atoms: C29_40  and  C30_41 
ROOT
HETATM    1  N2  UNL     1      15.938  21.778  17.979  1.00  0.00    -0.369 N 
ENDROOT
BRANCH   1   2
HETATM    2  C2  UNL     1      15.162  22.312  16.874  1.00  0.00     0.141 A 
HETATM    3  C1  UNL     1      15.300  21.871  15.581  1.00  0.00     0.155 A 
HETATM    4  N1  UNL     1      16.205  20.817  15.281  1.00  0.00    -0.080 NA
HETATM    5  N5  UNL     1      14.582  22.400  14.544  1.00  0.00    -0.281 N 
HETATM    6  C28 UNL     1      13.712  23.393  14.821  1.00  0.00     0.331 A 
HETATM    7  N4  UNL     1      13.568  23.834  16.087  1.00  0.00    -0.273 N 
HETATM    8  O4  UNL     1      13.021  23.929  13.890  1.00  0.00    -0.246 OA
HETATM    9  C27 UNL     1      14.264  23.326  17.125  1.00  0.00     0.279 A 
ATOM     10  H4  UNL     1      12.902  24.586  16.268  1.00  0.00     0.173 HD
HETATM   11  O3  UNL     1      14.117  23.747  18.293  1.00  0.00    -0.265 OA
BRANCH   5  12
HETATM   12  C29 UNL     1      14.776  21.922  13.215  1.00  0.00     0.173 C 
BRANCH  12  13
HETATM   13  C30 UNL     1      14.029  20.754  12.784  1.00  0.00    -0.040 A 
HETATM   14  C31 UNL     1      14.671  19.638  12.261  1.00  0.00     0.009 A 
HETATM   15  C32 UNL     1      13.959  18.516  11.863  1.00  0.00     0.001 A 
HETATM   16  C33 UNL     1      12.602  18.473  11.970  1.00  0.00     0.000 A 
HETATM   17  C34 UNL     1      11.934  19.557  12.479  1.00  0.00     0.001 A 
HETATM   18  C35 UNL     1      12.669  20.678  12.876  1.00  0.00     0.009 A 
ENDBRANCH  12  13
ENDBRANCH   5  12
ENDBRANCH   1   2
BRANCH   1  19
HETATM   19  C3  UNL     1      17.351  21.975  17.897  1.00  0.00     0.138 C 
BRANCH  19  20
HETATM   20  C4  UNL     1      18.194  21.999  19.089  1.00  0.00     0.160 C 
BRANCH  20  21
HETATM   21  S1  UNL     1      18.787  23.485  19.747  1.00  0.00     0.147 S 
HETATM   22  O1  UNL     1      19.479  23.279  21.093  1.00  0.00    -0.228 OA
HETATM   23  O2  UNL     1      17.810  24.608  19.813  1.00  0.00    -0.228 OA
BRANCH  21  24
HETATM   24  C5  UNL     1      20.162  24.121  18.726  1.00  0.00     0.160 C 
BRANCH  24  25
HETATM   25  C6  UNL     1      19.839  25.583  18.520  1.00  0.00     0.144 C 
BRANCH  25  26
HETATM   26  N3  UNL     1      20.098  26.077  17.209  1.00  0.00    -0.345 N 
HETATM   27  C7  UNL     1      19.037  26.005  16.227  1.00  0.00     0.041 A 
HETATM   28  C8  UNL     1      17.806  25.436  16.506  1.00  0.00     0.030 A 
HETATM   29  C12 UNL     1      19.332  26.530  14.984  1.00  0.00    -0.027 A 
HETATM   30  C9  UNL     1      16.834  25.387  15.522  1.00  0.00     0.002 A 
HETATM   31  C10 UNL     1      17.106  25.905  14.275  1.00  0.00     0.001 A 
HETATM   32  C11 UNL     1      18.336  26.467  14.013  1.00  0.00     0.010 A 
HETATM   33  C13 UNL     1      20.601  27.146  14.584  1.00  0.00     0.082 A 
HETATM   34  C14 UNL     1      21.608  27.159  15.653  1.00  0.00    -0.027 A 
HETATM   35  C15 UNL     1      22.838  27.732  15.316  1.00  0.00     0.010 A 
HETATM   36  C19 UNL     1      21.366  26.648  16.920  1.00  0.00     0.041 A 
HETATM   37  C16 UNL     1      23.851  27.807  16.236  1.00  0.00     0.001 A 
HETATM   38  C17 UNL     1      23.594  27.295  17.489  1.00  0.00     0.002 A 
HETATM   39  C18 UNL     1      22.391  26.730  17.835  1.00  0.00     0.030 A 
ENDBRANCH  25  26
ENDBRANCH  24  25
ENDBRANCH  21  24
ENDBRANCH  20  21
ENDBRANCH  19  20
ENDBRANCH   1  19
BRANCH   1  40
HETATM   40  C20 UNL     1      15.327  21.060  19.044  1.00  0.00     0.161 C 
BRANCH  40  41
HETATM   41  C21 UNL     1      14.475  19.917  18.665  1.00  0.00    -0.040 A 
HETATM   42  C22 UNL     1      13.107  19.962  18.622  1.00  0.00     0.009 A 
HETATM   43  C23 UNL     1      12.343  18.854  18.273  1.00  0.00     0.001 A 
HETATM   44  C24 UNL     1      12.951  17.661  17.956  1.00  0.00     0.000 A 
HETATM   45  C25 UNL     1      14.324  17.602  17.996  1.00  0.00     0.001 A 
HETATM   46  C26 UNL     1      15.070  18.719  18.346  1.00  0.00     0.009 A 
ENDBRANCH  40  41
ENDBRANCH   1  40
TORSDOF 11
ENDMDL
MODEL 2
REMARK VINA RESULT: -10.660418858      0.056      2.721
REMARK  11 active torsions:
REMARK  status: ('A' for Active; 'I' for Inactive)
REMARK    1  A    between atoms: C2_3  and  N2_4 
REMARK    2  A    between atoms: N2_4  and  C3_5 
REMARK    3  A    between atoms: N2_4  and  C20_26 
REMARK    4  A    between atoms: C3_5  and  C4_6 
REMARK    5  A    between atoms: C4_6  and  S1_7 
REMARK    6  A    between atoms: S1_7  and  C5_10 
REMARK    7  A    between atoms: C5_10  and  C6_11 
REMARK    8  A    between atoms: C6_11  and  N3_12 
REMARK    9  A    between atoms: C20_26  and  C21_27 
REMARK   10  A    between atoms: N5_39  and  C29_40 
REMARK   11  A    between atoms: C29_40  and  C30_41 
ROOT
HETATM    1  N2  UNL     1      15.935  21.769  17.989  1.00  0.00    -0.369 N 
ENDROOT
BRANCH   1   2
HETATM    2  C2  UNL     1      15.164  22.308  16.883  1.00  0.00     0.141 A 
HETATM    3  C1  UNL     1      15.306  21.872  15.589  1.00  0.00     0.155 A 
HETATM    4  N1  UNL     1      16.212  20.819  15.288  1.00  0.00    -0.080 NA
HETATM    5  N5  UNL     1      14.592  22.406  14.551  1.00  0.00    -0.281 N 
HETATM    6  C28 UNL     1      13.721  23.398  14.830  1.00  0.00     0.331 A 
HETATM    7  N4  UNL     1      13.573  23.834  16.097  1.00  0.00    -0.273 N 
HETATM    8  O4  UNL     1      13.033  23.937  13.899  1.00  0.00    -0.246 OA
HETATM    9  C27 UNL     1      14.265  23.321  17.136  1.00  0.00     0.279 A 
ATOM     10  H4  UNL     1      12.907  24.586  16.279  1.00  0.00     0.173 HD
HETATM   11  O3  UNL     1      14.114  23.738  18.304  1.00  0.00    -0.265 OA
BRANCH   5  12
HETATM   12  C29 UNL     1      14.790  21.933  13.221  1.00  0.00     0.173 C 
BRANCH  12  13
HETATM   13  C30 UNL     1      14.044  20.768  12.783  1.00  0.00    -0.040 A 
HETATM   14  C31 UNL     1      14.687  19.650  12.266  1.00  0.00     0.009 A 
HETATM   15  C32 UNL     1      13.974  18.531  11.861  1.00  0.00     0.001 A 
HETATM   16  C33 UNL     1      12.616  18.492  11.954  1.00  0.00     0.000 A 
HETATM   17  C34 UNL     1      11.947  19.578  12.457  1.00  0.00     0.001 A 
HETATM   18  C35 UNL     1      12.682  20.696  12.861  1.00  0.00     0.009 A 
ENDBRANCH  12  13
ENDBRANCH   5  12
ENDBRANCH   1   2
BRANCH   1  19
HETATM   19  C3  UNL     1      17.349  21.961  17.910  1.00  0.00     0.138 C 
BRANCH  19  20
HETATM   20  C4  UNL     1      18.191  21.972  19.103  1.00  0.00     0.160 C 
BRANCH  20  21
HETATM   21  S1  UNL     1      18.799  23.451  19.767  1.00  0.00     0.147 S 
HETATM   22  O1  UNL     1      19.493  23.232  21.109  1.00  0.00    -0.228 OA
HETATM   23  O2  UNL     1      17.831  24.580  19.843  1.00  0.00    -0.228 OA
BRANCH  21  24
HETATM   24  C5  UNL     1      20.175  24.080  18.744  1.00  0.00     0.160 C 
BRANCH  24  25
HETATM   25  C6  UNL     1      19.884  25.555  18.581  1.00  0.00     0.144 C 
BRANCH  25  26
HETATM   26  N3  UNL     1      20.096  26.067  17.268  1.00  0.00    -0.345 N 
HETATM   27  C7  UNL     1      21.392  26.628  16.951  1.00  0.00     0.041 A 
HETATM   28  C8  UNL     1      22.407  26.723  17.887  1.00  0.00     0.030 A 
HETATM   29  C12 UNL     1      21.551  27.076  15.654  1.00  0.00    -0.027 A 
HETATM   30  C9  UNL     1      23.622  27.279  17.526  1.00  0.00     0.002 A 
HETATM   31  C10 UNL     1      23.804  27.733  16.239  1.00  0.00     0.001 A 
HETATM   32  C11 UNL     1      22.783  27.632  15.319  1.00  0.00     0.010 A 
HETATM   33  C13 UNL     1      20.542  27.029  14.591  1.00  0.00     0.082 A 
HETATM   34  C14 UNL     1      19.264  26.448  15.024  1.00  0.00    -0.027 A 
HETATM   35  C15 UNL     1      18.268  26.387  14.045  1.00  0.00     0.010 A 
HETATM   36  C19 UNL     1      19.048  25.980  16.312  1.00  0.00     0.041 A 
HETATM   37  C16 UNL     1      17.036  25.859  14.331  1.00  0.00     0.001 A 
HETATM   38  C17 UNL     1      16.839  25.399  15.616  1.00  0.00     0.002 A 
HETATM   39  C18 UNL     1      17.808  25.451  16.588  1.00  0.00     0.030 A 
ENDBRANCH  25  26
ENDBRANCH  24  25
ENDBRANCH  21  24
ENDBRANCH  20  21
ENDBRANCH  19  20
ENDBRANCH   1  19
BRANCH   1  40
HETATM   40  C20 UNL     1      15.320  21.053  19.052  1.00  0.00     0.161 C 
BRANCH  40  41
HETATM   41  C21 UNL     1      14.467  19.910  18.670  1.00  0.00    -0.040 A 
HETATM   42  C22 UNL     1      13.099  19.957  18.624  1.00  0.00     0.009 A 
HETATM   43  C23 UNL     1      12.335  18.850  18.273  1.00  0.00     0.001 A 
HETATM   44  C24 UNL     1      12.942  17.657  17.955  1.00  0.00     0.000 A 
HETATM   45  C25 UNL     1      14.315  17.597  17.996  1.00  0.00     0.001 A 
HETATM   46  C26 UNL     1      15.062  18.713  18.349  1.00  0.00     0.009 A 
ENDBRANCH  40  41
ENDBRANCH   1  40
TORSDOF 11
ENDMDL
MODEL 3
REMARK VINA RESULT: -10.483748079      2.732      8.413
REMARK  11 active torsions:
REMARK  status: ('A' for Active; 'I' for Inactive)
REMARK    1  A    between atoms: C2_3  and  N2_4 
REMARK    2  A    between atoms: N2_4  and  C3_5 
REMARK    3  A    between atoms: N2_4  and  C20_26 
REMARK    4  A    between atoms: C3_5  and  C4_6 
REMARK    5  A    between atoms: C4_6  and  S1_7 
REMARK    6  A    between atoms: S1_7  and  C5_10 
REMARK    7  A    between atoms: C5_10  and  C6_11 
REMARK    8  A    between atoms: C6_11  and  N3_12 
REMARK    9  A    between atoms: C20_26  and  C21_27 
REMARK   10  A    between atoms: N5_39  and  C29_40 
REMARK   11  A    between atoms: C29_40  and  C30_41 
ROOT
HETATM    1  N2  UNL     1      14.753  19.929  17.264  1.00  0.00    -0.369 N 
ENDROOT
BRANCH   1   2
HETATM    2  C2  UNL     1      15.410  21.179  17.604  1.00  0.00     0.141 A 
HETATM    3  C1  UNL     1      16.569  21.603  17.002  1.00  0.00     0.155 A 
HETATM    4  N1  UNL     1      17.159  20.827  15.967  1.00  0.00    -0.080 NA
HETATM    5  N5  UNL     1      17.193  22.770  17.349  1.00  0.00    -0.281 N 
HETATM    6  C28 UNL     1      16.633  23.518  18.322  1.00  0.00     0.331 A 
HETATM    7  N4  UNL     1      15.495  23.112  18.920  1.00  0.00    -0.273 N 
HETATM    8  O4  UNL     1      17.176  24.614  18.691  1.00  0.00    -0.246 OA
HETATM    9  C27 UNL     1      14.862  21.966  18.592  1.00  0.00     0.279 A 
ATOM     10  H4  UNL     1      15.094  23.698  19.653  1.00  0.00     0.173 HD
HETATM   11  O3  UNL     1      13.807  21.606  19.158  1.00  0.00    -0.265 OA
BRANCH   5  12
HETATM   12  C29 UNL     1      18.406  23.156  16.709  1.00  0.00     0.173 C 
BRANCH  12  13
HETATM   13  C30 UNL     1      18.371  24.263  15.770  1.00  0.00    -0.040 A 
HETATM   14  C31 UNL     1      17.199  24.618  15.113  1.00  0.00     0.009 A 
HETATM   15  C32 UNL     1      17.162  25.685  14.228  1.00  0.00     0.001 A 
HETATM   16  C33 UNL     1      18.278  26.421  13.971  1.00  0.00     0.000 A 
HETATM   17  C34 UNL     1      19.454  26.100  14.599  1.00  0.00     0.001 A 
HETATM   18  C35 UNL     1      19.471  25.022  15.489  1.00  0.00     0.009 A 
ENDBRANCH  12  13
ENDBRANCH   5  12
ENDBRANCH   1   2
BRANCH   1  19
HETATM   19  C3  UNL     1      13.801  19.998  16.199  1.00  0.00     0.138 C 
BRANCH  19  20
HETATM   20  C4  UNL     1      12.509  20.657  16.365  1.00  0.00     0.160 C 
BRANCH  20  21
HETATM   21  S1  UNL     1      11.043  19.926  15.807  1.00  0.00     0.147 S 
HETATM   22  O1  UNL     1      10.261  20.851  14.877  1.00  0.00    -0.228 OA
HETATM   23  O2  UNL     1      10.158  19.350  16.857  1.00  0.00    -0.228 OA
BRANCH  21  24
HETATM   24  C5  UNL     1      11.422  18.527  14.695  1.00  0.00     0.160 C 
BRANCH  24  25
HETATM   25  C6  UNL     1      11.386  19.125  13.307  1.00  0.00     0.144 C 
BRANCH  25  26
HETATM   26  N3  UNL     1      12.588  18.973  12.556  1.00  0.00    -0.345 N 
HETATM   27  C7  UNL     1      13.467  20.116  12.431  1.00  0.00     0.041 A 
HETATM   28  C8  UNL     1      13.158  21.352  12.973  1.00  0.00     0.030 A 
HETATM   29  C12 UNL     1      14.633  19.901  11.723  1.00  0.00    -0.027 A 
HETATM   30  C9  UNL     1      14.035  22.410  12.810  1.00  0.00     0.002 A 
HETATM   31  C10 UNL     1      15.204  22.220  12.109  1.00  0.00     0.001 A 
HETATM   32  C11 UNL     1      15.497  20.984  11.574  1.00  0.00     0.010 A 
HETATM   33  C13 UNL     1      15.051  18.639  11.105  1.00  0.00     0.082 A 
HETATM   34  C14 UNL     1      14.083  17.550  11.287  1.00  0.00    -0.027 A 
HETATM   35  C15 UNL     1      14.436  16.327  10.709  1.00  0.00     0.010 A 
HETATM   36  C19 UNL     1      12.897  17.708  11.989  1.00  0.00     0.041 A 
HETATM   37  C16 UNL     1      13.612  15.236  10.820  1.00  0.00     0.001 A 
HETATM   38  C17 UNL     1      12.439  15.411  11.521  1.00  0.00     0.002 A 
HETATM   39  C18 UNL     1      12.079  16.606  12.095  1.00  0.00     0.030 A 
ENDBRANCH  25  26
ENDBRANCH  24  25
ENDBRANCH  21  24
ENDBRANCH  20  21
ENDBRANCH  19  20
ENDBRANCH   1  19
BRANCH   1  40
HETATM   40  C20 UNL     1      15.007  18.730  17.984  1.00  0.00     0.161 C 
BRANCH  40  41
HETATM   41  C21 UNL     1      13.853  18.115  18.668  1.00  0.00    -0.040 A 
HETATM   42  C22 UNL     1      12.976  17.253  18.066  1.00  0.00     0.009 A 
HETATM   43  C23 UNL     1      11.892  16.708  18.746  1.00  0.00     0.001 A 
HETATM   44  C24 UNL     1      11.668  17.026  20.067  1.00  0.00     0.000 A 
HETATM   45  C25 UNL     1      12.542  17.891  20.683  1.00  0.00     0.001 A 
HETATM   46  C26 UNL     1      13.618  18.424  19.987  1.00  0.00     0.009 A 
ENDBRANCH  40  41
ENDBRANCH   1  40
TORSDOF 11
ENDMDL
MODEL 4
REMARK VINA RESULT: -10.478771987      2.695      7.832
REMARK  11 active torsions:
REMARK  status: ('A' for Active; 'I' for Inactive)
REMARK    1  A    between atoms: C2_3  and  N2_4 
REMARK    2  A    between atoms: N2_4  and  C3_5 
REMARK    3  A    between atoms: N2_4  and  C20_26 
REMARK    4  A    between atoms: C3_5  and  C4_6 
REMARK    5  A    between atoms: C4_6  and  S1_7 
REMARK    6  A    between atoms: S1_7  and  C5_10 
REMARK    7  A    between atoms: C5_10  and  C6_11 
REMARK    8  A    between atoms: C6_11  and  N3_12 
REMARK    9  A    between atoms: C20_26  and  C21_27 
REMARK   10  A    between atoms: N5_39  and  C29_40 
REMARK   11  A    between atoms: C29_40  and  C30_41 
ROOT
HETATM    1  N2  UNL     1      14.752  20.412  17.500  1.00  0.00    -0.369 N 
ENDROOT
BRANCH   1   2
HETATM    2  C2  UNL     1      15.566  21.594  17.720  1.00  0.00     0.141 A 
HETATM    3  C1  UNL     1      16.726  21.844  17.028  1.00  0.00     0.155 A 
HETATM    4  N1  UNL     1      17.158  20.945  16.016  1.00  0.00    -0.080 NA
HETATM    5  N5  UNL     1      17.498  22.949  17.263  1.00  0.00    -0.281 N 
HETATM    6  C28 UNL     1      17.089  23.813  18.215  1.00  0.00     0.331 A 
HETATM    7  N4  UNL     1      15.952  23.579  18.900  1.00  0.00    -0.273 N 
HETATM    8  O4  UNL     1      17.774  24.858  18.480  1.00  0.00    -0.246 OA
HETATM    9  C27 UNL     1      15.174  22.497  18.684  1.00  0.00     0.279 A 
ATOM     10  H4  UNL     1      15.666  24.249  19.614  1.00  0.00     0.173 HD
HETATM   11  O3  UNL     1      14.123  22.296  19.329  1.00  0.00    -0.265 OA
BRANCH   5  12
HETATM   12  C29 UNL     1      18.705  23.153  16.533  1.00  0.00     0.173 C 
BRANCH  12  13
HETATM   13  C30 UNL     1      18.797  24.307  15.657  1.00  0.00    -0.040 A 
HETATM   14  C31 UNL     1      20.019  24.904  15.372  1.00  0.00     0.009 A 
HETATM   15  C32 UNL     1      20.108  25.997  14.524  1.00  0.00     0.001 A 
HETATM   16  C33 UNL     1      18.996  26.525  13.941  1.00  0.00     0.000 A 
HETATM   17  C34 UNL     1      17.772  25.964  14.199  1.00  0.00     0.001 A 
HETATM   18  C35 UNL     1      17.702  24.862  15.057  1.00  0.00     0.009 A 
ENDBRANCH  12  13
ENDBRANCH   5  12
ENDBRANCH   1   2
BRANCH   1  19
HETATM   19  C3  UNL     1      13.584  20.604  16.698  1.00  0.00     0.138 C 
BRANCH  19  20
HETATM   20  C4  UNL     1      12.847  19.478  16.132  1.00  0.00     0.160 C 
BRANCH  20  21
HETATM   21  S1  UNL     1      11.132  19.540  15.912  1.00  0.00     0.147 S 
HETATM   22  O1  UNL     1      10.405  19.941  17.194  1.00  0.00    -0.228 OA
HETATM   23  O2  UNL     1      10.507  18.335  15.298  1.00  0.00    -0.228 OA
BRANCH  21  24
HETATM   24  C5  UNL     1      10.689  20.917  14.797  1.00  0.00     0.160 C 
BRANCH  24  25
HETATM   25  C6  UNL     1      10.853  20.348  13.406  1.00  0.00     0.144 C 
BRANCH  25  26
HETATM   26  N3  UNL     1      12.203  20.153  12.993  1.00  0.00    -0.345 N 
HETATM   27  C7  UNL     1      12.548  18.908  12.342  1.00  0.00     0.041 A 
HETATM   28  C8  UNL     1      11.628  17.891  12.152  1.00  0.00     0.030 A 
HETATM   29  C12 UNL     1      13.861  18.789  11.931  1.00  0.00    -0.027 A 
HETATM   30  C9  UNL     1      12.021  16.717  11.532  1.00  0.00     0.002 A 
HETATM   31  C10 UNL     1      13.325  16.577  11.114  1.00  0.00     0.001 A 
HETATM   32  C11 UNL     1      14.230  17.597  11.311  1.00  0.00     0.010 A 
HETATM   33  C13 UNL     1      14.914  19.798  12.089  1.00  0.00     0.082 A 
HETATM   34  C14 UNL     1      14.456  21.018  12.768  1.00  0.00    -0.027 A 
HETATM   35  C15 UNL     1      15.426  22.008  12.947  1.00  0.00     0.010 A 
HETATM   36  C19 UNL     1      13.149  21.193  13.200  1.00  0.00     0.041 A 
HETATM   37  C16 UNL     1      15.113  23.193  13.562  1.00  0.00     0.001 A 
HETATM   38  C17 UNL     1      13.811  23.350  13.985  1.00  0.00     0.002 A 
HETATM   39  C18 UNL     1      12.847  22.386  13.815  1.00  0.00     0.030 A 
ENDBRANCH  25  26
ENDBRANCH  24  25
ENDBRANCH  21  24
ENDBRANCH  20  21
ENDBRANCH  19  20
ENDBRANCH   1  19
BRANCH   1  40
HETATM   40  C20 UNL     1      15.075  19.160  18.090  1.00  0.00     0.161 C 
BRANCH  40  41
HETATM   41  C21 UNL     1      14.080  18.594  19.022  1.00  0.00    -0.040 A 
HETATM   42  C22 UNL     1      13.727  19.174  20.211  1.00  0.00     0.009 A 
HETATM   43  C23 UNL     1      12.795  18.597  21.066  1.00  0.00     0.001 A 
HETATM   44  C24 UNL     1      12.189  17.406  20.733  1.00  0.00     0.000 A 
HETATM   45  C25 UNL     1      12.535  16.814  19.541  1.00  0.00     0.001 A 
HETATM   46  C26 UNL     1      13.468  17.406  18.701  1.00  0.00     0.009 A 
ENDBRANCH  40  41
ENDBRANCH   1  40
TORSDOF 11
ENDMDL
MODEL 5
REMARK VINA RESULT: -10.477832952      1.758      2.262
REMARK  11 active torsions:
REMARK  status: ('A' for Active; 'I' for Inactive)
REMARK    1  A    between atoms: C2_3  and  N2_4 
REMARK    2  A    between atoms: N2_4  and  C3_5 
REMARK    3  A    between atoms: N2_4  and  C20_26 
REMARK    4  A    between atoms: C3_5  and  C4_6 
REMARK    5  A    between atoms: C4_6  and  S1_7 
REMARK    6  A    between atoms: S1_7  and  C5_10 
REMARK    7  A    between atoms: C5_10  and  C6_11 
REMARK    8  A    between atoms: C6_11  and  N3_12 
REMARK    9  A    between atoms: C20_26  and  C21_27 
REMARK   10  A    between atoms: N5_39  and  C29_40 
REMARK   11  A    between atoms: C29_40  and  C30_41 
ROOT
HETATM    1  N2  UNL     1      16.684  23.034  18.484  1.00  0.00    -0.369 N 
ENDROOT
BRANCH   1   2
HETATM    2  C2  UNL     1      16.409  22.964  17.060  1.00  0.00     0.141 A 
HETATM    3  C1  UNL     1      15.191  23.292  16.516  1.00  0.00     0.155 A 
HETATM    4  N1  UNL     1      14.142  23.763  17.351  1.00  0.00    -0.080 NA
HETATM    5  N5  UNL     1      14.936  23.198  15.175  1.00  0.00    -0.281 N 
HETATM    6  C28 UNL     1      15.931  22.762  14.374  1.00  0.00     0.331 A 
HETATM    7  N4  UNL     1      17.130  22.438  14.896  1.00  0.00    -0.273 N 
HETATM    8  O4  UNL     1      15.746  22.648  13.115  1.00  0.00    -0.246 OA
HETATM    9  C27 UNL     1      17.404  22.525  16.215  1.00  0.00     0.279 A 
ATOM     10  H4  UNL     1      17.864  22.112  14.267  1.00  0.00     0.173 HD
HETATM   11  O3  UNL     1      18.523  22.220  16.682  1.00  0.00    -0.265 OA
BRANCH   5  12
HETATM   12  C29 UNL     1      13.649  23.530  14.661  1.00  0.00     0.173 C 
BRANCH  12  13
HETATM   13  C30 UNL     1      12.744  22.450  14.310  1.00  0.00    -0.040 A 
HETATM   14  C31 UNL     1      12.588  21.342  15.133  1.00  0.00     0.009 A 
HETATM   15  C32 UNL     1      11.712  20.317  14.804  1.00  0.00     0.001 A 
HETATM   16  C33 UNL     1      10.977  20.363  13.659  1.00  0.00     0.000 A 
HETATM   17  C34 UNL     1      11.106  21.441  12.821  1.00  0.00     0.001 A 
HETATM   18  C35 UNL     1      11.993  22.464  13.169  1.00  0.00     0.009 A 
ENDBRANCH  12  13
ENDBRANCH   5  12
ENDBRANCH   1   2
BRANCH   1  19
HETATM   19  C3  UNL     1      17.155  24.295  18.963  1.00  0.00     0.138 C 
BRANCH  19  20
HETATM   20  C4  UNL     1      17.826  24.425  20.253  1.00  0.00     0.160 C 
BRANCH  20  21
HETATM   21  S1  UNL     1      19.551  24.516  20.369  1.00  0.00     0.147 S 
HETATM   22  O1  UNL     1      20.160  23.206  20.863  1.00  0.00    -0.228 OA
HETATM   23  O2  UNL     1      20.095  25.678  21.124  1.00  0.00    -0.228 OA
BRANCH  21  24
HETATM   24  C5  UNL     1      20.287  24.654  18.703  1.00  0.00     0.160 C 
BRANCH  24  25
HETATM   25  C6  UNL     1      20.394  26.142  18.456  1.00  0.00     0.144 C 
BRANCH  25  26
HETATM   26  N3  UNL     1      20.817  26.504  17.144  1.00  0.00    -0.345 N 
HETATM   27  C7  UNL     1      19.845  26.461  16.073  1.00  0.00     0.041 A 
HETATM   28  C8  UNL     1      18.541  26.040  16.273  1.00  0.00     0.030 A 
HETATM   29  C12 UNL     1      20.301  26.857  14.831  1.00  0.00    -0.027 A 
HETATM   30  C9  UNL     1      17.659  26.010  15.206  1.00  0.00     0.002 A 
HETATM   31  C10 UNL     1      18.092  26.400  13.958  1.00  0.00     0.001 A 
HETATM   32  C11 UNL     1      19.393  26.816  13.776  1.00  0.00     0.010 A 
HETATM   33  C13 UNL     1      21.658  27.312  14.512  1.00  0.00     0.082 A 
HETATM   34  C14 UNL     1      22.563  27.309  15.669  1.00  0.00    -0.027 A 
HETATM   35  C15 UNL     1      23.871  27.730  15.412  1.00  0.00     0.010 A 
HETATM   36  C19 UNL     1      22.159  26.924  16.939  1.00  0.00     0.041 A 
HETATM   37  C16 UNL     1      24.803  27.775  16.417  1.00  0.00     0.001 A 
HETATM   38  C17 UNL     1      24.384  27.390  17.672  1.00  0.00     0.002 A 
HETATM   39  C18 UNL     1      23.102  26.975  17.940  1.00  0.00     0.030 A 
ENDBRANCH  25  26
ENDBRANCH  24  25
ENDBRANCH  21  24
ENDBRANCH  20  21
ENDBRANCH  19  20
ENDBRANCH   1  19
BRANCH   1  40
HETATM   40  C20 UNL     1      16.541  21.900  19.330  1.00  0.00     0.161 C 
BRANCH  40  41
HETATM   41  C21 UNL     1      15.577  20.871  18.895  1.00  0.00    -0.040 A 
HETATM   42  C22 UNL     1      15.896  19.818  18.079  1.00  0.00     0.009 A 
HETATM   43  C23 UNL     1      14.951  18.879  17.682  1.00  0.00     0.001 A 
HETATM   44  C24 UNL     1      13.645  18.983  18.107  1.00  0.00     0.000 A 
HETATM   45  C25 UNL     1      13.312  20.036  18.927  1.00  0.00     0.001 A 
HETATM   46  C26 UNL     1      14.270  20.963  19.313  1.00  0.00     0.009 A 
ENDBRANCH  40  41
ENDBRANCH   1  40
TORSDOF 11
ENDMDL
