MODEL 1
REMARK VINA RESULT: -10.364262484      0.000      0.000
REMARK  13 active torsions:
REMARK  status: ('A' for Active; 'I' for Inactive)
REMARK    1  A    between atoms: C2_3  and  C3_4 
REMARK    2  A    between atoms: C3_4  and  N2_5 
REMARK    3  A    between atoms: N2_5  and  C4_7 
REMARK    4  A    between atoms: C8_13  and  O1_14 
REMARK    5  A    between atoms: O1_14  and  C9_15 
REMARK    6  A    between atoms: C9_15  and  C10_16 
REMARK    7  A    between atoms: C10_16  and  O2_17 
REMARK    8  A    between atoms: O2_17  and  C11_18 
REMARK    9  A    between atoms: C15_22  and  C16_23 
REMARK   10  A    between atoms: C16_23  and  N4_24 
REMARK   11  A    between atoms: N6_41  and  C28_42 
REMARK   12  A    between atoms: C28_42  and  C29_43 
REMARK   13  A    between atoms: C29_43  and  C30_44 
ROOT
HETATM    1  N1  UNL     1      10.973  14.395  15.680  1.00  0.00    -0.197 NA
HETATM    2  C1  UNL     1       9.955  14.233  16.204  1.00  0.00     0.060 C 
HETATM    3  C2  UNL     1       8.653  14.043  16.848  1.00  0.00     0.144 C 
ENDROOT
BRANCH   3   4
HETATM    4  C3  UNL     1       8.442  15.162  17.876  1.00  0.00     0.152 C 
BRANCH   4   5
HETATM    5  N2  UNL     1       9.190  16.325  17.483  1.00  0.00    -0.225 N 
ATOM      6  H2  UNL     1       8.918  16.753  16.599  1.00  0.00     0.177 HD
BRANCH   5   7
HETATM    7  C4  UNL     1      10.145  16.883  18.098  1.00  0.00     0.681 A 
HETATM    8  N3  UNL     1      10.771  16.477  19.204  1.00  0.00    -0.190 N 
HETATM    9  C5  UNL     1      11.733  17.381  19.514  1.00  0.00     0.076 A 
ATOM     10  H3  UNL     1      10.560  15.628  19.729  1.00  0.00     0.184 HD
HETATM   11  C6  UNL     1      12.648  17.447  20.511  1.00  0.00     0.035 A 
HETATM   12  C27 UNL     1      11.679  18.376  18.546  1.00  0.00     0.081 A 
HETATM   13  C7  UNL     1      13.558  18.524  20.579  1.00  0.00     0.039 A 
HETATM   14  C8  UNL     1      13.523  19.536  19.619  1.00  0.00     0.071 A 
HETATM   15  C26 UNL     1      12.587  19.431  18.634  1.00  0.00     0.069 A 
HETATM   16  N6  UNL     1      10.709  18.064  17.687  1.00  0.00    -0.181 N 
BRANCH  14  17
HETATM   17  O1  UNL     1      14.442  20.560  19.735  1.00  0.00    -0.349 OA
BRANCH  17  18
HETATM   18  C9  UNL     1      15.149  21.170  18.718  1.00  0.00     0.202 C 
BRANCH  18  19
HETATM   19  C10 UNL     1      15.878  20.309  17.748  1.00  0.00     0.202 C 
BRANCH  19  20
HETATM   20  O2  UNL     1      15.103  20.092  16.561  1.00  0.00    -0.349 OA
BRANCH  20  21
HETATM   21  C11 UNL     1      15.296  20.957  15.498  1.00  0.00     0.069 A 
HETATM   22  C12 UNL     1      14.983  20.633  14.179  1.00  0.00     0.037 A 
HETATM   23  C13 UNL     1      15.182  21.485  13.125  1.00  0.00     0.004 A 
HETATM   24  C14 UNL     1      15.718  22.734  13.356  1.00  0.00     0.013 A 
HETATM   25  C15 UNL     1      16.047  23.116  14.627  1.00  0.00    -0.017 A 
HETATM   26  C25 UNL     1      15.829  22.222  15.667  1.00  0.00     0.049 A 
BRANCH  25  27
HETATM   27  C16 UNL     1      16.665  24.392  14.910  1.00  0.00     0.122 C 
BRANCH  27  28
HETATM   28  N4  UNL     1      17.155  24.641  16.241  1.00  0.00    -0.229 N 
HETATM   29  C17 UNL     1      16.218  24.744  17.265  1.00  0.00     0.150 A 
HETATM   30  C18 UNL     1      16.519  24.720  18.616  1.00  0.00     0.091 A 
HETATM   31  N5  UNL     1      15.149  24.860  18.224  1.00  0.00    -0.336 N 
HETATM   32  C19 UNL     1      17.872  24.585  19.089  1.00  0.00     0.018 A 
HETATM   33  C20 UNL     1      18.090  24.425  20.483  1.00  0.00     0.015 A 
HETATM   34  C24 UNL     1      18.970  24.482  18.306  1.00  0.00     0.092 A 
HETATM   35  C21 UNL     1      19.316  24.180  21.038  1.00  0.00     0.001 A 
HETATM   36  C22 UNL     1      20.409  24.080  20.184  1.00  0.00     0.002 A 
HETATM   37  C23 UNL     1      20.209  24.235  18.831  1.00  0.00     0.026 A 
HETATM   38  S1  UNL     1      18.833  24.766  16.591  1.00  0.00     0.271 S 
HETATM   39  O3  UNL     1      19.307  26.125  16.181  1.00  0.00    -0.200 OA
HETATM   40  O4  UNL     1      19.642  23.773  15.804  1.00  0.00    -0.200 OA
ATOM     41  H5  UNL     1      14.160  24.964  18.451  1.00  0.00     0.168 HD
ENDBRANCH  27  28
ENDBRANCH  25  27
ENDBRANCH  20  21
ENDBRANCH  19  20
ENDBRANCH  18  19
ENDBRANCH  17  18
ENDBRANCH  14  17
BRANCH  16  42
HETATM   42  C28 UNL     1      10.305  18.798  16.514  1.00  0.00     0.152 C 
BRANCH  42  43
HETATM   43  C29 UNL     1      11.216  18.563  15.332  1.00  0.00     0.059 C 
BRANCH  43  44
HETATM   44  C30 UNL     1      11.353  19.749  14.466  1.00  0.00    -0.057 A 
HETATM   45  C31 UNL     1      11.345  19.630  13.083  1.00  0.00     0.007 A 
HETATM   46  C32 UNL     1      11.469  20.753  12.296  1.00  0.00     0.001 A 
HETATM   47  C33 UNL     1      11.597  21.973  12.907  1.00  0.00     0.000 A 
HETATM   48  C34 UNL     1      11.605  22.100  14.270  1.00  0.00     0.001 A 
HETATM   49  C35 UNL     1      11.484  21.001  15.067  1.00  0.00     0.007 A 
ENDBRANCH  43  44
ENDBRANCH  42  43
ENDBRANCH  16  42
ENDBRANCH   5   7
ENDBRANCH   4   5
ENDBRANCH   3   4
TORSDOF 13
ENDMDL
MODEL 2
REMARK VINA RESULT: -10.304203361      3.180      9.391
REMARK  13 active torsions:
REMARK  status: ('A' for Active; 'I' for Inactive)
REMARK    1  A    between atoms: C2_3  and  C3_4 
REMARK    2  A    between atoms: C3_4  and  N2_5 
REMARK    3  A    between atoms: N2_5  and  C4_7 
REMARK    4  A    between atoms: C8_13  and  O1_14 
REMARK    5  A    between atoms: O1_14  and  C9_15 
REMARK    6  A    between atoms: C9_15  and  C10_16 
REMARK    7  A    between atoms: C10_16  and  O2_17 
REMARK    8  A    between atoms: O2_17  and  C11_18 
REMARK    9  A    between atoms: C15_22  and  C16_23 
REMARK   10  A    between atoms: C16_23  and  N4_24 
REMARK   11  A    between atoms: N6_41  and  C28_42 
REMARK   12  A    between atoms: C28_42  and  C29_43 
REMARK   13  A    between atoms: C29_43  and  C30_44 
ROOT
HETATM    1  N1  UNL     1      21.510  25.290  19.943  1.00  0.00    -0.197 NA
HETATM    2  C1  UNL     1      20.680  24.592  20.344  1.00  0.00     0.060 C 
HETATM    3  C2  UNL     1      19.624  23.698  20.825  1.00  0.00     0.144 C 
ENDROOT
BRANCH   3   4
HETATM    4  C3  UNL     1      18.279  24.432  20.744  1.00  0.00     0.152 C 
BRANCH   4   5
HETATM    5  N2  UNL     1      18.120  25.003  19.435  1.00  0.00    -0.225 N 
ATOM      6  H2  UNL     1      18.628  25.870  19.262  1.00  0.00     0.177 HD
BRANCH   5   7
HETATM    7  C4  UNL     1      17.430  24.563  18.470  1.00  0.00     0.681 A 
HETATM    8  N3  UNL     1      16.114  24.352  18.419  1.00  0.00    -0.190 N 
HETATM    9  C5  UNL     1      15.799  23.874  17.190  1.00  0.00     0.076 A 
ATOM     10  H3  UNL     1      15.454  24.521  19.179  1.00  0.00     0.184 HD
HETATM   11  C6  UNL     1      14.627  23.511  16.615  1.00  0.00     0.035 A 
HETATM   12  C27 UNL     1      16.985  23.795  16.471  1.00  0.00     0.081 A 
HETATM   13  C7  UNL     1      14.594  23.051  15.281  1.00  0.00     0.039 A 
HETATM   14  C8  UNL     1      15.773  22.961  14.539  1.00  0.00     0.071 A 
HETATM   15  C26 UNL     1      16.929  23.335  15.155  1.00  0.00     0.069 A 
HETATM   16  N6  UNL     1      17.974  24.217  17.259  1.00  0.00    -0.181 N 
BRANCH  14  17
HETATM   17  O1  UNL     1      15.677  22.510  13.237  1.00  0.00    -0.349 OA
BRANCH  17  18
HETATM   18  C9  UNL     1      15.319  21.246  12.814  1.00  0.00     0.202 C 
BRANCH  18  19
HETATM   19  C10 UNL     1      14.986  21.049  11.377  1.00  0.00     0.202 C 
BRANCH  19  20
HETATM   20  O2  UNL     1      13.633  21.433  11.098  1.00  0.00    -0.349 OA
BRANCH  20  21
HETATM   21  C11 UNL     1      12.712  21.341  12.127  1.00  0.00     0.069 A 
HETATM   22  C12 UNL     1      11.988  22.432  12.608  1.00  0.00     0.037 A 
HETATM   23  C13 UNL     1      11.083  22.343  13.632  1.00  0.00     0.004 A 
HETATM   24  C14 UNL     1      10.859  21.124  14.234  1.00  0.00     0.013 A 
HETATM   25  C15 UNL     1      11.535  20.014  13.811  1.00  0.00    -0.017 A 
HETATM   26  C25 UNL     1      12.444  20.146  12.769  1.00  0.00     0.049 A 
BRANCH  25  27
HETATM   27  C16 UNL     1      11.376  18.727  14.451  1.00  0.00     0.122 C 
BRANCH  27  28
HETATM   28  N4  UNL     1      12.005  18.508  15.727  1.00  0.00    -0.229 N 
HETATM   29  C17 UNL     1      13.183  19.201  15.995  1.00  0.00     0.150 A 
HETATM   30  C18 UNL     1      13.768  19.310  17.244  1.00  0.00     0.091 A 
HETATM   31  N5  UNL     1      14.405  19.950  16.133  1.00  0.00    -0.336 N 
HETATM   32  C19 UNL     1      13.189  18.694  18.409  1.00  0.00     0.018 A 
HETATM   33  C20 UNL     1      13.766  18.966  19.678  1.00  0.00     0.015 A 
HETATM   34  C24 UNL     1      12.058  17.952  18.424  1.00  0.00     0.092 A 
HETATM   35  C21 UNL     1      13.242  18.528  20.862  1.00  0.00     0.001 A 
HETATM   36  C22 UNL     1      12.075  17.772  20.817  1.00  0.00     0.002 A 
HETATM   37  C23 UNL     1      11.508  17.501  19.592  1.00  0.00     0.026 A 
HETATM   38  S1  UNL     1      11.326  17.469  16.917  1.00  0.00     0.271 S 
HETATM   39  O3  UNL     1      11.630  16.053  16.543  1.00  0.00    -0.200 OA
HETATM   40  O4  UNL     1       9.828  17.588  16.971  1.00  0.00    -0.200 OA
ATOM     41  H5  UNL     1      15.158  20.513  15.736  1.00  0.00     0.168 HD
ENDBRANCH  27  28
ENDBRANCH  25  27
ENDBRANCH  20  21
ENDBRANCH  19  20
ENDBRANCH  18  19
ENDBRANCH  17  18
ENDBRANCH  14  17
BRANCH  16  42
HETATM   42  C28 UNL     1      19.373  24.324  16.931  1.00  0.00     0.152 C 
BRANCH  42  43
HETATM   43  C29 UNL     1      19.620  24.434  15.444  1.00  0.00     0.059 C 
BRANCH  43  44
HETATM   44  C30 UNL     1      20.056  25.781  15.031  1.00  0.00    -0.057 A 
HETATM   45  C31 UNL     1      21.381  26.174  15.158  1.00  0.00     0.007 A 
HETATM   46  C32 UNL     1      21.765  27.435  14.760  1.00  0.00     0.001 A 
HETATM   47  C33 UNL     1      20.816  28.278  14.243  1.00  0.00     0.000 A 
HETATM   48  C34 UNL     1      19.507  27.899  14.114  1.00  0.00     0.001 A 
HETATM   49  C35 UNL     1      19.107  26.655  14.502  1.00  0.00     0.007 A 
ENDBRANCH  43  44
ENDBRANCH  42  43
ENDBRANCH  16  42
ENDBRANCH   5   7
ENDBRANCH   4   5
ENDBRANCH   3   4
TORSDOF 13
ENDMDL
MODEL 3
REMARK VINA RESULT: -9.911959157      3.108      9.436
REMARK  13 active torsions:
REMARK  status: ('A' for Active; 'I' for Inactive)
REMARK    1  A    between atoms: C2_3  and  C3_4 
REMARK    2  A    between atoms: C3_4  and  N2_5 
REMARK    3  A    between atoms: N2_5  and  C4_7 
REMARK    4  A    between atoms: C8_13  and  O1_14 
REMARK    5  A    between atoms: O1_14  and  C9_15 
REMARK    6  A    between atoms: C9_15  and  C10_16 
REMARK    7  A    between atoms: C10_16  and  O2_17 
REMARK    8  A    between atoms: O2_17  and  C11_18 
REMARK    9  A    between atoms: C15_22  and  C16_23 
REMARK   10  A    between atoms: C16_23  and  N4_24 
REMARK   11  A    between atoms: N6_41  and  C28_42 
REMARK   12  A    between atoms: C28_42  and  C29_43 
REMARK   13  A    between atoms: C29_43  and  C30_44 
ROOT
HETATM    1  N1  UNL     1      21.318  25.727  18.873  1.00  0.00    -0.197 NA
HETATM    2  C1  UNL     1      20.786  25.278  19.796  1.00  0.00     0.060 C 
HETATM    3  C2  UNL     1      20.127  24.687  20.963  1.00  0.00     0.144 C 
ENDROOT
BRANCH   3   4
HETATM    4  C3  UNL     1      18.892  23.907  20.492  1.00  0.00     0.152 C 
BRANCH   4   5
HETATM    5  N2  UNL     1      19.177  23.270  19.236  1.00  0.00    -0.225 N 
ATOM      6  H2  UNL     1      20.162  23.200  18.983  1.00  0.00     0.177 HD
BRANCH   5   7
HETATM    7  C4  UNL     1      18.356  22.784  18.403  1.00  0.00     0.681 A 
HETATM    8  N3  UNL     1      17.681  21.636  18.477  1.00  0.00    -0.190 N 
HETATM    9  C5  UNL     1      16.915  21.511  17.365  1.00  0.00     0.076 A 
ATOM     10  H3  UNL     1      17.732  20.963  19.243  1.00  0.00     0.184 HD
HETATM   11  C6  UNL     1      16.045  20.560  16.947  1.00  0.00     0.035 A 
HETATM   12  C27 UNL     1      17.145  22.640  16.589  1.00  0.00     0.081 A 
HETATM   13  C7  UNL     1      15.361  20.703  15.721  1.00  0.00     0.039 A 
HETATM   14  C8  UNL     1      15.576  21.828  14.922  1.00  0.00     0.071 A 
HETATM   15  C26 UNL     1      16.459  22.759  15.380  1.00  0.00     0.069 A 
HETATM   16  N6  UNL     1      18.025  23.410  17.230  1.00  0.00    -0.181 N 
BRANCH  14  17
HETATM   17  O1  UNL     1      14.873  21.915  13.737  1.00  0.00    -0.349 OA
BRANCH  17  18
HETATM   18  C9  UNL     1      15.380  21.842  12.456  1.00  0.00     0.202 C 
BRANCH  18  19
HETATM   19  C10 UNL     1      14.718  20.930  11.483  1.00  0.00     0.202 C 
BRANCH  19  20
HETATM   20  O2  UNL     1      15.054  19.560  11.742  1.00  0.00    -0.349 OA
BRANCH  20  21
HETATM   21  C11 UNL     1      14.015  18.654  11.861  1.00  0.00     0.069 A 
HETATM   22  C12 UNL     1      13.938  17.475  11.121  1.00  0.00     0.037 A 
HETATM   23  C13 UNL     1      12.907  16.580  11.233  1.00  0.00     0.004 A 
HETATM   24  C14 UNL     1      11.880  16.837  12.116  1.00  0.00     0.013 A 
HETATM   25  C15 UNL     1      11.894  17.975  12.873  1.00  0.00    -0.017 A 
HETATM   26  C25 UNL     1      12.959  18.856  12.730  1.00  0.00     0.049 A 
BRANCH  25  27
HETATM   27  C16 UNL     1      10.812  18.316  13.770  1.00  0.00     0.122 C 
BRANCH  27  28
HETATM   28  N4  UNL     1      11.010  18.147  15.186  1.00  0.00    -0.229 N 
HETATM   29  C17 UNL     1      11.049  16.847  15.683  1.00  0.00     0.150 A 
HETATM   30  C18 UNL     1      11.484  16.499  16.950  1.00  0.00     0.091 A 
HETATM   31  N5  UNL     1      11.039  15.461  16.071  1.00  0.00    -0.336 N 
HETATM   32  C19 UNL     1      11.945  17.486  17.891  1.00  0.00     0.018 A 
HETATM   33  C20 UNL     1      12.508  17.043  19.118  1.00  0.00     0.015 A 
HETATM   34  C24 UNL     1      11.995  18.820  17.668  1.00  0.00     0.092 A 
HETATM   35  C21 UNL     1      13.076  17.878  20.039  1.00  0.00     0.001 A 
HETATM   36  C22 UNL     1      13.103  19.240  19.755  1.00  0.00     0.002 A 
HETATM   37  C23 UNL     1      12.559  19.680  18.570  1.00  0.00     0.026 A 
HETATM   38  S1  UNL     1      11.239  19.483  16.244  1.00  0.00     0.271 S 
HETATM   39  O3  UNL     1       9.907  20.106  16.521  1.00  0.00    -0.200 OA
HETATM   40  O4  UNL     1      12.091  20.551  15.617  1.00  0.00    -0.200 OA
ATOM     41  H5  UNL     1      10.853  14.477  15.870  1.00  0.00     0.168 HD
ENDBRANCH  27  28
ENDBRANCH  25  27
ENDBRANCH  20  21
ENDBRANCH  19  20
ENDBRANCH  18  19
ENDBRANCH  17  18
ENDBRANCH  14  17
BRANCH  16  42
HETATM   42  C28 UNL     1      18.544  24.686  16.808  1.00  0.00     0.152 C 
BRANCH  42  43
HETATM   43  C29 UNL     1      19.659  24.561  15.795  1.00  0.00     0.059 C 
BRANCH  43  44
HETATM   44  C30 UNL     1      20.046  25.855  15.203  1.00  0.00    -0.057 A 
HETATM   45  C31 UNL     1      19.096  26.695  14.637  1.00  0.00     0.007 A 
HETATM   46  C32 UNL     1      19.481  27.901  14.096  1.00  0.00     0.001 A 
HETATM   47  C33 UNL     1      20.807  28.244  14.131  1.00  0.00     0.000 A 
HETATM   48  C34 UNL     1      21.750  27.423  14.687  1.00  0.00     0.001 A 
HETATM   49  C35 UNL     1      21.390  26.224  15.228  1.00  0.00     0.007 A 
ENDBRANCH  43  44
ENDBRANCH  42  43
ENDBRANCH  16  42
ENDBRANCH   5   7
ENDBRANCH   4   5
ENDBRANCH   3   4
TORSDOF 13
ENDMDL
MODEL 4
REMARK VINA RESULT: -9.886522147      2.340      4.041
REMARK  13 active torsions:
REMARK  status: ('A' for Active; 'I' for Inactive)
REMARK    1  A    between atoms: C2_3  and  C3_4 
REMARK    2  A    between atoms: C3_4  and  N2_5 
REMARK    3  A    between atoms: N2_5  and  C4_7 
REMARK    4  A    between atoms: C8_13  and  O1_14 
REMARK    5  A    between atoms: O1_14  and  C9_15 
REMARK    6  A    between atoms: C9_15  and  C10_16 
REMARK    7  A    between atoms: C10_16  and  O2_17 
REMARK    8  A    between atoms: O2_17  and  C11_18 
REMARK    9  A    between atoms: C15_22  and  C16_23 
REMARK   10  A    between atoms: C16_23  and  N4_24 
REMARK   11  A    between atoms: N6_41  and  C28_42 
REMARK   12  A    between atoms: C28_42  and  C29_43 
REMARK   13  A    between atoms: C29_43  and  C30_44 
ROOT
HETATM    1  N1  UNL     1      14.240  17.059  11.107  1.00  0.00    -0.197 NA
HETATM    2  C1  UNL     1      13.286  16.524  10.732  1.00  0.00     0.060 C 
HETATM    3  C2  UNL     1      12.067  15.869  10.251  1.00  0.00     0.144 C 
ENDROOT
BRANCH   3   4
HETATM    4  C3  UNL     1      11.092  15.714  11.426  1.00  0.00     0.152 C 
BRANCH   4   5
HETATM    5  N2  UNL     1      11.213  16.845  12.304  1.00  0.00    -0.225 N 
ATOM      6  H2  UNL     1      11.403  17.741  11.854  1.00  0.00     0.177 HD
BRANCH   5   7
HETATM    7  C4  UNL     1      11.111  16.869  13.565  1.00  0.00     0.681 A 
HETATM    8  N3  UNL     1      10.905  15.850  14.401  1.00  0.00    -0.190 N 
HETATM    9  C5  UNL     1      10.864  16.331  15.668  1.00  0.00     0.076 A 
ATOM     10  H3  UNL     1      10.795  14.872  14.131  1.00  0.00     0.184 HD
HETATM   11  C6  UNL     1      10.694  15.736  16.874  1.00  0.00     0.035 A 
HETATM   12  C27 UNL     1      11.054  17.704  15.586  1.00  0.00     0.081 A 
HETATM   13  C7  UNL     1      10.711  16.502  18.059  1.00  0.00     0.039 A 
HETATM   14  C8  UNL     1      10.899  17.884  18.002  1.00  0.00     0.071 A 
HETATM   15  C26 UNL     1      11.065  18.441  16.770  1.00  0.00     0.069 A 
HETATM   16  N6  UNL     1      11.204  18.023  14.300  1.00  0.00    -0.181 N 
BRANCH  14  17
HETATM   17  O1  UNL     1      10.912  18.577  19.196  1.00  0.00    -0.349 OA
BRANCH  17  18
HETATM   18  C9  UNL     1      11.482  18.181  20.389  1.00  0.00     0.202 C 
BRANCH  18  19
HETATM   19  C10 UNL     1      12.901  17.732  20.381  1.00  0.00     0.202 C 
BRANCH  19  20
HETATM   20  O2  UNL     1      13.799  18.844  20.496  1.00  0.00    -0.349 OA
BRANCH  20  21
HETATM   21  C11 UNL     1      14.182  19.486  19.332  1.00  0.00     0.069 A 
HETATM   22  C12 UNL     1      14.412  18.820  18.129  1.00  0.00     0.037 A 
HETATM   23  C13 UNL     1      14.799  19.453  16.978  1.00  0.00     0.004 A 
HETATM   24  C14 UNL     1      14.978  20.820  16.985  1.00  0.00     0.013 A 
HETATM   25  C15 UNL     1      14.770  21.535  18.131  1.00  0.00    -0.017 A 
HETATM   26  C25 UNL     1      14.377  20.854  19.276  1.00  0.00     0.049 A 
BRANCH  25  27
HETATM   27  C16 UNL     1      15.001  22.960  18.201  1.00  0.00     0.122 C 
BRANCH  27  28
HETATM   28  N4  UNL     1      16.341  23.452  18.009  1.00  0.00    -0.229 N 
HETATM   29  C17 UNL     1      16.520  24.507  17.118  1.00  0.00     0.150 A 
HETATM   30  C18 UNL     1      17.675  25.262  17.010  1.00  0.00     0.091 A 
HETATM   31  N5  UNL     1      16.573  25.573  16.151  1.00  0.00    -0.336 N 
HETATM   32  C19 UNL     1      18.826  25.010  17.838  1.00  0.00     0.018 A 
HETATM   33  C20 UNL     1      19.920  25.912  17.771  1.00  0.00     0.015 A 
HETATM   34  C24 UNL     1      18.922  24.036  18.773  1.00  0.00     0.092 A 
HETATM   35  C21 UNL     1      21.018  25.839  18.584  1.00  0.00     0.001 A 
HETATM   36  C22 UNL     1      21.060  24.820  19.529  1.00  0.00     0.002 A 
HETATM   37  C23 UNL     1      20.005  23.938  19.601  1.00  0.00     0.026 A 
HETATM   38  S1  UNL     1      17.684  22.812  18.870  1.00  0.00     0.271 S 
HETATM   39  O3  UNL     1      18.086  21.519  18.233  1.00  0.00    -0.200 OA
HETATM   40  O4  UNL     1      17.333  22.497  20.297  1.00  0.00    -0.200 OA
ATOM     41  H5  UNL     1      16.146  26.130  15.411  1.00  0.00     0.168 HD
ENDBRANCH  27  28
ENDBRANCH  25  27
ENDBRANCH  20  21
ENDBRANCH  19  20
ENDBRANCH  18  19
ENDBRANCH  17  18
ENDBRANCH  14  17
BRANCH  16  42
HETATM   42  C28 UNL     1      11.443  19.331  13.742  1.00  0.00     0.152 C 
BRANCH  42  43
HETATM   43  C29 UNL     1      12.898  19.572  13.412  1.00  0.00     0.059 C 
BRANCH  43  44
HETATM   44  C30 UNL     1      13.351  20.929  13.768  1.00  0.00    -0.057 A 
HETATM   45  C31 UNL     1      14.611  21.382  13.399  1.00  0.00     0.007 A 
HETATM   46  C32 UNL     1      15.009  22.655  13.738  1.00  0.00     0.001 A 
HETATM   47  C33 UNL     1      14.141  23.451  14.439  1.00  0.00     0.000 A 
HETATM   48  C34 UNL     1      12.898  23.014  14.807  1.00  0.00     0.001 A 
HETATM   49  C35 UNL     1      12.484  21.756  14.481  1.00  0.00     0.007 A 
ENDBRANCH  43  44
ENDBRANCH  42  43
ENDBRANCH  16  42
ENDBRANCH   5   7
ENDBRANCH   4   5
ENDBRANCH   3   4
TORSDOF 13
ENDMDL
MODEL 5
REMARK VINA RESULT: -9.825487410      3.552      6.282
REMARK  13 active torsions:
REMARK  status: ('A' for Active; 'I' for Inactive)
REMARK    1  A    between atoms: C2_3  and  C3_4 
REMARK    2  A    between atoms: C3_4  and  N2_5 
REMARK    3  A    between atoms: N2_5  and  C4_7 
REMARK    4  A    between atoms: C8_13  and  O1_14 
REMARK    5  A    between atoms: O1_14  and  C9_15 
REMARK    6  A    between atoms: C9_15  and  C10_16 
REMARK    7  A    between atoms: C10_16  and  O2_17 
REMARK    8  A    between atoms: O2_17  and  C11_18 
REMARK    9  A    between atoms: C15_22  and  C16_23 
REMARK   10  A    between atoms: C16_23  and  N4_24 
REMARK   11  A    between atoms: N6_41  and  C28_42 
REMARK   12  A    between atoms: C28_42  and  C29_43 
REMARK   13  A    between atoms: C29_43  and  C30_44 
ROOT
HETATM    1  N1  UNL     1      14.804  15.511   8.566  1.00  0.00    -0.197 NA
HETATM    2  C1  UNL     1      15.658  16.277   8.708  1.00  0.00     0.060 C 
HETATM    3  C2  UNL     1      16.753  17.231   8.906  1.00  0.00     0.144 C 
ENDROOT
BRANCH   3   4
HETATM    4  C3  UNL     1      16.354  18.219  10.011  1.00  0.00     0.152 C 
BRANCH   4   5
HETATM    5  N2  UNL     1      15.129  17.786  10.624  1.00  0.00    -0.225 N 
ATOM      6  H2  UNL     1      14.729  16.921  10.261  1.00  0.00     0.177 HD
BRANCH   5   7
HETATM    7  C4  UNL     1      14.484  18.343  11.560  1.00  0.00     0.681 A 
HETATM    8  N3  UNL     1      14.890  19.309  12.386  1.00  0.00    -0.190 N 
HETATM    9  C5  UNL     1      13.875  19.606  13.236  1.00  0.00     0.076 A 
ATOM     10  H3  UNL     1      15.809  19.750  12.380  1.00  0.00     0.184 HD
HETATM   11  C6  UNL     1      13.751  20.501  14.246  1.00  0.00     0.035 A 
HETATM   12  C27 UNL     1      12.812  18.777  12.901  1.00  0.00     0.081 A 
HETATM   13  C7  UNL     1      12.544  20.604  14.969  1.00  0.00     0.039 A 
HETATM   14  C8  UNL     1      11.462  19.780  14.652  1.00  0.00     0.071 A 
HETATM   15  C26 UNL     1      11.629  18.895  13.630  1.00  0.00     0.069 A 
HETATM   16  N6  UNL     1      13.193  18.011  11.878  1.00  0.00    -0.181 N 
BRANCH  14  17
HETATM   17  O1  UNL     1      10.305  19.932  15.390  1.00  0.00    -0.349 OA
BRANCH  17  18
HETATM   18  C9  UNL     1      10.188  19.969  16.765  1.00  0.00     0.202 C 
BRANCH  18  19
HETATM   19  C10 UNL     1      10.250  18.685  17.515  1.00  0.00     0.202 C 
BRANCH  19  20
HETATM   20  O2  UNL     1      11.047  18.813  18.701  1.00  0.00    -0.349 OA
BRANCH  20  21
HETATM   21  C11 UNL     1      12.423  18.765  18.561  1.00  0.00     0.069 A 
HETATM   22  C12 UNL     1      13.119  17.604  18.226  1.00  0.00     0.037 A 
HETATM   23  C13 UNL     1      14.481  17.553  18.096  1.00  0.00     0.004 A 
HETATM   24  C14 UNL     1      15.224  18.696  18.301  1.00  0.00     0.013 A 
HETATM   25  C15 UNL     1      14.605  19.868  18.632  1.00  0.00    -0.017 A 
HETATM   26  C25 UNL     1      13.221  19.877  18.753  1.00  0.00     0.049 A 
BRANCH  25  27
HETATM   27  C16 UNL     1      15.346  21.077  18.914  1.00  0.00     0.122 C 
BRANCH  27  28
HETATM   28  N4  UNL     1      15.854  21.849  17.810  1.00  0.00    -0.229 N 
HETATM   29  C17 UNL     1      14.965  22.690  17.146  1.00  0.00     0.150 A 
HETATM   30  C18 UNL     1      15.332  23.679  16.251  1.00  0.00     0.091 A 
HETATM   31  N5  UNL     1      13.941  23.492  16.528  1.00  0.00    -0.336 N 
HETATM   32  C19 UNL     1      16.711  23.927  15.919  1.00  0.00     0.018 A 
HETATM   33  C20 UNL     1      17.022  25.048  15.104  1.00  0.00     0.015 A 
HETATM   34  C24 UNL     1      17.771  23.244  16.409  1.00  0.00     0.092 A 
HETATM   35  C21 UNL     1      18.297  25.447  14.812  1.00  0.00     0.001 A 
HETATM   36  C22 UNL     1      19.348  24.709  15.347  1.00  0.00     0.002 A 
HETATM   37  C23 UNL     1      19.058  23.619  16.137  1.00  0.00     0.026 A 
HETATM   38  S1  UNL     1      17.505  21.790  17.334  1.00  0.00     0.271 S 
HETATM   39  O3  UNL     1      17.729  20.541  16.541  1.00  0.00    -0.200 OA
HETATM   40  O4  UNL     1      18.425  21.717  18.520  1.00  0.00    -0.200 OA
ATOM     41  H5  UNL     1      12.960  23.740  16.392  1.00  0.00     0.168 HD
ENDBRANCH  27  28
ENDBRANCH  25  27
ENDBRANCH  20  21
ENDBRANCH  19  20
ENDBRANCH  18  19
ENDBRANCH  17  18
ENDBRANCH  14  17
BRANCH  16  42
HETATM   42  C28 UNL     1      12.412  17.014  11.190  1.00  0.00     0.152 C 
BRANCH  42  43
HETATM   43  C29 UNL     1      12.711  15.608  11.657  1.00  0.00     0.059 C 
BRANCH  43  44
HETATM   44  C30 UNL     1      11.531  14.927  12.222  1.00  0.00    -0.057 A 
HETATM   45  C31 UNL     1      10.720  14.126  11.430  1.00  0.00     0.007 A 
HETATM   46  C32 UNL     1       9.628  13.496  11.982  1.00  0.00     0.001 A 
HETATM   47  C33 UNL     1       9.368  13.678  13.315  1.00  0.00     0.000 A 
HETATM   48  C34 UNL     1      10.162  14.465  14.104  1.00  0.00     0.001 A 
HETATM   49  C35 UNL     1      11.249  15.099  13.577  1.00  0.00     0.007 A 
ENDBRANCH  43  44
ENDBRANCH  42  43
ENDBRANCH  16  42
ENDBRANCH   5   7
ENDBRANCH   4   5
ENDBRANCH   3   4
TORSDOF 13
ENDMDL
