MODEL 1
REMARK VINA RESULT: -10.105659191      0.000      0.000
REMARK  18 active torsions:
REMARK  status: ('A' for Active; 'I' for Inactive)
REMARK    1  A    between atoms: O1_1  and  C1_3 
REMARK    2  A    between atoms: C1_3  and  C2_4 
REMARK    3  A    between atoms: C1_3  and  N1_17 
REMARK    4  A    between atoms: C2_4  and  C3_5 
REMARK    5  A    between atoms: C7_9  and  C8_10 
REMARK    6  A    between atoms: N1_17  and  C15_18 
REMARK    7  A    between atoms: C16_23  and  C17_24 
REMARK    8  A    between atoms: C17_24  and  C18_25 
REMARK    9  A    between atoms: C18_25  and  C19_26 
REMARK   10  A    between atoms: C19_26  and  C20_27 
REMARK   11  A    between atoms: C20_27  and  C21_28 
REMARK   12  A    between atoms: C22_33  and  N6_34 
REMARK   13  A    between atoms: N6_34  and  C23_35 
REMARK   14  A    between atoms: C23_35  and  O2_36 
REMARK   15  A    between atoms: C23_35  and  C24_38 
REMARK   16  A    between atoms: C27_41  and  C28_42 
REMARK   17  A    between atoms: C28_42  and  C29_43 
REMARK   18  A    between atoms: C29_43  and  C30_45 
ROOT
HETATM    1  C19 UNL     1      17.957  23.546  20.472  1.00  0.00     0.008 C 
ENDROOT
BRANCH   1   2
HETATM    2  C18 UNL     1      17.647  22.080  20.421  1.00  0.00     0.007 C 
BRANCH   2   3
HETATM    3  C17 UNL     1      17.534  21.561  19.011  1.00  0.00     0.066 C 
BRANCH   3   4
HETATM    4  C16 UNL     1      16.061  21.317  18.766  1.00  0.00     0.070 A 
HETATM    5  N3  UNL     1      15.051  22.153  18.878  1.00  0.00    -0.295 N 
HETATM    6  N2  UNL     1      13.878  21.820  18.635  1.00  0.00    -0.267 N 
ATOM      7  H3  UNL     1      15.238  23.111  19.177  1.00  0.00     0.187 HD
HETATM    8  C15 UNL     1      13.622  20.528  18.231  1.00  0.00     0.241 A 
ATOM      9  H2  UNL     1      13.118  22.493  18.733  1.00  0.00     0.190 HD
HETATM   10  S1  UNL     1      15.260  19.910  18.260  1.00  0.00    -0.023 SA
BRANCH   8  11
HETATM   11  N1  UNL     1      12.575  20.031  17.944  1.00  0.00    -0.358 NA
BRANCH  11  12
HETATM   12  C1  UNL     1      11.437  19.493  17.667  1.00  0.00     0.197 C 
BRANCH  12  13
HETATM   13  O1  UNL     1      10.334  20.174  17.788  1.00  0.00    -0.339 OA
ATOM     14  H1  UNL     1      10.397  20.845  18.458  1.00  0.00     0.220 HD
ENDBRANCH  12  13
BRANCH  12  15
HETATM   15  C2  UNL     1      11.187  18.069  17.184  1.00  0.00     0.138 C 
BRANCH  15  16
HETATM   16  C3  UNL     1      11.168  18.077  15.710  1.00  0.00    -0.049 A 
HETATM   17  C4  UNL     1      10.663  17.032  14.976  1.00  0.00     0.007 A 
HETATM   18  C5  UNL     1      10.676  17.092  13.604  1.00  0.00     0.001 A 
HETATM   19  C6  UNL     1      11.182  18.171  12.914  1.00  0.00     0.012 A 
HETATM   20  C7  UNL     1      11.684  19.206  13.695  1.00  0.00    -0.025 A 
HETATM   21  C14 UNL     1      11.682  19.169  15.054  1.00  0.00     0.020 A 
BRANCH  20  22
HETATM   22  C8  UNL     1      12.240  20.381  12.998  1.00  0.00    -0.026 A 
HETATM   23  C9  UNL     1      11.640  21.614  13.172  1.00  0.00     0.012 A 
HETATM   24  C10 UNL     1      12.171  22.709  12.515  1.00  0.00     0.001 A 
HETATM   25  C11 UNL     1      13.276  22.608  11.696  1.00  0.00     0.000 A 
HETATM   26  C12 UNL     1      13.860  21.366  11.536  1.00  0.00     0.001 A 
HETATM   27  C13 UNL     1      13.343  20.244  12.188  1.00  0.00     0.012 A 
ENDBRANCH  20  22
ENDBRANCH  15  16
ENDBRANCH  12  15
ENDBRANCH  11  12
ENDBRANCH   8  11
ENDBRANCH   3   4
ENDBRANCH   2   3
ENDBRANCH   1   2
BRANCH   1  28
HETATM   28  C20 UNL     1      19.416  23.863  20.281  1.00  0.00     0.078 C 
BRANCH  28  29
HETATM   29  C21 UNL     1      19.629  24.731  19.099  1.00  0.00     0.096 A 
HETATM   30  N4  UNL     1      20.095  25.978  19.299  1.00  0.00    -0.287 N 
HETATM   31  N5  UNL     1      20.308  26.805  18.302  1.00  0.00    -0.271 N 
ATOM     32  H4  UNL     1      20.290  26.288  20.251  1.00  0.00     0.188 HD
HETATM   33  C22 UNL     1      20.070  26.463  16.987  1.00  0.00     0.219 A 
ATOM     34  H5  UNL     1      20.663  27.739  18.508  1.00  0.00     0.189 HD
HETATM   35  C27 UNL     1      19.583  25.159  16.793  1.00  0.00     0.078 A 
HETATM   36  N7  UNL     1      19.387  24.362  17.838  1.00  0.00    -0.344 N 
ATOM     37  H7  UNL     1      19.033  23.421  17.669  1.00  0.00     0.167 HD
BRANCH  33  38
HETATM   38  N6  UNL     1      20.288  27.270  16.142  1.00  0.00    -0.363 NA
BRANCH  38  39
HETATM   39  C23 UNL     1      20.597  28.115  15.188  1.00  0.00     0.196 C 
BRANCH  39  40
HETATM   40  O2  UNL     1      19.643  28.810  14.638  1.00  0.00    -0.339 OA
ATOM     41  H2  UNL     1      18.937  28.349  14.202  1.00  0.00     0.220 HD
ENDBRANCH  39  40
BRANCH  39  42
HETATM   42  C24 UNL     1      21.952  28.408  14.615  1.00  0.00     0.075 A 
HETATM   43  C25 UNL     1      22.849  29.142  15.634  1.00  0.00     0.015 A 
HETATM   44  C26 UNL     1      23.148  27.762  15.183  1.00  0.00     0.015 A 
ENDBRANCH  39  42
ENDBRANCH  38  39
ENDBRANCH  33  38
BRANCH  35  45
HETATM   45  C28 UNL     1      19.297  24.695  15.428  1.00  0.00     0.146 C 
BRANCH  45  46
HETATM   46  C29 UNL     1      17.910  25.098  15.043  1.00  0.00     0.165 C 
HETATM   47  O3  UNL     1      17.598  26.261  14.695  1.00  0.00    -0.292 OA
BRANCH  46  48
HETATM   48  C30 UNL     1      16.854  24.090  15.071  1.00  0.00     0.010 A 
HETATM   49  C31 UNL     1      15.521  24.434  15.018  1.00  0.00     0.015 A 
HETATM   50  C32 UNL     1      14.515  23.486  15.047  1.00  0.00     0.001 A 
HETATM   51  C33 UNL     1      14.804  22.141  15.132  1.00  0.00     0.000 A 
HETATM   52  C34 UNL     1      16.150  21.790  15.187  1.00  0.00     0.001 A 
HETATM   53  C35 UNL     1      17.153  22.735  15.157  1.00  0.00     0.015 A 
ENDBRANCH  46  48
ENDBRANCH  45  46
ENDBRANCH  35  45
ENDBRANCH  28  29
ENDBRANCH   1  28
TORSDOF 18
ENDMDL
MODEL 2
REMARK VINA RESULT: -10.008171437      2.725      9.466
REMARK  18 active torsions:
REMARK  status: ('A' for Active; 'I' for Inactive)
REMARK    1  A    between atoms: O1_1  and  C1_3 
REMARK    2  A    between atoms: C1_3  and  C2_4 
REMARK    3  A    between atoms: C1_3  and  N1_17 
REMARK    4  A    between atoms: C2_4  and  C3_5 
REMARK    5  A    between atoms: C7_9  and  C8_10 
REMARK    6  A    between atoms: N1_17  and  C15_18 
REMARK    7  A    between atoms: C16_23  and  C17_24 
REMARK    8  A    between atoms: C17_24  and  C18_25 
REMARK    9  A    between atoms: C18_25  and  C19_26 
REMARK   10  A    between atoms: C19_26  and  C20_27 
REMARK   11  A    between atoms: C20_27  and  C21_28 
REMARK   12  A    between atoms: C22_33  and  N6_34 
REMARK   13  A    between atoms: N6_34  and  C23_35 
REMARK   14  A    between atoms: C23_35  and  O2_36 
REMARK   15  A    between atoms: C23_35  and  C24_38 
REMARK   16  A    between atoms: C27_41  and  C28_42 
REMARK   17  A    between atoms: C28_42  and  C29_43 
REMARK   18  A    between atoms: C29_43  and  C30_45 
ROOT
HETATM    1  C19 UNL     1      17.091  22.350  19.792  1.00  0.00     0.008 C 
ENDROOT
BRANCH   1   2
HETATM    2  C18 UNL     1      18.577  22.421  19.971  1.00  0.00     0.007 C 
BRANCH   2   3
HETATM    3  C17 UNL     1      18.995  23.527  20.906  1.00  0.00     0.066 C 
BRANCH   3   4
HETATM    4  C16 UNL     1      19.806  24.500  20.079  1.00  0.00     0.070 A 
HETATM    5  N3  UNL     1      19.402  25.560  19.413  1.00  0.00    -0.295 N 
HETATM    6  N2  UNL     1      20.184  26.285  18.774  1.00  0.00    -0.267 N 
ATOM      7  H3  UNL     1      18.409  25.796  19.421  1.00  0.00     0.187 HD
HETATM    8  C15 UNL     1      21.525  25.971  18.761  1.00  0.00     0.241 A 
ATOM      9  H2  UNL     1      19.838  27.100  18.267  1.00  0.00     0.190 HD
HETATM   10  S1  UNL     1      21.472  24.537  19.765  1.00  0.00    -0.023 SA
BRANCH   8  11
HETATM   11  N1  UNL     1      22.420  26.547  18.220  1.00  0.00    -0.358 NA
BRANCH  11  12
HETATM   12  C1  UNL     1      23.389  27.144  17.615  1.00  0.00     0.197 C 
BRANCH  12  13
HETATM   13  O1  UNL     1      24.250  27.855  18.285  1.00  0.00    -0.339 OA
ATOM     14  H1  UNL     1      23.844  28.592  18.726  1.00  0.00     0.220 HD
ENDBRANCH  12  13
BRANCH  12  15
HETATM   15  C2  UNL     1      23.686  27.132  16.120  1.00  0.00     0.138 C 
BRANCH  15  16
HETATM   16  C3  UNL     1      22.418  27.328  15.394  1.00  0.00    -0.049 A 
HETATM   17  C4  UNL     1      22.175  28.439  14.624  1.00  0.00     0.007 A 
HETATM   18  C5  UNL     1      20.972  28.569  13.975  1.00  0.00     0.001 A 
HETATM   19  C6  UNL     1      19.977  27.621  14.060  1.00  0.00     0.012 A 
HETATM   20  C7  UNL     1      20.264  26.513  14.849  1.00  0.00    -0.025 A 
HETATM   21  C14 UNL     1      21.447  26.362  15.502  1.00  0.00     0.020 A 
BRANCH  20  22
HETATM   22  C8  UNL     1      19.224  25.474  14.972  1.00  0.00    -0.026 A 
HETATM   23  C9  UNL     1      19.514  24.309  15.656  1.00  0.00     0.012 A 
HETATM   24  C10 UNL     1      18.532  23.341  15.767  1.00  0.00     0.001 A 
HETATM   25  C11 UNL     1      17.276  23.505  15.219  1.00  0.00     0.000 A 
HETATM   26  C12 UNL     1      17.008  24.678  14.539  1.00  0.00     0.001 A 
HETATM   27  C13 UNL     1      17.983  25.670  14.413  1.00  0.00     0.012 A 
ENDBRANCH  20  22
ENDBRANCH  15  16
ENDBRANCH  12  15
ENDBRANCH  11  12
ENDBRANCH   8  11
ENDBRANCH   3   4
ENDBRANCH   2   3
ENDBRANCH   1   2
BRANCH   1  28
HETATM   28  C20 UNL     1      16.520  23.502  19.008  1.00  0.00     0.078 C 
BRANCH  28  29
HETATM   29  C21 UNL     1      15.509  23.038  18.029  1.00  0.00     0.096 A 
HETATM   30  N4  UNL     1      14.773  23.964  17.385  1.00  0.00    -0.287 N 
HETATM   31  N5  UNL     1      13.858  23.630  16.505  1.00  0.00    -0.271 N 
ATOM     32  H4  UNL     1      14.931  24.951  17.586  1.00  0.00     0.188 HD
HETATM   33  C22 UNL     1      13.583  22.318  16.177  1.00  0.00     0.219 A 
ATOM     34  H5  UNL     1      13.328  24.370  16.045  1.00  0.00     0.189 HD
HETATM   35  C27 UNL     1      14.358  21.364  16.856  1.00  0.00     0.078 A 
HETATM   36  N7  UNL     1      15.272  21.756  17.738  1.00  0.00    -0.344 N 
ATOM     37  H7  UNL     1      15.820  21.042  18.216  1.00  0.00     0.167 HD
BRANCH  33  38
HETATM   38  N6  UNL     1      12.739  22.099  15.370  1.00  0.00    -0.363 NA
BRANCH  38  39
HETATM   39  C23 UNL     1      11.823  21.934  14.446  1.00  0.00     0.196 C 
BRANCH  39  40
HETATM   40  O2  UNL     1      10.592  21.733  14.817  1.00  0.00    -0.339 OA
ATOM     41  H2  UNL     1      10.258  20.844  14.827  1.00  0.00     0.220 HD
ENDBRANCH  39  40
BRANCH  39  42
HETATM   42  C24 UNL     1      12.000  21.942  12.956  1.00  0.00     0.075 A 
HETATM   43  C25 UNL     1      12.490  23.318  12.454  1.00  0.00     0.015 A 
HETATM   44  C26 UNL     1      13.343  22.109  12.374  1.00  0.00     0.015 A 
ENDBRANCH  39  42
ENDBRANCH  38  39
ENDBRANCH  33  38
BRANCH  35  45
HETATM   45  C28 UNL     1      14.144  19.936  16.580  1.00  0.00     0.146 C 
BRANCH  45  46
HETATM   46  C29 UNL     1      14.731  19.119  17.686  1.00  0.00     0.165 C 
HETATM   47  O3  UNL     1      15.955  18.866  17.786  1.00  0.00    -0.292 OA
BRANCH  46  48
HETATM   48  C30 UNL     1      13.839  18.582  18.709  1.00  0.00     0.010 A 
HETATM   49  C31 UNL     1      13.070  17.461  18.486  1.00  0.00     0.015 A 
HETATM   50  C32 UNL     1      12.220  16.948  19.449  1.00  0.00     0.001 A 
HETATM   51  C33 UNL     1      12.104  17.541  20.687  1.00  0.00     0.000 A 
HETATM   52  C34 UNL     1      12.879  18.675  20.916  1.00  0.00     0.001 A 
HETATM   53  C35 UNL     1      13.726  19.186  19.956  1.00  0.00     0.015 A 
ENDBRANCH  46  48
ENDBRANCH  45  46
ENDBRANCH  35  45
ENDBRANCH  28  29
ENDBRANCH   1  28
TORSDOF 18
ENDMDL
MODEL 3
REMARK VINA RESULT: -10.000333338      1.298      2.276
REMARK  18 active torsions:
REMARK  status: ('A' for Active; 'I' for Inactive)
REMARK    1  A    between atoms: O1_1  and  C1_3 
REMARK    2  A    between atoms: C1_3  and  C2_4 
REMARK    3  A    between atoms: C1_3  and  N1_17 
REMARK    4  A    between atoms: C2_4  and  C3_5 
REMARK    5  A    between atoms: C7_9  and  C8_10 
REMARK    6  A    between atoms: N1_17  and  C15_18 
REMARK    7  A    between atoms: C16_23  and  C17_24 
REMARK    8  A    between atoms: C17_24  and  C18_25 
REMARK    9  A    between atoms: C18_25  and  C19_26 
REMARK   10  A    between atoms: C19_26  and  C20_27 
REMARK   11  A    between atoms: C20_27  and  C21_28 
REMARK   12  A    between atoms: C22_33  and  N6_34 
REMARK   13  A    between atoms: N6_34  and  C23_35 
REMARK   14  A    between atoms: C23_35  and  O2_36 
REMARK   15  A    between atoms: C23_35  and  C24_38 
REMARK   16  A    between atoms: C27_41  and  C28_42 
REMARK   17  A    between atoms: C28_42  and  C29_43 
REMARK   18  A    between atoms: C29_43  and  C30_45 
ROOT
HETATM    1  C19 UNL     1      18.942  22.888  20.529  1.00  0.00     0.008 C 
ENDROOT
BRANCH   1   2
HETATM    2  C18 UNL     1      17.696  22.120  20.205  1.00  0.00     0.007 C 
BRANCH   2   3
HETATM    3  C17 UNL     1      17.659  21.656  18.772  1.00  0.00     0.066 C 
BRANCH   3   4
HETATM    4  C16 UNL     1      16.202  21.416  18.441  1.00  0.00     0.070 A 
HETATM    5  N3  UNL     1      15.213  22.282  18.373  1.00  0.00    -0.295 N 
HETATM    6  N2  UNL     1      14.053  21.948  18.078  1.00  0.00    -0.267 N 
ATOM      7  H3  UNL     1      15.407  23.264  18.568  1.00  0.00     0.187 HD
HETATM    8  C15 UNL     1      13.787  20.622  17.812  1.00  0.00     0.241 A 
ATOM      9  H2  UNL     1      13.309  22.644  18.035  1.00  0.00     0.190 HD
HETATM   10  S1  UNL     1      15.398  19.976  18.045  1.00  0.00    -0.023 SA
BRANCH   8  11
HETATM   11  N1  UNL     1      12.750  20.117  17.505  1.00  0.00    -0.358 NA
BRANCH  11  12
HETATM   12  C1  UNL     1      11.646  19.545  17.165  1.00  0.00     0.197 C 
BRANCH  12  13
HETATM   13  O1  UNL     1      11.455  18.279  17.405  1.00  0.00    -0.339 OA
ATOM     14  H1  UNL     1      12.129  17.913  17.966  1.00  0.00     0.220 HD
ENDBRANCH  12  13
BRANCH  12  15
HETATM   15  C2  UNL     1      10.451  20.190  16.474  1.00  0.00     0.138 C 
BRANCH  15  16
HETATM   16  C3  UNL     1      10.817  20.460  15.072  1.00  0.00    -0.049 A 
HETATM   17  C4  UNL     1      10.495  21.636  14.440  1.00  0.00     0.007 A 
HETATM   18  C5  UNL     1      10.858  21.829  13.130  1.00  0.00     0.001 A 
HETATM   19  C6  UNL     1      11.542  20.881  12.403  1.00  0.00     0.012 A 
HETATM   20  C7  UNL     1      11.848  19.705  13.079  1.00  0.00    -0.025 A 
HETATM   21  C14 UNL     1      11.499  19.491  14.375  1.00  0.00     0.020 A 
BRANCH  20  22
HETATM   22  C8  UNL     1      12.576  18.660  12.337  1.00  0.00    -0.026 A 
HETATM   23  C9  UNL     1      13.900  18.870  12.001  1.00  0.00     0.012 A 
HETATM   24  C10 UNL     1      14.575  17.882  11.307  1.00  0.00     0.001 A 
HETATM   25  C11 UNL     1      13.968  16.698  10.942  1.00  0.00     0.000 A 
HETATM   26  C12 UNL     1      12.643  16.508  11.288  1.00  0.00     0.001 A 
HETATM   27  C13 UNL     1      11.941  17.491  11.988  1.00  0.00     0.012 A 
ENDBRANCH  20  22
ENDBRANCH  15  16
ENDBRANCH  12  15
ENDBRANCH  11  12
ENDBRANCH   8  11
ENDBRANCH   3   4
ENDBRANCH   2   3
ENDBRANCH   1   2
BRANCH   1  28
HETATM   28  C20 UNL     1      18.711  24.364  20.717  1.00  0.00     0.078 C 
BRANCH  28  29
HETATM   29  C21 UNL     1      19.024  25.120  19.482  1.00  0.00     0.096 A 
HETATM   30  N4  UNL     1      20.045  25.997  19.512  1.00  0.00    -0.287 N 
HETATM   31  N5  UNL     1      20.381  26.704  18.458  1.00  0.00    -0.271 N 
ATOM     32  H4  UNL     1      20.572  26.115  20.378  1.00  0.00     0.188 HD
HETATM   33  C22 UNL     1      19.719  26.604  17.251  1.00  0.00     0.219 A 
ATOM     34  H5  UNL     1      21.163  27.354  18.534  1.00  0.00     0.189 HD
HETATM   35  C27 UNL     1      18.656  25.685  17.235  1.00  0.00     0.078 A 
HETATM   36  N7  UNL     1      18.358  24.995  18.330  1.00  0.00    -0.344 N 
ATOM     37  H7  UNL     1      17.581  24.335  18.290  1.00  0.00     0.167 HD
BRANCH  33  38
HETATM   38  N6  UNL     1      20.085  27.279  16.345  1.00  0.00    -0.363 NA
BRANCH  38  39
HETATM   39  C23 UNL     1      20.566  27.990  15.354  1.00  0.00     0.196 C 
BRANCH  39  40
HETATM   40  O2  UNL     1      19.795  28.873  14.788  1.00  0.00    -0.339 OA
ATOM     41  H2  UNL     1      20.013  29.176  13.915  1.00  0.00     0.220 HD
ENDBRANCH  39  40
BRANCH  39  42
HETATM   42  C24 UNL     1      21.939  27.929  14.752  1.00  0.00     0.075 A 
HETATM   43  C25 UNL     1      22.929  28.837  15.512  1.00  0.00     0.015 A 
HETATM   44  C26 UNL     1      23.057  27.361  15.524  1.00  0.00     0.015 A 
ENDBRANCH  39  42
ENDBRANCH  38  39
ENDBRANCH  33  38
BRANCH  35  45
HETATM   45  C28 UNL     1      17.884  25.502  15.997  1.00  0.00     0.146 C 
BRANCH  45  46
HETATM   46  C29 UNL     1      17.866  24.053  15.629  1.00  0.00     0.165 C 
HETATM   47  O3  UNL     1      18.880  23.318  15.662  1.00  0.00    -0.292 OA
BRANCH  46  48
HETATM   48  C30 UNL     1      16.604  23.454  15.207  1.00  0.00     0.010 A 
HETATM   49  C31 UNL     1      16.495  22.107  14.937  1.00  0.00     0.015 A 
HETATM   50  C32 UNL     1      15.303  21.532  14.534  1.00  0.00     0.001 A 
HETATM   51  C33 UNL     1      14.161  22.287  14.382  1.00  0.00     0.000 A 
HETATM   52  C34 UNL     1      14.268  23.649  14.653  1.00  0.00     0.001 A 
HETATM   53  C35 UNL     1      15.455  24.222  15.056  1.00  0.00     0.015 A 
ENDBRANCH  46  48
ENDBRANCH  45  46
ENDBRANCH  35  45
ENDBRANCH  28  29
ENDBRANCH   1  28
TORSDOF 18
ENDMDL
MODEL 4
REMARK VINA RESULT: -9.989403563      2.411      6.015
REMARK  18 active torsions:
REMARK  status: ('A' for Active; 'I' for Inactive)
REMARK    1  A    between atoms: O1_1  and  C1_3 
REMARK    2  A    between atoms: C1_3  and  C2_4 
REMARK    3  A    between atoms: C1_3  and  N1_17 
REMARK    4  A    between atoms: C2_4  and  C3_5 
REMARK    5  A    between atoms: C7_9  and  C8_10 
REMARK    6  A    between atoms: N1_17  and  C15_18 
REMARK    7  A    between atoms: C16_23  and  C17_24 
REMARK    8  A    between atoms: C17_24  and  C18_25 
REMARK    9  A    between atoms: C18_25  and  C19_26 
REMARK   10  A    between atoms: C19_26  and  C20_27 
REMARK   11  A    between atoms: C20_27  and  C21_28 
REMARK   12  A    between atoms: C22_33  and  N6_34 
REMARK   13  A    between atoms: N6_34  and  C23_35 
REMARK   14  A    between atoms: C23_35  and  O2_36 
REMARK   15  A    between atoms: C23_35  and  C24_38 
REMARK   16  A    between atoms: C27_41  and  C28_42 
REMARK   17  A    between atoms: C28_42  and  C29_43 
REMARK   18  A    between atoms: C29_43  and  C30_45 
ROOT
HETATM    1  C19 UNL     1      13.681  23.279  13.565  1.00  0.00     0.008 C 
ENDROOT
BRANCH   1   2
HETATM    2  C18 UNL     1      13.348  21.889  13.115  1.00  0.00     0.007 C 
BRANCH   2   3
HETATM    3  C17 UNL     1      11.863  21.657  13.002  1.00  0.00     0.066 C 
BRANCH   3   4
HETATM    4  C16 UNL     1      11.569  20.396  13.784  1.00  0.00     0.070 A 
HETATM    5  N3  UNL     1      11.824  19.145  13.468  1.00  0.00    -0.295 N 
HETATM    6  N2  UNL     1      11.533  18.194  14.214  1.00  0.00    -0.267 N 
ATOM      7  H3  UNL     1      12.277  18.947  12.575  1.00  0.00     0.187 HD
HETATM    8  C15 UNL     1      10.921  18.457  15.421  1.00  0.00     0.241 A 
ATOM      9  H2  UNL     1      11.743  17.235  13.938  1.00  0.00     0.190 HD
HETATM   10  S1  UNL     1      10.840  20.202  15.304  1.00  0.00    -0.023 SA
BRANCH   8  11
HETATM   11  N1  UNL     1      10.580  17.686  16.266  1.00  0.00    -0.358 NA
BRANCH  11  12
HETATM   12  C1  UNL     1      10.192  16.876  17.191  1.00  0.00     0.197 C 
BRANCH  12  13
HETATM   13  O1  UNL     1       8.929  16.598  17.341  1.00  0.00    -0.339 OA
ATOM     14  H1  UNL     1       8.610  16.825  18.206  1.00  0.00     0.220 HD
ENDBRANCH  12  13
BRANCH  12  15
HETATM   15  C2  UNL     1      11.069  16.150  18.204  1.00  0.00     0.138 C 
BRANCH  15  16
HETATM   16  C3  UNL     1      11.906  17.149  18.893  1.00  0.00    -0.049 A 
HETATM   17  C4  UNL     1      11.772  17.423  20.232  1.00  0.00     0.007 A 
HETATM   18  C5  UNL     1      12.577  18.369  20.819  1.00  0.00     0.001 A 
HETATM   19  C6  UNL     1      13.530  19.071  20.117  1.00  0.00     0.012 A 
HETATM   20  C7  UNL     1      13.633  18.763  18.764  1.00  0.00    -0.025 A 
HETATM   21  C14 UNL     1      12.847  17.832  18.161  1.00  0.00     0.020 A 
BRANCH  20  22
HETATM   22  C8  UNL     1      14.638  19.494  17.971  1.00  0.00    -0.026 A 
HETATM   23  C9  UNL     1      14.375  19.775  16.644  1.00  0.00     0.012 A 
HETATM   24  C10 UNL     1      15.325  20.462  15.909  1.00  0.00     0.001 A 
HETATM   25  C11 UNL     1      16.521  20.874  16.461  1.00  0.00     0.000 A 
HETATM   26  C12 UNL     1      16.763  20.582  17.790  1.00  0.00     0.001 A 
HETATM   27  C13 UNL     1      15.821  19.889  18.552  1.00  0.00     0.012 A 
ENDBRANCH  20  22
ENDBRANCH  15  16
ENDBRANCH  12  15
ENDBRANCH  11  12
ENDBRANCH   8  11
ENDBRANCH   3   4
ENDBRANCH   2   3
ENDBRANCH   1   2
BRANCH   1  28
HETATM   28  C20 UNL     1      13.132  23.622  14.925  1.00  0.00     0.078 C 
BRANCH  28  29
HETATM   29  C21 UNL     1      14.221  23.804  15.914  1.00  0.00     0.096 A 
HETATM   30  N4  UNL     1      13.913  23.728  17.222  1.00  0.00    -0.287 N 
HETATM   31  N5  UNL     1      14.823  23.880  18.157  1.00  0.00    -0.271 N 
ATOM     32  H4  UNL     1      12.947  23.548  17.495  1.00  0.00     0.188 HD
HETATM   33  C22 UNL     1      16.150  24.128  17.872  1.00  0.00     0.219 A 
ATOM     34  H5  UNL     1      14.537  23.813  19.134  1.00  0.00     0.189 HD
HETATM   35  C27 UNL     1      16.456  24.205  16.503  1.00  0.00     0.078 A 
HETATM   36  N7  UNL     1      15.497  24.043  15.598  1.00  0.00    -0.344 N 
ATOM     37  H7  UNL     1      15.747  24.103  14.611  1.00  0.00     0.167 HD
BRANCH  33  38
HETATM   38  N6  UNL     1      16.911  24.253  18.776  1.00  0.00    -0.363 NA
BRANCH  38  39
HETATM   39  C23 UNL     1      17.688  24.423  19.818  1.00  0.00     0.196 C 
BRANCH  39  40
HETATM   40  O2  UNL     1      17.346  25.303  20.715  1.00  0.00    -0.339 OA
ATOM     41  H2  UNL     1      16.440  25.334  21.000  1.00  0.00     0.220 HD
ENDBRANCH  39  40
BRANCH  39  42
HETATM   42  C24 UNL     1      18.973  23.718  20.138  1.00  0.00     0.075 A 
HETATM   43  C25 UNL     1      18.715  22.321  20.741  1.00  0.00     0.015 A 
HETATM   44  C26 UNL     1      19.343  22.493  19.410  1.00  0.00     0.015 A 
ENDBRANCH  39  42
ENDBRANCH  38  39
ENDBRANCH  33  38
BRANCH  35  45
HETATM   45  C28 UNL     1      17.843  24.465  16.091  1.00  0.00     0.146 C 
BRANCH  45  46
HETATM   46  C29 UNL     1      17.882  25.661  15.193  1.00  0.00     0.165 C 
HETATM   47  O3  UNL     1      16.870  26.130  14.622  1.00  0.00    -0.292 OA
BRANCH  46  48
HETATM   48  C30 UNL     1      19.162  26.324  14.965  1.00  0.00     0.010 A 
HETATM   49  C31 UNL     1      19.238  27.588  14.423  1.00  0.00     0.015 A 
HETATM   50  C32 UNL     1      20.447  28.221  14.201  1.00  0.00     0.001 A 
HETATM   51  C33 UNL     1      21.642  27.610  14.514  1.00  0.00     0.000 A 
HETATM   52  C34 UNL     1      21.568  26.332  15.061  1.00  0.00     0.001 A 
HETATM   53  C35 UNL     1      20.364  25.701  15.283  1.00  0.00     0.015 A 
ENDBRANCH  46  48
ENDBRANCH  45  46
ENDBRANCH  35  45
ENDBRANCH  28  29
ENDBRANCH   1  28
TORSDOF 18
ENDMDL
MODEL 5
REMARK VINA RESULT: -9.912694535      2.262      9.690
REMARK  18 active torsions:
REMARK  status: ('A' for Active; 'I' for Inactive)
REMARK    1  A    between atoms: O1_1  and  C1_3 
REMARK    2  A    between atoms: C1_3  and  C2_4 
REMARK    3  A    between atoms: C1_3  and  N1_17 
REMARK    4  A    between atoms: C2_4  and  C3_5 
REMARK    5  A    between atoms: C7_9  and  C8_10 
REMARK    6  A    between atoms: N1_17  and  C15_18 
REMARK    7  A    between atoms: C16_23  and  C17_24 
REMARK    8  A    between atoms: C17_24  and  C18_25 
REMARK    9  A    between atoms: C18_25  and  C19_26 
REMARK   10  A    between atoms: C19_26  and  C20_27 
REMARK   11  A    between atoms: C20_27  and  C21_28 
REMARK   12  A    between atoms: C22_33  and  N6_34 
REMARK   13  A    between atoms: N6_34  and  C23_35 
REMARK   14  A    between atoms: C23_35  and  O2_36 
REMARK   15  A    between atoms: C23_35  and  C24_38 
REMARK   16  A    between atoms: C27_41  and  C28_42 
REMARK   17  A    between atoms: C28_42  and  C29_43 
REMARK   18  A    between atoms: C29_43  and  C30_45 
ROOT
HETATM    1  C19 UNL     1      17.770  21.910  20.316  1.00  0.00     0.008 C 
ENDROOT
BRANCH   1   2
HETATM    2  C18 UNL     1      19.136  22.431  20.645  1.00  0.00     0.007 C 
BRANCH   2   3
HETATM    3  C17 UNL     1      19.102  23.829  21.207  1.00  0.00     0.066 C 
BRANCH   3   4
HETATM    4  C16 UNL     1      19.869  24.697  20.235  1.00  0.00     0.070 A 
HETATM    5  N3  UNL     1      19.416  25.609  19.402  1.00  0.00    -0.295 N 
HETATM    6  N2  UNL     1      20.165  26.263  18.655  1.00  0.00    -0.267 N 
ATOM      7  H3  UNL     1      18.412  25.786  19.366  1.00  0.00     0.187 HD
HETATM    8  C15 UNL     1      21.522  26.028  18.701  1.00  0.00     0.241 A 
ATOM      9  H2  UNL     1      19.781  26.962  18.020  1.00  0.00     0.190 HD
HETATM   10  S1  UNL     1      21.535  24.778  19.927  1.00  0.00    -0.023 SA
BRANCH   8  11
HETATM   11  N1  UNL     1      22.391  26.558  18.076  1.00  0.00    -0.358 NA
BRANCH  11  12
HETATM   12  C1  UNL     1      23.310  27.126  17.375  1.00  0.00     0.197 C 
BRANCH  12  13
HETATM   13  O1  UNL     1      24.200  27.889  17.943  1.00  0.00    -0.339 OA
ATOM     14  H1  UNL     1      23.871  28.766  18.107  1.00  0.00     0.220 HD
ENDBRANCH  12  13
BRANCH  12  15
HETATM   15  C2  UNL     1      23.515  27.022  15.868  1.00  0.00     0.138 C 
BRANCH  15  16
HETATM   16  C3  UNL     1      22.220  27.266  15.207  1.00  0.00    -0.049 A 
HETATM   17  C4  UNL     1      21.984  28.379  14.438  1.00  0.00     0.007 A 
HETATM   18  C5  UNL     1      20.755  28.554  13.851  1.00  0.00     0.001 A 
HETATM   19  C6  UNL     1      19.726  27.652  13.999  1.00  0.00     0.012 A 
HETATM   20  C7  UNL     1      20.006  26.540  14.786  1.00  0.00    -0.025 A 
HETATM   21  C14 UNL     1      21.214  26.344  15.378  1.00  0.00     0.020 A 
BRANCH  20  22
HETATM   22  C8  UNL     1      18.931  25.548  14.976  1.00  0.00    -0.026 A 
HETATM   23  C9  UNL     1      17.647  25.861  14.572  1.00  0.00     0.012 A 
HETATM   24  C10 UNL     1      16.647  24.922  14.754  1.00  0.00     0.001 A 
HETATM   25  C11 UNL     1      16.893  23.690  15.322  1.00  0.00     0.000 A 
HETATM   26  C12 UNL     1      18.184  23.398  15.718  1.00  0.00     0.001 A 
HETATM   27  C13 UNL     1      19.211  24.328  15.547  1.00  0.00     0.012 A 
ENDBRANCH  20  22
ENDBRANCH  15  16
ENDBRANCH  12  15
ENDBRANCH  11  12
ENDBRANCH   8  11
ENDBRANCH   3   4
ENDBRANCH   2   3
ENDBRANCH   1   2
BRANCH   1  28
HETATM   28  C20 UNL     1      17.319  22.236  18.917  1.00  0.00     0.078 C 
BRANCH  28  29
HETATM   29  C21 UNL     1      16.020  21.593  18.606  1.00  0.00     0.096 A 
HETATM   30  N4  UNL     1      15.030  21.684  19.514  1.00  0.00    -0.287 N 
HETATM   31  N5  UNL     1      13.853  21.139  19.310  1.00  0.00    -0.271 N 
ATOM     32  H4  UNL     1      15.199  22.190  20.384  1.00  0.00     0.188 HD
HETATM   33  C22 UNL     1      13.545  20.438  18.163  1.00  0.00     0.219 A 
ATOM     34  H5  UNL     1      13.137  21.237  20.030  1.00  0.00     0.189 HD
HETATM   35  C27 UNL     1      14.587  20.351  17.225  1.00  0.00     0.078 A 
HETATM   36  N7  UNL     1      15.760  20.921  17.481  1.00  0.00    -0.344 N 
ATOM     37  H7  UNL     1      16.499  20.843  16.782  1.00  0.00     0.167 HD
BRANCH  33  38
HETATM   38  N6  UNL     1      12.456  19.975  18.055  1.00  0.00    -0.363 NA
BRANCH  38  39
HETATM   39  C23 UNL     1      11.285  19.392  17.965  1.00  0.00     0.196 C 
BRANCH  39  40
HETATM   40  O2  UNL     1      10.283  20.074  17.489  1.00  0.00    -0.339 OA
ATOM     41  H2  UNL     1       9.659  19.633  16.925  1.00  0.00     0.220 HD
ENDBRANCH  39  40
BRANCH  39  42
HETATM   42  C24 UNL     1      10.918  17.989  18.351  1.00  0.00     0.075 A 
HETATM   43  C25 UNL     1      11.738  16.952  17.554  1.00  0.00     0.015 A 
HETATM   44  C26 UNL     1      11.909  17.125  19.016  1.00  0.00     0.015 A 
ENDBRANCH  39  42
ENDBRANCH  38  39
ENDBRANCH  33  38
BRANCH  35  45
HETATM   45  C28 UNL     1      14.363  19.625  15.966  1.00  0.00     0.146 C 
BRANCH  45  46
HETATM   46  C29 UNL     1      14.511  20.565  14.813  1.00  0.00     0.165 C 
HETATM   47  O3  UNL     1      15.619  20.917  14.344  1.00  0.00    -0.292 OA
BRANCH  46  48
HETATM   48  C30 UNL     1      13.306  21.108  14.193  1.00  0.00     0.010 A 
HETATM   49  C31 UNL     1      13.352  22.194  13.345  1.00  0.00     0.015 A 
HETATM   50  C32 UNL     1      12.215  22.716  12.757  1.00  0.00     0.001 A 
HETATM   51  C33 UNL     1      10.973  22.170  12.995  1.00  0.00     0.000 A 
HETATM   52  C34 UNL     1      10.922  21.074  13.853  1.00  0.00     0.001 A 
HETATM   53  C35 UNL     1      12.056  20.553  14.439  1.00  0.00     0.015 A 
ENDBRANCH  46  48
ENDBRANCH  45  46
ENDBRANCH  35  45
ENDBRANCH  28  29
ENDBRANCH   1  28
TORSDOF 18
ENDMDL
