MODEL 1
REMARK VINA RESULT: -9.585830576      0.000      0.000
REMARK  13 active torsions:
REMARK  status: ('A' for Active; 'I' for Inactive)
REMARK    1  A    between atoms: C2_2  and  C3_3 
REMARK    2  A    between atoms: C7_7  and  C8_8 
REMARK    3  A    between atoms: C8_8  and  C9_9 
REMARK    4  A    between atoms: C11_11  and  C12_12 
REMARK       I    between atoms: C12_12  and  N1_14 
REMARK    5  A    between atoms: C13_16  and  C14_17 
REMARK       I    between atoms: C14_17  and  N2_19 
REMARK    6  A    between atoms: N2_19  and  C15_20 
REMARK    7  A    between atoms: N2_19  and  C19_25 
REMARK    8  A    between atoms: C15_20  and  C16_21 
REMARK    9  A    between atoms: C16_21  and  N3_22 
REMARK   10  A    between atoms: C19_25  and  C20_26 
REMARK   11  A    between atoms: C26_35  and  O3_36 
REMARK   12  A    between atoms: N6_40  and  C28_41 
REMARK   13  A    between atoms: C28_41  and  C29_42 
ROOT
HETATM    1  C9  UNL     1      15.203  22.993  17.970  1.00  0.00     0.015 A 
HETATM    2  C10 UNL     1      14.036  22.568  17.413  1.00  0.00     0.044 A 
HETATM    3  C11 UNL     1      14.110  21.204  17.200  1.00  0.00     0.056 A 
HETATM    4  C24 UNL     1      15.353  20.817  17.643  1.00  0.00     0.021 A 
HETATM    5  C25 UNL     1      15.870  19.433  17.607  1.00  0.00     0.069 C 
HETATM    6  N4  UNL     1      15.984  21.923  18.101  1.00  0.00    -0.362 N 
ATOM      7  H4  UNL     1      16.926  21.936  18.492  1.00  0.00     0.165 HD
ENDROOT
BRANCH   1   8
HETATM    8  C8  UNL     1      15.565  24.406  18.335  1.00  0.00     0.102 C 
BRANCH   8   9
HETATM    9  C7  UNL     1      16.981  24.707  18.250  1.00  0.00     0.028 A 
HETATM   10  C6  UNL     1      17.806  25.074  17.219  1.00  0.00     0.075 A 
HETATM   11  C5  UNL     1      19.124  25.081  17.699  1.00  0.00     0.064 A 
HETATM   12  N6  UNL     1      17.587  25.381  15.951  1.00  0.00    -0.307 N 
HETATM   13  C4  UNL     1      20.209  25.391  16.899  1.00  0.00     0.045 A 
HETATM   14  N5  UNL     1      19.117  24.745  18.975  1.00  0.00    -0.330 N 
HETATM   15  C3  UNL     1      19.956  25.699  15.584  1.00  0.00     0.012 A 
HETATM   16  C35 UNL     1      18.669  25.681  15.172  1.00  0.00     0.254 A 
HETATM   17  O4  UNL     1      18.448  25.963  13.969  1.00  0.00    -0.267 OA
HETATM   18  C26 UNL     1      17.860  24.515  19.337  1.00  0.00     0.151 A 
HETATM   19  C27 UNL     1      20.310  24.645  19.846  1.00  0.00     0.158 C 
BRANCH  15  20
HETATM   20  C2  UNL     1      21.097  26.030  14.652  1.00  0.00     0.040 C 
HETATM   21  C1  UNL     1      21.472  27.494  14.818  1.00  0.00     0.010 C 
ENDBRANCH  15  20
BRANCH  18  22
HETATM   22  O3  UNL     1      17.487  24.142  20.612  1.00  0.00    -0.345 OA
ATOM     23  H3  UNL     1      17.657  24.638  21.404  1.00  0.00     0.219 HD
ENDBRANCH  18  22
BRANCH  12  24
HETATM   24  C28 UNL     1      16.268  25.547  15.421  1.00  0.00     0.171 C 
BRANCH  24  25
HETATM   25  C29 UNL     1      15.718  24.296  14.793  1.00  0.00    -0.040 A 
HETATM   26  C30 UNL     1      16.446  23.183  14.526  1.00  0.00     0.009 A 
HETATM   27  C31 UNL     1      15.833  22.094  13.933  1.00  0.00     0.001 A 
HETATM   28  C32 UNL     1      14.505  22.058  13.586  1.00  0.00     0.000 A 
HETATM   29  C33 UNL     1      13.765  23.187  13.857  1.00  0.00     0.001 A 
HETATM   30  C34 UNL     1      14.371  24.298  14.457  1.00  0.00     0.009 A 
ENDBRANCH  24  25
ENDBRANCH  12  24
ENDBRANCH   8   9
ENDBRANCH   1   8
BRANCH   3  31
HETATM   31  C12 UNL     1      13.043  20.386  16.590  1.00  0.00     0.257 C 
HETATM   32  O1  UNL     1      13.406  19.679  15.591  1.00  0.00    -0.267 OA
HETATM   33  N1  UNL     1      11.758  20.367  17.041  1.00  0.00    -0.328 N 
HETATM   34  C13 UNL     1      10.764  19.637  17.046  1.00  0.00     0.165 C 
ATOM     35  H1  UNL     1      11.551  21.237  17.532  1.00  0.00     0.168 HD
BRANCH  34  36
HETATM   36  C14 UNL     1      10.571  18.309  16.479  1.00  0.00     0.259 C 
HETATM   37  O2  UNL     1      10.685  18.099  15.243  1.00  0.00    -0.267 OA
HETATM   38  N2  UNL     1      10.245  17.212  17.297  1.00  0.00    -0.341 N 
BRANCH  38  39
HETATM   39  C15 UNL     1       9.997  15.862  16.819  1.00  0.00     0.156 C 
BRANCH  39  40
HETATM   40  C16 UNL     1       9.668  14.909  17.902  1.00  0.00     0.291 C 
BRANCH  40  41
HETATM   41  N3  UNL     1       9.548  13.530  17.603  1.00  0.00     0.081 N 
HETATM   42  C17 UNL     1      10.201  13.150  16.354  1.00  0.00     0.309 C 
HETATM   43  C18 UNL     1       8.157  13.168  17.470  1.00  0.00     0.309 C 
ENDBRANCH  40  41
ENDBRANCH  39  40
ENDBRANCH  38  39
BRANCH  38  44
HETATM   44  C19 UNL     1      10.199  17.429  18.751  1.00  0.00     0.172 C 
BRANCH  44  45
HETATM   45  C20 UNL     1      11.585  17.630  19.283  1.00  0.00     0.000 A 
HETATM   46  C21 UNL     1      12.739  17.055  18.826  1.00  0.00     0.017 A 
HETATM   47  C22 UNL     1      13.881  17.376  19.451  1.00  0.00     0.008 A 
HETATM   48  C23 UNL     1      13.797  18.256  20.501  1.00  0.00     0.050 A 
HETATM   49  S1  UNL     1      12.133  18.602  20.576  1.00  0.00    -0.105 SA
ENDBRANCH  44  45
ENDBRANCH  38  44
ENDBRANCH  34  36
ENDBRANCH   3  31
TORSDOF 13
ENDMDL
MODEL 2
REMARK VINA RESULT: -9.195914519      2.498     10.835
REMARK  13 active torsions:
REMARK  status: ('A' for Active; 'I' for Inactive)
REMARK    1  A    between atoms: C2_2  and  C3_3 
REMARK    2  A    between atoms: C7_7  and  C8_8 
REMARK    3  A    between atoms: C8_8  and  C9_9 
REMARK    4  A    between atoms: C11_11  and  C12_12 
REMARK       I    between atoms: C12_12  and  N1_14 
REMARK    5  A    between atoms: C13_16  and  C14_17 
REMARK       I    between atoms: C14_17  and  N2_19 
REMARK    6  A    between atoms: N2_19  and  C15_20 
REMARK    7  A    between atoms: N2_19  and  C19_25 
REMARK    8  A    between atoms: C15_20  and  C16_21 
REMARK    9  A    between atoms: C16_21  and  N3_22 
REMARK   10  A    between atoms: C19_25  and  C20_26 
REMARK   11  A    between atoms: C26_35  and  O3_36 
REMARK   12  A    between atoms: N6_40  and  C28_41 
REMARK   13  A    between atoms: C28_41  and  C29_42 
ROOT
HETATM    1  C9  UNL     1      12.752  20.325  16.079  1.00  0.00     0.015 A 
HETATM    2  C10 UNL     1      13.629  20.257  17.117  1.00  0.00     0.044 A 
HETATM    3  C11 UNL     1      14.847  20.773  16.711  1.00  0.00     0.056 A 
HETATM    4  C24 UNL     1      14.680  21.155  15.401  1.00  0.00     0.021 A 
HETATM    5  C25 UNL     1      15.731  21.763  14.557  1.00  0.00     0.069 C 
HETATM    6  N4  UNL     1      13.403  20.869  15.053  1.00  0.00    -0.362 N 
ATOM      7  H4  UNL     1      12.997  21.046  14.135  1.00  0.00     0.165 HD
ENDROOT
BRANCH   1   8
HETATM    8  C8  UNL     1      11.328  19.844  16.070  1.00  0.00     0.102 C 
BRANCH   8   9
HETATM    9  C7  UNL     1      11.106  18.630  15.309  1.00  0.00     0.028 A 
HETATM   10  C6  UNL     1      10.849  17.330  15.661  1.00  0.00     0.075 A 
HETATM   11  C5  UNL     1      10.878  16.550  14.496  1.00  0.00     0.064 A 
HETATM   12  N6  UNL     1      10.613  16.738  16.821  1.00  0.00    -0.307 N 
HETATM   13  C4  UNL     1      10.676  15.182  14.508  1.00  0.00     0.045 A 
HETATM   14  N5  UNL     1      11.130  17.332  13.464  1.00  0.00    -0.330 N 
HETATM   15  C3  UNL     1      10.441  14.589  15.725  1.00  0.00     0.012 A 
HETATM   16  C35 UNL     1      10.420  15.384  16.817  1.00  0.00     0.254 A 
HETATM   17  O4  UNL     1      10.205  14.834  17.923  1.00  0.00    -0.267 OA
HETATM   18  C26 UNL     1      11.272  18.575  13.909  1.00  0.00     0.151 A 
HETATM   19  C27 UNL     1      11.234  16.891  12.055  1.00  0.00     0.158 C 
BRANCH  15  20
HETATM   20  C2  UNL     1      10.230  13.096  15.810  1.00  0.00     0.040 C 
HETATM   21  C1  UNL     1       9.972  12.546  14.415  1.00  0.00     0.010 C 
ENDBRANCH  15  20
BRANCH  18  22
HETATM   22  O3  UNL     1      11.543  19.654  13.093  1.00  0.00    -0.345 OA
ATOM     23  H3  UNL     1      12.344  19.785  12.600  1.00  0.00     0.219 HD
ENDBRANCH  18  22
BRANCH  12  24
HETATM   24  C28 UNL     1      10.414  17.475  18.031  1.00  0.00     0.171 C 
BRANCH  24  25
HETATM   25  C29 UNL     1      11.677  17.665  18.825  1.00  0.00    -0.040 A 
HETATM   26  C30 UNL     1      12.892  17.178  18.470  1.00  0.00     0.009 A 
HETATM   27  C31 UNL     1      13.983  17.406  19.289  1.00  0.00     0.001 A 
HETATM   28  C32 UNL     1      13.923  18.109  20.467  1.00  0.00     0.000 A 
HETATM   29  C33 UNL     1      12.691  18.604  20.828  1.00  0.00     0.001 A 
HETATM   30  C34 UNL     1      11.576  18.382  20.010  1.00  0.00     0.009 A 
ENDBRANCH  24  25
ENDBRANCH  12  24
ENDBRANCH   8   9
ENDBRANCH   1   8
BRANCH   3  31
HETATM   31  C12 UNL     1      16.055  20.849  17.557  1.00  0.00     0.257 C 
HETATM   32  O1  UNL     1      17.114  20.366  17.033  1.00  0.00    -0.267 OA
HETATM   33  N1  UNL     1      16.067  21.390  18.806  1.00  0.00    -0.328 N 
HETATM   34  C13 UNL     1      16.845  21.918  19.605  1.00  0.00     0.165 C 
ATOM     35  H1  UNL     1      15.133  21.345  19.211  1.00  0.00     0.168 HD
BRANCH  34  36
HETATM   36  C14 UNL     1      18.269  22.201  19.483  1.00  0.00     0.259 C 
HETATM   37  O2  UNL     1      19.135  21.310  19.680  1.00  0.00    -0.267 OA
HETATM   38  N2  UNL     1      18.725  23.487  19.141  1.00  0.00    -0.341 N 
BRANCH  38  39
HETATM   39  C15 UNL     1      20.122  23.873  19.033  1.00  0.00     0.156 C 
BRANCH  39  40
HETATM   40  C16 UNL     1      20.327  25.338  19.037  1.00  0.00     0.291 C 
BRANCH  40  41
HETATM   41  N3  UNL     1      21.000  25.950  17.952  1.00  0.00     0.081 N 
HETATM   42  C17 UNL     1      22.357  26.378  18.280  1.00  0.00     0.309 C 
HETATM   43  C18 UNL     1      20.286  27.130  17.524  1.00  0.00     0.309 C 
ENDBRANCH  40  41
ENDBRANCH  39  40
ENDBRANCH  38  39
BRANCH  38  44
HETATM   44  C19 UNL     1      17.719  24.510  18.821  1.00  0.00     0.172 C 
BRANCH  44  45
HETATM   45  C20 UNL     1      17.612  24.676  17.336  1.00  0.00     0.000 A 
HETATM   46  C21 UNL     1      16.853  25.591  16.657  1.00  0.00     0.017 A 
HETATM   47  C22 UNL     1      16.905  25.566  15.318  1.00  0.00     0.008 A 
HETATM   48  C23 UNL     1      17.716  24.624  14.737  1.00  0.00     0.050 A 
HETATM   49  S1  UNL     1      18.374  23.808  16.077  1.00  0.00    -0.105 SA
ENDBRANCH  44  45
ENDBRANCH  38  44
ENDBRANCH  34  36
ENDBRANCH   3  31
TORSDOF 13
ENDMDL
MODEL 3
REMARK VINA RESULT: -9.047609376      2.326      3.168
REMARK  13 active torsions:
REMARK  status: ('A' for Active; 'I' for Inactive)
REMARK    1  A    between atoms: C2_2  and  C3_3 
REMARK    2  A    between atoms: C7_7  and  C8_8 
REMARK    3  A    between atoms: C8_8  and  C9_9 
REMARK    4  A    between atoms: C11_11  and  C12_12 
REMARK       I    between atoms: C12_12  and  N1_14 
REMARK    5  A    between atoms: C13_16  and  C14_17 
REMARK       I    between atoms: C14_17  and  N2_19 
REMARK    6  A    between atoms: N2_19  and  C15_20 
REMARK    7  A    between atoms: N2_19  and  C19_25 
REMARK    8  A    between atoms: C15_20  and  C16_21 
REMARK    9  A    between atoms: C16_21  and  N3_22 
REMARK   10  A    between atoms: C19_25  and  C20_26 
REMARK   11  A    between atoms: C26_35  and  O3_36 
REMARK   12  A    between atoms: N6_40  and  C28_41 
REMARK   13  A    between atoms: C28_41  and  C29_42 
ROOT
HETATM    1  C9  UNL     1      14.736  22.801  18.193  1.00  0.00     0.015 A 
HETATM    2  C10 UNL     1      14.201  22.130  17.138  1.00  0.00     0.044 A 
HETATM    3  C11 UNL     1      13.846  20.858  17.547  1.00  0.00     0.056 A 
HETATM    4  C24 UNL     1      14.182  20.780  18.878  1.00  0.00     0.021 A 
HETATM    5  C25 UNL     1      13.980  19.591  19.733  1.00  0.00     0.069 C 
HETATM    6  N4  UNL     1      14.716  21.972  19.234  1.00  0.00    -0.362 N 
ATOM      7  H4  UNL     1      15.055  22.202  20.168  1.00  0.00     0.165 HD
ENDROOT
BRANCH   1   8
HETATM    8  C8  UNL     1      15.285  24.201  18.185  1.00  0.00     0.102 C 
BRANCH   8   9
HETATM    9  C7  UNL     1      16.730  24.282  18.103  1.00  0.00     0.028 A 
HETATM   10  C6  UNL     1      17.601  24.568  17.084  1.00  0.00     0.075 A 
HETATM   11  C5  UNL     1      18.905  24.347  17.552  1.00  0.00     0.064 A 
HETATM   12  N6  UNL     1      17.431  24.968  15.834  1.00  0.00    -0.307 N 
HETATM   13  C4  UNL     1      20.024  24.523  16.758  1.00  0.00     0.045 A 
HETATM   14  N5  UNL     1      18.847  23.953  18.809  1.00  0.00    -0.330 N 
HETATM   15  C3  UNL     1      19.820  24.932  15.462  1.00  0.00     0.012 A 
HETATM   16  C35 UNL     1      18.546  25.135  15.061  1.00  0.00     0.254 A 
HETATM   17  O4  UNL     1      18.370  25.507  13.876  1.00  0.00    -0.267 OA
HETATM   18  C26 UNL     1      17.570  23.903  19.171  1.00  0.00     0.151 A 
HETATM   19  C27 UNL     1      20.011  23.625  19.664  1.00  0.00     0.158 C 
BRANCH  15  20
HETATM   20  C2  UNL     1      20.998  25.128  14.537  1.00  0.00     0.040 C 
HETATM   21  C1  UNL     1      21.755  26.382  14.948  1.00  0.00     0.010 C 
ENDBRANCH  15  20
BRANCH  18  22
HETATM   22  O3  UNL     1      17.144  23.529  20.429  1.00  0.00    -0.345 OA
ATOM     23  H3  UNL     1      17.013  22.636  20.724  1.00  0.00     0.219 HD
ENDBRANCH  18  22
BRANCH  12  24
HETATM   24  C28 UNL     1      16.154  25.364  15.325  1.00  0.00     0.171 C 
BRANCH  24  25
HETATM   25  C29 UNL     1      15.409  24.243  14.654  1.00  0.00    -0.040 A 
HETATM   26  C30 UNL     1      15.986  23.113  14.171  1.00  0.00     0.009 A 
HETATM   27  C31 UNL     1      15.199  22.154  13.560  1.00  0.00     0.001 A 
HETATM   28  C32 UNL     1      13.838  22.265  13.404  1.00  0.00     0.000 A 
HETATM   29  C33 UNL     1      13.252  23.410  13.893  1.00  0.00     0.001 A 
HETATM   30  C34 UNL     1      14.035  24.391  14.514  1.00  0.00     0.009 A 
ENDBRANCH  24  25
ENDBRANCH  12  24
ENDBRANCH   8   9
ENDBRANCH   1   8
BRANCH   3  31
HETATM   31  C12 UNL     1      13.252  19.825  16.675  1.00  0.00     0.257 C 
HETATM   32  O1  UNL     1      13.929  18.748  16.573  1.00  0.00    -0.267 OA
HETATM   33  N1  UNL     1      12.071  19.983  16.017  1.00  0.00    -0.328 N 
HETATM   34  C13 UNL     1      11.152  19.313  15.539  1.00  0.00     0.165 C 
ATOM     35  H1  UNL     1      11.885  20.976  15.874  1.00  0.00     0.168 HD
BRANCH  34  36
HETATM   36  C14 UNL     1      10.968  17.868  15.496  1.00  0.00     0.259 C 
HETATM   37  O2  UNL     1      10.907  17.181  16.549  1.00  0.00    -0.267 OA
HETATM   38  N2  UNL     1      10.853  17.189  14.269  1.00  0.00    -0.341 N 
BRANCH  38  39
HETATM   39  C15 UNL     1      10.705  15.751  14.125  1.00  0.00     0.156 C 
BRANCH  39  40
HETATM   40  C16 UNL     1       9.299  15.322  13.957  1.00  0.00     0.291 C 
BRANCH  40  41
HETATM   41  N3  UNL     1       8.670  14.578  14.986  1.00  0.00     0.081 N 
HETATM   42  C17 UNL     1       7.878  15.402  15.895  1.00  0.00     0.309 C 
HETATM   43  C18 UNL     1       9.663  13.909  15.794  1.00  0.00     0.309 C 
ENDBRANCH  40  41
ENDBRANCH  39  40
ENDBRANCH  38  39
BRANCH  38  44
HETATM   44  C19 UNL     1      10.833  17.993  13.038  1.00  0.00     0.172 C 
BRANCH  44  45
HETATM   45  C20 UNL     1      12.166  17.923  12.358  1.00  0.00     0.000 A 
HETATM   46  C21 UNL     1      13.172  18.848  12.411  1.00  0.00     0.017 A 
HETATM   47  C22 UNL     1      14.292  18.585  11.723  1.00  0.00     0.008 A 
HETATM   48  C23 UNL     1      14.337  17.407  11.020  1.00  0.00     0.050 A 
HETATM   49  S1  UNL     1      12.817  16.712  11.344  1.00  0.00    -0.105 SA
ENDBRANCH  44  45
ENDBRANCH  38  44
ENDBRANCH  34  36
ENDBRANCH   3  31
TORSDOF 13
ENDMDL
MODEL 4
REMARK VINA RESULT: -9.017424625      1.550      2.244
REMARK  13 active torsions:
REMARK  status: ('A' for Active; 'I' for Inactive)
REMARK    1  A    between atoms: C2_2  and  C3_3 
REMARK    2  A    between atoms: C7_7  and  C8_8 
REMARK    3  A    between atoms: C8_8  and  C9_9 
REMARK    4  A    between atoms: C11_11  and  C12_12 
REMARK       I    between atoms: C12_12  and  N1_14 
REMARK    5  A    between atoms: C13_16  and  C14_17 
REMARK       I    between atoms: C14_17  and  N2_19 
REMARK    6  A    between atoms: N2_19  and  C15_20 
REMARK    7  A    between atoms: N2_19  and  C19_25 
REMARK    8  A    between atoms: C15_20  and  C16_21 
REMARK    9  A    between atoms: C16_21  and  N3_22 
REMARK   10  A    between atoms: C19_25  and  C20_26 
REMARK   11  A    between atoms: C26_35  and  O3_36 
REMARK   12  A    between atoms: N6_40  and  C28_41 
REMARK   13  A    between atoms: C28_41  and  C29_42 
ROOT
HETATM    1  C9  UNL     1      15.635  23.103  18.090  1.00  0.00     0.015 A 
HETATM    2  C10 UNL     1      14.475  22.398  18.179  1.00  0.00     0.044 A 
HETATM    3  C11 UNL     1      14.741  21.061  17.947  1.00  0.00     0.056 A 
HETATM    4  C24 UNL     1      16.094  20.978  17.715  1.00  0.00     0.021 A 
HETATM    5  C25 UNL     1      16.826  19.728  17.419  1.00  0.00     0.069 C 
HETATM    6  N4  UNL     1      16.601  22.230  17.810  1.00  0.00    -0.362 N 
ATOM      7  H4  UNL     1      17.584  22.471  17.685  1.00  0.00     0.165 HD
ENDROOT
BRANCH   1   8
HETATM    8  C8  UNL     1      15.800  24.590  18.238  1.00  0.00     0.102 C 
BRANCH   8   9
HETATM    9  C7  UNL     1      17.158  25.066  18.064  1.00  0.00     0.028 A 
HETATM   10  C6  UNL     1      17.875  25.490  16.975  1.00  0.00     0.075 A 
HETATM   11  C5  UNL     1      19.203  25.689  17.380  1.00  0.00     0.064 A 
HETATM   12  N6  UNL     1      17.553  25.708  15.710  1.00  0.00    -0.307 N 
HETATM   13  C4  UNL     1      20.196  26.099  16.509  1.00  0.00     0.045 A 
HETATM   14  N5  UNL     1      19.304  25.413  18.666  1.00  0.00    -0.330 N 
HETATM   15  C3  UNL     1      19.839  26.313  15.200  1.00  0.00     0.012 A 
HETATM   16  C35 UNL     1      18.547  26.110  14.861  1.00  0.00     0.254 A 
HETATM   17  O4  UNL     1      18.231  26.306  13.662  1.00  0.00    -0.267 OA
HETATM   18  C26 UNL     1      18.108  25.040  19.106  1.00  0.00     0.151 A 
HETATM   19  C27 UNL     1      20.542  25.508  19.472  1.00  0.00     0.158 C 
BRANCH  15  20
HETATM   20  C2  UNL     1      20.879  26.745  14.193  1.00  0.00     0.040 C 
HETATM   21  C1  UNL     1      21.037  28.257  14.254  1.00  0.00     0.010 C 
ENDBRANCH  15  20
BRANCH  18  22
HETATM   22  O3  UNL     1      17.851  24.679  20.413  1.00  0.00    -0.345 OA
ATOM     23  H3  UNL     1      18.459  24.234  20.992  1.00  0.00     0.219 HD
ENDBRANCH  18  22
BRANCH  12  24
HETATM   24  C28 UNL     1      16.200  25.679  15.248  1.00  0.00     0.171 C 
BRANCH  24  25
HETATM   25  C29 UNL     1      15.734  24.303  14.861  1.00  0.00    -0.040 A 
HETATM   26  C30 UNL     1      16.555  23.275  14.529  1.00  0.00     0.009 A 
HETATM   27  C31 UNL     1      16.010  22.054  14.177  1.00  0.00     0.001 A 
HETATM   28  C32 UNL     1      14.661  21.799  14.139  1.00  0.00     0.000 A 
HETATM   29  C33 UNL     1      13.826  22.840  14.477  1.00  0.00     0.001 A 
HETATM   30  C34 UNL     1      14.362  24.084  14.836  1.00  0.00     0.009 A 
ENDBRANCH  24  25
ENDBRANCH  12  24
ENDBRANCH   8   9
ENDBRANCH   1   8
BRANCH   3  31
HETATM   31  C12 UNL     1      13.728  19.987  17.939  1.00  0.00     0.257 C 
HETATM   32  O1  UNL     1      13.787  19.195  16.939  1.00  0.00    -0.267 OA
HETATM   33  N1  UNL     1      12.789  19.830  18.911  1.00  0.00    -0.328 N 
HETATM   34  C13 UNL     1      12.078  18.955  19.413  1.00  0.00     0.165 C 
ATOM     35  H1  UNL     1      12.619  20.722  19.375  1.00  0.00     0.168 HD
BRANCH  34  36
HETATM   36  C14 UNL     1      11.965  17.539  19.093  1.00  0.00     0.259 C 
HETATM   37  O2  UNL     1      12.725  16.683  19.616  1.00  0.00    -0.267 OA
HETATM   38  N2  UNL     1      10.998  17.078  18.181  1.00  0.00    -0.341 N 
BRANCH  38  39
HETATM   39  C15 UNL     1      10.833  15.693  17.772  1.00  0.00     0.156 C 
BRANCH  39  40
HETATM   40  C16 UNL     1       9.421  15.253  17.749  1.00  0.00     0.291 C 
BRANCH  40  41
HETATM   41  N3  UNL     1       8.937  14.526  16.633  1.00  0.00     0.081 N 
HETATM   42  C17 UNL     1       9.998  13.988  15.788  1.00  0.00     0.309 C 
HETATM   43  C18 UNL     1       8.131  15.381  15.793  1.00  0.00     0.309 C 
ENDBRANCH  40  41
ENDBRANCH  39  40
ENDBRANCH  38  39
BRANCH  38  44
HETATM   44  C19 UNL     1      10.047  18.057  17.634  1.00  0.00     0.172 C 
BRANCH  44  45
HETATM   45  C20 UNL     1      10.552  18.586  16.326  1.00  0.00     0.000 A 
HETATM   46  C21 UNL     1      10.705  19.897  15.967  1.00  0.00     0.017 A 
HETATM   47  C22 UNL     1      11.178  20.151  14.738  1.00  0.00     0.008 A 
HETATM   48  C23 UNL     1      11.469  19.073  13.941  1.00  0.00     0.050 A 
HETATM   49  S1  UNL     1      11.072  17.748  14.932  1.00  0.00    -0.105 SA
ENDBRANCH  44  45
ENDBRANCH  38  44
ENDBRANCH  34  36
ENDBRANCH   3  31
TORSDOF 13
ENDMDL
MODEL 5
REMARK VINA RESULT: -8.977572598      1.283      3.418
REMARK  13 active torsions:
REMARK  status: ('A' for Active; 'I' for Inactive)
REMARK    1  A    between atoms: C2_2  and  C3_3 
REMARK    2  A    between atoms: C7_7  and  C8_8 
REMARK    3  A    between atoms: C8_8  and  C9_9 
REMARK    4  A    between atoms: C11_11  and  C12_12 
REMARK       I    between atoms: C12_12  and  N1_14 
REMARK    5  A    between atoms: C13_16  and  C14_17 
REMARK       I    between atoms: C14_17  and  N2_19 
REMARK    6  A    between atoms: N2_19  and  C15_20 
REMARK    7  A    between atoms: N2_19  and  C19_25 
REMARK    8  A    between atoms: C15_20  and  C16_21 
REMARK    9  A    between atoms: C16_21  and  N3_22 
REMARK   10  A    between atoms: C19_25  and  C20_26 
REMARK   11  A    between atoms: C26_35  and  O3_36 
REMARK   12  A    between atoms: N6_40  and  C28_41 
REMARK   13  A    between atoms: C28_41  and  C29_42 
ROOT
HETATM    1  C9  UNL     1      15.393  23.997  14.842  1.00  0.00     0.015 A 
HETATM    2  C10 UNL     1      14.269  23.344  15.241  1.00  0.00     0.044 A 
HETATM    3  C11 UNL     1      14.114  22.204  14.474  1.00  0.00     0.056 A 
HETATM    4  C24 UNL     1      15.176  22.188  13.600  1.00  0.00     0.021 A 
HETATM    5  C25 UNL     1      15.418  21.142  12.583  1.00  0.00     0.069 C 
HETATM    6  N4  UNL     1      15.927  23.285  13.852  1.00  0.00    -0.362 N 
ATOM      7  H4  UNL     1      16.782  23.531  13.353  1.00  0.00     0.165 HD
ENDROOT
BRANCH   1   8
HETATM    8  C8  UNL     1      15.920  25.297  15.382  1.00  0.00     0.102 C 
BRANCH   8   9
HETATM    9  C7  UNL     1      17.303  25.254  15.817  1.00  0.00     0.028 A 
HETATM   10  C6  UNL     1      17.904  24.975  17.017  1.00  0.00     0.075 A 
HETATM   11  C5  UNL     1      19.276  25.239  16.887  1.00  0.00     0.064 A 
HETATM   12  N6  UNL     1      17.444  24.550  18.182  1.00  0.00    -0.307 N 
HETATM   13  C4  UNL     1      20.170  25.079  17.931  1.00  0.00     0.045 A 
HETATM   14  N5  UNL     1      19.517  25.651  15.658  1.00  0.00    -0.330 N 
HETATM   15  C3  UNL     1      19.666  24.644  19.132  1.00  0.00     0.012 A 
HETATM   16  C35 UNL     1      18.339  24.401  19.205  1.00  0.00     0.254 A 
HETATM   17  O4  UNL     1      17.888  24.005  20.307  1.00  0.00    -0.267 OA
HETATM   18  C26 UNL     1      18.368  25.673  14.993  1.00  0.00     0.151 A 
HETATM   19  C27 UNL     1      20.846  26.023  15.120  1.00  0.00     0.158 C 
BRANCH  15  20
HETATM   20  C2  UNL     1      20.585  24.465  20.317  1.00  0.00     0.040 C 
HETATM   21  C1  UNL     1      22.012  24.783  19.897  1.00  0.00     0.010 C 
ENDBRANCH  15  20
BRANCH  18  22
HETATM   22  O3  UNL     1      18.254  26.056  13.672  1.00  0.00    -0.345 OA
ATOM     23  H3  UNL     1      18.487  25.522  12.922  1.00  0.00     0.219 HD
ENDBRANCH  18  22
BRANCH  12  24
HETATM   24  C28 UNL     1      16.093  24.112  18.358  1.00  0.00     0.171 C 
BRANCH  24  25
HETATM   25  C29 UNL     1      15.921  22.630  18.173  1.00  0.00    -0.040 A 
HETATM   26  C30 UNL     1      16.785  21.831  17.497  1.00  0.00     0.009 A 
HETATM   27  C31 UNL     1      16.514  20.480  17.381  1.00  0.00     0.001 A 
HETATM   28  C32 UNL     1      15.404  19.871  17.916  1.00  0.00     0.000 A 
HETATM   29  C33 UNL     1      14.528  20.681  18.602  1.00  0.00     0.001 A 
HETATM   30  C34 UNL     1      14.786  22.052  18.728  1.00  0.00     0.009 A 
ENDBRANCH  24  25
ENDBRANCH  12  24
ENDBRANCH   8   9
ENDBRANCH   1   8
BRANCH   3  31
HETATM   31  C12 UNL     1      12.996  21.248  14.599  1.00  0.00     0.257 C 
HETATM   32  O1  UNL     1      12.633  20.694  13.507  1.00  0.00    -0.267 OA
HETATM   33  N1  UNL     1      12.380  20.960  15.777  1.00  0.00    -0.328 N 
HETATM   34  C13 UNL     1      11.729  20.059  16.314  1.00  0.00     0.165 C 
ATOM     35  H1  UNL     1      12.492  21.739  16.426  1.00  0.00     0.168 HD
BRANCH  34  36
HETATM   36  C14 UNL     1      11.315  18.762  15.795  1.00  0.00     0.259 C 
HETATM   37  O2  UNL     1      11.611  18.395  14.629  1.00  0.00    -0.267 OA
HETATM   38  N2  UNL     1      10.562  17.874  16.585  1.00  0.00    -0.341 N 
BRANCH  38  39
HETATM   39  C15 UNL     1      10.072  16.579  16.144  1.00  0.00     0.156 C 
BRANCH  39  40
HETATM   40  C16 UNL     1       9.208  15.909  17.140  1.00  0.00     0.291 C 
BRANCH  40  41
HETATM   41  N3  UNL     1       9.511  14.587  17.548  1.00  0.00     0.081 N 
HETATM   42  C17 UNL     1      10.408  13.889  16.631  1.00  0.00     0.309 C 
HETATM   43  C18 UNL     1       8.303  13.800  17.623  1.00  0.00     0.309 C 
ENDBRANCH  40  41
ENDBRANCH  39  40
ENDBRANCH  38  39
BRANCH  38  44
HETATM   44  C19 UNL     1      10.289  18.256  17.979  1.00  0.00     0.172 C 
BRANCH  44  45
HETATM   45  C20 UNL     1      11.498  18.002  18.826  1.00  0.00     0.000 A 
HETATM   46  C21 UNL     1      11.757  18.507  20.071  1.00  0.00     0.017 A 
HETATM   47  C22 UNL     1      12.908  18.148  20.657  1.00  0.00     0.008 A 
HETATM   48  C23 UNL     1      13.733  17.303  19.959  1.00  0.00     0.050 A 
HETATM   49  S1  UNL     1      12.875  17.041  18.513  1.00  0.00    -0.105 SA
ENDBRANCH  44  45
ENDBRANCH  38  44
ENDBRANCH  34  36
ENDBRANCH   3  31
TORSDOF 13
ENDMDL
