MODEL 1
REMARK VINA RESULT: -7.370239909      0.000      0.000
REMARK  5 active torsions:
REMARK  status: ('A' for Active; 'I' for Inactive)
REMARK    1  A    between atoms: C13_14  and  C14_15 
REMARK    2  A    between atoms: C14_15  and  C15_16 
REMARK    3  A    between atoms: C15_16  and  O2_17 
REMARK    4  A    between atoms: O2_17  and  S1_18 
REMARK    5  A    between atoms: C20_26  and  O6_27 
ROOT
HETATM    1  C1  UNL     1     -19.936 -51.546 -19.792  1.00  0.00     0.011 C 
HETATM    2  C2  UNL     1     -19.098 -52.308 -20.731  1.00  0.00    -0.007 C 
HETATM    3  C3  UNL     1     -18.052 -53.183 -20.128  1.00  0.00     0.017 C 
HETATM    4  C4  UNL     1     -17.141 -53.460 -21.294  1.00  0.00    -0.007 C 
HETATM    5  C5  UNL     1     -17.533 -54.866 -21.592  1.00  0.00     0.019 C 
HETATM    6  C6  UNL     1     -15.681 -53.233 -21.149  1.00  0.00     0.009 C 
HETATM    7  C7  UNL     1     -15.149 -53.245 -19.802  1.00  0.00     0.024 C 
HETATM    8  C8  UNL     1     -14.867 -51.949 -19.100  1.00  0.00     0.024 C 
HETATM    9  C9  UNL     1     -15.173 -52.237 -17.606  1.00  0.00     0.024 C 
HETATM   10  C10 UNL     1     -13.409 -51.731 -19.125  1.00  0.00     0.136 C 
HETATM   11  O1  UNL     1     -12.726 -52.661 -19.500  1.00  0.00    -0.297 OA
HETATM   12  C11 UNL     1     -12.585 -50.573 -18.769  1.00  0.00     0.079 C 
HETATM   13  C12 UNL     1     -13.422 -49.372 -19.160  1.00  0.00     0.013 C 
HETATM   14  C13 UNL     1     -14.786 -49.673 -18.615  1.00  0.00    -0.003 C 
HETATM   15  C16 UNL     1     -15.486 -50.683 -19.557  1.00  0.00     0.027 C 
HETATM   16  C17 UNL     1     -16.915 -50.435 -19.762  1.00  0.00    -0.024 C 
HETATM   17  C18 UNL     1     -17.607 -50.372 -21.048  1.00  0.00    -0.022 C 
HETATM   18  C19 UNL     1     -18.301 -51.531 -21.706  1.00  0.00     0.047 C 
HETATM   19  C20 UNL     1     -17.460 -52.449 -22.367  1.00  0.00     0.079 C 
HETATM   20  C21 UNL     1     -17.413 -53.284 -23.537  1.00  0.00     0.118 C 
HETATM   21  C22 UNL     1     -15.955 -53.766 -23.534  1.00  0.00     0.134 C 
HETATM   22  O7  UNL     1     -15.419 -53.919 -24.603  1.00  0.00    -0.297 OA
HETATM   23  C23 UNL     1     -15.181 -54.055 -22.287  1.00  0.00     0.056 C 
HETATM   24  C24 UNL     1     -13.749 -53.875 -22.680  1.00  0.00     0.018 C 
ENDROOT
BRANCH  14  25
HETATM   25  C14 UNL     1     -15.493 -48.449 -18.262  1.00  0.00     0.033 C 
BRANCH  25  26
HETATM   26  C15 UNL     1     -15.515 -48.290 -16.760  1.00  0.00     0.193 C 
BRANCH  26  27
HETATM   27  O2  UNL     1     -14.834 -47.147 -16.349  1.00  0.00    -0.257 OA
BRANCH  27  28
HETATM   28  S1  UNL     1     -14.130 -47.305 -14.863  1.00  0.00     0.251 S 
HETATM   29  O3  UNL     1     -15.181 -47.696 -13.863  1.00  0.00    -0.572 OA
HETATM   30  O4  UNL     1     -13.487 -46.041 -14.378  1.00  0.00    -0.572 OA
HETATM   31  O5  UNL     1     -13.016 -48.574 -14.929  1.00  0.00    -0.572 OA
ENDBRANCH  27  28
ENDBRANCH  26  27
ENDBRANCH  25  26
ENDBRANCH  14  25
BRANCH  19  32
HETATM   32  O6  UNL     1     -16.423 -51.555 -22.794  1.00  0.00    -0.388 OA
ATOM     33  H6  UNL     1     -16.577 -50.620 -22.731  1.00  0.00     0.210 HD
ENDBRANCH  19  32
TORSDOF 5
ENDMDL
MODEL 2
REMARK VINA RESULT: -7.334232902      2.874      7.126
REMARK  5 active torsions:
REMARK  status: ('A' for Active; 'I' for Inactive)
REMARK    1  A    between atoms: C13_14  and  C14_15 
REMARK    2  A    between atoms: C14_15  and  C15_16 
REMARK    3  A    between atoms: C15_16  and  O2_17 
REMARK    4  A    between atoms: O2_17  and  S1_18 
REMARK    5  A    between atoms: C20_26  and  O6_27 
ROOT
HETATM    1  C1  UNL     1     -11.698 -52.050 -18.392  1.00  0.00     0.011 C 
HETATM    2  C2  UNL     1     -12.829 -51.264 -17.875  1.00  0.00    -0.007 C 
HETATM    3  C3  UNL     1     -14.110 -51.999 -17.670  1.00  0.00     0.017 C 
HETATM    4  C4  UNL     1     -15.117 -50.885 -17.565  1.00  0.00    -0.007 C 
HETATM    5  C5  UNL     1     -15.367 -50.910 -16.096  1.00  0.00     0.019 C 
HETATM    6  C6  UNL     1     -16.337 -50.921 -18.410  1.00  0.00     0.009 C 
HETATM    7  C7  UNL     1     -16.749 -52.218 -18.906  1.00  0.00     0.024 C 
HETATM    8  C8  UNL     1     -16.422 -52.615 -20.315  1.00  0.00     0.024 C 
HETATM    9  C9  UNL     1     -16.182 -54.147 -20.247  1.00  0.00     0.024 C 
HETATM   10  C10 UNL     1     -17.653 -52.487 -21.117  1.00  0.00     0.136 C 
HETATM   11  O1  UNL     1     -18.683 -52.294 -20.505  1.00  0.00    -0.297 OA
HETATM   12  C11 UNL     1     -17.895 -52.555 -22.560  1.00  0.00     0.079 C 
HETATM   13  C12 UNL     1     -16.655 -51.949 -23.186  1.00  0.00     0.013 C 
HETATM   14  C13 UNL     1     -15.514 -52.598 -22.460  1.00  0.00    -0.003 C 
HETATM   15  C16 UNL     1     -15.356 -51.922 -21.077  1.00  0.00     0.027 C 
HETATM   16  C17 UNL     1     -13.968 -51.724 -20.651  1.00  0.00    -0.024 C 
HETATM   17  C18 UNL     1     -13.387 -50.483 -20.144  1.00  0.00    -0.022 C 
HETATM   18  C19 UNL     1     -13.280 -50.115 -18.691  1.00  0.00     0.047 C 
HETATM   19  C20 UNL     1     -14.464 -49.634 -18.097  1.00  0.00     0.079 C 
HETATM   20  C21 UNL     1     -14.921 -48.669 -17.133  1.00  0.00     0.118 C 
HETATM   21  C22 UNL     1     -16.445 -48.718 -17.322  1.00  0.00     0.134 C 
HETATM   22  O7  UNL     1     -17.054 -47.687 -17.188  1.00  0.00    -0.297 OA
HETATM   23  C23 UNL     1     -17.198 -49.967 -17.656  1.00  0.00     0.056 C 
HETATM   24  C24 UNL     1     -18.443 -49.489 -18.334  1.00  0.00     0.018 C 
ENDROOT
BRANCH  14  25
HETATM   25  C14 UNL     1     -14.341 -52.708 -23.317  1.00  0.00     0.033 C 
BRANCH  25  26
HETATM   26  C15 UNL     1     -14.161 -54.144 -23.750  1.00  0.00     0.193 C 
BRANCH  26  27
HETATM   27  O2  UNL     1     -14.108 -55.012 -22.662  1.00  0.00    -0.257 OA
BRANCH  27  28
HETATM   28  S1  UNL     1     -12.570 -55.449 -22.250  1.00  0.00     0.251 S 
HETATM   29  O3  UNL     1     -12.620 -56.722 -21.452  1.00  0.00    -0.572 OA
HETATM   30  O4  UNL     1     -11.867 -54.418 -21.420  1.00  0.00    -0.572 OA
HETATM   31  O5  UNL     1     -11.711 -55.788 -23.666  1.00  0.00    -0.572 OA
ENDBRANCH  27  28
ENDBRANCH  26  27
ENDBRANCH  25  26
ENDBRANCH  14  25
BRANCH  19  32
HETATM   32  O6  UNL     1     -15.053 -48.986 -19.232  1.00  0.00    -0.388 OA
ATOM     33  H6  UNL     1     -15.075 -48.036 -19.250  1.00  0.00     0.210 HD
ENDBRANCH  19  32
TORSDOF 5
ENDMDL
MODEL 3
REMARK VINA RESULT: -7.190649538      2.551      5.156
REMARK  5 active torsions:
REMARK  status: ('A' for Active; 'I' for Inactive)
REMARK    1  A    between atoms: C13_14  and  C14_15 
REMARK    2  A    between atoms: C14_15  and  C15_16 
REMARK    3  A    between atoms: C15_16  and  O2_17 
REMARK    4  A    between atoms: O2_17  and  S1_18 
REMARK    5  A    between atoms: C20_26  and  O6_27 
ROOT
HETATM    1  C1  UNL     1     -11.402 -50.991 -18.155  1.00  0.00     0.011 C 
HETATM    2  C2  UNL     1     -12.680 -51.440 -18.729  1.00  0.00    -0.007 C 
HETATM    3  C3  UNL     1     -13.528 -50.391 -19.366  1.00  0.00     0.017 C 
HETATM    4  C4  UNL     1     -14.874 -51.060 -19.449  1.00  0.00    -0.007 C 
HETATM    5  C5  UNL     1     -14.913 -51.365 -20.907  1.00  0.00     0.019 C 
HETATM    6  C6  UNL     1     -16.071 -50.358 -18.923  1.00  0.00     0.009 C 
HETATM    7  C7  UNL     1     -15.990 -48.915 -18.821  1.00  0.00     0.024 C 
HETATM    8  C8  UNL     1     -15.707 -48.277 -17.493  1.00  0.00     0.024 C 
HETATM    9  C9  UNL     1     -14.870 -47.015 -17.834  1.00  0.00     0.024 C 
HETATM   10  C10 UNL     1     -16.974 -47.729 -16.975  1.00  0.00     0.136 C 
HETATM   11  O1  UNL     1     -17.914 -47.713 -17.744  1.00  0.00    -0.297 OA
HETATM   12  C11 UNL     1     -17.343 -47.175 -15.671  1.00  0.00     0.079 C 
HETATM   13  C12 UNL     1     -16.533 -47.975 -14.671  1.00  0.00     0.013 C 
HETATM   14  C13 UNL     1     -15.149 -48.004 -15.248  1.00  0.00    -0.003 C 
HETATM   15  C16 UNL     1     -15.106 -49.055 -16.384  1.00  0.00     0.027 C 
HETATM   16  C17 UNL     1     -13.871 -49.841 -16.439  1.00  0.00    -0.024 C 
HETATM   17  C18 UNL     1     -13.775 -51.297 -16.526  1.00  0.00    -0.022 C 
HETATM   18  C19 UNL     1     -13.647 -52.074 -17.805  1.00  0.00     0.047 C 
HETATM   19  C20 UNL     1     -14.843 -52.255 -18.530  1.00  0.00     0.079 C 
HETATM   20  C21 UNL     1     -15.526 -53.227 -19.340  1.00  0.00     0.118 C 
HETATM   21  C22 UNL     1     -16.914 -52.593 -19.508  1.00  0.00     0.134 C 
HETATM   22  O7  UNL     1     -17.863 -53.336 -19.549  1.00  0.00    -0.297 OA
HETATM   23  C23 UNL     1     -17.143 -51.119 -19.626  1.00  0.00     0.056 C 
HETATM   24  C24 UNL     1     -18.547 -50.914 -19.153  1.00  0.00     0.018 C 
ENDROOT
BRANCH  14  25
HETATM   25  C14 UNL     1     -14.142 -48.077 -14.197  1.00  0.00     0.033 C 
BRANCH  25  26
HETATM   26  C15 UNL     1     -13.030 -47.097 -14.490  1.00  0.00     0.193 C 
BRANCH  26  27
HETATM   27  O2  UNL     1     -11.978 -47.220 -13.586  1.00  0.00    -0.257 OA
BRANCH  27  28
HETATM   28  S1  UNL     1     -10.793 -48.249 -14.100  1.00  0.00     0.251 S 
HETATM   29  O3  UNL     1     -10.995 -48.537 -15.561  1.00  0.00    -0.572 OA
HETATM   30  O4  UNL     1     -10.795 -49.559 -13.373  1.00  0.00    -0.572 OA
HETATM   31  O5  UNL     1      -9.302 -47.467 -13.953  1.00  0.00    -0.572 OA
ENDBRANCH  27  28
ENDBRANCH  26  27
ENDBRANCH  25  26
ENDBRANCH  14  25
BRANCH  19  32
HETATM   32  O6  UNL     1     -15.775 -52.303 -17.441  1.00  0.00    -0.388 OA
ATOM     33  H6  UNL     1     -16.685 -52.500 -17.633  1.00  0.00     0.210 HD
ENDBRANCH  19  32
TORSDOF 5
ENDMDL
MODEL 4
REMARK VINA RESULT: -6.990032927      2.301      4.277
REMARK  5 active torsions:
REMARK  status: ('A' for Active; 'I' for Inactive)
REMARK    1  A    between atoms: C13_14  and  C14_15 
REMARK    2  A    between atoms: C14_15  and  C15_16 
REMARK    3  A    between atoms: C15_16  and  O2_17 
REMARK    4  A    between atoms: O2_17  and  S1_18 
REMARK    5  A    between atoms: C20_26  and  O6_27 
ROOT
HETATM    1  C1  UNL     1     -13.749 -53.784 -21.907  1.00  0.00     0.011 C 
HETATM    2  C2  UNL     1     -15.186 -53.472 -21.859  1.00  0.00    -0.007 C 
HETATM    3  C3  UNL     1     -15.553 -52.027 -21.850  1.00  0.00     0.017 C 
HETATM    4  C4  UNL     1     -16.982 -52.051 -21.378  1.00  0.00    -0.007 C 
HETATM    5  C5  UNL     1     -17.677 -51.776 -22.667  1.00  0.00     0.019 C 
HETATM    6  C6  UNL     1     -17.392 -51.183 -20.246  1.00  0.00     0.009 C 
HETATM    7  C7  UNL     1     -16.568 -50.021 -19.983  1.00  0.00     0.024 C 
HETATM    8  C8  UNL     1     -15.558 -50.060 -18.874  1.00  0.00     0.024 C 
HETATM    9  C9  UNL     1     -14.383 -49.183 -19.382  1.00  0.00     0.024 C 
HETATM   10  C10 UNL     1     -16.105 -49.293 -17.739  1.00  0.00     0.136 C 
HETATM   11  O1  UNL     1     -17.108 -48.645 -17.954  1.00  0.00    -0.297 OA
HETATM   12  C11 UNL     1     -15.661 -49.146 -16.351  1.00  0.00     0.079 C 
HETATM   13  C12 UNL     1     -15.071 -50.494 -15.991  1.00  0.00     0.013 C 
HETATM   14  C13 UNL     1     -14.194 -50.842 -17.157  1.00  0.00    -0.003 C 
HETATM   15  C16 UNL     1     -15.085 -51.348 -18.316  1.00  0.00     0.027 C 
HETATM   16  C17 UNL     1     -14.523 -52.472 -19.071  1.00  0.00    -0.024 C 
HETATM   17  C18 UNL     1     -15.208 -53.718 -19.407  1.00  0.00    -0.022 C 
HETATM   18  C19 UNL     1     -15.945 -53.972 -20.691  1.00  0.00     0.047 C 
HETATM   19  C20 UNL     1     -17.235 -53.410 -20.774  1.00  0.00     0.079 C 
HETATM   20  C21 UNL     1     -18.547 -53.688 -21.294  1.00  0.00     0.118 C 
HETATM   21  C22 UNL     1     -19.386 -52.556 -20.682  1.00  0.00     0.134 C 
HETATM   22  O7  UNL     1     -20.523 -52.812 -20.374  1.00  0.00    -0.297 OA
HETATM   23  C23 UNL     1     -18.868 -51.171 -20.456  1.00  0.00     0.056 C 
HETATM   24  C24 UNL     1     -19.710 -50.627 -19.345  1.00  0.00     0.018 C 
ENDROOT
BRANCH  14  25
HETATM   25  C14 UNL     1     -13.066 -51.665 -16.738  1.00  0.00     0.033 C 
BRANCH  25  26
HETATM   26  C15 UNL     1     -11.797 -50.847 -16.785  1.00  0.00     0.193 C 
BRANCH  26  27
HETATM   27  O2  UNL     1     -10.937 -51.161 -15.735  1.00  0.00    -0.257 OA
BRANCH  27  28
HETATM   28  S1  UNL     1     -10.368 -49.831 -14.938  1.00  0.00     0.251 S 
HETATM   29  O3  UNL     1     -10.719 -49.946 -13.482  1.00  0.00    -0.572 OA
HETATM   30  O4  UNL     1     -10.948 -48.546 -15.447  1.00  0.00    -0.572 OA
HETATM   31  O5  UNL     1      -8.681 -49.826 -15.040  1.00  0.00    -0.572 OA
ENDBRANCH  27  28
ENDBRANCH  26  27
ENDBRANCH  25  26
ENDBRANCH  14  25
BRANCH  19  32
HETATM   32  O6  UNL     1     -17.615 -53.483 -19.394  1.00  0.00    -0.388 OA
ATOM     33  H6  UNL     1     -18.538 -53.418 -19.174  1.00  0.00     0.210 HD
ENDBRANCH  19  32
TORSDOF 5
ENDMDL
MODEL 5
REMARK VINA RESULT: -6.980515476      2.368      4.416
REMARK  5 active torsions:
REMARK  status: ('A' for Active; 'I' for Inactive)
REMARK    1  A    between atoms: C13_14  and  C14_15 
REMARK    2  A    between atoms: C14_15  and  C15_16 
REMARK    3  A    between atoms: C15_16  and  O2_17 
REMARK    4  A    between atoms: O2_17  and  S1_18 
REMARK    5  A    between atoms: C20_26  and  O6_27 
ROOT
HETATM    1  C1  UNL     1     -14.145 -52.376 -22.813  1.00  0.00     0.011 C 
HETATM    2  C2  UNL     1     -15.324 -53.187 -22.472  1.00  0.00    -0.007 C 
HETATM    3  C3  UNL     1     -16.653 -52.529 -22.632  1.00  0.00     0.017 C 
HETATM    4  C4  UNL     1     -17.562 -53.420 -21.828  1.00  0.00    -0.007 C 
HETATM    5  C5  UNL     1     -18.262 -54.128 -22.936  1.00  0.00     0.019 C 
HETATM    6  C6  UNL     1     -18.454 -52.819 -20.804  1.00  0.00     0.009 C 
HETATM    7  C7  UNL     1     -18.777 -51.416 -20.962  1.00  0.00     0.024 C 
HETATM    8  C8  UNL     1     -18.052 -50.388 -20.145  1.00  0.00     0.024 C 
HETATM    9  C9  UNL     1     -17.953 -49.148 -21.074  1.00  0.00     0.024 C 
HETATM   10  C10 UNL     1     -18.957 -49.948 -19.067  1.00  0.00     0.136 C 
HETATM   11  O1  UNL     1     -20.112 -50.316 -19.142  1.00  0.00    -0.297 OA
HETATM   12  C11 UNL     1     -18.737 -49.120 -17.879  1.00  0.00     0.079 C 
HETATM   13  C12 UNL     1     -17.325 -49.447 -17.439  1.00  0.00     0.013 C 
HETATM   14  C13 UNL     1     -16.518 -49.395 -18.703  1.00  0.00    -0.003 C 
HETATM   15  C16 UNL     1     -16.756 -50.700 -19.499  1.00  0.00     0.027 C 
HETATM   16  C17 UNL     1     -15.562 -51.240 -20.155  1.00  0.00    -0.024 C 
HETATM   17  C18 UNL     1     -15.085 -52.619 -20.086  1.00  0.00    -0.022 C 
HETATM   18  C19 UNL     1     -15.416 -53.693 -21.084  1.00  0.00     0.047 C 
HETATM   19  C20 UNL     1     -16.690 -54.279 -20.948  1.00  0.00     0.079 C 
HETATM   20  C21 UNL     1     -17.359 -55.546 -21.073  1.00  0.00     0.118 C 
HETATM   21  C22 UNL     1     -18.745 -55.241 -20.486  1.00  0.00     0.134 C 
HETATM   22  O7  UNL     1     -19.293 -56.120 -19.869  1.00  0.00    -0.297 OA
HETATM   23  C23 UNL     1     -19.440 -53.926 -20.645  1.00  0.00     0.056 C 
HETATM   24  C24 UNL     1     -20.372 -53.845 -19.478  1.00  0.00     0.018 C 
ENDROOT
BRANCH  14  25
HETATM   25  C14 UNL     1     -15.145 -48.988 -18.432  1.00  0.00     0.033 C 
BRANCH  25  26
HETATM   26  C15 UNL     1     -14.747 -49.436 -17.045  1.00  0.00     0.193 C 
BRANCH  26  27
HETATM   27  O2  UNL     1     -13.364 -49.443 -16.879  1.00  0.00    -0.257 OA
BRANCH  27  28
HETATM   28  S1  UNL     1     -12.669 -50.893 -17.257  1.00  0.00     0.251 S 
HETATM   29  O3  UNL     1     -11.432 -51.074 -16.425  1.00  0.00    -0.572 OA
HETATM   30  O4  UNL     1     -12.269 -50.996 -18.698  1.00  0.00    -0.572 OA
HETATM   31  O5  UNL     1     -13.738 -52.129 -16.827  1.00  0.00    -0.572 OA
ENDBRANCH  27  28
ENDBRANCH  26  27
ENDBRANCH  25  26
ENDBRANCH  14  25
BRANCH  19  32
HETATM   32  O6  UNL     1     -16.846 -54.180 -19.526  1.00  0.00    -0.388 OA
ATOM     33  H6  UNL     1     -16.641 -54.940 -18.994  1.00  0.00     0.210 HD
ENDBRANCH  19  32
TORSDOF 5
ENDMDL
