MODEL 1
REMARK VINA RESULT: -8.555588727      0.000      0.000
REMARK  6 active torsions:
REMARK  status: ('A' for Active; 'I' for Inactive)
REMARK    1  A    between atoms: C2_2  and  C3_3 
REMARK    2  A    between atoms: C3_3  and  O2_5 
REMARK    3  A    between atoms: O2_5  and  C4_6 
REMARK    4  A    between atoms: C4_6  and  C5_7 
REMARK    5  A    between atoms: C19_22  and  O4_23 
REMARK    6  A    between atoms: C24_29  and  O5_30 
ROOT
HETATM    1  C5  UNL     1     -14.780 -48.383 -15.783  1.00  0.00     0.081 C 
HETATM    2  C6  UNL     1     -15.572 -48.100 -14.514  1.00  0.00     0.048 C 
HETATM    3  C7  UNL     1     -14.729 -49.877 -16.058  1.00  0.00     0.048 C 
HETATM    4  C8  UNL     1     -15.856 -50.127 -16.971  1.00  0.00     0.032 C 
HETATM    5  C9  UNL     1     -15.543 -50.386 -18.425  1.00  0.00    -0.030 C 
HETATM    6  C10 UNL     1     -14.010 -50.409 -18.581  1.00  0.00     0.016 C 
HETATM    7  C11 UNL     1     -16.067 -51.704 -18.842  1.00  0.00     0.020 C 
HETATM    8  C12 UNL     1     -16.446 -51.805 -20.313  1.00  0.00     0.027 C 
HETATM    9  C13 UNL     1     -17.802 -51.262 -20.415  1.00  0.00    -0.043 C 
HETATM   10  C14 UNL     1     -18.692 -51.731 -21.231  1.00  0.00     0.056 C 
HETATM   11  C15 UNL     1     -18.350 -52.836 -22.081  1.00  0.00     0.155 C 
HETATM   12  O3  UNL     1     -19.078 -53.125 -23.083  1.00  0.00    -0.293 OA
HETATM   13  C16 UNL     1     -17.161 -53.688 -21.855  1.00  0.00     0.074 C 
HETATM   14  C17 UNL     1     -16.643 -54.076 -23.217  1.00  0.00     0.022 C 
HETATM   15  C18 UNL     1     -16.462 -52.919 -24.144  1.00  0.00     0.013 C 
HETATM   16  C19 UNL     1     -15.367 -54.880 -23.149  1.00  0.00     0.122 C 
HETATM   17  C20 UNL     1     -14.331 -54.228 -22.269  1.00  0.00     0.033 C 
HETATM   18  C21 UNL     1     -14.782 -52.960 -21.637  1.00  0.00     0.013 C 
HETATM   19  C22 UNL     1     -16.151 -53.104 -20.944  1.00  0.00    -0.025 C 
HETATM   20  C23 UNL     1     -15.860 -54.154 -19.858  1.00  0.00     0.016 C 
HETATM   21  C24 UNL     1     -18.348 -50.130 -19.638  1.00  0.00     0.148 C 
HETATM   22  C25 UNL     1     -17.322 -49.048 -19.674  1.00  0.00     0.044 C 
HETATM   23  C26 UNL     1     -16.155 -49.137 -18.804  1.00  0.00     0.032 C 
HETATM   24  C27 UNL     1     -16.341 -48.766 -17.345  1.00  0.00     0.067 C 
HETATM   25  C28 UNL     1     -17.719 -48.514 -16.872  1.00  0.00     0.047 C 
HETATM   26  O6  UNL     1     -15.448 -47.844 -16.829  1.00  0.00    -0.367 OA
ENDROOT
BRANCH   1  27
HETATM   27  C4  UNL     1     -13.402 -47.831 -15.539  1.00  0.00     0.216 C 
BRANCH  27  28
HETATM   28  O2  UNL     1     -12.363 -48.736 -15.562  1.00  0.00    -0.315 OA
BRANCH  28  29
HETATM   29  C3  UNL     1     -11.405 -49.055 -14.647  1.00  0.00     0.282 C 
HETATM   30  O1  UNL     1     -10.660 -50.035 -14.907  1.00  0.00    -0.260 OA
BRANCH  29  31
HETATM   31  C2  UNL     1     -11.230 -48.295 -13.393  1.00  0.00     0.072 C 
HETATM   32  C1  UNL     1     -10.468 -47.235 -13.364  1.00  0.00     0.017 C 
ENDBRANCH  29  31
ENDBRANCH  28  29
ENDBRANCH  27  28
ENDBRANCH   1  27
BRANCH  21  33
HETATM   33  O5  UNL     1     -19.486 -49.663 -20.284  1.00  0.00    -0.391 OA
ATOM     34  H5  UNL     1     -19.324 -48.771 -20.570  1.00  0.00     0.210 HD
ENDBRANCH  21  33
BRANCH  16  35
HETATM   35  O4  UNL     1     -14.926 -55.060 -24.460  1.00  0.00    -0.395 OA
ATOM     36  H4  UNL     1     -14.273 -54.390 -24.629  1.00  0.00     0.210 HD
ENDBRANCH  16  35
TORSDOF 6
ENDMDL
MODEL 2
REMARK VINA RESULT: -8.545575547      0.888      1.019
REMARK  6 active torsions:
REMARK  status: ('A' for Active; 'I' for Inactive)
REMARK    1  A    between atoms: C2_2  and  C3_3 
REMARK    2  A    between atoms: C3_3  and  O2_5 
REMARK    3  A    between atoms: O2_5  and  C4_6 
REMARK    4  A    between atoms: C4_6  and  C5_7 
REMARK    5  A    between atoms: C19_22  and  O4_23 
REMARK    6  A    between atoms: C24_29  and  O5_30 
ROOT
HETATM    1  C5  UNL     1     -14.465 -48.332 -15.660  1.00  0.00     0.081 C 
HETATM    2  C6  UNL     1     -15.258 -48.175 -14.370  1.00  0.00     0.048 C 
HETATM    3  C7  UNL     1     -14.332 -49.801 -16.028  1.00  0.00     0.048 C 
HETATM    4  C8  UNL     1     -15.453 -50.057 -16.948  1.00  0.00     0.032 C 
HETATM    5  C9  UNL     1     -15.140 -50.207 -18.417  1.00  0.00    -0.030 C 
HETATM    6  C10 UNL     1     -13.610 -50.132 -18.585  1.00  0.00     0.016 C 
HETATM    7  C11 UNL     1     -15.594 -51.524 -18.912  1.00  0.00     0.020 C 
HETATM    8  C12 UNL     1     -15.981 -51.554 -20.384  1.00  0.00     0.027 C 
HETATM    9  C13 UNL     1     -17.367 -51.084 -20.443  1.00  0.00    -0.043 C 
HETATM   10  C14 UNL     1     -18.237 -51.551 -21.280  1.00  0.00     0.056 C 
HETATM   11  C15 UNL     1     -17.843 -52.580 -22.201  1.00  0.00     0.155 C 
HETATM   12  O3  UNL     1     -18.564 -52.847 -23.214  1.00  0.00    -0.293 OA
HETATM   13  C16 UNL     1     -16.605 -53.376 -22.037  1.00  0.00     0.074 C 
HETATM   14  C17 UNL     1     -16.080 -53.647 -23.424  1.00  0.00     0.022 C 
HETATM   15  C18 UNL     1     -15.974 -52.427 -24.278  1.00  0.00     0.013 C 
HETATM   16  C19 UNL     1     -14.760 -54.380 -23.415  1.00  0.00     0.122 C 
HETATM   17  C20 UNL     1     -13.753 -53.726 -22.503  1.00  0.00     0.033 C 
HETATM   18  C21 UNL     1     -14.268 -52.528 -21.790  1.00  0.00     0.013 C 
HETATM   19  C22 UNL     1     -15.620 -52.792 -21.098  1.00  0.00    -0.025 C 
HETATM   20  C23 UNL     1     -15.259 -53.890 -20.082  1.00  0.00     0.016 C 
HETATM   21  C24 UNL     1     -17.968 -50.036 -19.592  1.00  0.00     0.148 C 
HETATM   22  C25 UNL     1     -17.006 -48.898 -19.568  1.00  0.00     0.044 C 
HETATM   23  C26 UNL     1     -15.826 -48.974 -18.712  1.00  0.00     0.032 C 
HETATM   24  C27 UNL     1     -16.018 -48.706 -17.232  1.00  0.00     0.067 C 
HETATM   25  C28 UNL     1     -17.403 -48.562 -16.734  1.00  0.00     0.047 C 
HETATM   26  O6  UNL     1     -15.173 -47.768 -16.665  1.00  0.00    -0.367 OA
ENDROOT
BRANCH   1  27
HETATM   27  C4  UNL     1     -13.118 -47.718 -15.391  1.00  0.00     0.216 C 
BRANCH  27  28
HETATM   28  O2  UNL     1     -12.626 -47.849 -14.110  1.00  0.00    -0.315 OA
BRANCH  28  29
HETATM   29  C3  UNL     1     -11.381 -48.126 -13.629  1.00  0.00     0.282 C 
HETATM   30  O1  UNL     1     -10.766 -47.197 -13.046  1.00  0.00    -0.260 OA
BRANCH  29  31
HETATM   31  C2  UNL     1     -10.758 -49.456 -13.778  1.00  0.00     0.072 C 
HETATM   32  C1  UNL     1     -10.013 -49.724 -14.816  1.00  0.00     0.017 C 
ENDBRANCH  29  31
ENDBRANCH  28  29
ENDBRANCH  27  28
ENDBRANCH   1  27
BRANCH  21  33
HETATM   33  O5  UNL     1     -19.137 -49.596 -20.200  1.00  0.00    -0.391 OA
ATOM     34  H5  UNL     1     -19.837 -50.199 -19.976  1.00  0.00     0.210 HD
ENDBRANCH  21  33
BRANCH  16  35
HETATM   35  O4  UNL     1     -14.323 -54.452 -24.738  1.00  0.00    -0.395 OA
ATOM     36  H4  UNL     1     -14.733 -55.217 -25.126  1.00  0.00     0.210 HD
ENDBRANCH  16  35
TORSDOF 6
ENDMDL
MODEL 3
REMARK VINA RESULT: -8.399934962      2.824      6.713
REMARK  6 active torsions:
REMARK  status: ('A' for Active; 'I' for Inactive)
REMARK    1  A    between atoms: C2_2  and  C3_3 
REMARK    2  A    between atoms: C3_3  and  O2_5 
REMARK    3  A    between atoms: O2_5  and  C4_6 
REMARK    4  A    between atoms: C4_6  and  C5_7 
REMARK    5  A    between atoms: C19_22  and  O4_23 
REMARK    6  A    between atoms: C24_29  and  O5_30 
ROOT
HETATM    1  C5  UNL     1     -12.942 -51.175 -18.003  1.00  0.00     0.081 C 
HETATM    2  C6  UNL     1     -12.214 -51.770 -16.805  1.00  0.00     0.048 C 
HETATM    3  C7  UNL     1     -14.375 -51.675 -18.059  1.00  0.00     0.048 C 
HETATM    4  C8  UNL     1     -15.157 -50.645 -17.355  1.00  0.00     0.032 C 
HETATM    5  C9  UNL     1     -16.009 -49.715 -18.183  1.00  0.00    -0.030 C 
HETATM    6  C10 UNL     1     -15.904 -50.163 -19.654  1.00  0.00     0.016 C 
HETATM    7  C11 UNL     1     -17.427 -49.807 -17.774  1.00  0.00     0.020 C 
HETATM    8  C12 UNL     1     -18.235 -48.535 -17.983  1.00  0.00     0.027 C 
HETATM    9  C13 UNL     1     -17.978 -47.699 -16.808  1.00  0.00    -0.043 C 
HETATM   10  C14 UNL     1     -18.877 -46.938 -16.270  1.00  0.00     0.056 C 
HETATM   11  C15 UNL     1     -20.194 -46.900 -16.839  1.00  0.00     0.155 C 
HETATM   12  O3  UNL     1     -21.000 -45.964 -16.533  1.00  0.00    -0.293 OA
HETATM   13  C16 UNL     1     -20.690 -47.918 -17.792  1.00  0.00     0.074 C 
HETATM   14  C17 UNL     1     -21.586 -47.197 -18.767  1.00  0.00     0.022 C 
HETATM   15  C18 UNL     1     -20.969 -45.976 -19.364  1.00  0.00     0.013 C 
HETATM   16  C19 UNL     1     -22.100 -48.098 -19.864  1.00  0.00     0.122 C 
HETATM   17  C20 UNL     1     -20.992 -48.878 -20.524  1.00  0.00     0.033 C 
HETATM   18  C21 UNL     1     -19.645 -48.625 -19.949  1.00  0.00     0.013 C 
HETATM   19  C22 UNL     1     -19.630 -48.746 -18.412  1.00  0.00    -0.025 C 
HETATM   20  C23 UNL     1     -20.021 -50.218 -18.196  1.00  0.00     0.016 C 
HETATM   21  C24 UNL     1     -16.696 -47.591 -16.080  1.00  0.00     0.148 C 
HETATM   22  C25 UNL     1     -15.629 -47.430 -17.109  1.00  0.00     0.044 C 
HETATM   23  C26 UNL     1     -15.161 -48.600 -17.846  1.00  0.00     0.032 C 
HETATM   24  C27 UNL     1     -14.192 -49.527 -17.139  1.00  0.00     0.067 C 
HETATM   25  C28 UNL     1     -13.929 -49.283 -15.705  1.00  0.00     0.047 C 
HETATM   26  O6  UNL     1     -13.030 -49.837 -17.824  1.00  0.00    -0.367 OA
ENDROOT
BRANCH   1  27
HETATM   27  C4  UNL     1     -12.167 -51.617 -19.215  1.00  0.00     0.216 C 
BRANCH  27  28
HETATM   28  O2  UNL     1     -12.585 -52.782 -19.822  1.00  0.00    -0.315 OA
BRANCH  28  29
HETATM   29  C3  UNL     1     -12.935 -53.072 -21.107  1.00  0.00     0.282 C 
HETATM   30  O1  UNL     1     -12.480 -54.134 -21.604  1.00  0.00    -0.260 OA
BRANCH  29  31
HETATM   31  C2  UNL     1     -13.810 -52.190 -21.903  1.00  0.00     0.072 C 
HETATM   32  C1  UNL     1     -14.185 -52.539 -23.103  1.00  0.00     0.017 C 
ENDBRANCH  29  31
ENDBRANCH  28  29
ENDBRANCH  27  28
ENDBRANCH   1  27
BRANCH  21  33
HETATM   33  O5  UNL     1     -16.726 -46.435 -15.310  1.00  0.00    -0.391 OA
ATOM     34  H5  UNL     1     -16.147 -46.555 -14.566  1.00  0.00     0.210 HD
ENDBRANCH  21  33
BRANCH  16  35
HETATM   35  O4  UNL     1     -22.801 -47.292 -20.761  1.00  0.00    -0.395 OA
ATOM     36  H4  UNL     1     -22.986 -46.473 -20.316  1.00  0.00     0.210 HD
ENDBRANCH  16  35
TORSDOF 6
ENDMDL
MODEL 4
REMARK VINA RESULT: -8.251062129      0.976      1.178
REMARK  6 active torsions:
REMARK  status: ('A' for Active; 'I' for Inactive)
REMARK    1  A    between atoms: C2_2  and  C3_3 
REMARK    2  A    between atoms: C3_3  and  O2_5 
REMARK    3  A    between atoms: O2_5  and  C4_6 
REMARK    4  A    between atoms: C4_6  and  C5_7 
REMARK    5  A    between atoms: C19_22  and  O4_23 
REMARK    6  A    between atoms: C24_29  and  O5_30 
ROOT
HETATM    1  C5  UNL     1     -14.610 -48.956 -16.149  1.00  0.00     0.081 C 
HETATM    2  C6  UNL     1     -15.427 -48.493 -14.950  1.00  0.00     0.048 C 
HETATM    3  C7  UNL     1     -14.742 -50.458 -16.336  1.00  0.00     0.048 C 
HETATM    4  C8  UNL     1     -15.839 -50.620 -17.303  1.00  0.00     0.032 C 
HETATM    5  C9  UNL     1     -15.483 -51.010 -18.717  1.00  0.00    -0.030 C 
HETATM    6  C10 UNL     1     -13.961 -51.239 -18.775  1.00  0.00     0.016 C 
HETATM    7  C11 UNL     1     -16.154 -52.273 -19.091  1.00  0.00     0.020 C 
HETATM    8  C12 UNL     1     -16.460 -52.418 -20.575  1.00  0.00     0.027 C 
HETATM    9  C13 UNL     1     -17.725 -51.713 -20.793  1.00  0.00    -0.043 C 
HETATM   10  C14 UNL     1     -18.623 -52.115 -21.636  1.00  0.00     0.056 C 
HETATM   11  C15 UNL     1     -18.384 -53.307 -22.399  1.00  0.00     0.155 C 
HETATM   12  O3  UNL     1     -19.088 -53.564 -23.427  1.00  0.00    -0.293 OA
HETATM   13  C16 UNL     1     -17.333 -54.289 -22.051  1.00  0.00     0.074 C 
HETATM   14  C17 UNL     1     -16.796 -54.827 -23.354  1.00  0.00     0.022 C 
HETATM   15  C18 UNL     1     -16.412 -53.765 -24.331  1.00  0.00     0.013 C 
HETATM   16  C19 UNL     1     -15.643 -55.782 -23.160  1.00  0.00     0.122 C 
HETATM   17  C20 UNL     1     -14.579 -55.214 -22.255  1.00  0.00     0.033 C 
HETATM   18  C21 UNL     1     -14.893 -53.861 -21.725  1.00  0.00     0.013 C 
HETATM   19  C22 UNL     1     -16.305 -53.782 -21.113  1.00  0.00    -0.025 C 
HETATM   20  C23 UNL     1     -16.216 -54.789 -19.953  1.00  0.00     0.016 C 
HETATM   21  C24 UNL     1     -18.159 -50.473 -20.116  1.00  0.00     0.148 C 
HETATM   22  C25 UNL     1     -16.999 -49.537 -20.150  1.00  0.00     0.044 C 
HETATM   23  C26 UNL     1     -15.903 -49.719 -19.203  1.00  0.00     0.032 C 
HETATM   24  C27 UNL     1     -16.119 -49.234 -17.783  1.00  0.00     0.067 C 
HETATM   25  C28 UNL     1     -17.476 -48.777 -17.412  1.00  0.00     0.047 C 
HETATM   26  O6  UNL     1     -15.142 -48.404 -17.264  1.00  0.00    -0.367 OA
ENDROOT
BRANCH   1  27
HETATM   27  C4  UNL     1     -13.187 -48.570 -15.851  1.00  0.00     0.216 C 
BRANCH  27  28
HETATM   28  O2  UNL     1     -12.907 -48.211 -14.550  1.00  0.00    -0.315 OA
BRANCH  28  29
HETATM   29  C3  UNL     1     -12.370 -47.083 -14.006  1.00  0.00     0.282 C 
HETATM   30  O1  UNL     1     -13.029 -46.017 -14.115  1.00  0.00    -0.260 OA
BRANCH  29  31
HETATM   31  C2  UNL     1     -11.067 -47.087 -13.312  1.00  0.00     0.072 C 
HETATM   32  C1  UNL     1      -9.989 -47.483 -13.933  1.00  0.00     0.017 C 
ENDBRANCH  29  31
ENDBRANCH  28  29
ENDBRANCH  27  28
ENDBRANCH   1  27
BRANCH  21  33
HETATM   33  O5  UNL     1     -19.188 -49.907 -20.859  1.00  0.00    -0.391 OA
ATOM     34  H5  UNL     1     -19.595 -49.226 -20.336  1.00  0.00     0.210 HD
ENDBRANCH  21  33
BRANCH  16  35
HETATM   35  O4  UNL     1     -15.158 -56.101 -24.428  1.00  0.00    -0.395 OA
ATOM     36  H4  UNL     1     -14.887 -57.011 -24.403  1.00  0.00     0.210 HD
ENDBRANCH  16  35
TORSDOF 6
ENDMDL
MODEL 5
REMARK VINA RESULT: -8.118970563      3.222      7.013
REMARK  6 active torsions:
REMARK  status: ('A' for Active; 'I' for Inactive)
REMARK    1  A    between atoms: C2_2  and  C3_3 
REMARK    2  A    between atoms: C3_3  and  O2_5 
REMARK    3  A    between atoms: O2_5  and  C4_6 
REMARK    4  A    between atoms: C4_6  and  C5_7 
REMARK    5  A    between atoms: C19_22  and  O4_23 
REMARK    6  A    between atoms: C24_29  and  O5_30 
ROOT
HETATM    1  C5  UNL     1     -21.013 -48.005 -18.242  1.00  0.00     0.081 C 
HETATM    2  C6  UNL     1     -22.321 -48.713 -18.569  1.00  0.00     0.048 C 
HETATM    3  C7  UNL     1     -20.197 -48.822 -17.255  1.00  0.00     0.048 C 
HETATM    4  C8  UNL     1     -19.293 -49.627 -18.093  1.00  0.00     0.032 C 
HETATM    5  C9  UNL     1     -17.839 -49.227 -18.151  1.00  0.00    -0.030 C 
HETATM    6  C10 UNL     1     -17.636 -48.044 -17.184  1.00  0.00     0.016 C 
HETATM    7  C11 UNL     1     -16.976 -50.341 -17.703  1.00  0.00     0.020 C 
HETATM    8  C12 UNL     1     -15.588 -50.363 -18.328  1.00  0.00     0.027 C 
HETATM    9  C13 UNL     1     -15.741 -51.035 -19.620  1.00  0.00    -0.043 C 
HETATM   10  C14 UNL     1     -14.838 -51.817 -20.122  1.00  0.00     0.056 C 
HETATM   11  C15 UNL     1     -13.625 -52.048 -19.390  1.00  0.00     0.155 C 
HETATM   12  O3  UNL     1     -12.612 -52.556 -19.968  1.00  0.00    -0.293 OA
HETATM   13  C16 UNL     1     -13.476 -51.720 -17.954  1.00  0.00     0.074 C 
HETATM   14  C17 UNL     1     -12.052 -51.263 -17.762  1.00  0.00     0.022 C 
HETATM   15  C18 UNL     1     -11.621 -50.211 -18.729  1.00  0.00     0.013 C 
HETATM   16  C19 UNL     1     -11.772 -50.805 -16.350  1.00  0.00     0.122 C 
HETATM   17  C20 UNL     1     -12.798 -49.814 -15.861  1.00  0.00     0.033 C 
HETATM   18  C21 UNL     1     -13.873 -49.518 -16.843  1.00  0.00     0.013 C 
HETATM   19  C22 UNL     1     -14.506 -50.797 -17.425  1.00  0.00    -0.025 C 
HETATM   20  C23 UNL     1     -15.109 -51.462 -16.175  1.00  0.00     0.016 C 
HETATM   21  C24 UNL     1     -16.904 -50.927 -20.526  1.00  0.00     0.148 C 
HETATM   22  C25 UNL     1     -17.241 -49.478 -20.620  1.00  0.00     0.044 C 
HETATM   23  C26 UNL     1     -17.976 -48.841 -19.533  1.00  0.00     0.032 C 
HETATM   24  C27 UNL     1     -19.473 -49.077 -19.469  1.00  0.00     0.067 C 
HETATM   25  C28 UNL     1     -20.051 -50.072 -20.398  1.00  0.00     0.047 C 
HETATM   26  O6  UNL     1     -20.268 -47.949 -19.370  1.00  0.00    -0.367 OA
ENDROOT
BRANCH   1  27
HETATM   27  C4  UNL     1     -21.401 -46.676 -17.655  1.00  0.00     0.216 C 
BRANCH  27  28
HETATM   28  O2  UNL     1     -21.715 -46.664 -16.313  1.00  0.00    -0.315 OA
BRANCH  28  29
HETATM   29  C3  UNL     1     -22.893 -46.495 -15.648  1.00  0.00     0.282 C 
HETATM   30  O1  UNL     1     -23.177 -45.332 -15.260  1.00  0.00    -0.260 OA
BRANCH  29  31
HETATM   31  C2  UNL     1     -23.815 -47.617 -15.382  1.00  0.00     0.072 C 
HETATM   32  C1  UNL     1     -23.347 -48.806 -15.114  1.00  0.00     0.017 C 
ENDBRANCH  29  31
ENDBRANCH  28  29
ENDBRANCH  27  28
ENDBRANCH   1  27
BRANCH  21  33
HETATM   33  O5  UNL     1     -16.517 -51.361 -21.788  1.00  0.00    -0.391 OA
ATOM     34  H5  UNL     1     -17.243 -51.229 -22.386  1.00  0.00     0.210 HD
ENDBRANCH  21  33
BRANCH  16  35
HETATM   35  O4  UNL     1     -10.475 -50.290 -16.337  1.00  0.00    -0.395 OA
ATOM     36  H4  UNL     1     -10.551 -49.344 -16.297  1.00  0.00     0.210 HD
ENDBRANCH  16  35
TORSDOF 6
ENDMDL
