MODEL 1
REMARK VINA RESULT: -8.197432438      0.000      0.000
REMARK  6 active torsions:
REMARK  status: ('A' for Active; 'I' for Inactive)
REMARK    1  A    between atoms: C2_2  and  C3_3 
REMARK    2  A    between atoms: C3_3  and  C4_4 
REMARK    3  A    between atoms: C7_9  and  C8_10 
REMARK    4  A    between atoms: C24_28  and  O5_29 
REMARK    5  A    between atoms: C24_28  and  C25_31 
REMARK    6  A    between atoms: C25_31  and  O6_34 
ROOT
HETATM    1  C8  UNL     1     -13.585 -51.924 -19.637  1.00  0.00     0.010 C 
HETATM    2  C9  UNL     1     -13.443 -52.558 -20.775  1.00  0.00    -0.072 C 
HETATM    3  C10 UNL     1     -12.110 -53.280 -21.036  1.00  0.00     0.011 C 
HETATM    4  C11 UNL     1     -11.130 -53.122 -19.968  1.00  0.00     0.015 C 
HETATM    5  C12 UNL     1     -12.337 -54.735 -21.398  1.00  0.00     0.017 C 
HETATM    6  C13 UNL     1     -13.113 -54.766 -22.675  1.00  0.00     0.041 C 
HETATM    7  C14 UNL     1     -14.466 -54.193 -22.398  1.00  0.00     0.046 C 
HETATM    8  C15 UNL     1     -15.283 -54.869 -21.435  1.00  0.00     0.204 C 
HETATM    9  O3  UNL     1     -15.114 -55.974 -20.854  1.00  0.00    -0.288 OA
HETATM   10  C16 UNL     1     -16.544 -54.211 -21.014  1.00  0.00     0.196 C 
HETATM   11  O4  UNL     1     -17.419 -54.791 -20.323  1.00  0.00    -0.289 OA
HETATM   12  C17 UNL     1     -16.801 -52.829 -21.411  1.00  0.00     0.092 C 
HETATM   13  C18 UNL     1     -15.631 -52.218 -22.071  1.00  0.00     0.003 C 
HETATM   14  C19 UNL     1     -15.849 -52.595 -23.574  1.00  0.00     0.011 C 
HETATM   15  C20 UNL     1     -15.065 -53.853 -23.741  1.00  0.00     0.003 C 
HETATM   16  C21 UNL     1     -15.688 -54.969 -24.460  1.00  0.00     0.006 C 
HETATM   17  C22 UNL     1     -14.716 -55.634 -25.403  1.00  0.00     0.004 C 
HETATM   18  C23 UNL     1     -13.277 -55.567 -24.986  1.00  0.00     0.041 C 
HETATM   19  C24 UNL     1     -13.087 -55.972 -23.511  1.00  0.00     0.093 C 
HETATM   20  C28 UNL     1     -14.292 -52.743 -21.916  1.00  0.00     0.036 C 
ENDROOT
BRANCH   1  21
HETATM   21  C7  UNL     1     -14.674 -51.157 -19.074  1.00  0.00     0.173 C 
HETATM   22  C4  UNL     1     -14.470 -50.532 -17.712  1.00  0.00     0.074 C 
HETATM   23  C5  UNL     1     -15.740 -49.872 -17.280  1.00  0.00     0.029 C 
HETATM   24  C6  UNL     1     -14.555 -51.994 -17.348  1.00  0.00     0.270 C 
HETATM   25  O1  UNL     1     -13.961 -52.725 -16.528  1.00  0.00    -0.264 OA
HETATM   26  O2  UNL     1     -15.546 -52.033 -18.332  1.00  0.00    -0.310 OA
BRANCH  22  27
HETATM   27  C3  UNL     1     -13.205 -49.879 -17.415  1.00  0.00     0.022 C 
BRANCH  27  28
HETATM   28  C2  UNL     1     -13.094 -49.249 -16.086  1.00  0.00    -0.003 C 
HETATM   29  C1  UNL     1     -11.733 -49.204 -15.453  1.00  0.00     0.005 C 
ENDBRANCH  27  28
ENDBRANCH  22  27
ENDBRANCH   1  21
BRANCH  19  30
HETATM   30  O5  UNL     1     -14.125 -56.896 -23.323  1.00  0.00    -0.386 OA
ATOM     31  H5  UNL     1     -15.009 -56.550 -23.302  1.00  0.00     0.210 HD
ENDBRANCH  19  30
BRANCH  19  32
HETATM   32  C25 UNL     1     -11.847 -56.803 -23.468  1.00  0.00     0.082 C 
HETATM   33  C26 UNL     1     -11.777 -57.771 -22.321  1.00  0.00     0.049 C 
HETATM   34  C27 UNL     1     -10.572 -56.002 -23.663  1.00  0.00     0.049 C 
BRANCH  32  35
HETATM   35  O6  UNL     1     -11.907 -57.627 -24.627  1.00  0.00    -0.388 OA
ATOM     36  H6  UNL     1     -11.342 -57.206 -25.264  1.00  0.00     0.210 HD
ENDBRANCH  32  35
ENDBRANCH  19  32
TORSDOF 6
ENDMDL
MODEL 2
REMARK VINA RESULT: -7.779326328      1.170      1.422
REMARK  6 active torsions:
REMARK  status: ('A' for Active; 'I' for Inactive)
REMARK    1  A    between atoms: C2_2  and  C3_3 
REMARK    2  A    between atoms: C3_3  and  C4_4 
REMARK    3  A    between atoms: C7_9  and  C8_10 
REMARK    4  A    between atoms: C24_28  and  O5_29 
REMARK    5  A    between atoms: C24_28  and  C25_31 
REMARK    6  A    between atoms: C25_31  and  O6_34 
ROOT
HETATM    1  C8  UNL     1     -13.711 -52.035 -19.999  1.00  0.00     0.010 C 
HETATM    2  C9  UNL     1     -13.177 -52.747 -20.962  1.00  0.00    -0.072 C 
HETATM    3  C10 UNL     1     -11.718 -53.204 -20.794  1.00  0.00     0.011 C 
HETATM    4  C11 UNL     1     -11.084 -52.732 -19.570  1.00  0.00     0.015 C 
HETATM    5  C12 UNL     1     -11.591 -54.706 -20.965  1.00  0.00     0.017 C 
HETATM    6  C13 UNL     1     -12.001 -55.036 -22.364  1.00  0.00     0.041 C 
HETATM    7  C14 UNL     1     -13.457 -54.727 -22.497  1.00  0.00     0.046 C 
HETATM    8  C15 UNL     1     -14.363 -55.445 -21.652  1.00  0.00     0.204 C 
HETATM    9  O3  UNL     1     -14.160 -56.421 -20.881  1.00  0.00    -0.288 OA
HETATM   10  C16 UNL     1     -15.784 -55.018 -21.639  1.00  0.00     0.196 C 
HETATM   11  O4  UNL     1     -16.691 -55.685 -21.083  1.00  0.00    -0.289 OA
HETATM   12  C17 UNL     1     -16.165 -53.770 -22.295  1.00  0.00     0.092 C 
HETATM   13  C18 UNL     1     -14.989 -53.008 -22.759  1.00  0.00     0.003 C 
HETATM   14  C19 UNL     1     -14.749 -53.586 -24.193  1.00  0.00     0.011 C 
HETATM   15  C20 UNL     1     -13.744 -54.667 -23.978  1.00  0.00     0.003 C 
HETATM   16  C21 UNL     1     -13.962 -55.960 -24.635  1.00  0.00     0.006 C 
HETATM   17  C22 UNL     1     -12.683 -56.511 -25.215  1.00  0.00     0.004 C 
HETATM   18  C23 UNL     1     -11.431 -56.103 -24.496  1.00  0.00     0.041 C 
HETATM   19  C24 UNL     1     -11.556 -56.296 -22.972  1.00  0.00     0.093 C 
HETATM   20  C28 UNL     1     -13.664 -53.228 -22.222  1.00  0.00     0.036 C 
ENDROOT
BRANCH   1  21
HETATM   21  C7  UNL     1     -15.022 -51.450 -19.828  1.00  0.00     0.173 C 
HETATM   22  C4  UNL     1     -15.256 -50.581 -18.612  1.00  0.00     0.074 C 
HETATM   23  C5  UNL     1     -16.691 -50.162 -18.578  1.00  0.00     0.029 C 
HETATM   24  C6  UNL     1     -15.152 -51.946 -17.975  1.00  0.00     0.270 C 
HETATM   25  O1  UNL     1     -14.639 -52.380 -16.923  1.00  0.00    -0.264 OA
HETATM   26  O2  UNL     1     -15.866 -52.366 -19.101  1.00  0.00    -0.310 OA
BRANCH  22  27
HETATM   27  C3  UNL     1     -14.237 -49.622 -18.220  1.00  0.00     0.022 C 
BRANCH  27  28
HETATM   28  C2  UNL     1     -14.398 -49.006 -16.890  1.00  0.00    -0.003 C 
HETATM   29  C1  UNL     1     -13.225 -49.064 -15.954  1.00  0.00     0.005 C 
ENDBRANCH  27  28
ENDBRANCH  22  27
ENDBRANCH   1  21
BRANCH  19  30
HETATM   30  O5  UNL     1     -12.432 -57.387 -22.884  1.00  0.00    -0.386 OA
ATOM     31  H5  UNL     1     -12.271 -58.116 -23.471  1.00  0.00     0.210 HD
ENDBRANCH  19  30
BRANCH  19  32
HETATM   32  C25 UNL     1     -10.243 -56.845 -22.518  1.00  0.00     0.082 C 
HETATM   33  C26 UNL     1     -10.341 -57.991 -21.551  1.00  0.00     0.049 C 
HETATM   34  C27 UNL     1      -9.253 -55.776 -22.092  1.00  0.00     0.049 C 
BRANCH  32  35
HETATM   35  O6  UNL     1      -9.650 -57.410 -23.681  1.00  0.00    -0.388 OA
ATOM     36  H6  UNL     1      -8.743 -57.572 -23.447  1.00  0.00     0.210 HD
ENDBRANCH  32  35
ENDBRANCH  19  32
TORSDOF 6
ENDMDL
MODEL 3
REMARK VINA RESULT: -7.520497614      1.436      1.766
REMARK  6 active torsions:
REMARK  status: ('A' for Active; 'I' for Inactive)
REMARK    1  A    between atoms: C2_2  and  C3_3 
REMARK    2  A    between atoms: C3_3  and  C4_4 
REMARK    3  A    between atoms: C7_9  and  C8_10 
REMARK    4  A    between atoms: C24_28  and  O5_29 
REMARK    5  A    between atoms: C24_28  and  C25_31 
REMARK    6  A    between atoms: C25_31  and  O6_34 
ROOT
HETATM    1  C8  UNL     1     -14.378 -51.287 -19.849  1.00  0.00     0.010 C 
HETATM    2  C9  UNL     1     -13.797 -52.062 -20.731  1.00  0.00    -0.072 C 
HETATM    3  C10 UNL     1     -12.373 -52.559 -20.425  1.00  0.00     0.011 C 
HETATM    4  C11 UNL     1     -11.821 -52.050 -19.177  1.00  0.00     0.015 C 
HETATM    5  C12 UNL     1     -12.290 -54.071 -20.517  1.00  0.00     0.017 C 
HETATM    6  C13 UNL     1     -12.599 -54.454 -21.928  1.00  0.00     0.041 C 
HETATM    7  C14 UNL     1     -14.028 -54.103 -22.193  1.00  0.00     0.046 C 
HETATM    8  C15 UNL     1     -15.023 -54.749 -21.392  1.00  0.00     0.204 C 
HETATM    9  O3  UNL     1     -14.918 -55.693 -20.563  1.00  0.00    -0.288 OA
HETATM   10  C16 UNL     1     -16.424 -54.275 -21.512  1.00  0.00     0.196 C 
HETATM   11  O4  UNL     1     -17.397 -54.883 -21.002  1.00  0.00    -0.289 OA
HETATM   12  C17 UNL     1     -16.705 -53.048 -22.254  1.00  0.00     0.092 C 
HETATM   13  C18 UNL     1     -15.469 -52.350 -22.655  1.00  0.00     0.003 C 
HETATM   14  C19 UNL     1     -15.138 -53.004 -24.038  1.00  0.00     0.011 C 
HETATM   15  C20 UNL     1     -14.195 -54.105 -23.692  1.00  0.00     0.003 C 
HETATM   16  C21 UNL     1     -14.408 -55.421 -24.306  1.00  0.00     0.006 C 
HETATM   17  C22 UNL     1     -13.108 -56.042 -24.754  1.00  0.00     0.004 C 
HETATM   18  C23 UNL     1     -11.903 -55.642 -23.956  1.00  0.00     0.041 C 
HETATM   19  C24 UNL     1     -12.154 -55.757 -22.440  1.00  0.00     0.093 C 
HETATM   20  C28 UNL     1     -14.200 -52.587 -22.003  1.00  0.00     0.036 C 
ENDROOT
BRANCH   1  21
HETATM   21  C7  UNL     1     -15.676 -50.651 -19.810  1.00  0.00     0.173 C 
HETATM   22  C4  UNL     1     -15.994 -49.760 -18.630  1.00  0.00     0.074 C 
HETATM   23  C5  UNL     1     -17.408 -49.286 -18.739  1.00  0.00     0.029 C 
HETATM   24  C6  UNL     1     -16.005 -51.121 -17.976  1.00  0.00     0.270 C 
HETATM   25  O1  UNL     1     -15.615 -51.563 -16.876  1.00  0.00    -0.264 OA
HETATM   26  O2  UNL     1     -16.621 -51.526 -19.163  1.00  0.00    -0.310 OA
BRANCH  22  27
HETATM   27  C3  UNL     1     -14.981 -48.836 -18.147  1.00  0.00     0.022 C 
BRANCH  27  28
HETATM   28  C2  UNL     1     -15.425 -47.845 -17.149  1.00  0.00    -0.003 C 
HETATM   29  C1  UNL     1     -15.208 -48.176 -15.701  1.00  0.00     0.005 C 
ENDBRANCH  27  28
ENDBRANCH  22  27
ENDBRANCH   1  21
BRANCH  19  30
HETATM   30  O5  UNL     1     -13.075 -56.812 -22.373  1.00  0.00    -0.386 OA
ATOM     31  H5  UNL     1     -12.718 -57.690 -22.310  1.00  0.00     0.210 HD
ENDBRANCH  19  30
BRANCH  19  32
HETATM   32  C25 UNL     1     -10.903 -56.326 -21.857  1.00  0.00     0.082 C 
HETATM   33  C26 UNL     1      -9.782 -55.340 -21.688  1.00  0.00     0.049 C 
HETATM   34  C27 UNL     1     -10.471 -57.631 -22.501  1.00  0.00     0.049 C 
BRANCH  32  35
HETATM   35  O6  UNL     1     -11.247 -56.704 -20.528  1.00  0.00    -0.388 OA
ATOM     36  H6  UNL     1     -11.786 -55.995 -20.197  1.00  0.00     0.210 HD
ENDBRANCH  32  35
ENDBRANCH  19  32
TORSDOF 6
ENDMDL
MODEL 4
REMARK VINA RESULT: -7.363601078      1.585      1.966
REMARK  6 active torsions:
REMARK  status: ('A' for Active; 'I' for Inactive)
REMARK    1  A    between atoms: C2_2  and  C3_3 
REMARK    2  A    between atoms: C3_3  and  C4_4 
REMARK    3  A    between atoms: C7_9  and  C8_10 
REMARK    4  A    between atoms: C24_28  and  O5_29 
REMARK    5  A    between atoms: C24_28  and  C25_31 
REMARK    6  A    between atoms: C25_31  and  O6_34 
ROOT
HETATM    1  C8  UNL     1     -14.651 -50.680 -19.139  1.00  0.00     0.010 C 
HETATM    2  C9  UNL     1     -14.247 -51.477 -20.098  1.00  0.00    -0.072 C 
HETATM    3  C10 UNL     1     -12.799 -51.995 -20.040  1.00  0.00     0.011 C 
HETATM    4  C11 UNL     1     -12.028 -51.479 -18.917  1.00  0.00     0.015 C 
HETATM    5  C12 UNL     1     -12.756 -53.509 -20.121  1.00  0.00     0.017 C 
HETATM    6  C13 UNL     1     -13.316 -53.905 -21.450  1.00  0.00     0.041 C 
HETATM    7  C14 UNL     1     -14.763 -53.532 -21.464  1.00  0.00     0.046 C 
HETATM    8  C15 UNL     1     -15.611 -54.150 -20.489  1.00  0.00     0.204 C 
HETATM    9  O3  UNL     1     -15.375 -55.085 -19.677  1.00  0.00    -0.288 OA
HETATM   10  C16 UNL     1     -17.004 -53.653 -20.368  1.00  0.00     0.196 C 
HETATM   11  O4  UNL     1     -17.880 -54.238 -19.685  1.00  0.00    -0.289 OA
HETATM   12  C17 UNL     1     -17.393 -52.431 -21.068  1.00  0.00     0.092 C 
HETATM   13  C18 UNL     1     -16.237 -51.760 -21.692  1.00  0.00     0.003 C 
HETATM   14  C19 UNL     1     -16.165 -52.437 -23.101  1.00  0.00     0.011 C 
HETATM   15  C20 UNL     1     -15.192 -53.551 -22.910  1.00  0.00     0.003 C 
HETATM   16  C21 UNL     1     -15.530 -54.870 -23.455  1.00  0.00     0.006 C 
HETATM   17  C22 UNL     1     -14.340 -55.519 -24.116  1.00  0.00     0.004 C 
HETATM   18  C23 UNL     1     -13.006 -55.131 -23.550  1.00  0.00     0.041 C 
HETATM   19  C24 UNL     1     -12.988 -55.222 -22.012  1.00  0.00     0.093 C 
HETATM   20  C28 UNL     1     -14.876 -52.011 -21.271  1.00  0.00     0.036 C 
ENDROOT
BRANCH   1  21
HETATM   21  C7  UNL     1     -15.913 -50.021 -18.883  1.00  0.00     0.173 C 
HETATM   22  C4  UNL     1     -16.040 -49.205 -17.616  1.00  0.00     0.074 C 
HETATM   23  C5  UNL     1     -17.441 -48.695 -17.499  1.00  0.00     0.029 C 
HETATM   24  C6  UNL     1     -16.003 -50.605 -17.053  1.00  0.00     0.270 C 
HETATM   25  O1  UNL     1     -15.479 -51.127 -16.047  1.00  0.00    -0.264 OA
HETATM   26  O2  UNL     1     -16.787 -50.918 -18.167  1.00  0.00    -0.310 OA
BRANCH  22  27
HETATM   27  C3  UNL     1     -14.943 -48.336 -17.220  1.00  0.00     0.022 C 
BRANCH  27  28
HETATM   28  C2  UNL     1     -15.315 -47.106 -16.495  1.00  0.00    -0.003 C 
HETATM   29  C1  UNL     1     -15.093 -47.085 -15.010  1.00  0.00     0.005 C 
ENDBRANCH  27  28
ENDBRANCH  22  27
ENDBRANCH   1  21
BRANCH  19  30
HETATM   30  O5  UNL     1     -13.898 -56.259 -21.767  1.00  0.00    -0.386 OA
ATOM     31  H5  UNL     1     -13.593 -57.144 -21.926  1.00  0.00     0.210 HD
ENDBRANCH  19  30
BRANCH  19  32
HETATM   32  C25 UNL     1     -11.662 -55.805 -21.649  1.00  0.00     0.082 C 
HETATM   33  C26 UNL     1     -10.602 -54.796 -21.308  1.00  0.00     0.049 C 
HETATM   34  C27 UNL     1     -11.188 -56.881 -22.610  1.00  0.00     0.049 C 
BRANCH  32  35
HETATM   35  O6  UNL     1     -11.883 -56.513 -20.434  1.00  0.00    -0.388 OA
ATOM     36  H6  UNL     1     -12.169 -55.856 -19.809  1.00  0.00     0.210 HD
ENDBRANCH  32  35
ENDBRANCH  19  32
TORSDOF 6
ENDMDL
MODEL 5
REMARK VINA RESULT: -6.974214707      3.221      5.457
REMARK  6 active torsions:
REMARK  status: ('A' for Active; 'I' for Inactive)
REMARK    1  A    between atoms: C2_2  and  C3_3 
REMARK    2  A    between atoms: C3_3  and  C4_4 
REMARK    3  A    between atoms: C7_9  and  C8_10 
REMARK    4  A    between atoms: C24_28  and  O5_29 
REMARK    5  A    between atoms: C24_28  and  C25_31 
REMARK    6  A    between atoms: C25_31  and  O6_34 
ROOT
HETATM    1  C8  UNL     1     -16.757 -49.941 -19.576  1.00  0.00     0.010 C 
HETATM    2  C9  UNL     1     -17.323 -51.043 -20.005  1.00  0.00    -0.072 C 
HETATM    3  C10 UNL     1     -18.783 -50.962 -20.484  1.00  0.00     0.011 C 
HETATM    4  C11 UNL     1     -19.380 -49.640 -20.352  1.00  0.00     0.015 C 
HETATM    5  C12 UNL     1     -18.930 -51.523 -21.886  1.00  0.00     0.017 C 
HETATM    6  C13 UNL     1     -18.561 -52.970 -21.833  1.00  0.00     0.041 C 
HETATM    7  C14 UNL     1     -17.105 -53.057 -21.505  1.00  0.00     0.046 C 
HETATM    8  C15 UNL     1     -16.186 -52.458 -22.426  1.00  0.00     0.204 C 
HETATM    9  O3  UNL     1     -16.381 -51.969 -23.572  1.00  0.00    -0.288 OA
HETATM   10  C16 UNL     1     -14.761 -52.371 -22.024  1.00  0.00     0.196 C 
HETATM   11  O4  UNL     1     -13.847 -52.038 -22.818  1.00  0.00    -0.289 OA
HETATM   12  C17 UNL     1     -14.382 -52.683 -20.648  1.00  0.00     0.092 C 
HETATM   13  C18 UNL     1     -15.561 -52.894 -19.786  1.00  0.00     0.003 C 
HETATM   14  C19 UNL     1     -15.844 -54.423 -19.960  1.00  0.00     0.011 C 
HETATM   15  C20 UNL     1     -16.855 -54.475 -21.055  1.00  0.00     0.003 C 
HETATM   16  C21 UNL     1     -16.668 -55.458 -22.127  1.00  0.00     0.006 C 
HETATM   17  C22 UNL     1     -17.968 -56.128 -22.499  1.00  0.00     0.004 C 
HETATM   18  C23 UNL     1     -19.197 -55.293 -22.292  1.00  0.00     0.041 C 
HETATM   19  C24 UNL     1     -19.036 -53.879 -22.884  1.00  0.00     0.093 C 
HETATM   20  C28 UNL     1     -16.874 -52.398 -20.134  1.00  0.00     0.036 C 
ENDROOT
BRANCH   1  21
HETATM   21  C7  UNL     1     -15.435 -49.656 -19.064  1.00  0.00     0.173 C 
HETATM   22  C4  UNL     1     -15.242 -49.661 -17.563  1.00  0.00     0.074 C 
HETATM   23  C5  UNL     1     -13.838 -49.251 -17.248  1.00  0.00     0.029 C 
HETATM   24  C6  UNL     1     -16.065 -48.409 -17.744  1.00  0.00     0.270 C 
HETATM   25  O1  UNL     1     -16.993 -47.875 -17.102  1.00  0.00    -0.264 OA
HETATM   26  O2  UNL     1     -15.283 -48.233 -18.889  1.00  0.00    -0.310 OA
BRANCH  22  27
HETATM   27  C3  UNL     1     -15.858 -50.714 -16.773  1.00  0.00     0.022 C 
BRANCH  27  28
HETATM   28  C2  UNL     1     -14.938 -51.582 -16.014  1.00  0.00    -0.003 C 
HETATM   29  C1  UNL     1     -13.911 -52.350 -16.793  1.00  0.00     0.005 C 
ENDBRANCH  27  28
ENDBRANCH  22  27
ENDBRANCH   1  21
BRANCH  19  30
HETATM   30  O5  UNL     1     -18.169 -54.108 -23.963  1.00  0.00    -0.386 OA
ATOM     31  H5  UNL     1     -17.748 -54.958 -24.002  1.00  0.00     0.210 HD
ENDBRANCH  19  30
BRANCH  19  32
HETATM   32  C25 UNL     1     -20.342 -53.550 -23.528  1.00  0.00     0.082 C 
HETATM   33  C26 UNL     1     -21.299 -52.786 -22.658  1.00  0.00     0.049 C 
HETATM   34  C27 UNL     1     -20.981 -54.729 -24.242  1.00  0.00     0.049 C 
BRANCH  32  35
HETATM   35  O6  UNL     1     -20.024 -52.650 -24.584  1.00  0.00    -0.388 OA
ATOM     36  H6  UNL     1     -19.083 -52.720 -24.699  1.00  0.00     0.210 HD
ENDBRANCH  32  35
ENDBRANCH  19  32
TORSDOF 6
ENDMDL
