MODEL 1
REMARK VINA RESULT: -7.504201917      0.000      0.000
REMARK  9 active torsions:
REMARK  status: ('A' for Active; 'I' for Inactive)
REMARK    1  A    between atoms: C2_2  and  O2_4 
REMARK    2  A    between atoms: O2_4  and  C3_5 
REMARK    3  A    between atoms: C5_7  and  C6_8 
REMARK    4  A    between atoms: C7_9  and  C8_10 
REMARK    5  A    between atoms: C8_10  and  C9_11 
REMARK    6  A    between atoms: C9_11  and  O3_12 
REMARK    7  A    between atoms: C20_26  and  C22_28 
REMARK    8  A    between atoms: C23_29  and  C24_30 
REMARK    9  A    between atoms: C24_30  and  N1_31 
ROOT
HETATM    1  C9  UNL     1     -15.835 -51.354 -19.192  1.00  0.00     0.176 C 
HETATM    2  O4  UNL     1     -17.097 -51.624 -19.658  1.00  0.00    -0.342 OA
HETATM    3  C10 UNL     1     -17.491 -50.292 -19.550  1.00  0.00     0.078 C 
HETATM    4  C11 UNL     1     -17.447 -49.586 -20.883  1.00  0.00     0.047 C 
HETATM    5  C12 UNL     1     -18.763 -50.146 -18.781  1.00  0.00     0.033 C 
HETATM    6  C13 UNL     1     -19.971 -50.437 -19.618  1.00  0.00     0.087 C 
HETATM    7  C14 UNL     1     -21.228 -49.868 -19.056  1.00  0.00     0.138 C 
HETATM    8  O5  UNL     1     -22.237 -50.528 -19.051  1.00  0.00    -0.297 OA
HETATM    9  C15 UNL     1     -21.146 -48.519 -18.539  1.00  0.00     0.046 C 
HETATM   10  C16 UNL     1     -20.697 -47.480 -19.543  1.00  0.00     0.026 C 
HETATM   11  C17 UNL     1     -20.064 -48.545 -17.440  1.00  0.00     0.030 C 
HETATM   12  C18 UNL     1     -20.258 -47.206 -16.878  1.00  0.00    -0.023 C 
HETATM   13  C19 UNL     1     -21.556 -46.873 -17.021  1.00  0.00    -0.007 C 
HETATM   14  C20 UNL     1     -22.276 -48.019 -17.705  1.00  0.00     0.052 C 
HETATM   15  C21 UNL     1     -23.456 -47.537 -18.487  1.00  0.00     0.035 C 
HETATM   16  C25 UNL     1     -18.770 -48.792 -18.130  1.00  0.00     0.002 C 
HETATM   17  C26 UNL     1     -17.676 -48.795 -17.079  1.00  0.00     0.007 C 
HETATM   18  C27 UNL     1     -16.717 -49.954 -17.243  1.00  0.00     0.018 C 
HETATM   19  C28 UNL     1     -16.310 -50.043 -18.675  1.00  0.00     0.044 C 
HETATM   20  C29 UNL     1     -15.398 -48.919 -19.088  1.00  0.00     0.024 C 
ENDROOT
BRANCH   1  21
HETATM   21  C8  UNL     1     -15.272 -52.326 -18.184  1.00  0.00     0.096 C 
BRANCH  21  22
HETATM   22  C7  UNL     1     -13.887 -51.856 -17.866  1.00  0.00    -0.021 C 
HETATM   23  C6  UNL     1     -13.595 -51.285 -16.729  1.00  0.00    -0.001 C 
BRANCH  23  24
HETATM   24  C5  UNL     1     -12.255 -50.841 -16.443  1.00  0.00     0.032 C 
HETATM   25  C3  UNL     1     -11.973 -49.662 -15.917  1.00  0.00     0.052 C 
HETATM   26  C4  UNL     1     -13.074 -48.716 -15.586  1.00  0.00     0.077 C 
BRANCH  25  27
HETATM   27  O2  UNL     1     -10.675 -49.256 -15.650  1.00  0.00    -0.284 OA
BRANCH  27  28
HETATM   28  C2  UNL     1     -10.205 -48.934 -14.395  1.00  0.00     0.259 C 
HETATM   29  C1  UNL     1      -9.616 -47.588 -14.086  1.00  0.00     0.126 C 
HETATM   30  O1  UNL     1     -10.276 -49.797 -13.493  1.00  0.00    -0.265 OA
ENDBRANCH  27  28
ENDBRANCH  25  27
ENDBRANCH  23  24
ENDBRANCH  21  22
ENDBRANCH   1  21
BRANCH   1  31
HETATM   31  O3  UNL     1     -14.929 -51.218 -20.248  1.00  0.00    -0.364 OA
ATOM     32  H3  UNL     1     -14.231 -50.631 -19.982  1.00  0.00     0.213 HD
ENDBRANCH   1  31
BRANCH  14  33
HETATM   33  C22 UNL     1     -22.630 -49.057 -16.732  1.00  0.00    -0.090 C 
HETATM   34  C23 UNL     1     -22.942 -49.910 -15.935  1.00  0.00    -0.078 C 
BRANCH  34  35
HETATM   35  C24 UNL     1     -23.314 -50.932 -14.949  1.00  0.00     0.323 C 
BRANCH  35  36
HETATM   36  N1  UNL     1     -23.072 -52.224 -15.535  1.00  0.00    -0.069 N 
ATOM     37  H13 UNL     1     -23.931 -52.748 -15.702  1.00  0.00     0.275 HD
ATOM     38  H12 UNL     1     -22.759 -52.166 -16.504  1.00  0.00     0.275 HD
ATOM     39  H11 UNL     1     -22.415 -52.723 -14.937  1.00  0.00     0.275 HD
ENDBRANCH  35  36
ENDBRANCH  34  35
ENDBRANCH  14  33
TORSDOF 9
ENDMDL
MODEL 2
REMARK VINA RESULT: -7.035210353      4.242      8.023
REMARK  9 active torsions:
REMARK  status: ('A' for Active; 'I' for Inactive)
REMARK    1  A    between atoms: C2_2  and  O2_4 
REMARK    2  A    between atoms: O2_4  and  C3_5 
REMARK    3  A    between atoms: C5_7  and  C6_8 
REMARK    4  A    between atoms: C7_9  and  C8_10 
REMARK    5  A    between atoms: C8_10  and  C9_11 
REMARK    6  A    between atoms: C9_11  and  O3_12 
REMARK    7  A    between atoms: C20_26  and  C22_28 
REMARK    8  A    between atoms: C23_29  and  C24_30 
REMARK    9  A    between atoms: C24_30  and  N1_31 
ROOT
HETATM    1  C9  UNL     1     -19.260 -51.046 -20.998  1.00  0.00     0.176 C 
HETATM    2  O4  UNL     1     -18.281 -50.912 -21.950  1.00  0.00    -0.342 OA
HETATM    3  C10 UNL     1     -18.197 -52.289 -22.149  1.00  0.00     0.078 C 
HETATM    4  C11 UNL     1     -18.952 -52.724 -23.380  1.00  0.00     0.047 C 
HETATM    5  C12 UNL     1     -16.793 -52.785 -22.040  1.00  0.00     0.033 C 
HETATM    6  C13 UNL     1     -16.009 -52.555 -23.296  1.00  0.00     0.087 C 
HETATM    7  C14 UNL     1     -14.802 -53.421 -23.404  1.00  0.00     0.138 C 
HETATM    8  O5  UNL     1     -13.758 -52.953 -23.789  1.00  0.00    -0.297 OA
HETATM    9  C15 UNL     1     -14.971 -54.807 -23.028  1.00  0.00     0.046 C 
HETATM   10  C16 UNL     1     -16.022 -55.556 -23.817  1.00  0.00     0.026 C 
HETATM   11  C17 UNL     1     -15.461 -54.799 -21.565  1.00  0.00     0.030 C 
HETATM   12  C18 UNL     1     -15.367 -56.231 -21.270  1.00  0.00    -0.023 C 
HETATM   13  C19 UNL     1     -14.361 -56.747 -22.004  1.00  0.00    -0.007 C 
HETATM   14  C20 UNL     1     -13.746 -55.634 -22.830  1.00  0.00     0.052 C 
HETATM   15  C21 UNL     1     -13.143 -56.158 -24.095  1.00  0.00     0.035 C 
HETATM   16  C25 UNL     1     -16.829 -54.216 -21.584  1.00  0.00     0.002 C 
HETATM   17  C26 UNL     1     -17.355 -54.220 -20.161  1.00  0.00     0.007 C 
HETATM   18  C27 UNL     1     -17.999 -52.905 -19.778  1.00  0.00     0.018 C 
HETATM   19  C28 UNL     1     -18.931 -52.489 -20.866  1.00  0.00     0.044 C 
HETATM   20  C29 UNL     1     -20.165 -53.350 -20.930  1.00  0.00     0.024 C 
ENDROOT
BRANCH   1  21
HETATM   21  C8  UNL     1     -19.113 -50.192 -19.763  1.00  0.00     0.096 C 
BRANCH  21  22
HETATM   22  C7  UNL     1     -17.672 -49.801 -19.683  1.00  0.00    -0.021 C 
HETATM   23  C6  UNL     1     -16.963 -49.990 -18.602  1.00  0.00    -0.001 C 
BRANCH  23  24
HETATM   24  C5  UNL     1     -15.576 -49.607 -18.547  1.00  0.00     0.032 C 
HETATM   25  C3  UNL     1     -14.597 -50.446 -18.256  1.00  0.00     0.052 C 
HETATM   26  C4  UNL     1     -14.908 -51.873 -17.965  1.00  0.00     0.077 C 
BRANCH  25  27
HETATM   27  O2  UNL     1     -13.269 -50.056 -18.208  1.00  0.00    -0.284 OA
BRANCH  27  28
HETATM   28  C2  UNL     1     -12.472 -50.152 -17.089  1.00  0.00     0.259 C 
HETATM   29  C1  UNL     1     -12.726 -49.332 -15.856  1.00  0.00     0.126 C 
HETATM   30  O1  UNL     1     -11.508 -50.950 -17.109  1.00  0.00    -0.265 OA
ENDBRANCH  27  28
ENDBRANCH  25  27
ENDBRANCH  23  24
ENDBRANCH  21  22
ENDBRANCH   1  21
BRANCH   1  31
HETATM   31  O3  UNL     1     -20.527 -50.833 -21.550  1.00  0.00    -0.364 OA
ATOM     32  H3  UNL     1     -20.737 -51.556 -22.129  1.00  0.00     0.213 HD
ENDBRANCH   1  31
BRANCH  14  33
HETATM   33  C22 UNL     1     -12.791 -54.865 -22.028  1.00  0.00    -0.090 C 
HETATM   34  C23 UNL     1     -12.004 -54.245 -21.352  1.00  0.00    -0.078 C 
BRANCH  34  35
HETATM   35  C24 UNL     1     -11.065 -53.474 -20.528  1.00  0.00     0.323 C 
BRANCH  35  36
HETATM   36  N1  UNL     1     -11.825 -52.526 -19.758  1.00  0.00    -0.069 N 
ATOM     37  H13 UNL     1     -12.829 -52.603 -19.917  1.00  0.00     0.275 HD
ATOM     38  H12 UNL     1     -11.829 -52.739 -18.761  1.00  0.00     0.275 HD
ATOM     39  H11 UNL     1     -11.463 -51.594 -19.960  1.00  0.00     0.275 HD
ENDBRANCH  35  36
ENDBRANCH  34  35
ENDBRANCH  14  33
TORSDOF 9
ENDMDL
MODEL 3
REMARK VINA RESULT: -7.027469859      4.252      8.031
REMARK  9 active torsions:
REMARK  status: ('A' for Active; 'I' for Inactive)
REMARK    1  A    between atoms: C2_2  and  O2_4 
REMARK    2  A    between atoms: O2_4  and  C3_5 
REMARK    3  A    between atoms: C5_7  and  C6_8 
REMARK    4  A    between atoms: C7_9  and  C8_10 
REMARK    5  A    between atoms: C8_10  and  C9_11 
REMARK    6  A    between atoms: C9_11  and  O3_12 
REMARK    7  A    between atoms: C20_26  and  C22_28 
REMARK    8  A    between atoms: C23_29  and  C24_30 
REMARK    9  A    between atoms: C24_30  and  N1_31 
ROOT
HETATM    1  C9  UNL     1     -20.077 -51.341 -20.811  1.00  0.00     0.176 C 
HETATM    2  O4  UNL     1     -19.054 -50.956 -21.640  1.00  0.00    -0.342 OA
HETATM    3  C10 UNL     1     -18.736 -52.274 -21.965  1.00  0.00     0.078 C 
HETATM    4  C11 UNL     1     -19.305 -52.672 -23.304  1.00  0.00     0.047 C 
HETATM    5  C12 UNL     1     -17.286 -52.565 -21.763  1.00  0.00     0.033 C 
HETATM    6  C13 UNL     1     -16.444 -52.080 -22.904  1.00  0.00     0.087 C 
HETATM    7  C14 UNL     1     -15.110 -52.740 -22.974  1.00  0.00     0.138 C 
HETATM    8  O5  UNL     1     -14.125 -52.082 -23.202  1.00  0.00    -0.297 OA
HETATM    9  C15 UNL     1     -15.089 -54.170 -22.756  1.00  0.00     0.046 C 
HETATM   10  C16 UNL     1     -15.938 -54.971 -23.720  1.00  0.00     0.026 C 
HETATM   11  C17 UNL     1     -15.698 -54.401 -21.358  1.00  0.00     0.030 C 
HETATM   12  C18 UNL     1     -15.404 -55.828 -21.199  1.00  0.00    -0.023 C 
HETATM   13  C19 UNL     1     -14.270 -56.102 -21.874  1.00  0.00    -0.007 C 
HETATM   14  C20 UNL     1     -13.771 -54.823 -22.518  1.00  0.00     0.052 C 
HETATM   15  C21 UNL     1     -12.987 -55.105 -23.760  1.00  0.00     0.035 C 
HETATM   16  C25 UNL     1     -17.135 -54.028 -21.458  1.00  0.00     0.002 C 
HETATM   17  C26 UNL     1     -17.773 -54.272 -20.104  1.00  0.00     0.007 C 
HETATM   18  C27 UNL     1     -18.647 -53.119 -19.659  1.00  0.00     0.018 C 
HETATM   19  C28 UNL     1     -19.537 -52.725 -20.790  1.00  0.00     0.044 C 
HETATM   20  C29 UNL     1     -20.608 -53.746 -21.065  1.00  0.00     0.024 C 
ENDROOT
BRANCH   1  21
HETATM   21  C8  UNL     1     -20.174 -50.621 -19.488  1.00  0.00     0.096 C 
BRANCH  21  22
HETATM   22  C7  UNL     1     -18.873 -49.908 -19.295  1.00  0.00    -0.021 C 
HETATM   23  C6  UNL     1     -18.449 -49.553 -18.112  1.00  0.00    -0.001 C 
BRANCH  23  24
HETATM   24  C5  UNL     1     -17.192 -48.868 -17.948  1.00  0.00     0.032 C 
HETATM   25  C3  UNL     1     -16.990 -47.917 -17.054  1.00  0.00     0.052 C 
HETATM   26  C4  UNL     1     -18.097 -47.505 -16.147  1.00  0.00     0.077 C 
BRANCH  25  27
HETATM   27  O2  UNL     1     -15.772 -47.270 -16.914  1.00  0.00    -0.284 OA
BRANCH  27  28
HETATM   28  C2  UNL     1     -14.978 -47.347 -15.791  1.00  0.00     0.259 C 
HETATM   29  C1  UNL     1     -14.027 -48.488 -15.563  1.00  0.00     0.126 C 
HETATM   30  O1  UNL     1     -15.059 -46.435 -14.940  1.00  0.00    -0.265 OA
ENDBRANCH  27  28
ENDBRANCH  25  27
ENDBRANCH  23  24
ENDBRANCH  21  22
ENDBRANCH   1  21
BRANCH   1  31
HETATM   31  O3  UNL     1     -21.310 -51.256 -21.465  1.00  0.00    -0.364 OA
ATOM     32  H3  UNL     1     -21.878 -51.945 -21.142  1.00  0.00     0.213 HD
ENDBRANCH   1  31
BRANCH  14  33
HETATM   33  C22 UNL     1     -13.021 -54.018 -21.550  1.00  0.00    -0.090 C 
HETATM   34  C23 UNL     1     -12.399 -53.370 -20.742  1.00  0.00    -0.078 C 
BRANCH  34  35
HETATM   35  C24 UNL     1     -11.664 -52.573 -19.752  1.00  0.00     0.323 C 
BRANCH  35  36
HETATM   36  N1  UNL     1     -10.257 -52.749 -19.997  1.00  0.00    -0.069 N 
ATOM     37  H13 UNL     1      -9.777 -51.870 -20.191  1.00  0.00     0.275 HD
ATOM     38  H12 UNL     1      -9.738 -53.003 -19.157  1.00  0.00     0.275 HD
ATOM     39  H11 UNL     1     -10.151 -53.431 -20.748  1.00  0.00     0.275 HD
ENDBRANCH  35  36
ENDBRANCH  34  35
ENDBRANCH  14  33
TORSDOF 9
ENDMDL
MODEL 4
REMARK VINA RESULT: -6.901205646      2.501      3.406
REMARK  9 active torsions:
REMARK  status: ('A' for Active; 'I' for Inactive)
REMARK    1  A    between atoms: C2_2  and  O2_4 
REMARK    2  A    between atoms: O2_4  and  C3_5 
REMARK    3  A    between atoms: C5_7  and  C6_8 
REMARK    4  A    between atoms: C7_9  and  C8_10 
REMARK    5  A    between atoms: C8_10  and  C9_11 
REMARK    6  A    between atoms: C9_11  and  O3_12 
REMARK    7  A    between atoms: C20_26  and  C22_28 
REMARK    8  A    between atoms: C23_29  and  C24_30 
REMARK    9  A    between atoms: C24_30  and  N1_31 
ROOT
HETATM    1  C9  UNL     1     -14.043 -51.700 -18.041  1.00  0.00     0.176 C 
HETATM    2  O4  UNL     1     -14.814 -52.774 -18.407  1.00  0.00    -0.342 OA
HETATM    3  C10 UNL     1     -15.481 -52.041 -19.387  1.00  0.00     0.078 C 
HETATM    4  C11 UNL     1     -14.930 -52.317 -20.764  1.00  0.00     0.047 C 
HETATM    5  C12 UNL     1     -16.965 -52.145 -19.250  1.00  0.00     0.033 C 
HETATM    6  C13 UNL     1     -17.502 -53.417 -19.833  1.00  0.00     0.087 C 
HETATM    7  C14 UNL     1     -18.959 -53.356 -20.137  1.00  0.00     0.138 C 
HETATM    8  O5  UNL     1     -19.671 -54.289 -19.859  1.00  0.00    -0.297 OA
HETATM    9  C15 UNL     1     -19.433 -52.141 -20.763  1.00  0.00     0.046 C 
HETATM   10  C16 UNL     1     -18.775 -51.810 -22.085  1.00  0.00     0.026 C 
HETATM   11  C17 UNL     1     -19.065 -50.990 -19.804  1.00  0.00     0.030 C 
HETATM   12  C18 UNL     1     -19.792 -49.894 -20.452  1.00  0.00    -0.023 C 
HETATM   13  C19 UNL     1     -20.882 -50.409 -21.053  1.00  0.00    -0.007 C 
HETATM   14  C20 UNL     1     -20.904 -51.906 -20.813  1.00  0.00     0.052 C 
HETATM   15  C21 UNL     1     -21.609 -52.628 -21.917  1.00  0.00     0.035 C 
HETATM   16  C25 UNL     1     -17.581 -50.896 -19.812  1.00  0.00     0.002 C 
HETATM   17  C26 UNL     1     -17.185 -49.751 -18.898  1.00  0.00     0.007 C 
HETATM   18  C27 UNL     1     -16.051 -50.120 -17.965  1.00  0.00     0.018 C 
HETATM   19  C28 UNL     1     -14.976 -50.789 -18.754  1.00  0.00     0.044 C 
HETATM   20  C29 UNL     1     -14.242 -49.834 -19.656  1.00  0.00     0.024 C 
ENDROOT
BRANCH   1  21
HETATM   21  C8  UNL     1     -13.865 -51.478 -16.558  1.00  0.00     0.096 C 
BRANCH  21  22
HETATM   22  C7  UNL     1     -12.530 -50.827 -16.382  1.00  0.00    -0.021 C 
HETATM   23  C6  UNL     1     -12.405 -49.636 -15.862  1.00  0.00    -0.001 C 
BRANCH  23  24
HETATM   24  C5  UNL     1     -11.109 -49.028 -15.700  1.00  0.00     0.032 C 
HETATM   25  C3  UNL     1     -10.574 -48.751 -14.524  1.00  0.00     0.052 C 
HETATM   26  C4  UNL     1     -11.321 -49.072 -13.276  1.00  0.00     0.077 C 
BRANCH  25  27
HETATM   27  O2  UNL     1      -9.325 -48.165 -14.392  1.00  0.00    -0.284 OA
BRANCH  27  28
HETATM   28  C2  UNL     1      -8.136 -48.861 -14.416  1.00  0.00     0.259 C 
HETATM   29  C1  UNL     1      -6.894 -48.340 -13.750  1.00  0.00     0.126 C 
HETATM   30  O1  UNL     1      -8.099 -49.959 -15.013  1.00  0.00    -0.265 OA
ENDBRANCH  27  28
ENDBRANCH  25  27
ENDBRANCH  23  24
ENDBRANCH  21  22
ENDBRANCH   1  21
BRANCH   1  31
HETATM   31  O3  UNL     1     -12.783 -51.759 -18.645  1.00  0.00    -0.364 OA
ATOM     32  H3  UNL     1     -12.568 -52.667 -18.821  1.00  0.00     0.213 HD
ENDBRANCH   1  31
BRANCH  14  33
HETATM   33  C22 UNL     1     -21.468 -52.207 -19.494  1.00  0.00    -0.090 C 
HETATM   34  C23 UNL     1     -21.950 -52.453 -18.414  1.00  0.00    -0.078 C 
BRANCH  34  35
HETATM   35  C24 UNL     1     -22.528 -52.731 -17.093  1.00  0.00     0.323 C 
BRANCH  35  36
HETATM   36  N1  UNL     1     -21.800 -53.828 -16.512  1.00  0.00    -0.069 N 
ATOM     37  H13 UNL     1     -21.304 -54.386 -17.207  1.00  0.00     0.275 HD
ATOM     38  H12 UNL     1     -20.987 -53.523 -15.977  1.00  0.00     0.275 HD
ATOM     39  H11 UNL     1     -22.454 -54.380 -15.956  1.00  0.00     0.275 HD
ENDBRANCH  35  36
ENDBRANCH  34  35
ENDBRANCH  14  33
TORSDOF 9
ENDMDL
MODEL 5
REMARK VINA RESULT: -6.874896815      4.462      6.002
REMARK  9 active torsions:
REMARK  status: ('A' for Active; 'I' for Inactive)
REMARK    1  A    between atoms: C2_2  and  O2_4 
REMARK    2  A    between atoms: O2_4  and  C3_5 
REMARK    3  A    between atoms: C5_7  and  C6_8 
REMARK    4  A    between atoms: C7_9  and  C8_10 
REMARK    5  A    between atoms: C8_10  and  C9_11 
REMARK    6  A    between atoms: C9_11  and  O3_12 
REMARK    7  A    between atoms: C20_26  and  C22_28 
REMARK    8  A    between atoms: C23_29  and  C24_30 
REMARK    9  A    between atoms: C24_30  and  N1_31 
ROOT
HETATM    1  C9  UNL     1     -14.940 -52.211 -18.323  1.00  0.00     0.176 C 
HETATM    2  O4  UNL     1     -15.603 -53.374 -18.625  1.00  0.00    -0.342 OA
HETATM    3  C10 UNL     1     -15.333 -53.249 -19.986  1.00  0.00     0.078 C 
HETATM    4  C11 UNL     1     -14.177 -54.121 -20.410  1.00  0.00     0.047 C 
HETATM    5  C12 UNL     1     -16.570 -53.366 -20.814  1.00  0.00     0.033 C 
HETATM    6  C13 UNL     1     -16.981 -54.791 -21.025  1.00  0.00     0.087 C 
HETATM    7  C14 UNL     1     -17.894 -54.975 -22.188  1.00  0.00     0.138 C 
HETATM    8  O5  UNL     1     -18.852 -55.701 -22.091  1.00  0.00    -0.297 OA
HETATM    9  C15 UNL     1     -17.555 -54.246 -23.391  1.00  0.00     0.046 C 
HETATM   10  C16 UNL     1     -16.185 -54.555 -23.955  1.00  0.00     0.026 C 
HETATM   11  C17 UNL     1     -17.527 -52.755 -22.997  1.00  0.00     0.030 C 
HETATM   12  C18 UNL     1     -17.400 -52.156 -24.328  1.00  0.00    -0.023 C 
HETATM   13  C19 UNL     1     -18.015 -52.964 -25.214  1.00  0.00    -0.007 C 
HETATM   14  C20 UNL     1     -18.581 -54.157 -24.468  1.00  0.00     0.052 C 
HETATM   15  C21 UNL     1     -18.662 -55.365 -25.347  1.00  0.00     0.035 C 
HETATM   16  C25 UNL     1     -16.368 -52.584 -22.080  1.00  0.00     0.002 C 
HETATM   17  C26 UNL     1     -16.294 -51.119 -21.696  1.00  0.00     0.007 C 
HETATM   18  C27 UNL     1     -16.082 -50.919 -20.210  1.00  0.00     0.018 C 
HETATM   19  C28 UNL     1     -14.982 -51.817 -19.756  1.00  0.00     0.044 C 
HETATM   20  C29 UNL     1     -13.632 -51.374 -20.251  1.00  0.00     0.024 C 
ENDROOT
BRANCH   1  21
HETATM   21  C8  UNL     1     -15.618 -51.290 -17.338  1.00  0.00     0.096 C 
BRANCH  21  22
HETATM   22  C7  UNL     1     -14.531 -50.631 -16.551  1.00  0.00    -0.021 C 
HETATM   23  C6  UNL     1     -14.292 -49.350 -16.639  1.00  0.00    -0.001 C 
BRANCH  23  24
HETATM   24  C5  UNL     1     -13.240 -48.735 -15.872  1.00  0.00     0.032 C 
HETATM   25  C3  UNL     1     -13.457 -47.919 -14.855  1.00  0.00     0.052 C 
HETATM   26  C4  UNL     1     -14.854 -47.596 -14.451  1.00  0.00     0.077 C 
BRANCH  25  27
HETATM   27  O2  UNL     1     -12.429 -47.339 -14.131  1.00  0.00    -0.284 OA
BRANCH  27  28
HETATM   28  C2  UNL     1     -11.282 -47.999 -13.746  1.00  0.00     0.259 C 
HETATM   29  C1  UNL     1      -9.915 -47.519 -14.142  1.00  0.00     0.126 C 
HETATM   30  O1  UNL     1     -11.394 -49.030 -13.047  1.00  0.00    -0.265 OA
ENDBRANCH  27  28
ENDBRANCH  25  27
ENDBRANCH  23  24
ENDBRANCH  21  22
ENDBRANCH   1  21
BRANCH   1  31
HETATM   31  O3  UNL     1     -13.642 -52.476 -17.877  1.00  0.00    -0.364 OA
ATOM     32  H3  UNL     1     -13.043 -52.404 -18.611  1.00  0.00     0.213 HD
ENDBRANCH   1  31
BRANCH  14  33
HETATM   33  C22 UNL     1     -19.869 -53.818 -23.857  1.00  0.00    -0.090 C 
HETATM   34  C23 UNL     1     -20.930 -53.521 -23.361  1.00  0.00    -0.078 C 
BRANCH  34  35
HETATM   35  C24 UNL     1     -22.209 -53.159 -22.738  1.00  0.00     0.323 C 
BRANCH  35  36
HETATM   36  N1  UNL     1     -22.386 -51.738 -22.879  1.00  0.00    -0.069 N 
ATOM     37  H13 UNL     1     -21.966 -51.210 -22.115  1.00  0.00     0.275 HD
ATOM     38  H12 UNL     1     -21.830 -51.344 -23.638  1.00  0.00     0.275 HD
ATOM     39  H11 UNL     1     -23.384 -51.554 -22.985  1.00  0.00     0.275 HD
ENDBRANCH  35  36
ENDBRANCH  34  35
ENDBRANCH  14  33
TORSDOF 9
ENDMDL
