MODEL 1
REMARK VINA RESULT: -8.398744599      0.000      0.000
REMARK  7 active torsions:
REMARK  status: ('A' for Active; 'I' for Inactive)
REMARK    1  A    between atoms: C2_2  and  C3_3 
REMARK    2  A    between atoms: C2_2  and  C15_17 
REMARK    3  A    between atoms: C3_3  and  C4_4 
REMARK    4  A    between atoms: C4_4  and  C5_5 
REMARK    5  A    between atoms: C18_21  and  C19_22 
REMARK    6  A    between atoms: C19_22  and  C20_24 
REMARK    7  A    between atoms: C27_33  and  O7_34 
ROOT
HETATM    1  C15 UNL     1     -13.653 -52.371 -20.225  1.00  0.00     0.057 C 
HETATM    2  C16 UNL     1     -14.556 -53.353 -19.519  1.00  0.00     0.045 C 
HETATM    3  C17 UNL     1     -15.956 -52.974 -19.956  1.00  0.00     0.132 C 
HETATM    4  O3  UNL     1     -16.169 -51.645 -19.657  1.00  0.00    -0.371 OA
HETATM    5  C18 UNL     1     -16.877 -51.052 -20.713  1.00  0.00     0.211 C 
HETATM    6  C21 UNL     1     -17.263 -52.152 -21.650  1.00  0.00    -0.004 C 
HETATM    7  C22 UNL     1     -18.557 -52.750 -21.203  1.00  0.00     0.019 C 
HETATM    8  C23 UNL     1     -17.340 -51.758 -23.085  1.00  0.00     0.019 C 
HETATM    9  C24 UNL     1     -16.094 -53.132 -21.422  1.00  0.00    -0.006 C 
HETATM   10  C25 UNL     1     -16.594 -54.541 -21.750  1.00  0.00     0.019 C 
HETATM   11  C26 UNL     1     -14.951 -52.846 -22.288  1.00  0.00     0.045 C 
HETATM   12  C27 UNL     1     -13.582 -52.735 -21.631  1.00  0.00     0.128 C 
ENDROOT
BRANCH   1  13
HETATM   13  C2  UNL     1     -12.362 -52.129 -19.484  1.00  0.00    -0.020 C 
HETATM   14  C1  UNL     1     -11.275 -52.769 -20.011  1.00  0.00     0.028 C 
BRANCH  13  15
HETATM   15  C3  UNL     1     -12.199 -51.416 -18.359  1.00  0.00    -0.148 C 
BRANCH  15  16
HETATM   16  C4  UNL     1     -12.040 -50.712 -17.249  1.00  0.00     0.091 C 
BRANCH  16  17
HETATM   17  C5  UNL     1     -13.077 -50.185 -16.340  1.00  0.00     0.018 C 
HETATM   18  C6  UNL     1     -12.868 -48.780 -15.865  1.00  0.00     0.058 C 
HETATM   19  C7  UNL     1     -11.929 -48.742 -14.689  1.00  0.00     0.018 C 
HETATM   20  C8  UNL     1     -14.149 -48.128 -15.456  1.00  0.00     0.146 C 
HETATM   21  O1  UNL     1     -14.309 -47.757 -14.334  1.00  0.00    -0.296 OA
HETATM   22  C9  UNL     1     -15.183 -47.969 -16.492  1.00  0.00     0.074 C 
HETATM   23  C10 UNL     1     -15.009 -46.572 -17.106  1.00  0.00     0.031 C 
HETATM   24  C11 UNL     1     -16.585 -48.060 -15.962  1.00  0.00     0.031 C 
HETATM   25  C12 UNL     1     -14.919 -49.002 -17.566  1.00  0.00     0.146 C 
HETATM   26  O2  UNL     1     -15.124 -48.730 -18.703  1.00  0.00    -0.296 OA
HETATM   27  C13 UNL     1     -14.414 -50.303 -17.082  1.00  0.00     0.058 C 
HETATM   28  C14 UNL     1     -15.415 -50.968 -16.179  1.00  0.00     0.018 C 
ENDBRANCH  16  17
ENDBRANCH  15  16
ENDBRANCH  13  15
ENDBRANCH   1  13
BRANCH  12  29
HETATM   29  O7  UNL     1     -13.038 -54.034 -21.773  1.00  0.00    -0.395 OA
ATOM     30  H7  UNL     1     -12.095 -53.985 -21.879  1.00  0.00     0.210 HD
ENDBRANCH  12  29
BRANCH   5  31
HETATM   31  C19 UNL     1     -17.992 -50.303 -20.114  1.00  0.00     0.254 C 
HETATM   32  O4  UNL     1     -18.236 -50.462 -18.860  1.00  0.00    -0.283 OA
BRANCH  31  33
HETATM   33  C20 UNL     1     -18.869 -49.379 -20.786  1.00  0.00     0.249 C 
HETATM   34  O5  UNL     1     -18.441 -48.303 -21.234  1.00  0.00    -0.642 OA
HETATM   35  O6  UNL     1     -20.208 -49.652 -20.960  1.00  0.00    -0.642 OA
ENDBRANCH  31  33
ENDBRANCH   5  31
TORSDOF 7
ENDMDL
MODEL 2
REMARK VINA RESULT: -8.135976846      2.149      3.546
REMARK  7 active torsions:
REMARK  status: ('A' for Active; 'I' for Inactive)
REMARK    1  A    between atoms: C2_2  and  C3_3 
REMARK    2  A    between atoms: C2_2  and  C15_17 
REMARK    3  A    between atoms: C3_3  and  C4_4 
REMARK    4  A    between atoms: C4_4  and  C5_5 
REMARK    5  A    between atoms: C18_21  and  C19_22 
REMARK    6  A    between atoms: C19_22  and  C20_24 
REMARK    7  A    between atoms: C27_33  and  O7_34 
ROOT
HETATM    1  C15 UNL     1     -13.338 -53.029 -20.501  1.00  0.00     0.057 C 
HETATM    2  C16 UNL     1     -13.039 -53.998 -21.619  1.00  0.00     0.045 C 
HETATM    3  C17 UNL     1     -14.300 -54.824 -21.763  1.00  0.00     0.132 C 
HETATM    4  O3  UNL     1     -14.598 -55.394 -20.543  1.00  0.00    -0.371 OA
HETATM    5  C18 UNL     1     -15.986 -55.339 -20.346  1.00  0.00     0.211 C 
HETATM    6  C21 UNL     1     -16.588 -54.843 -21.622  1.00  0.00    -0.004 C 
HETATM    7  C22 UNL     1     -16.828 -56.000 -22.536  1.00  0.00     0.019 C 
HETATM    8  C23 UNL     1     -17.833 -54.041 -21.460  1.00  0.00     0.019 C 
HETATM    9  C24 UNL     1     -15.439 -53.956 -22.142  1.00  0.00    -0.006 C 
HETATM   10  C25 UNL     1     -15.556 -53.888 -23.667  1.00  0.00     0.019 C 
HETATM   11  C26 UNL     1     -15.509 -52.591 -21.622  1.00  0.00     0.045 C 
HETATM   12  C27 UNL     1     -14.247 -52.011 -21.000  1.00  0.00     0.128 C 
ENDROOT
BRANCH   1  13
HETATM   13  C2  UNL     1     -12.097 -52.583 -19.769  1.00  0.00    -0.020 C 
HETATM   14  C1  UNL     1     -10.946 -53.203 -20.170  1.00  0.00     0.028 C 
BRANCH  13  15
HETATM   15  C3  UNL     1     -12.030 -51.705 -18.755  1.00  0.00    -0.148 C 
BRANCH  15  16
HETATM   16  C4  UNL     1     -11.965 -50.840 -17.755  1.00  0.00     0.091 C 
BRANCH  16  17
HETATM   17  C5  UNL     1     -13.032 -50.439 -16.818  1.00  0.00     0.018 C 
HETATM   18  C6  UNL     1     -12.881 -49.081 -16.208  1.00  0.00     0.058 C 
HETATM   19  C7  UNL     1     -11.960 -49.123 -15.018  1.00  0.00     0.018 C 
HETATM   20  C8  UNL     1     -14.190 -48.517 -15.760  1.00  0.00     0.146 C 
HETATM   21  O1  UNL     1     -14.379 -48.261 -14.610  1.00  0.00    -0.296 OA
HETATM   22  C9  UNL     1     -15.215 -48.295 -16.793  1.00  0.00     0.074 C 
HETATM   23  C10 UNL     1     -15.084 -46.840 -17.268  1.00  0.00     0.031 C 
HETATM   24  C11 UNL     1     -16.621 -48.486 -16.298  1.00  0.00     0.031 C 
HETATM   25  C12 UNL     1     -14.900 -49.210 -17.957  1.00  0.00     0.146 C 
HETATM   26  O2  UNL     1     -15.099 -48.838 -19.065  1.00  0.00    -0.296 OA
HETATM   27  C13 UNL     1     -14.354 -50.533 -17.590  1.00  0.00     0.058 C 
HETATM   28  C14 UNL     1     -15.342 -51.316 -16.772  1.00  0.00     0.018 C 
ENDBRANCH  16  17
ENDBRANCH  15  16
ENDBRANCH  13  15
ENDBRANCH   1  13
BRANCH  12  29
HETATM   29  O7  UNL     1     -13.646 -51.301 -22.066  1.00  0.00    -0.395 OA
ATOM     30  H7  UNL     1     -12.759 -51.051 -21.836  1.00  0.00     0.210 HD
ENDBRANCH  12  29
BRANCH   5  31
HETATM   31  C19 UNL     1     -16.411 -56.681 -19.919  1.00  0.00     0.254 C 
HETATM   32  O4  UNL     1     -15.694 -57.693 -20.265  1.00  0.00    -0.283 OA
BRANCH  31  33
HETATM   33  C20 UNL     1     -17.570 -57.007 -19.127  1.00  0.00     0.249 C 
HETATM   34  O5  UNL     1     -18.715 -56.776 -19.547  1.00  0.00    -0.642 OA
HETATM   35  O6  UNL     1     -17.454 -57.588 -17.884  1.00  0.00    -0.642 OA
ENDBRANCH  31  33
ENDBRANCH   5  31
TORSDOF 7
ENDMDL
MODEL 3
REMARK VINA RESULT: -7.952703583      2.047      7.430
REMARK  7 active torsions:
REMARK  status: ('A' for Active; 'I' for Inactive)
REMARK    1  A    between atoms: C2_2  and  C3_3 
REMARK    2  A    between atoms: C2_2  and  C15_17 
REMARK    3  A    between atoms: C3_3  and  C4_4 
REMARK    4  A    between atoms: C4_4  and  C5_5 
REMARK    5  A    between atoms: C18_21  and  C19_22 
REMARK    6  A    between atoms: C19_22  and  C20_24 
REMARK    7  A    between atoms: C27_33  and  O7_34 
ROOT
HETATM    1  C15 UNL     1     -13.639 -50.745 -18.602  1.00  0.00     0.057 C 
HETATM    2  C16 UNL     1     -14.367 -51.365 -17.434  1.00  0.00     0.045 C 
HETATM    3  C17 UNL     1     -14.489 -50.249 -16.418  1.00  0.00     0.132 C 
HETATM    4  O3  UNL     1     -13.229 -49.760 -16.144  1.00  0.00    -0.371 OA
HETATM    5  C18 UNL     1     -13.301 -48.363 -16.037  1.00  0.00     0.211 C 
HETATM    6  C21 UNL     1     -14.750 -47.995 -16.089  1.00  0.00    -0.004 C 
HETATM    7  C22 UNL     1     -15.327 -48.066 -14.713  1.00  0.00     0.019 C 
HETATM    8  C23 UNL     1     -15.041 -46.671 -16.708  1.00  0.00     0.019 C 
HETATM    9  C24 UNL     1     -15.292 -49.136 -16.975  1.00  0.00    -0.006 C 
HETATM   10  C25 UNL     1     -16.770 -49.334 -16.629  1.00  0.00     0.019 C 
HETATM   11  C26 UNL     1     -15.200 -48.825 -18.401  1.00  0.00     0.045 C 
HETATM   12  C27 UNL     1     -14.557 -49.866 -19.307  1.00  0.00     0.128 C 
ENDROOT
BRANCH   1  13
HETATM   13  C2  UNL     1     -12.859 -51.756 -19.405  1.00  0.00    -0.020 C 
HETATM   14  C1  UNL     1     -11.707 -52.188 -18.810  1.00  0.00     0.028 C 
BRANCH  13  15
HETATM   15  C3  UNL     1     -13.152 -52.209 -20.634  1.00  0.00    -0.148 C 
BRANCH  15  16
HETATM   16  C4  UNL     1     -13.441 -52.656 -21.847  1.00  0.00     0.091 C 
BRANCH  16  17
HETATM   17  C5  UNL     1     -14.483 -53.623 -22.245  1.00  0.00     0.018 C 
HETATM   18  C6  UNL     1     -15.744 -53.583 -21.439  1.00  0.00     0.058 C 
HETATM   19  C7  UNL     1     -15.599 -54.379 -20.170  1.00  0.00     0.018 C 
HETATM   20  C8  UNL     1     -16.912 -54.126 -22.196  1.00  0.00     0.146 C 
HETATM   21  O1  UNL     1     -17.499 -55.086 -21.799  1.00  0.00    -0.296 OA
HETATM   22  C9  UNL     1     -17.296 -53.426 -23.432  1.00  0.00     0.074 C 
HETATM   23  C10 UNL     1     -18.382 -52.404 -23.066  1.00  0.00     0.031 C 
HETATM   24  C11 UNL     1     -17.864 -54.333 -24.486  1.00  0.00     0.031 C 
HETATM   25  C12 UNL     1     -16.080 -52.676 -23.932  1.00  0.00     0.146 C 
HETATM   26  O2  UNL     1     -16.217 -51.616 -24.448  1.00  0.00    -0.296 OA
HETATM   27  C13 UNL     1     -14.787 -53.359 -23.724  1.00  0.00     0.058 C 
HETATM   28  C14 UNL     1     -14.740 -54.662 -24.471  1.00  0.00     0.018 C 
ENDBRANCH  16  17
ENDBRANCH  15  16
ENDBRANCH  13  15
ENDBRANCH   1  13
BRANCH  12  29
HETATM   29  O7  UNL     1     -15.659 -50.604 -19.800  1.00  0.00    -0.395 OA
ATOM     30  H7  UNL     1     -15.776 -51.398 -19.293  1.00  0.00     0.210 HD
ENDBRANCH  12  29
BRANCH   5  31
HETATM   31  C19 UNL     1     -12.593 -47.991 -14.803  1.00  0.00     0.254 C 
HETATM   32  O4  UNL     1     -13.000 -46.961 -14.146  1.00  0.00    -0.283 OA
BRANCH  31  33
HETATM   33  C20 UNL     1     -11.463 -48.669 -14.220  1.00  0.00     0.249 C 
HETATM   34  O5  UNL     1     -11.483 -49.043 -13.036  1.00  0.00    -0.642 OA
HETATM   35  O6  UNL     1     -10.324 -48.931 -14.949  1.00  0.00    -0.642 OA
ENDBRANCH  31  33
ENDBRANCH   5  31
TORSDOF 7
ENDMDL
MODEL 4
REMARK VINA RESULT: -7.739928576      1.837      4.078
REMARK  7 active torsions:
REMARK  status: ('A' for Active; 'I' for Inactive)
REMARK    1  A    between atoms: C2_2  and  C3_3 
REMARK    2  A    between atoms: C2_2  and  C15_17 
REMARK    3  A    between atoms: C3_3  and  C4_4 
REMARK    4  A    between atoms: C4_4  and  C5_5 
REMARK    5  A    between atoms: C18_21  and  C19_22 
REMARK    6  A    between atoms: C19_22  and  C20_24 
REMARK    7  A    between atoms: C27_33  and  O7_34 
ROOT
HETATM    1  C15 UNL     1     -13.519 -52.835 -20.331  1.00  0.00     0.057 C 
HETATM    2  C16 UNL     1     -13.329 -53.066 -21.811  1.00  0.00     0.045 C 
HETATM    3  C17 UNL     1     -14.391 -54.079 -22.184  1.00  0.00     0.132 C 
HETATM    4  O3  UNL     1     -14.244 -55.191 -21.383  1.00  0.00    -0.371 OA
HETATM    5  C18 UNL     1     -15.516 -55.651 -21.009  1.00  0.00     0.211 C 
HETATM    6  C21 UNL     1     -16.514 -54.847 -21.782  1.00  0.00    -0.004 C 
HETATM    7  C22 UNL     1     -16.742 -55.489 -23.110  1.00  0.00     0.019 C 
HETATM    8  C23 UNL     1     -17.810 -54.617 -21.085  1.00  0.00     0.019 C 
HETATM    9  C24 UNL     1     -15.740 -53.521 -21.934  1.00  0.00    -0.006 C 
HETATM   10  C25 UNL     1     -16.257 -52.821 -23.193  1.00  0.00     0.019 C 
HETATM   11  C26 UNL     1     -15.949 -52.621 -20.800  1.00  0.00     0.045 C 
HETATM   12  C27 UNL     1     -14.712 -52.028 -20.138  1.00  0.00     0.128 C 
ENDROOT
BRANCH   1  13
HETATM   13  C2  UNL     1     -12.249 -52.409 -19.640  1.00  0.00    -0.020 C 
HETATM   14  C1  UNL     1     -11.120 -53.036 -20.088  1.00  0.00     0.028 C 
BRANCH  13  15
HETATM   15  C3  UNL     1     -12.137 -51.544 -18.620  1.00  0.00    -0.148 C 
BRANCH  15  16
HETATM   16  C4  UNL     1     -12.025 -50.691 -17.613  1.00  0.00     0.091 C 
BRANCH  16  17
HETATM   17  C5  UNL     1     -13.059 -50.271 -16.648  1.00  0.00     0.018 C 
HETATM   18  C6  UNL     1     -12.881 -48.905 -16.062  1.00  0.00     0.058 C 
HETATM   19  C7  UNL     1     -11.922 -48.935 -14.902  1.00  0.00     0.018 C 
HETATM   20  C8  UNL     1     -14.171 -48.326 -15.580  1.00  0.00     0.146 C 
HETATM   21  O1  UNL     1     -14.321 -48.053 -14.429  1.00  0.00    -0.296 OA
HETATM   22  C9  UNL     1     -15.228 -48.113 -16.582  1.00  0.00     0.074 C 
HETATM   23  C10 UNL     1     -15.104 -46.666 -17.082  1.00  0.00     0.031 C 
HETATM   24  C11 UNL     1     -16.618 -48.288 -16.039  1.00  0.00     0.031 C 
HETATM   25  C12 UNL     1     -14.956 -49.046 -17.742  1.00  0.00     0.146 C 
HETATM   26  O2  UNL     1     -15.189 -48.688 -18.849  1.00  0.00    -0.296 OA
HETATM   27  C13 UNL     1     -14.406 -50.367 -17.375  1.00  0.00     0.058 C 
HETATM   28  C14 UNL     1     -15.371 -51.132 -16.515  1.00  0.00     0.018 C 
ENDBRANCH  16  17
ENDBRANCH  15  16
ENDBRANCH  13  15
ENDBRANCH   1  13
BRANCH  12  29
HETATM   29  O7  UNL     1     -14.563 -50.774 -20.776  1.00  0.00    -0.395 OA
ATOM     30  H7  UNL     1     -13.932 -50.839 -21.484  1.00  0.00     0.210 HD
ENDBRANCH  12  29
BRANCH   5  31
HETATM   31  C19 UNL     1     -15.537 -57.100 -21.256  1.00  0.00     0.254 C 
HETATM   32  O4  UNL     1     -16.586 -57.767 -20.919  1.00  0.00    -0.283 OA
BRANCH  31  33
HETATM   33  C20 UNL     1     -14.489 -57.888 -21.854  1.00  0.00     0.249 C 
HETATM   34  O5  UNL     1     -14.515 -58.175 -23.061  1.00  0.00    -0.642 OA
HETATM   35  O6  UNL     1     -13.422 -58.349 -21.115  1.00  0.00    -0.642 OA
ENDBRANCH  31  33
ENDBRANCH   5  31
TORSDOF 7
ENDMDL
MODEL 5
REMARK VINA RESULT: -7.655260781      1.780      7.225
REMARK  7 active torsions:
REMARK  status: ('A' for Active; 'I' for Inactive)
REMARK    1  A    between atoms: C2_2  and  C3_3 
REMARK    2  A    between atoms: C2_2  and  C15_17 
REMARK    3  A    between atoms: C3_3  and  C4_4 
REMARK    4  A    between atoms: C4_4  and  C5_5 
REMARK    5  A    between atoms: C18_21  and  C19_22 
REMARK    6  A    between atoms: C19_22  and  C20_24 
REMARK    7  A    between atoms: C27_33  and  O7_34 
ROOT
HETATM    1  C15 UNL     1     -13.709 -50.754 -18.672  1.00  0.00     0.057 C 
HETATM    2  C16 UNL     1     -14.391 -51.395 -17.489  1.00  0.00     0.045 C 
HETATM    3  C17 UNL     1     -14.374 -50.332 -16.410  1.00  0.00     0.132 C 
HETATM    4  O3  UNL     1     -13.071 -49.931 -16.202  1.00  0.00    -0.371 OA
HETATM    5  C18 UNL     1     -13.051 -48.540 -16.019  1.00  0.00     0.211 C 
HETATM    6  C21 UNL     1     -14.475 -48.089 -15.947  1.00  0.00    -0.004 C 
HETATM    7  C22 UNL     1     -14.959 -48.204 -14.539  1.00  0.00     0.019 C 
HETATM    8  C23 UNL     1     -14.728 -46.718 -16.474  1.00  0.00     0.019 C 
HETATM    9  C24 UNL     1     -15.145 -49.146 -16.849  1.00  0.00    -0.006 C 
HETATM   10  C25 UNL     1     -16.604 -49.279 -16.408  1.00  0.00     0.019 C 
HETATM   11  C26 UNL     1     -15.133 -48.762 -18.260  1.00  0.00     0.045 C 
HETATM   12  C27 UNL     1     -14.618 -49.786 -19.263  1.00  0.00     0.128 C 
ENDROOT
BRANCH   1  13
HETATM   13  C2  UNL     1     -13.049 -51.760 -19.581  1.00  0.00    -0.020 C 
HETATM   14  C1  UNL     1     -11.848 -52.233 -19.129  1.00  0.00     0.028 C 
BRANCH  13  15
HETATM   15  C3  UNL     1     -13.489 -52.176 -20.779  1.00  0.00    -0.148 C 
BRANCH  15  16
HETATM   16  C4  UNL     1     -13.922 -52.586 -21.961  1.00  0.00     0.091 C 
BRANCH  16  17
HETATM   17  C5  UNL     1     -15.161 -53.323 -22.279  1.00  0.00     0.018 C 
HETATM   18  C6  UNL     1     -15.886 -53.906 -21.106  1.00  0.00     0.058 C 
HETATM   19  C7  UNL     1     -15.292 -55.231 -20.710  1.00  0.00     0.018 C 
HETATM   20  C8  UNL     1     -17.338 -54.116 -21.390  1.00  0.00     0.146 C 
HETATM   21  O1  UNL     1     -17.810 -55.211 -21.356  1.00  0.00    -0.296 OA
HETATM   22  C9  UNL     1     -18.140 -52.923 -21.705  1.00  0.00     0.074 C 
HETATM   23  C10 UNL     1     -18.768 -52.430 -20.392  1.00  0.00     0.031 C 
HETATM   24  C11 UNL     1     -19.259 -53.187 -22.672  1.00  0.00     0.031 C 
HETATM   25  C12 UNL     1     -17.196 -51.856 -22.215  1.00  0.00     0.146 C 
HETATM   26  O2  UNL     1     -17.396 -50.718 -21.943  1.00  0.00    -0.296 OA
HETATM   27  C13 UNL     1     -16.071 -52.348 -23.037  1.00  0.00     0.058 C 
HETATM   28  C14 UNL     1     -16.569 -53.017 -24.286  1.00  0.00     0.018 C 
ENDBRANCH  16  17
ENDBRANCH  15  16
ENDBRANCH  13  15
ENDBRANCH   1  13
BRANCH  12  29
HETATM   29  O7  UNL     1     -15.794 -50.431 -19.713  1.00  0.00    -0.395 OA
ATOM     30  H7  UNL     1     -15.841 -50.405 -20.661  1.00  0.00     0.210 HD
ENDBRANCH  12  29
BRANCH   5  31
HETATM   31  C19 UNL     1     -12.238 -48.279 -14.822  1.00  0.00     0.254 C 
HETATM   32  O4  UNL     1     -12.468 -47.209 -14.142  1.00  0.00    -0.283 OA
BRANCH  31  33
HETATM   33  C20 UNL     1     -11.181 -49.108 -14.299  1.00  0.00     0.249 C 
HETATM   34  O5  UNL     1     -11.159 -49.434 -13.101  1.00  0.00    -0.642 OA
HETATM   35  O6  UNL     1     -10.163 -49.571 -15.103  1.00  0.00    -0.642 OA
ENDBRANCH  31  33
ENDBRANCH   5  31
TORSDOF 7
ENDMDL
