MODEL 1
REMARK VINA RESULT: -8.615236490      0.000      0.000
REMARK  7 active torsions:
REMARK  status: ('A' for Active; 'I' for Inactive)
REMARK    1  A    between atoms: O1_2  and  N1_3 
REMARK    2  A    between atoms: C2_5  and  O2_6 
REMARK    3  A    between atoms: C2_5  and  C3_8 
REMARK    4  A    between atoms: C3_8  and  O3_10 
REMARK    5  A    between atoms: O3_10  and  C4_11 
REMARK    6  A    between atoms: C6_13  and  O4_14 
REMARK    7  A    between atoms: C8_16  and  C9_17 
ROOT
HETATM    1  C4  UNL     1      24.513  -2.598  17.677  1.00  0.00     0.117 A 
HETATM    2  C5  UNL     1      23.942  -1.819  18.708  1.00  0.00     0.078 A 
HETATM    3  C6  UNL     1      23.007  -2.301  19.581  1.00  0.00     0.086 A 
HETATM    4  C8  UNL     1      22.602  -3.619  19.446  1.00  0.00     0.066 A 
HETATM    5  C17 UNL     1      23.143  -4.397  18.451  1.00  0.00     0.172 A 
HETATM    6  F2  UNL     1      22.821  -5.712  18.246  1.00  0.00    -0.202 F 
HETATM    7  C18 UNL     1      24.098  -3.895  17.561  1.00  0.00     0.189 A 
HETATM    8  F3  UNL     1      24.574  -4.760  16.600  1.00  0.00    -0.200 F 
ENDROOT
BRANCH   4   9
HETATM    9  C9  UNL     1      21.623  -4.189  20.392  1.00  0.00     0.051 A 
HETATM   10  C10 UNL     1      21.815  -5.243  21.263  1.00  0.00     0.062 A 
HETATM   11  C11 UNL     1      20.623  -5.499  21.958  1.00  0.00     0.073 A 
HETATM   12  C12 UNL     1      19.721  -4.603  21.503  1.00  0.00     0.129 A 
HETATM   13  N4  UNL     1      20.257  -6.384  22.895  1.00  0.00    -0.301 N 
HETATM   14  N2  UNL     1      20.343  -3.830  20.567  1.00  0.00    -0.349 N 
HETATM   15  C13 UNL     1      18.437  -4.631  22.027  1.00  0.00     0.280 A 
ATOM     16  H2  UNL     1      19.889  -3.070  20.061  1.00  0.00     0.166 HD
HETATM   17  O5  UNL     1      17.586  -3.815  21.626  1.00  0.00    -0.265 OA
HETATM   18  N3  UNL     1      18.069  -5.516  22.965  1.00  0.00    -0.269 N 
HETATM   19  C14 UNL     1      16.728  -5.554  23.522  1.00  0.00     0.164 C 
HETATM   20  C15 UNL     1      18.990  -6.395  23.398  1.00  0.00     0.331 A 
HETATM   21  O6  UNL     1      18.645  -7.231  24.283  1.00  0.00    -0.246 OA
HETATM   22  C16 UNL     1      21.246  -7.332  23.362  1.00  0.00     0.161 C 
ENDBRANCH   4   9
BRANCH   3  23
HETATM   23  O4  UNL     1      22.495  -1.445  20.575  1.00  0.00    -0.355 OA
HETATM   24  C7  UNL     1      21.730  -0.342  20.155  1.00  0.00     0.210 C 
ENDBRANCH   3  23
BRANCH   1  25
HETATM   25  O3  UNL     1      25.431  -2.016  16.869  1.00  0.00    -0.305 OA
BRANCH  25  26
HETATM   26  C3  UNL     1      26.165  -0.889  16.874  1.00  0.00     0.389 C 
HETATM   27  F1  UNL     1      25.490   0.204  17.468  1.00  0.00    -0.210 F 
BRANCH  26  28
HETATM   28  C2  UNL     1      27.407  -1.006  17.746  1.00  0.00     0.197 C 
HETATM   29  N1  UNL     1      27.579  -0.091  18.626  1.00  0.00    -0.245 N 
ATOM     30  H1  UNL     1      26.879   0.648  18.684  1.00  0.00     0.196 HD
BRANCH  29  31
HETATM   31  O1  UNL     1      28.623  -0.036  19.486  1.00  0.00    -0.283 OA
HETATM   32  C1  UNL     1      28.976   1.146  20.195  1.00  0.00     0.237 C 
ENDBRANCH  29  31
BRANCH  28  33
HETATM   33  O2  UNL     1      28.300  -2.032  17.605  1.00  0.00    -0.344 OA
ATOM     34  H2  UNL     1      29.214  -1.866  17.411  1.00  0.00     0.219 HD
ENDBRANCH  28  33
ENDBRANCH  26  28
ENDBRANCH  25  26
ENDBRANCH   1  25
TORSDOF 7
ENDMDL
MODEL 2
REMARK VINA RESULT: -8.432738987      2.070      3.080
REMARK  7 active torsions:
REMARK  status: ('A' for Active; 'I' for Inactive)
REMARK    1  A    between atoms: O1_2  and  N1_3 
REMARK    2  A    between atoms: C2_5  and  O2_6 
REMARK    3  A    between atoms: C2_5  and  C3_8 
REMARK    4  A    between atoms: C3_8  and  O3_10 
REMARK    5  A    between atoms: O3_10  and  C4_11 
REMARK    6  A    between atoms: C6_13  and  O4_14 
REMARK    7  A    between atoms: C8_16  and  C9_17 
ROOT
HETATM    1  C4  UNL     1      25.224  -1.758  17.398  1.00  0.00     0.117 A 
HETATM    2  C5  UNL     1      24.806  -3.077  17.107  1.00  0.00     0.078 A 
HETATM    3  C6  UNL     1      24.011  -3.812  17.941  1.00  0.00     0.086 A 
HETATM    4  C8  UNL     1      23.596  -3.234  19.130  1.00  0.00     0.066 A 
HETATM    5  C17 UNL     1      23.990  -1.953  19.435  1.00  0.00     0.172 A 
HETATM    6  F2  UNL     1      23.620  -1.289  20.574  1.00  0.00    -0.202 F 
HETATM    7  C18 UNL     1      24.804  -1.208  18.576  1.00  0.00     0.189 A 
HETATM    8  F3  UNL     1      25.140   0.066  18.979  1.00  0.00    -0.200 F 
ENDROOT
BRANCH   4   9
HETATM    9  C9  UNL     1      22.706  -3.979  20.041  1.00  0.00     0.051 A 
HETATM   10  C10 UNL     1      21.366  -3.748  20.278  1.00  0.00     0.062 A 
HETATM   11  C11 UNL     1      20.899  -4.654  21.242  1.00  0.00     0.073 A 
HETATM   12  C12 UNL     1      21.955  -5.423  21.582  1.00  0.00     0.129 A 
HETATM   13  N4  UNL     1      19.713  -4.869  21.828  1.00  0.00    -0.301 N 
HETATM   14  N2  UNL     1      23.026  -5.000  20.849  1.00  0.00    -0.349 N 
HETATM   15  C13 UNL     1      21.774  -6.417  22.532  1.00  0.00     0.280 A 
ATOM     16  H2  UNL     1      23.957  -5.412  20.909  1.00  0.00     0.166 HD
HETATM   17  O5  UNL     1      22.732  -7.141  22.862  1.00  0.00    -0.265 OA
HETATM   18  N3  UNL     1      20.588  -6.634  23.119  1.00  0.00    -0.269 N 
HETATM   19  C14 UNL     1      20.386  -7.672  24.115  1.00  0.00     0.164 C 
HETATM   20  C15 UNL     1      19.555  -5.851  22.760  1.00  0.00     0.331 A 
HETATM   21  O6  UNL     1      18.434  -6.055  23.314  1.00  0.00    -0.246 OA
HETATM   22  C16 UNL     1      18.599  -4.029  21.445  1.00  0.00     0.161 C 
ENDBRANCH   4   9
BRANCH   3  23
HETATM   23  O4  UNL     1      23.650  -5.119  17.563  1.00  0.00    -0.355 OA
HETATM   24  C7  UNL     1      24.651  -6.107  17.592  1.00  0.00     0.210 C 
ENDBRANCH   3  23
BRANCH   1  25
HETATM   25  O3  UNL     1      26.012  -1.124  16.498  1.00  0.00    -0.305 OA
BRANCH  25  26
HETATM   26  C3  UNL     1      27.108  -0.345  16.534  1.00  0.00     0.389 C 
HETATM   27  F1  UNL     1      26.836   0.964  16.998  1.00  0.00    -0.210 F 
BRANCH  26  28
HETATM   28  C2  UNL     1      28.137  -0.831  17.544  1.00  0.00     0.197 C 
HETATM   29  N1  UNL     1      28.569   0.032  18.386  1.00  0.00    -0.245 N 
ATOM     30  H1  UNL     1      28.197   0.980  18.325  1.00  0.00     0.196 HD
BRANCH  29  31
HETATM   31  O1  UNL     1      29.482  -0.224  19.352  1.00  0.00    -0.283 OA
HETATM   32  C1  UNL     1      29.585   0.553  20.540  1.00  0.00     0.237 C 
ENDBRANCH  29  31
BRANCH  28  33
HETATM   33  O2  UNL     1      28.585  -2.123  17.560  1.00  0.00    -0.344 OA
ATOM     34  H2  UNL     1      28.410  -2.714  16.837  1.00  0.00     0.219 HD
ENDBRANCH  28  33
ENDBRANCH  26  28
ENDBRANCH  25  26
ENDBRANCH   1  25
TORSDOF 7
ENDMDL
MODEL 3
REMARK VINA RESULT: -8.194892945      1.060      1.910
REMARK  7 active torsions:
REMARK  status: ('A' for Active; 'I' for Inactive)
REMARK    1  A    between atoms: O1_2  and  N1_3 
REMARK    2  A    between atoms: C2_5  and  O2_6 
REMARK    3  A    between atoms: C2_5  and  C3_8 
REMARK    4  A    between atoms: C3_8  and  O3_10 
REMARK    5  A    between atoms: O3_10  and  C4_11 
REMARK    6  A    between atoms: C6_13  and  O4_14 
REMARK    7  A    between atoms: C8_16  and  C9_17 
ROOT
HETATM    1  C4  UNL     1      24.740  -2.321  17.505  1.00  0.00     0.117 A 
HETATM    2  C5  UNL     1      24.333  -1.695  18.705  1.00  0.00     0.078 A 
HETATM    3  C6  UNL     1      23.467  -2.269  19.594  1.00  0.00     0.086 A 
HETATM    4  C8  UNL     1      22.964  -3.526  19.299  1.00  0.00     0.066 A 
HETATM    5  C17 UNL     1      23.345  -4.155  18.138  1.00  0.00     0.172 A 
HETATM    6  F2  UNL     1      22.919  -5.402  17.767  1.00  0.00    -0.202 F 
HETATM    7  C18 UNL     1      24.231  -3.560  17.235  1.00  0.00     0.189 A 
HETATM    8  F3  UNL     1      24.546  -4.277  16.102  1.00  0.00    -0.200 F 
ENDROOT
BRANCH   4   9
HETATM    9  C9  UNL     1      22.056  -4.197  20.250  1.00  0.00     0.051 A 
HETATM   10  C10 UNL     1      20.724  -3.915  20.477  1.00  0.00     0.062 A 
HETATM   11  C11 UNL     1      20.233  -4.755  21.488  1.00  0.00     0.073 A 
HETATM   12  C12 UNL     1      21.268  -5.536  21.865  1.00  0.00     0.129 A 
HETATM   13  N4  UNL     1      19.044  -4.905  22.087  1.00  0.00    -0.301 N 
HETATM   14  N2  UNL     1      22.348  -5.184  21.109  1.00  0.00    -0.349 N 
HETATM   15  C13 UNL     1      21.061  -6.474  22.865  1.00  0.00     0.280 A 
ATOM     16  H2  UNL     1      23.267  -5.619  21.188  1.00  0.00     0.166 HD
HETATM   17  O5  UNL     1      21.999  -7.208  23.231  1.00  0.00    -0.265 OA
HETATM   18  N3  UNL     1      19.871  -6.625  23.465  1.00  0.00    -0.269 N 
HETATM   19  C14 UNL     1      19.642  -7.604  24.514  1.00  0.00     0.164 C 
HETATM   20  C15 UNL     1      18.860  -5.832  23.069  1.00  0.00     0.331 A 
HETATM   21  O6  UNL     1      17.736  -5.974  23.634  1.00  0.00    -0.246 OA
HETATM   22  C16 UNL     1      17.954  -4.053  21.663  1.00  0.00     0.161 C 
ENDBRANCH   4   9
BRANCH   3  23
HETATM   23  O4  UNL     1      23.119  -1.564  20.761  1.00  0.00    -0.355 OA
HETATM   24  C7  UNL     1      22.243  -0.471  20.628  1.00  0.00     0.210 C 
ENDBRANCH   3  23
BRANCH   1  25
HETATM   25  O3  UNL     1      25.602  -1.658  16.699  1.00  0.00    -0.305 OA
BRANCH  25  26
HETATM   26  C3  UNL     1      26.428  -0.601  16.807  1.00  0.00     0.389 C 
HETATM   27  F1  UNL     1      25.821   0.507  17.445  1.00  0.00    -0.210 F 
BRANCH  26  28
HETATM   28  C2  UNL     1      27.616  -0.879  17.715  1.00  0.00     0.197 C 
HETATM   29  N1  UNL     1      27.857  -0.012  18.628  1.00  0.00    -0.245 N 
ATOM     30  H1  UNL     1      27.241   0.799  18.685  1.00  0.00     0.196 HD
BRANCH  29  31
HETATM   31  O1  UNL     1      28.869  -0.096  19.523  1.00  0.00    -0.283 OA
HETATM   32  C1  UNL     1      29.252   0.990  20.357  1.00  0.00     0.237 C 
ENDBRANCH  29  31
BRANCH  28  33
HETATM   33  O2  UNL     1      28.394  -1.994  17.574  1.00  0.00    -0.344 OA
ATOM     34  H2  UNL     1      28.731  -2.255  16.725  1.00  0.00     0.219 HD
ENDBRANCH  28  33
ENDBRANCH  26  28
ENDBRANCH  25  26
ENDBRANCH   1  25
TORSDOF 7
ENDMDL
MODEL 4
REMARK VINA RESULT: -8.186402011      3.835      5.688
REMARK  7 active torsions:
REMARK  status: ('A' for Active; 'I' for Inactive)
REMARK    1  A    between atoms: O1_2  and  N1_3 
REMARK    2  A    between atoms: C2_5  and  O2_6 
REMARK    3  A    between atoms: C2_5  and  C3_8 
REMARK    4  A    between atoms: C3_8  and  O3_10 
REMARK    5  A    between atoms: O3_10  and  C4_11 
REMARK    6  A    between atoms: C6_13  and  O4_14 
REMARK    7  A    between atoms: C8_16  and  C9_17 
ROOT
HETATM    1  C4  UNL     1      23.296  -5.438  19.336  1.00  0.00     0.117 A 
HETATM    2  C5  UNL     1      22.560  -5.403  20.542  1.00  0.00     0.078 A 
HETATM    3  C6  UNL     1      21.505  -4.560  20.752  1.00  0.00     0.086 A 
HETATM    4  C8  UNL     1      21.142  -3.697  19.730  1.00  0.00     0.066 A 
HETATM    5  C17 UNL     1      21.843  -3.712  18.548  1.00  0.00     0.172 A 
HETATM    6  F2  UNL     1      21.553  -2.912  17.476  1.00  0.00    -0.202 F 
HETATM    7  C18 UNL     1      22.922  -4.577  18.342  1.00  0.00     0.189 A 
HETATM    8  F3  UNL     1      23.555  -4.509  17.121  1.00  0.00    -0.200 F 
ENDROOT
BRANCH   4   9
HETATM    9  C9  UNL     1      19.985  -2.797  19.902  1.00  0.00     0.051 A 
HETATM   10  C10 UNL     1      19.861  -1.498  19.454  1.00  0.00     0.062 A 
HETATM   11  C11 UNL     1      18.621  -0.979  19.860  1.00  0.00     0.073 A 
HETATM   12  C12 UNL     1      18.007  -1.965  20.548  1.00  0.00     0.129 A 
HETATM   13  N4  UNL     1      18.002   0.198  19.703  1.00  0.00    -0.301 N 
HETATM   14  N2  UNL     1      18.843  -3.043  20.560  1.00  0.00    -0.349 N 
HETATM   15  C13 UNL     1      16.746  -1.721  21.073  1.00  0.00     0.280 A 
ATOM     16  H2  UNL     1      18.625  -3.930  21.014  1.00  0.00     0.166 HD
HETATM   17  O5  UNL     1      16.157  -2.614  21.711  1.00  0.00    -0.265 OA
HETATM   18  N3  UNL     1      16.125  -0.543  20.917  1.00  0.00    -0.269 N 
HETATM   19  C14 UNL     1      14.805  -0.276  21.460  1.00  0.00     0.164 C 
HETATM   20  C15 UNL     1      16.763   0.419  20.226  1.00  0.00     0.331 A 
HETATM   21  O6  UNL     1      16.178   1.532  20.078  1.00  0.00    -0.246 OA
HETATM   22  C16 UNL     1      18.686   1.236  18.961  1.00  0.00     0.161 C 
ENDBRANCH   4   9
BRANCH   3  23
HETATM   23  O4  UNL     1      20.836  -4.599  21.989  1.00  0.00    -0.355 OA
HETATM   24  C7  UNL     1      20.649  -5.857  22.591  1.00  0.00     0.210 C 
ENDBRANCH   3  23
BRANCH   1  25
HETATM   25  O3  UNL     1      24.324  -6.314  19.238  1.00  0.00    -0.305 OA
BRANCH  25  26
HETATM   26  C3  UNL     1      25.656  -6.245  19.062  1.00  0.00     0.389 C 
HETATM   27  F1  UNL     1      26.143  -4.916  19.066  1.00  0.00    -0.210 F 
BRANCH  26  28
HETATM   28  C2  UNL     1      26.430  -6.870  20.213  1.00  0.00     0.197 C 
HETATM   29  N1  UNL     1      25.738  -7.331  21.188  1.00  0.00    -0.245 N 
ATOM     30  H1  UNL     1      24.723  -7.251  21.127  1.00  0.00     0.196 HD
BRANCH  29  31
HETATM   31  O1  UNL     1      26.257  -7.919  22.291  1.00  0.00    -0.283 OA
HETATM   32  C1  UNL     1      26.329  -9.331  22.450  1.00  0.00     0.237 C 
ENDBRANCH  29  31
BRANCH  28  33
HETATM   33  O2  UNL     1      27.796  -6.940  20.218  1.00  0.00    -0.344 OA
ATOM     34  H2  UNL     1      28.325  -6.265  19.811  1.00  0.00     0.219 HD
ENDBRANCH  28  33
ENDBRANCH  26  28
ENDBRANCH  25  26
ENDBRANCH   1  25
TORSDOF 7
ENDMDL
MODEL 5
REMARK VINA RESULT: -8.157918904      1.852      2.339
REMARK  7 active torsions:
REMARK  status: ('A' for Active; 'I' for Inactive)
REMARK    1  A    between atoms: O1_2  and  N1_3 
REMARK    2  A    between atoms: C2_5  and  O2_6 
REMARK    3  A    between atoms: C2_5  and  C3_8 
REMARK    4  A    between atoms: C3_8  and  O3_10 
REMARK    5  A    between atoms: O3_10  and  C4_11 
REMARK    6  A    between atoms: C6_13  and  O4_14 
REMARK    7  A    between atoms: C8_16  and  C9_17 
ROOT
HETATM    1  C4  UNL     1      25.100  -1.732  17.466  1.00  0.00     0.117 A 
HETATM    2  C5  UNL     1      24.537  -2.986  17.135  1.00  0.00     0.078 A 
HETATM    3  C6  UNL     1      23.654  -3.648  17.942  1.00  0.00     0.086 A 
HETATM    4  C8  UNL     1      23.297  -3.058  19.144  1.00  0.00     0.066 A 
HETATM    5  C17 UNL     1      23.831  -1.840  19.488  1.00  0.00     0.172 A 
HETATM    6  F2  UNL     1      23.529  -1.169  20.642  1.00  0.00    -0.202 F 
HETATM    7  C18 UNL     1      24.734  -1.170  18.656  1.00  0.00     0.189 A 
HETATM    8  F3  UNL     1      25.209   0.045  19.097  1.00  0.00    -0.200 F 
ENDROOT
BRANCH   4   9
HETATM    9  C9  UNL     1      22.318  -3.721  20.028  1.00  0.00     0.051 A 
HETATM   10  C10 UNL     1      22.532  -4.812  20.845  1.00  0.00     0.062 A 
HETATM   11  C11 UNL     1      21.334  -5.157  21.489  1.00  0.00     0.073 A 
HETATM   12  C12 UNL     1      20.407  -4.276  21.058  1.00  0.00     0.129 A 
HETATM   13  N4  UNL     1      20.981  -6.107  22.365  1.00  0.00    -0.301 N 
HETATM   14  N2  UNL     1      21.020  -3.426  20.184  1.00  0.00    -0.349 N 
HETATM   15  C13 UNL     1      19.111  -4.386  21.541  1.00  0.00     0.280 A 
ATOM     16  H2  UNL     1      20.547  -2.658  19.707  1.00  0.00     0.166 HD
HETATM   17  O5  UNL     1      18.237  -3.585  21.160  1.00  0.00    -0.265 OA
HETATM   18  N3  UNL     1      18.757  -5.337  22.418  1.00  0.00    -0.269 N 
HETATM   19  C14 UNL     1      17.404  -5.463  22.932  1.00  0.00     0.164 C 
HETATM   20  C15 UNL     1      19.703  -6.200  22.829  1.00  0.00     0.331 A 
HETATM   21  O6  UNL     1      19.370  -7.098  23.656  1.00  0.00    -0.246 OA
HETATM   22  C16 UNL     1      21.997  -7.038  22.808  1.00  0.00     0.161 C 
ENDBRANCH   4   9
BRANCH   3  23
HETATM   23  O4  UNL     1      23.150  -4.894  17.526  1.00  0.00    -0.355 OA
HETATM   24  C7  UNL     1      24.077  -5.915  17.250  1.00  0.00     0.210 C 
ENDBRANCH   3  23
BRANCH   1  25
HETATM   25  O3  UNL     1      25.965  -1.169  16.590  1.00  0.00    -0.305 OA
BRANCH  25  26
HETATM   26  C3  UNL     1      27.051  -0.378  16.657  1.00  0.00     0.389 C 
HETATM   27  F1  UNL     1      26.758   0.915  17.153  1.00  0.00    -0.210 F 
BRANCH  26  28
HETATM   28  C2  UNL     1      28.076  -0.879  17.664  1.00  0.00     0.197 C 
HETATM   29  N1  UNL     1      28.471  -0.039  18.548  1.00  0.00    -0.245 N 
ATOM     30  H1  UNL     1      28.076   0.901  18.518  1.00  0.00     0.196 HD
BRANCH  29  31
HETATM   31  O1  UNL     1      29.375  -0.310  19.518  1.00  0.00    -0.283 OA
HETATM   32  C1  UNL     1      29.649   0.586  20.588  1.00  0.00     0.237 C 
ENDBRANCH  29  31
BRANCH  28  33
HETATM   33  O2  UNL     1      28.556  -2.159  17.637  1.00  0.00    -0.344 OA
ATOM     34  H2  UNL     1      28.926  -2.529  16.844  1.00  0.00     0.219 HD
ENDBRANCH  28  33
ENDBRANCH  26  28
ENDBRANCH  25  26
ENDBRANCH   1  25
TORSDOF 7
ENDMDL
