MODEL 1
REMARK VINA RESULT: -9.933854749      0.000      0.000
REMARK  5 active torsions:
REMARK  status: ('A' for Active; 'I' for Inactive)
REMARK    1  A    between atoms: N2_5  and  C3_6 
REMARK    2  A    between atoms: N3_11  and  C5_12 
REMARK    3  A    between atoms: C7_14  and  C8_15 
REMARK    4  A    between atoms: C15_25  and  C16_26 
REMARK       I    between atoms: N4_27  and  C17_29 
REMARK    5  A    between atoms: N6_31  and  O4_33 
ROOT
HETATM    1  C5  UNL     1      23.702  -1.897  19.222  1.00  0.00     0.253 C 
HETATM    2  C6  UNL     1      24.405  -3.225  19.389  1.00  0.00     0.070 C 
HETATM    3  C7  UNL     1      23.556  -4.019  20.391  1.00  0.00     0.083 C 
HETATM    4  C14 UNL     1      22.273  -4.374  19.699  1.00  0.00     0.319 C 
HETATM    5  F4  UNL     1      22.442  -4.516  18.340  1.00  0.00    -0.219 F 
HETATM    6  O3  UNL     1      21.247  -3.483  19.928  1.00  0.00    -0.321 OA
HETATM    7  C15 UNL     1      21.476  -2.210  19.455  1.00  0.00     0.305 C 
HETATM    8  O5  UNL     1      22.519  -2.127  18.562  1.00  0.00    -0.330 OA
ENDROOT
BRANCH   1   9
HETATM    9  N3  UNL     1      24.534  -0.908  18.583  1.00  0.00    -0.206 N 
HETATM   10  N1  UNL     1      24.409   0.410  18.625  1.00  0.00    -0.238 N 
HETATM   11  C1  UNL     1      23.400   1.174  19.325  1.00  0.00     0.183 C 
HETATM   12  C2  UNL     1      25.412   0.915  17.880  1.00  0.00     0.351 A 
HETATM   13  O1  UNL     1      25.638   2.149  17.670  1.00  0.00    -0.245 OA
HETATM   14  N2  UNL     1      26.169  -0.058  17.369  1.00  0.00    -0.189 N 
HETATM   15  C4  UNL     1      25.603  -1.213  17.822  1.00  0.00     0.354 A 
HETATM   16  O2  UNL     1      26.064  -2.346  17.530  1.00  0.00    -0.244 OA
BRANCH  14  17
HETATM   17  C3  UNL     1      27.343   0.052  16.515  1.00  0.00     0.472 C 
HETATM   18  F1  UNL     1      27.150  -0.564  15.298  1.00  0.00    -0.190 F 
HETATM   19  F2  UNL     1      28.457  -0.471  17.127  1.00  0.00    -0.190 F 
ENDBRANCH  14  17
ENDBRANCH   1   9
BRANCH   3  20
HETATM   20  C8  UNL     1      24.273  -5.246  20.808  1.00  0.00    -0.049 A 
HETATM   21  C9  UNL     1      23.629  -6.161  21.608  1.00  0.00     0.011 A 
HETATM   22  C10 UNL     1      24.241  -7.303  22.019  1.00  0.00     0.043 A 
HETATM   23  C11 UNL     1      25.530  -7.578  21.648  1.00  0.00     0.116 A 
HETATM   24  F3  UNL     1      26.119  -8.722  22.071  1.00  0.00    -0.206 F 
HETATM   25  C12 UNL     1      26.186  -6.672  20.849  1.00  0.00     0.043 A 
HETATM   26  C13 UNL     1      25.578  -5.511  20.425  1.00  0.00     0.011 A 
ENDBRANCH   3  20
BRANCH   7  27
HETATM   27  C16 UNL     1      20.248  -1.752  18.767  1.00  0.00     0.123 C 
HETATM   28  N4  UNL     1      20.165  -0.522  18.431  1.00  0.00    -0.338 N 
HETATM   29  C17 UNL     1      19.047   0.055  17.766  1.00  0.00     0.211 C 
ATOM     30  H4  UNL     1      20.952   0.088  18.654  1.00  0.00     0.167 HD
HETATM   31  N5  UNL     1      19.188   0.996  16.717  1.00  0.00    -0.061 NA
HETATM   32  N6  UNL     1      17.879  -0.327  18.170  1.00  0.00    -0.241 N 
ATOM     33  H6  UNL     1      17.787  -1.005  18.926  1.00  0.00     0.197 HD
BRANCH  32  34
HETATM   34  O4  UNL     1      16.756   0.202  17.558  1.00  0.00    -0.287 OA
ATOM     35  H4  UNL     1      16.677   0.140  16.613  1.00  0.00     0.244 HD
ENDBRANCH  32  34
ENDBRANCH   7  27
TORSDOF 5
ENDMDL
MODEL 2
REMARK VINA RESULT: -9.837586294      3.488      6.798
REMARK  5 active torsions:
REMARK  status: ('A' for Active; 'I' for Inactive)
REMARK    1  A    between atoms: N2_5  and  C3_6 
REMARK    2  A    between atoms: N3_11  and  C5_12 
REMARK    3  A    between atoms: C7_14  and  C8_15 
REMARK    4  A    between atoms: C15_25  and  C16_26 
REMARK       I    between atoms: N4_27  and  C17_29 
REMARK    5  A    between atoms: N6_31  and  O4_33 
ROOT
HETATM    1  C5  UNL     1      23.498  -4.808  20.589  1.00  0.00     0.253 C 
HETATM    2  C6  UNL     1      22.138  -5.434  20.796  1.00  0.00     0.070 C 
HETATM    3  C7  UNL     1      21.225  -4.295  21.267  1.00  0.00     0.083 C 
HETATM    4  C14 UNL     1      21.026  -3.375  20.098  1.00  0.00     0.319 C 
HETATM    5  F4  UNL     1      21.093  -4.045  18.898  1.00  0.00    -0.219 F 
HETATM    6  O3  UNL     1      21.903  -2.313  20.064  1.00  0.00    -0.321 OA
HETATM    7  C15 UNL     1      23.226  -2.666  19.919  1.00  0.00     0.305 C 
HETATM    8  O5  UNL     1      23.414  -3.966  19.507  1.00  0.00    -0.330 OA
ENDROOT
BRANCH   1   9
HETATM    9  N3  UNL     1      24.547  -5.790  20.473  1.00  0.00    -0.206 N 
HETATM   10  N1  UNL     1      25.357  -5.997  19.446  1.00  0.00    -0.238 N 
HETATM   11  C1  UNL     1      25.382  -5.281  18.189  1.00  0.00     0.183 C 
HETATM   12  C2  UNL     1      26.169  -7.015  19.795  1.00  0.00     0.351 A 
HETATM   13  O1  UNL     1      27.090  -7.515  19.076  1.00  0.00    -0.245 OA
HETATM   14  N2  UNL     1      25.886  -7.455  21.022  1.00  0.00    -0.189 N 
HETATM   15  C4  UNL     1      24.854  -6.670  21.445  1.00  0.00     0.354 A 
HETATM   16  O2  UNL     1      24.326  -6.809  22.578  1.00  0.00    -0.244 OA
BRANCH  14  17
HETATM   17  C3  UNL     1      26.517  -8.531  21.774  1.00  0.00     0.472 C 
HETATM   18  F1  UNL     1      25.646  -9.574  22.004  1.00  0.00    -0.190 F 
HETATM   19  F2  UNL     1      27.022  -8.078  22.969  1.00  0.00    -0.190 F 
ENDBRANCH  14  17
ENDBRANCH   1   9
BRANCH   3  20
HETATM   20  C8  UNL     1      19.925  -4.837  21.724  1.00  0.00    -0.049 A 
HETATM   21  C9  UNL     1      18.784  -4.089  21.544  1.00  0.00     0.011 A 
HETATM   22  C10 UNL     1      17.567  -4.540  21.945  1.00  0.00     0.043 A 
HETATM   23  C11 UNL     1      17.437  -5.764  22.547  1.00  0.00     0.116 A 
HETATM   24  F3  UNL     1      16.213  -6.191  22.937  1.00  0.00    -0.206 F 
HETATM   25  C12 UNL     1      18.568  -6.521  22.733  1.00  0.00     0.043 A 
HETATM   26  C13 UNL     1      19.809  -6.076  22.332  1.00  0.00     0.011 A 
ENDBRANCH   3  20
BRANCH   7  27
HETATM   27  C16 UNL     1      23.827  -1.774  18.902  1.00  0.00     0.123 C 
HETATM   28  N4  UNL     1      25.102  -1.712  18.827  1.00  0.00    -0.338 N 
HETATM   29  C17 UNL     1      25.813  -0.900  17.901  1.00  0.00     0.211 C 
ATOM     30  H4  UNL     1      25.645  -2.284  19.474  1.00  0.00     0.167 HD
HETATM   31  N5  UNL     1      26.972  -1.354  17.223  1.00  0.00    -0.061 NA
HETATM   32  N6  UNL     1      25.345   0.290  17.703  1.00  0.00    -0.241 N 
ATOM     33  H6  UNL     1      24.510   0.608  18.196  1.00  0.00     0.197 HD
BRANCH  32  34
HETATM   34  O4  UNL     1      25.998   1.124  16.812  1.00  0.00    -0.287 OA
ATOM     35  H4  UNL     1      25.705   1.148  15.909  1.00  0.00     0.244 HD
ENDBRANCH  32  34
ENDBRANCH   7  27
TORSDOF 5
ENDMDL
MODEL 3
REMARK VINA RESULT: -9.556648584      3.184      5.540
REMARK  5 active torsions:
REMARK  status: ('A' for Active; 'I' for Inactive)
REMARK    1  A    between atoms: N2_5  and  C3_6 
REMARK    2  A    between atoms: N3_11  and  C5_12 
REMARK    3  A    between atoms: C7_14  and  C8_15 
REMARK    4  A    between atoms: C15_25  and  C16_26 
REMARK       I    between atoms: N4_27  and  C17_29 
REMARK    5  A    between atoms: N6_31  and  O4_33 
ROOT
HETATM    1  C5  UNL     1      21.528  -2.213  19.698  1.00  0.00     0.253 C 
HETATM    2  C6  UNL     1      21.384  -3.046  20.952  1.00  0.00     0.070 C 
HETATM    3  C7  UNL     1      21.636  -4.495  20.516  1.00  0.00     0.083 C 
HETATM    4  C14 UNL     1      23.093  -4.607  20.173  1.00  0.00     0.319 C 
HETATM    5  F4  UNL     1      23.863  -3.734  20.906  1.00  0.00    -0.219 F 
HETATM    6  O3  UNL     1      23.369  -4.428  18.835  1.00  0.00    -0.321 OA
HETATM    7  C15 UNL     1      23.063  -3.177  18.348  1.00  0.00     0.305 C 
HETATM    8  O5  UNL     1      22.851  -2.234  19.328  1.00  0.00    -0.330 OA
ENDROOT
BRANCH   1   9
HETATM    9  N3  UNL     1      20.997  -0.882  19.856  1.00  0.00    -0.206 N 
HETATM   10  N1  UNL     1      19.769  -0.460  19.592  1.00  0.00    -0.238 N 
HETATM   11  C1  UNL     1      18.664  -1.240  19.080  1.00  0.00     0.183 C 
HETATM   12  C2  UNL     1      19.741   0.854  19.895  1.00  0.00     0.351 A 
HETATM   13  O1  UNL     1      18.736   1.624  19.780  1.00  0.00    -0.245 OA
HETATM   14  N2  UNL     1      20.926   1.269  20.345  1.00  0.00    -0.189 N 
HETATM   15  C4  UNL     1      21.718   0.158  20.316  1.00  0.00     0.354 A 
HETATM   16  O2  UNL     1      22.922   0.183  20.678  1.00  0.00    -0.244 OA
BRANCH  14  17
HETATM   17  C3  UNL     1      21.323   2.601  20.777  1.00  0.00     0.472 C 
HETATM   18  F1  UNL     1      22.216   3.178  19.902  1.00  0.00    -0.190 F 
HETATM   19  F2  UNL     1      21.862   2.577  22.041  1.00  0.00    -0.190 F 
ENDBRANCH  14  17
ENDBRANCH   1   9
BRANCH   3  20
HETATM   20  C8  UNL     1      21.293  -5.427  21.615  1.00  0.00    -0.049 A 
HETATM   21  C9  UNL     1      20.030  -5.388  22.160  1.00  0.00     0.011 A 
HETATM   22  C10 UNL     1      19.664  -6.220  23.169  1.00  0.00     0.043 A 
HETATM   23  C11 UNL     1      20.550  -7.130  23.682  1.00  0.00     0.116 A 
HETATM   24  F3  UNL     1      20.162  -7.949  24.688  1.00  0.00    -0.206 F 
HETATM   25  C12 UNL     1      21.815  -7.180  23.147  1.00  0.00     0.043 A 
HETATM   26  C13 UNL     1      22.199  -6.342  22.124  1.00  0.00     0.011 A 
ENDBRANCH   3  20
BRANCH   7  27
HETATM   27  C16 UNL     1      24.198  -2.722  17.515  1.00  0.00     0.123 C 
HETATM   28  N4  UNL     1      24.908  -1.746  17.938  1.00  0.00    -0.338 N 
HETATM   29  C17 UNL     1      26.025  -1.206  17.244  1.00  0.00     0.211 C 
ATOM     30  H4  UNL     1      24.655  -1.326  18.833  1.00  0.00     0.167 HD
HETATM   31  N5  UNL     1      27.219  -0.822  17.904  1.00  0.00    -0.061 NA
HETATM   32  N6  UNL     1      25.899  -1.079  15.962  1.00  0.00    -0.241 N 
ATOM     33  H6  UNL     1      25.036  -1.358  15.496  1.00  0.00     0.197 HD
BRANCH  32  34
HETATM   34  O4  UNL     1      26.956  -0.559  15.237  1.00  0.00    -0.287 OA
ATOM     35  H4  UNL     1      27.183  -0.960  14.406  1.00  0.00     0.244 HD
ENDBRANCH  32  34
ENDBRANCH   7  27
TORSDOF 5
ENDMDL
MODEL 4
REMARK VINA RESULT: -9.490941277      2.751      3.761
REMARK  5 active torsions:
REMARK  status: ('A' for Active; 'I' for Inactive)
REMARK    1  A    between atoms: N2_5  and  C3_6 
REMARK    2  A    between atoms: N3_11  and  C5_12 
REMARK    3  A    between atoms: C7_14  and  C8_15 
REMARK    4  A    between atoms: C15_25  and  C16_26 
REMARK       I    between atoms: N4_27  and  C17_29 
REMARK    5  A    between atoms: N6_31  and  O4_33 
ROOT
HETATM    1  C5  UNL     1      21.648  -2.631  19.806  1.00  0.00     0.253 C 
HETATM    2  C6  UNL     1      21.436  -4.012  20.383  1.00  0.00     0.070 C 
HETATM    3  C7  UNL     1      20.457  -3.826  21.550  1.00  0.00     0.083 C 
HETATM    4  C14 UNL     1      19.124  -3.473  20.957  1.00  0.00     0.319 C 
HETATM    5  F4  UNL     1      18.952  -4.028  19.708  1.00  0.00    -0.219 F 
HETATM    6  O3  UNL     1      18.885  -2.119  20.878  1.00  0.00    -0.321 OA
HETATM    7  C15 UNL     1      19.749  -1.431  20.053  1.00  0.00     0.305 C 
HETATM    8  O5  UNL     1      20.474  -2.239  19.209  1.00  0.00    -0.330 OA
ENDROOT
BRANCH   1   9
HETATM    9  N3  UNL     1      22.789  -2.570  18.926  1.00  0.00    -0.206 N 
HETATM   10  N1  UNL     1      23.093  -3.390  17.931  1.00  0.00    -0.238 N 
HETATM   11  C1  UNL     1      22.348  -4.549  17.490  1.00  0.00     0.183 C 
HETATM   12  C2  UNL     1      24.245  -2.937  17.398  1.00  0.00     0.351 A 
HETATM   13  O1  UNL     1      24.868  -3.454  16.418  1.00  0.00    -0.245 OA
HETATM   14  N2  UNL     1      24.674  -1.847  18.037  1.00  0.00    -0.189 N 
HETATM   15  C4  UNL     1      23.741  -1.621  19.006  1.00  0.00     0.354 A 
HETATM   16  O2  UNL     1      23.828  -0.658  19.810  1.00  0.00    -0.244 OA
BRANCH  14  17
HETATM   17  C3  UNL     1      25.866  -1.050  17.783  1.00  0.00     0.472 C 
HETATM   18  F1  UNL     1      25.779  -0.363  16.592  1.00  0.00    -0.190 F 
HETATM   19  F2  UNL     1      26.998  -1.829  17.786  1.00  0.00    -0.190 F 
ENDBRANCH  14  17
ENDBRANCH   1   9
BRANCH   3  20
HETATM   20  C8  UNL     1      20.355  -5.077  22.337  1.00  0.00    -0.049 A 
HETATM   21  C9  UNL     1      19.141  -5.439  22.870  1.00  0.00     0.011 A 
HETATM   22  C10 UNL     1      18.993  -6.576  23.600  1.00  0.00     0.043 A 
HETATM   23  C11 UNL     1      20.062  -7.402  23.830  1.00  0.00     0.116 A 
HETATM   24  F3  UNL     1      19.890  -8.530  24.560  1.00  0.00    -0.206 F 
HETATM   25  C12 UNL     1      21.282  -7.052  23.303  1.00  0.00     0.043 A 
HETATM   26  C13 UNL     1      21.444  -5.903  22.562  1.00  0.00     0.011 A 
ENDBRANCH   3  20
BRANCH   7  27
HETATM   27  C16 UNL     1      18.946  -0.507  19.223  1.00  0.00     0.123 C 
HETATM   28  N4  UNL     1      17.956  -0.983  18.569  1.00  0.00    -0.338 N 
HETATM   29  C17 UNL     1      17.100  -0.214  17.733  1.00  0.00     0.211 C 
ATOM     30  H4  UNL     1      17.766  -1.982  18.653  1.00  0.00     0.167 HD
HETATM   31  N5  UNL     1      15.696  -0.401  17.702  1.00  0.00    -0.061 NA
HETATM   32  N6  UNL     1      17.673   0.679  16.991  1.00  0.00    -0.241 N 
ATOM     33  H6  UNL     1      18.684   0.806  17.021  1.00  0.00     0.197 HD
BRANCH  32  34
HETATM   34  O4  UNL     1      16.888   1.457  16.158  1.00  0.00    -0.287 OA
ATOM     35  H4  UNL     1      17.134   1.540  15.244  1.00  0.00     0.244 HD
ENDBRANCH  32  34
ENDBRANCH   7  27
TORSDOF 5
ENDMDL
MODEL 5
REMARK VINA RESULT: -9.454387371      3.767      6.677
REMARK  5 active torsions:
REMARK  status: ('A' for Active; 'I' for Inactive)
REMARK    1  A    between atoms: N2_5  and  C3_6 
REMARK    2  A    between atoms: N3_11  and  C5_12 
REMARK    3  A    between atoms: C7_14  and  C8_15 
REMARK    4  A    between atoms: C15_25  and  C16_26 
REMARK       I    between atoms: N4_27  and  C17_29 
REMARK    5  A    between atoms: N6_31  and  O4_33 
ROOT
HETATM    1  C5  UNL     1      20.580  -3.218  20.203  1.00  0.00     0.253 C 
HETATM    2  C6  UNL     1      21.813  -4.094  20.175  1.00  0.00     0.070 C 
HETATM    3  C7  UNL     1      22.656  -3.583  19.000  1.00  0.00     0.083 C 
HETATM    4  C14 UNL     1      23.182  -2.232  19.387  1.00  0.00     0.319 C 
HETATM    5  F4  UNL     1      23.359  -2.118  20.747  1.00  0.00    -0.219 F 
HETATM    6  O3  UNL     1      22.404  -1.181  18.951  1.00  0.00    -0.321 OA
HETATM    7  C15 UNL     1      21.134  -1.149  19.481  1.00  0.00     0.305 C 
HETATM    8  O5  UNL     1      20.969  -1.957  20.583  1.00  0.00    -0.330 OA
ENDROOT
BRANCH   1   9
HETATM    9  N3  UNL     1      19.530  -3.768  21.024  1.00  0.00    -0.206 N 
HETATM   10  N1  UNL     1      18.288  -3.329  21.157  1.00  0.00    -0.238 N 
HETATM   11  C1  UNL     1      17.687  -2.185  20.507  1.00  0.00     0.183 C 
HETATM   12  C2  UNL     1      17.678  -4.159  22.027  1.00  0.00     0.351 A 
HETATM   13  O1  UNL     1      16.472  -4.073  22.418  1.00  0.00    -0.245 OA
HETATM   14  N2  UNL     1      18.511  -5.114  22.444  1.00  0.00    -0.189 N 
HETATM   15  C4  UNL     1      19.686  -4.857  21.801  1.00  0.00     0.354 A 
HETATM   16  O2  UNL     1      20.709  -5.571  21.961  1.00  0.00    -0.244 OA
BRANCH  14  17
HETATM   17  C3  UNL     1      18.257  -6.202  23.377  1.00  0.00     0.472 C 
HETATM   18  F1  UNL     1      19.035  -6.097  24.510  1.00  0.00    -0.190 F 
HETATM   19  F2  UNL     1      18.463  -7.426  22.787  1.00  0.00    -0.190 F 
ENDBRANCH  14  17
ENDBRANCH   1   9
BRANCH   3  20
HETATM   20  C8  UNL     1      23.777  -4.514  18.732  1.00  0.00    -0.049 A 
HETATM   21  C9  UNL     1      23.620  -5.500  17.785  1.00  0.00     0.011 A 
HETATM   22  C10 UNL     1      24.616  -6.379  17.501  1.00  0.00     0.043 A 
HETATM   23  C11 UNL     1      25.817  -6.312  18.157  1.00  0.00     0.116 A 
HETATM   24  F3  UNL     1      26.794  -7.200  17.856  1.00  0.00    -0.206 F 
HETATM   25  C12 UNL     1      25.987  -5.332  19.106  1.00  0.00     0.043 A 
HETATM   26  C13 UNL     1      24.986  -4.435  19.403  1.00  0.00     0.011 A 
ENDBRANCH   3  20
BRANCH   7  27
HETATM   27  C16 UNL     1      20.846   0.244  19.889  1.00  0.00     0.123 C 
HETATM   28  N4  UNL     1      21.816   1.074  19.940  1.00  0.00    -0.338 N 
HETATM   29  C17 UNL     1      21.686   2.439  20.315  1.00  0.00     0.211 C 
ATOM     30  H4  UNL     1      22.747   0.734  19.696  1.00  0.00     0.167 HD
HETATM   31  N5  UNL     1      22.376   3.481  19.647  1.00  0.00    -0.061 NA
HETATM   32  N6  UNL     1      20.897   2.690  21.309  1.00  0.00    -0.241 N 
ATOM     33  H6  UNL     1      20.405   1.933  21.784  1.00  0.00     0.197 HD
BRANCH  32  34
HETATM   34  O4  UNL     1      20.733   4.002  21.716  1.00  0.00    -0.287 OA
ATOM     35  H4  UNL     1      20.748   4.199  22.646  1.00  0.00     0.244 HD
ENDBRANCH  32  34
ENDBRANCH   7  27
TORSDOF 5
ENDMDL
