MODEL 1
REMARK VINA RESULT: -8.590958562      0.000      0.000
REMARK  8 active torsions:
REMARK  status: ('A' for Active; 'I' for Inactive)
REMARK    1  A    between atoms: O1_2  and  S1_3 
REMARK    2  A    between atoms: S1_3  and  N1_6 
REMARK    3  A    between atoms: N1_6  and  C2_8 
REMARK    4  A    between atoms: C3_13  and  S2_14 
REMARK    5  A    between atoms: S2_14  and  C4_15 
REMARK    6  A    between atoms: C4_15  and  C5_16 
REMARK    7  A    between atoms: C5_16  and  C6_18 
REMARK    8  A    between atoms: C12_29  and  N5_30 
ROOT
HETATM    1  C2  UNL     1      24.955  -2.368  18.309  1.00  0.00     0.177 A 
HETATM    2  N2  UNL     1      25.195  -2.280  19.622  1.00  0.00    -0.280 N 
ATOM      3  H2  UNL     1      25.316  -1.356  20.035  1.00  0.00     0.188 HD
HETATM    4  N3  UNL     1      25.282  -3.359  20.418  1.00  0.00    -0.277 N 
ATOM      5  H3  UNL     1      25.469  -3.221  21.411  1.00  0.00     0.189 HD
HETATM    6  C3  UNL     1      25.134  -4.605  19.961  1.00  0.00     0.178 A 
HETATM    7  N4  UNL     1      24.890  -4.730  18.647  1.00  0.00    -0.212 N 
HETATM    8 CL2  UNL     1      24.691  -6.348  18.033  1.00  0.00     0.022 Cl
HETATM    9  C12 UNL     1      24.796  -3.694  17.818  1.00  0.00     0.165 A 
ENDROOT
BRANCH   6  10
HETATM   10  S2  UNL     1      25.233  -6.049  20.993  1.00  0.00    -0.083 SA
BRANCH  10  11
HETATM   11  C4  UNL     1      23.876  -6.203  22.152  1.00  0.00     0.166 C 
BRANCH  11  12
HETATM   12  C5  UNL     1      22.623  -6.669  21.575  1.00  0.00     0.171 C 
HETATM   13  O4  UNL     1      22.552  -7.110  20.424  1.00  0.00    -0.291 OA
BRANCH  12  14
HETATM   14  C6  UNL     1      21.417  -6.601  22.409  1.00  0.00     0.035 A 
HETATM   15  C7  UNL     1      21.259  -7.479  23.486  1.00  0.00     0.020 A 
HETATM   16  C8  UNL     1      20.139  -7.453  24.290  1.00  0.00     0.046 A 
HETATM   17  C9  UNL     1      19.134  -6.544  24.047  1.00  0.00     0.156 A 
HETATM   18  F1  UNL     1      18.060  -6.563  24.872  1.00  0.00    -0.203 F 
HETATM   19  C10 UNL     1      19.276  -5.665  22.983  1.00  0.00     0.177 A 
HETATM   20  F2  UNL     1      18.287  -4.772  22.748  1.00  0.00    -0.201 F 
HETATM   21  C11 UNL     1      20.399  -5.702  22.187  1.00  0.00     0.089 A 
HETATM   22 CL1  UNL     1      20.618  -4.609  20.833  1.00  0.00    -0.080 Cl
ENDBRANCH  12  14
ENDBRANCH  11  12
ENDBRANCH  10  11
ENDBRANCH   6  10
BRANCH   9  23
HETATM   23  N5  UNL     1      24.548  -3.829  16.551  1.00  0.00    -0.381 N 
ATOM     24  H52 UNL     1      23.691  -3.486  16.117  1.00  0.00     0.157 HD
ATOM     25  H51 UNL     1      25.259  -4.292  15.986  1.00  0.00     0.157 HD
ENDBRANCH   9  23
BRANCH   1  26
HETATM   26  N1  UNL     1      24.879  -1.421  17.470  1.00  0.00    -0.243 N 
ATOM     27  H1  UNL     1      23.947  -1.192  17.126  1.00  0.00     0.182 HD
BRANCH  26  28
HETATM   28  S1  UNL     1      26.145  -0.503  16.864  1.00  0.00     0.362 S 
HETATM   29  O2  UNL     1      26.389  -0.818  15.420  1.00  0.00    -0.175 OA
HETATM   30  O3  UNL     1      27.370  -0.770  17.727  1.00  0.00    -0.175 OA
BRANCH  28  31
HETATM   31  O1  UNL     1      25.794   1.165  16.909  1.00  0.00    -0.264 OA
HETATM   32  C1  UNL     1      24.991   1.367  18.017  1.00  0.00     0.227 C 
ENDBRANCH  28  31
ENDBRANCH  26  28
ENDBRANCH   1  26
TORSDOF 8
ENDMDL
MODEL 2
REMARK VINA RESULT: -8.316129872      1.570      1.785
REMARK  8 active torsions:
REMARK  status: ('A' for Active; 'I' for Inactive)
REMARK    1  A    between atoms: O1_2  and  S1_3 
REMARK    2  A    between atoms: S1_3  and  N1_6 
REMARK    3  A    between atoms: N1_6  and  C2_8 
REMARK    4  A    between atoms: C3_13  and  S2_14 
REMARK    5  A    between atoms: S2_14  and  C4_15 
REMARK    6  A    between atoms: C4_15  and  C5_16 
REMARK    7  A    between atoms: C5_16  and  C6_18 
REMARK    8  A    between atoms: C12_29  and  N5_30 
ROOT
HETATM    1  C2  UNL     1      24.995  -1.931  19.199  1.00  0.00     0.177 A 
HETATM    2  N2  UNL     1      25.234  -2.512  20.380  1.00  0.00    -0.280 N 
ATOM      3  H2  UNL     1      25.503  -1.924  21.168  1.00  0.00     0.188 HD
HETATM    4  N3  UNL     1      25.133  -3.838  20.571  1.00  0.00    -0.277 N 
ATOM      5  H3  UNL     1      25.331  -4.216  21.498  1.00  0.00     0.189 HD
HETATM    6  C3  UNL     1      24.784  -4.681  19.596  1.00  0.00     0.178 A 
HETATM    7  N4  UNL     1      24.536  -4.132  18.397  1.00  0.00    -0.212 N 
HETATM    8 CL2  UNL     1      24.076  -5.216  17.114  1.00  0.00     0.022 Cl
HETATM    9  C12 UNL     1      24.622  -2.826  18.158  1.00  0.00     0.165 A 
ENDROOT
BRANCH   6  10
HETATM   10  S2  UNL     1      24.633  -6.438  19.823  1.00  0.00    -0.083 SA
BRANCH  10  11
HETATM   11  C4  UNL     1      23.082  -6.938  20.566  1.00  0.00     0.166 C 
BRANCH  11  12
HETATM   12  C5  UNL     1      22.994  -6.735  22.006  1.00  0.00     0.171 C 
HETATM   13  O4  UNL     1      23.997  -6.657  22.722  1.00  0.00    -0.291 OA
BRANCH  12  14
HETATM   14  C6  UNL     1      21.658  -6.624  22.603  1.00  0.00     0.035 A 
HETATM   15  C7  UNL     1      21.264  -7.510  23.611  1.00  0.00     0.020 A 
HETATM   16  C8  UNL     1      20.016  -7.445  24.193  1.00  0.00     0.046 A 
HETATM   17  C9  UNL     1      19.113  -6.487  23.788  1.00  0.00     0.156 A 
HETATM   18  F1  UNL     1      17.904  -6.468  24.399  1.00  0.00    -0.203 F 
HETATM   19  C10 UNL     1      19.489  -5.600  22.789  1.00  0.00     0.177 A 
HETATM   20  F2  UNL     1      18.600  -4.658  22.396  1.00  0.00    -0.201 F 
HETATM   21  C11 UNL     1      20.738  -5.676  22.215  1.00  0.00     0.089 A 
HETATM   22 CL1  UNL     1      21.252  -4.575  20.952  1.00  0.00    -0.080 Cl
ENDBRANCH  12  14
ENDBRANCH  11  12
ENDBRANCH  10  11
ENDBRANCH   6  10
BRANCH   9  23
HETATM   23  N5  UNL     1      24.368  -2.306  16.996  1.00  0.00    -0.381 N 
ATOM     24  H52 UNL     1      23.419  -2.120  16.671  1.00  0.00     0.157 HD
ATOM     25  H51 UNL     1      25.167  -2.076  16.406  1.00  0.00     0.157 HD
ENDBRANCH   9  23
BRANCH   1  26
HETATM   26  N1  UNL     1      25.086  -0.701  18.908  1.00  0.00    -0.243 N 
ATOM     27  H1  UNL     1      24.737  -0.424  17.991  1.00  0.00     0.182 HD
BRANCH  26  28
HETATM   28  S1  UNL     1      25.717   0.522  19.867  1.00  0.00     0.362 S 
HETATM   29  O2  UNL     1      27.166   0.278  20.157  1.00  0.00    -0.175 OA
HETATM   30  O3  UNL     1      24.881   0.598  21.136  1.00  0.00    -0.175 OA
BRANCH  28  31
HETATM   31  O1  UNL     1      25.663   2.034  19.081  1.00  0.00    -0.264 OA
HETATM   32  C1  UNL     1      25.106   1.808  17.835  1.00  0.00     0.227 C 
ENDBRANCH  28  31
ENDBRANCH  26  28
ENDBRANCH   1  26
TORSDOF 8
ENDMDL
MODEL 3
REMARK VINA RESULT: -8.203208465      1.907      2.104
REMARK  8 active torsions:
REMARK  status: ('A' for Active; 'I' for Inactive)
REMARK    1  A    between atoms: O1_2  and  S1_3 
REMARK    2  A    between atoms: S1_3  and  N1_6 
REMARK    3  A    between atoms: N1_6  and  C2_8 
REMARK    4  A    between atoms: C3_13  and  S2_14 
REMARK    5  A    between atoms: S2_14  and  C4_15 
REMARK    6  A    between atoms: C4_15  and  C5_16 
REMARK    7  A    between atoms: C5_16  and  C6_18 
REMARK    8  A    between atoms: C12_29  and  N5_30 
ROOT
HETATM    1  C2  UNL     1      24.819  -1.970  18.940  1.00  0.00     0.177 A 
HETATM    2  N2  UNL     1      25.150  -2.440  20.148  1.00  0.00    -0.280 N 
ATOM      3  H2  UNL     1      25.365  -1.773  20.889  1.00  0.00     0.188 HD
HETATM    4  N3  UNL     1      25.211  -3.753  20.425  1.00  0.00    -0.277 N 
ATOM      5  H3  UNL     1      25.472  -4.043  21.368  1.00  0.00     0.189 HD
HETATM    6  C3  UNL     1      24.944  -4.693  19.516  1.00  0.00     0.178 A 
HETATM    7  N4  UNL     1      24.606  -4.257  18.292  1.00  0.00    -0.212 N 
HETATM    8 CL2  UNL     1      24.251  -5.470  17.094  1.00  0.00     0.022 Cl
HETATM    9  C12 UNL     1      24.533  -2.969  17.969  1.00  0.00     0.165 A 
ENDROOT
BRANCH   6  10
HETATM   10  S2  UNL     1      25.006  -6.437  19.858  1.00  0.00    -0.083 SA
BRANCH  10  11
HETATM   11  C4  UNL     1      23.527  -7.071  20.643  1.00  0.00     0.166 C 
BRANCH  11  12
HETATM   12  C5  UNL     1      23.343  -6.667  22.030  1.00  0.00     0.171 C 
HETATM   13  O4  UNL     1      24.297  -6.410  22.773  1.00  0.00    -0.291 OA
BRANCH  12  14
HETATM   14  C6  UNL     1      21.971  -6.570  22.540  1.00  0.00     0.035 A 
HETATM   15  C7  UNL     1      21.522  -7.460  23.521  1.00  0.00     0.020 A 
HETATM   16  C8  UNL     1      20.239  -7.407  24.022  1.00  0.00     0.046 A 
HETATM   17  C9  UNL     1      19.354  -6.458  23.560  1.00  0.00     0.156 A 
HETATM   18  F1  UNL     1      18.109  -6.452  24.092  1.00  0.00    -0.203 F 
HETATM   19  C10 UNL     1      19.784  -5.567  22.588  1.00  0.00     0.177 A 
HETATM   20  F2  UNL     1      18.913  -4.634  22.138  1.00  0.00    -0.201 F 
HETATM   21  C11 UNL     1      21.068  -5.631  22.095  1.00  0.00     0.089 A 
HETATM   22 CL1  UNL     1      21.651  -4.523  20.866  1.00  0.00    -0.080 Cl
ENDBRANCH  12  14
ENDBRANCH  11  12
ENDBRANCH  10  11
ENDBRANCH   6  10
BRANCH   9  23
HETATM   23  N5  UNL     1      24.194  -2.561  16.784  1.00  0.00    -0.381 N 
ATOM     24  H52 UNL     1      23.247  -2.657  16.417  1.00  0.00     0.157 HD
ATOM     25  H51 UNL     1      24.920  -2.121  16.219  1.00  0.00     0.157 HD
ENDBRANCH   9  23
BRANCH   1  26
HETATM   26  N1  UNL     1      24.758  -0.759  18.569  1.00  0.00    -0.243 N 
ATOM     27  H1  UNL     1      25.384  -0.483  17.812  1.00  0.00     0.182 HD
BRANCH  26  28
HETATM   28  S1  UNL     1      23.760   0.439  19.187  1.00  0.00     0.362 S 
HETATM   29  O2  UNL     1      23.785   1.656  18.315  1.00  0.00    -0.175 OA
HETATM   30  O3  UNL     1      24.215   0.737  20.608  1.00  0.00    -0.175 OA
BRANCH  28  31
HETATM   31  O1  UNL     1      22.128  -0.056  19.224  1.00  0.00    -0.264 OA
HETATM   32  C1  UNL     1      21.843  -0.369  20.541  1.00  0.00     0.227 C 
ENDBRANCH  28  31
ENDBRANCH  26  28
ENDBRANCH   1  26
TORSDOF 8
ENDMDL
MODEL 4
REMARK VINA RESULT: -7.984667920      4.862      5.859
REMARK  8 active torsions:
REMARK  status: ('A' for Active; 'I' for Inactive)
REMARK    1  A    between atoms: O1_2  and  S1_3 
REMARK    2  A    between atoms: S1_3  and  N1_6 
REMARK    3  A    between atoms: N1_6  and  C2_8 
REMARK    4  A    between atoms: C3_13  and  S2_14 
REMARK    5  A    between atoms: S2_14  and  C4_15 
REMARK    6  A    between atoms: C4_15  and  C5_16 
REMARK    7  A    between atoms: C5_16  and  C6_18 
REMARK    8  A    between atoms: C12_29  and  N5_30 
ROOT
HETATM    1  C2  UNL     1      20.543   0.644  20.429  1.00  0.00     0.177 A 
HETATM    2  N2  UNL     1      20.371  -0.323  19.521  1.00  0.00    -0.280 N 
ATOM      3  H2  UNL     1      19.440  -0.469  19.133  1.00  0.00     0.188 HD
HETATM    4  N3  UNL     1      21.375  -1.110  19.100  1.00  0.00    -0.277 N 
ATOM      5  H3  UNL     1      21.175  -1.830  18.406  1.00  0.00     0.189 HD
HETATM    6  C3  UNL     1      22.625  -0.986  19.553  1.00  0.00     0.178 A 
HETATM    7  N4  UNL     1      22.834  -0.024  20.465  1.00  0.00    -0.212 N 
HETATM    8 CL2  UNL     1      24.459   0.154  21.065  1.00  0.00     0.022 Cl
HETATM    9  C12 UNL     1      21.874   0.779  20.914  1.00  0.00     0.165 A 
ENDROOT
BRANCH   6  10
HETATM   10  S2  UNL     1      23.975  -2.006  19.005  1.00  0.00    -0.083 SA
BRANCH  10  11
HETATM   11  C4  UNL     1      24.126  -3.547  19.905  1.00  0.00     0.166 C 
BRANCH  11  12
HETATM   12  C5  UNL     1      23.049  -4.501  19.680  1.00  0.00     0.171 C 
HETATM   13  O4  UNL     1      22.532  -4.661  18.569  1.00  0.00    -0.291 OA
BRANCH  12  14
HETATM   14  C6  UNL     1      22.578  -5.287  20.826  1.00  0.00     0.035 A 
HETATM   15  C7  UNL     1      23.389  -6.287  21.372  1.00  0.00     0.020 A 
HETATM   16  C8  UNL     1      22.982  -7.052  22.445  1.00  0.00     0.046 A 
HETATM   17  C9  UNL     1      21.745  -6.844  23.012  1.00  0.00     0.156 A 
HETATM   18  F1  UNL     1      21.401  -7.623  24.066  1.00  0.00    -0.203 F 
HETATM   19  C10 UNL     1      20.928  -5.855  22.483  1.00  0.00     0.177 A 
HETATM   20  F2  UNL     1      19.714  -5.653  23.045  1.00  0.00    -0.201 F 
HETATM   21  C11 UNL     1      21.346  -5.099  21.411  1.00  0.00     0.089 A 
HETATM   22 CL1  UNL     1      20.345  -3.840  20.712  1.00  0.00    -0.080 Cl
ENDBRANCH  12  14
ENDBRANCH  11  12
ENDBRANCH  10  11
ENDBRANCH   6  10
BRANCH   9  23
HETATM   23  N5  UNL     1      22.091   1.714  21.788  1.00  0.00    -0.381 N 
ATOM     24  H52 UNL     1      21.971   1.572  22.791  1.00  0.00     0.157 HD
ATOM     25  H51 UNL     1      22.404   2.618  21.432  1.00  0.00     0.157 HD
ENDBRANCH   9  23
BRANCH   1  26
HETATM   26  N1  UNL     1      19.663   1.420  20.911  1.00  0.00    -0.243 N 
ATOM     27  H1  UNL     1      19.997   2.307  21.288  1.00  0.00     0.182 HD
BRANCH  26  28
HETATM   28  S1  UNL     1      18.011   1.147  20.995  1.00  0.00     0.362 S 
HETATM   29  O2  UNL     1      17.257   2.202  20.245  1.00  0.00    -0.175 OA
HETATM   30  O3  UNL     1      17.621   1.095  22.465  1.00  0.00    -0.175 OA
BRANCH  28  31
HETATM   31  O1  UNL     1      17.576  -0.328  20.258  1.00  0.00    -0.264 OA
HETATM   32  C1  UNL     1      16.896  -1.060  21.215  1.00  0.00     0.227 C 
ENDBRANCH  28  31
ENDBRANCH  26  28
ENDBRANCH   1  26
TORSDOF 8
ENDMDL
MODEL 5
REMARK VINA RESULT: -7.976236694      5.127      5.948
REMARK  8 active torsions:
REMARK  status: ('A' for Active; 'I' for Inactive)
REMARK    1  A    between atoms: O1_2  and  S1_3 
REMARK    2  A    between atoms: S1_3  and  N1_6 
REMARK    3  A    between atoms: N1_6  and  C2_8 
REMARK    4  A    between atoms: C3_13  and  S2_14 
REMARK    5  A    between atoms: S2_14  and  C4_15 
REMARK    6  A    between atoms: C4_15  and  C5_16 
REMARK    7  A    between atoms: C5_16  and  C6_18 
REMARK    8  A    between atoms: C12_29  and  N5_30 
ROOT
HETATM    1  C2  UNL     1      20.244   0.679  20.426  1.00  0.00     0.177 A 
HETATM    2  N2  UNL     1      20.071  -0.292  19.522  1.00  0.00    -0.280 N 
ATOM      3  H2  UNL     1      19.136  -0.448  19.147  1.00  0.00     0.188 HD
HETATM    4  N3  UNL     1      21.077  -1.068  19.089  1.00  0.00    -0.277 N 
ATOM      5  H3  UNL     1      20.876  -1.792  18.399  1.00  0.00     0.189 HD
HETATM    6  C3  UNL     1      22.332  -0.931  19.525  1.00  0.00     0.178 A 
HETATM    7  N4  UNL     1      22.542   0.036  20.433  1.00  0.00    -0.212 N 
HETATM    8 CL2  UNL     1      24.173   0.232  21.011  1.00  0.00     0.022 Cl
HETATM    9  C12 UNL     1      21.579   0.829  20.893  1.00  0.00     0.165 A 
ENDROOT
BRANCH   6  10
HETATM   10  S2  UNL     1      23.685  -1.936  18.961  1.00  0.00    -0.083 SA
BRANCH  10  11
HETATM   11  C4  UNL     1      23.921  -3.431  19.919  1.00  0.00     0.166 C 
BRANCH  11  12
HETATM   12  C5  UNL     1      22.934  -4.476  19.685  1.00  0.00     0.171 C 
HETATM   13  O4  UNL     1      22.466  -4.701  18.564  1.00  0.00    -0.291 OA
BRANCH  12  14
HETATM   14  C6  UNL     1      22.493  -5.273  20.836  1.00  0.00     0.035 A 
HETATM   15  C7  UNL     1      23.329  -6.262  21.365  1.00  0.00     0.020 A 
HETATM   16  C8  UNL     1      22.952  -7.038  22.440  1.00  0.00     0.046 A 
HETATM   17  C9  UNL     1      21.721  -6.852  23.029  1.00  0.00     0.156 A 
HETATM   18  F1  UNL     1      21.406  -7.641  24.084  1.00  0.00    -0.203 F 
HETATM   19  C10 UNL     1      20.880  -5.874  22.516  1.00  0.00     0.177 A 
HETATM   20  F2  UNL     1      19.672  -5.693  23.099  1.00  0.00    -0.201 F 
HETATM   21  C11 UNL     1      21.269  -5.107  21.441  1.00  0.00     0.089 A 
HETATM   22 CL1  UNL     1      20.237  -3.861  20.764  1.00  0.00    -0.080 Cl
ENDBRANCH  12  14
ENDBRANCH  11  12
ENDBRANCH  10  11
ENDBRANCH   6  10
BRANCH   9  23
HETATM   23  N5  UNL     1      21.798   1.768  21.762  1.00  0.00    -0.381 N 
ATOM     24  H52 UNL     1      22.728   2.146  21.945  1.00  0.00     0.157 HD
ATOM     25  H51 UNL     1      20.989   2.133  22.265  1.00  0.00     0.157 HD
ENDBRANCH   9  23
BRANCH   1  26
HETATM   26  N1  UNL     1      19.362   1.446  20.919  1.00  0.00    -0.243 N 
ATOM     27  H1  UNL     1      19.659   2.396  21.141  1.00  0.00     0.182 HD
BRANCH  26  28
HETATM   28  S1  UNL     1      17.761   1.069  21.243  1.00  0.00     0.362 S 
HETATM   29  O2  UNL     1      17.389   1.474  22.636  1.00  0.00    -0.175 OA
HETATM   30  O3  UNL     1      17.576  -0.423  21.009  1.00  0.00    -0.175 OA
BRANCH  28  31
HETATM   31  O1  UNL     1      16.692   1.922  20.225  1.00  0.00    -0.264 OA
HETATM   32  C1  UNL     1      17.473   2.760  19.449  1.00  0.00     0.227 C 
ENDBRANCH  28  31
ENDBRANCH  26  28
ENDBRANCH   1  26
TORSDOF 8
ENDMDL
