MODEL 1
REMARK VINA RESULT: -8.262163562      0.000      0.000
REMARK  7 active torsions:
REMARK  status: ('A' for Active; 'I' for Inactive)
REMARK    1  A    between atoms: C2_2  and  N1_4 
REMARK    2  A    between atoms: N1_4  and  C5_6 
REMARK    3  A    between atoms: C5_6  and  O1_7 
REMARK    4  A    between atoms: C5_6  and  C6_9 
REMARK    5  A    between atoms: N2_15  and  S2_16 
REMARK    6  A    between atoms: S2_16  and  C9_19 
REMARK    7  A    between atoms: C15_29  and  O6_30 
ROOT
HETATM    1  C6  UNL     1      25.962   0.170  19.485  1.00  0.00     0.097 A 
HETATM    2  S1  UNL     1      24.658   1.001  20.207  1.00  0.00    -0.038 SA
HETATM    3  C7  UNL     1      23.171   0.206  19.940  1.00  0.00     0.282 A 
HETATM    4  O2  UNL     1      22.074   0.640  20.382  1.00  0.00    -0.274 OA
HETATM    5  C8  UNL     1      23.276  -0.949  19.201  1.00  0.00     0.321 A 
HETATM    6  O3  UNL     1      22.149  -1.536  19.008  1.00  0.00    -0.262 OA
HETATM    7  N2  UNL     1      24.403  -1.470  18.701  1.00  0.00    -0.174 N 
HETATM    8  C15 UNL     1      25.637  -0.988  18.811  1.00  0.00     0.178 A 
ENDROOT
BRANCH   7   9
HETATM    9  S2  UNL     1      24.208  -2.952  17.794  1.00  0.00     0.277 S 
HETATM   10  O4  UNL     1      24.911  -2.845  16.472  1.00  0.00    -0.199 OA
HETATM   11  O5  UNL     1      22.772  -3.231  17.499  1.00  0.00    -0.199 OA
BRANCH   9  12
HETATM   12  C9  UNL     1      24.845  -4.305  18.658  1.00  0.00     0.125 A 
HETATM   13  C10 UNL     1      25.561  -5.252  17.986  1.00  0.00     0.074 A 
HETATM   14  C11 UNL     1      26.110  -6.370  18.589  1.00  0.00     0.159 A 
HETATM   15  F1  UNL     1      26.817  -7.280  17.854  1.00  0.00    -0.203 F 
HETATM   16  C12 UNL     1      25.933  -6.545  19.933  1.00  0.00     0.196 A 
HETATM   17  F2  UNL     1      26.461  -7.629  20.541  1.00  0.00    -0.199 F 
HETATM   18  C13 UNL     1      25.209  -5.596  20.634  1.00  0.00     0.198 A 
HETATM   19  F3  UNL     1      25.035  -5.772  21.967  1.00  0.00    -0.199 F 
HETATM   20  C14 UNL     1      24.669  -4.488  20.018  1.00  0.00     0.181 A 
HETATM   21  F4  UNL     1      23.959  -3.546  20.673  1.00  0.00    -0.201 F 
ENDBRANCH   9  12
ENDBRANCH   7   9
BRANCH   8  22
HETATM   22  O6  UNL     1      26.709  -1.668  18.221  1.00  0.00    -0.344 OA
ATOM     23  H6  UNL     1      26.481  -2.259  17.513  1.00  0.00     0.219 HD
ENDBRANCH   8  22
BRANCH   1  24
HETATM   24  C5  UNL     1      27.358   0.656  19.562  1.00  0.00     0.402 C 
BRANCH  24  25
HETATM   25  N1  UNL     1      27.304   2.073  19.811  1.00  0.00     0.121 N 
HETATM   26  C4  UNL     1      28.054   2.477  20.964  1.00  0.00     0.314 C 
BRANCH  25  27
HETATM   27  C2  UNL     1      27.592   2.877  18.657  1.00  0.00     0.218 C 
HETATM   28  C1  UNL     1      29.063   3.296  18.778  1.00  0.00     0.042 C 
HETATM   29  C3  UNL     1      26.788   4.128  18.579  1.00  0.00     0.042 C 
ENDBRANCH  25  27
ENDBRANCH  24  25
BRANCH  24  30
HETATM   30  O1  UNL     1      28.127  -0.052  20.442  1.00  0.00    -0.364 OA
ATOM     31  H1  UNL     1      27.847  -0.948  20.587  1.00  0.00     0.212 HD
ENDBRANCH  24  30
ENDBRANCH   1  24
TORSDOF 7
ENDMDL
MODEL 2
REMARK VINA RESULT: -8.254093408      1.953      2.379
REMARK  7 active torsions:
REMARK  status: ('A' for Active; 'I' for Inactive)
REMARK    1  A    between atoms: C2_2  and  N1_4 
REMARK    2  A    between atoms: N1_4  and  C5_6 
REMARK    3  A    between atoms: C5_6  and  O1_7 
REMARK    4  A    between atoms: C5_6  and  C6_9 
REMARK    5  A    between atoms: N2_15  and  S2_16 
REMARK    6  A    between atoms: S2_16  and  C9_19 
REMARK    7  A    between atoms: C15_29  and  O6_30 
ROOT
HETATM    1  C6  UNL     1      24.029  -0.916  19.718  1.00  0.00     0.097 A 
HETATM    2  S1  UNL     1      22.350  -0.642  19.863  1.00  0.00    -0.038 SA
HETATM    3  C7  UNL     1      21.438  -1.957  19.268  1.00  0.00     0.282 A 
HETATM    4  O2  UNL     1      20.178  -1.975  19.274  1.00  0.00    -0.274 OA
HETATM    5  C8  UNL     1      22.199  -2.995  18.783  1.00  0.00     0.321 A 
HETATM    6  O3  UNL     1      21.498  -3.978  18.338  1.00  0.00    -0.262 OA
HETATM    7  N2  UNL     1      23.535  -3.047  18.744  1.00  0.00    -0.174 N 
HETATM    8  C15 UNL     1      24.395  -2.122  19.160  1.00  0.00     0.178 A 
ENDROOT
BRANCH   7   9
HETATM    9  S2  UNL     1      24.211  -4.507  18.058  1.00  0.00     0.277 S 
HETATM   10  O4  UNL     1      25.291  -4.162  17.073  1.00  0.00    -0.199 OA
HETATM   11  O5  UNL     1      23.183  -5.292  17.314  1.00  0.00    -0.199 OA
BRANCH   9  12
HETATM   12  C9  UNL     1      24.876  -5.527  19.282  1.00  0.00     0.125 A 
HETATM   13  C10 UNL     1      26.225  -5.719  19.334  1.00  0.00     0.074 A 
HETATM   14  C11 UNL     1      26.851  -6.517  20.276  1.00  0.00     0.159 A 
HETATM   15  F1  UNL     1      28.210  -6.664  20.270  1.00  0.00    -0.203 F 
HETATM   16  C12 UNL     1      26.085  -7.154  21.211  1.00  0.00     0.196 A 
HETATM   17  F2  UNL     1      26.674  -7.937  22.139  1.00  0.00    -0.199 F 
HETATM   18  C13 UNL     1      24.712  -6.973  21.175  1.00  0.00     0.198 A 
HETATM   19  F3  UNL     1      23.954  -7.606  22.104  1.00  0.00    -0.199 F 
HETATM   20  C14 UNL     1      24.105  -6.174  20.230  1.00  0.00     0.181 A 
HETATM   21  F4  UNL     1      22.771  -5.980  20.169  1.00  0.00    -0.201 F 
ENDBRANCH   9  12
ENDBRANCH   7   9
BRANCH   8  22
HETATM   22  O6  UNL     1      25.772  -2.344  19.044  1.00  0.00    -0.344 OA
ATOM     23  H6  UNL     1      26.024  -3.188  18.689  1.00  0.00     0.219 HD
ENDBRANCH   8  22
BRANCH   1  24
HETATM   24  C5  UNL     1      25.038   0.075  20.153  1.00  0.00     0.402 C 
BRANCH  24  25
HETATM   25  N1  UNL     1      25.153   1.056  19.106  1.00  0.00     0.121 N 
HETATM   26  C4  UNL     1      24.736   2.367  19.507  1.00  0.00     0.314 C 
BRANCH  25  27
HETATM   27  C2  UNL     1      26.431   1.061  18.451  1.00  0.00     0.218 C 
HETATM   28  C1  UNL     1      26.889   2.525  18.409  1.00  0.00     0.042 C 
HETATM   29  C3  UNL     1      26.389   0.577  17.045  1.00  0.00     0.042 C 
ENDBRANCH  25  27
ENDBRANCH  24  25
BRANCH  24  30
HETATM   30  O1  UNL     1      24.789   0.588  21.395  1.00  0.00    -0.364 OA
ATOM     31  H1  UNL     1      24.290   1.396  21.401  1.00  0.00     0.212 HD
ENDBRANCH  24  30
ENDBRANCH   1  24
TORSDOF 7
ENDMDL
MODEL 3
REMARK VINA RESULT: -8.181641631      1.632      2.063
REMARK  7 active torsions:
REMARK  status: ('A' for Active; 'I' for Inactive)
REMARK    1  A    between atoms: C2_2  and  N1_4 
REMARK    2  A    between atoms: N1_4  and  C5_6 
REMARK    3  A    between atoms: C5_6  and  O1_7 
REMARK    4  A    between atoms: C5_6  and  C6_9 
REMARK    5  A    between atoms: N2_15  and  S2_16 
REMARK    6  A    between atoms: S2_16  and  C9_19 
REMARK    7  A    between atoms: C15_29  and  O6_30 
ROOT
HETATM    1  C6  UNL     1      25.088  -0.818  19.163  1.00  0.00     0.097 A 
HETATM    2  S1  UNL     1      23.649  -0.106  19.743  1.00  0.00    -0.038 SA
HETATM    3  C7  UNL     1      22.302  -1.130  19.528  1.00  0.00     0.282 A 
HETATM    4  O2  UNL     1      21.135  -0.812  19.882  1.00  0.00    -0.274 OA
HETATM    5  C8  UNL     1      22.600  -2.335  18.935  1.00  0.00     0.321 A 
HETATM    6  O3  UNL     1      21.575  -3.096  18.779  1.00  0.00    -0.262 OA
HETATM    7  N2  UNL     1      23.810  -2.742  18.534  1.00  0.00    -0.174 N 
HETATM    8  C15 UNL     1      24.959  -2.079  18.622  1.00  0.00     0.178 A 
ENDROOT
BRANCH   7   9
HETATM    9  S2  UNL     1      23.865  -4.331  17.805  1.00  0.00     0.277 S 
HETATM   10  O4  UNL     1      24.668  -4.289  16.536  1.00  0.00    -0.199 OA
HETATM   11  O5  UNL     1      22.502  -4.815  17.438  1.00  0.00    -0.199 OA
BRANCH   9  12
HETATM   12  C9  UNL     1      24.571  -5.488  18.874  1.00  0.00     0.125 A 
HETATM   13  C10 UNL     1      25.810  -5.988  18.598  1.00  0.00     0.074 A 
HETATM   14  C11 UNL     1      26.457  -6.918  19.392  1.00  0.00     0.159 A 
HETATM   15  F1  UNL     1      27.700  -7.377  19.055  1.00  0.00    -0.203 F 
HETATM   16  C12 UNL     1      25.830  -7.368  20.521  1.00  0.00     0.196 A 
HETATM   17  F2  UNL     1      26.444  -8.275  21.310  1.00  0.00    -0.199 F 
HETATM   18  C13 UNL     1      24.572  -6.874  20.819  1.00  0.00     0.198 A 
HETATM   19  F3  UNL     1      23.952  -7.322  21.939  1.00  0.00    -0.199 F 
HETATM   20  C14 UNL     1      23.941  -5.947  20.017  1.00  0.00     0.181 A 
HETATM   21  F4  UNL     1      22.716  -5.448  20.281  1.00  0.00    -0.201 F 
ENDBRANCH   9  12
ENDBRANCH   7   9
BRANCH   8  22
HETATM   22  O6  UNL     1      26.141  -2.661  18.149  1.00  0.00    -0.344 OA
ATOM     23  H6  UNL     1      26.808  -2.828  18.804  1.00  0.00     0.219 HD
ENDBRANCH   8  22
BRANCH   1  24
HETATM   24  C5  UNL     1      26.398  -0.131  19.224  1.00  0.00     0.402 C 
BRANCH  24  25
HETATM   25  N1  UNL     1      26.473   0.747  18.086  1.00  0.00     0.121 N 
HETATM   26  C4  UNL     1      26.321   2.132  18.425  1.00  0.00     0.314 C 
BRANCH  25  27
HETATM   27  C2  UNL     1      27.610   0.509  17.241  1.00  0.00     0.218 C 
HETATM   28  C1  UNL     1      27.097  -0.304  16.045  1.00  0.00     0.042 C 
HETATM   29  C3  UNL     1      28.682  -0.296  17.887  1.00  0.00     0.042 C 
ENDBRANCH  25  27
ENDBRANCH  24  25
BRANCH  24  30
HETATM   30  O1  UNL     1      26.636   0.469  20.428  1.00  0.00    -0.364 OA
ATOM     31  H1  UNL     1      27.554   0.611  20.630  1.00  0.00     0.212 HD
ENDBRANCH  24  30
ENDBRANCH   1  24
TORSDOF 7
ENDMDL
MODEL 4
REMARK VINA RESULT: -8.112453234      1.211      1.640
REMARK  7 active torsions:
REMARK  status: ('A' for Active; 'I' for Inactive)
REMARK    1  A    between atoms: C2_2  and  N1_4 
REMARK    2  A    between atoms: N1_4  and  C5_6 
REMARK    3  A    between atoms: C5_6  and  O1_7 
REMARK    4  A    between atoms: C5_6  and  C6_9 
REMARK    5  A    between atoms: N2_15  and  S2_16 
REMARK    6  A    between atoms: S2_16  and  C9_19 
REMARK    7  A    between atoms: C15_29  and  O6_30 
ROOT
HETATM    1  C6  UNL     1      25.930  -0.343  19.151  1.00  0.00     0.097 A 
HETATM    2  S1  UNL     1      24.670   0.597  19.815  1.00  0.00    -0.038 SA
HETATM    3  C7  UNL     1      23.147  -0.146  19.614  1.00  0.00     0.282 A 
HETATM    4  O2  UNL     1      22.073   0.368  20.027  1.00  0.00    -0.274 OA
HETATM    5  C8  UNL     1      23.195  -1.357  18.962  1.00  0.00     0.321 A 
HETATM    6  O3  UNL     1      22.041  -1.905  18.817  1.00  0.00    -0.262 OA
HETATM    7  N2  UNL     1      24.293  -1.963  18.497  1.00  0.00    -0.174 N 
HETATM    8  C15 UNL     1      25.549  -1.531  18.566  1.00  0.00     0.178 A 
ENDROOT
BRANCH   7   9
HETATM    9  S2  UNL     1      24.026  -3.499  17.704  1.00  0.00     0.277 S 
HETATM   10  O4  UNL     1      24.633  -3.484  16.331  1.00  0.00    -0.199 OA
HETATM   11  O5  UNL     1      22.571  -3.781  17.530  1.00  0.00    -0.199 OA
BRANCH   9  12
HETATM   12  C9  UNL     1      24.715  -4.800  18.606  1.00  0.00     0.125 A 
HETATM   13  C10 UNL     1      25.586  -5.652  17.992  1.00  0.00     0.074 A 
HETATM   14  C11 UNL     1      26.189  -6.723  18.630  1.00  0.00     0.159 A 
HETATM   15  F1  UNL     1      27.053  -7.538  17.953  1.00  0.00    -0.203 F 
HETATM   16  C12 UNL     1      25.904  -6.949  19.947  1.00  0.00     0.196 A 
HETATM   17  F2  UNL     1      26.481  -7.987  20.588  1.00  0.00    -0.199 F 
HETATM   18  C13 UNL     1      25.022  -6.096  20.588  1.00  0.00     0.198 A 
HETATM   19  F3  UNL     1      24.741  -6.322  21.895  1.00  0.00    -0.199 F 
HETATM   20  C14 UNL     1      24.430  -5.033  19.939  1.00  0.00     0.181 A 
HETATM   21  F4  UNL     1      23.567  -4.186  20.535  1.00  0.00    -0.201 F 
ENDBRANCH   9  12
ENDBRANCH   7   9
BRANCH   8  22
HETATM   22  O6  UNL     1      26.584  -2.301  18.024  1.00  0.00    -0.344 OA
ATOM     23  H6  UNL     1      26.475  -2.556  17.116  1.00  0.00     0.219 HD
ENDBRANCH   8  22
BRANCH   1  24
HETATM   24  C5  UNL     1      27.347   0.084  19.187  1.00  0.00     0.402 C 
BRANCH  24  25
HETATM   25  N1  UNL     1      27.566   0.933  18.045  1.00  0.00     0.121 N 
HETATM   26  C4  UNL     1      27.630   2.326  18.376  1.00  0.00     0.314 C 
BRANCH  25  27
HETATM   27  C2  UNL     1      28.658   0.515  17.211  1.00  0.00     0.218 C 
HETATM   28  C1  UNL     1      28.032  -0.194  16.003  1.00  0.00     0.042 C 
HETATM   29  C3  UNL     1      29.574  -0.461  17.862  1.00  0.00     0.042 C 
ENDBRANCH  25  27
ENDBRANCH  24  25
BRANCH  24  30
HETATM   30  O1  UNL     1      27.716   0.628  20.385  1.00  0.00    -0.364 OA
ATOM     31  H1  UNL     1      27.036   0.630  21.049  1.00  0.00     0.212 HD
ENDBRANCH  24  30
ENDBRANCH   1  24
TORSDOF 7
ENDMDL
MODEL 5
REMARK VINA RESULT: -8.062387372      0.716      1.757
REMARK  7 active torsions:
REMARK  status: ('A' for Active; 'I' for Inactive)
REMARK    1  A    between atoms: C2_2  and  N1_4 
REMARK    2  A    between atoms: N1_4  and  C5_6 
REMARK    3  A    between atoms: C5_6  and  O1_7 
REMARK    4  A    between atoms: C5_6  and  C6_9 
REMARK    5  A    between atoms: N2_15  and  S2_16 
REMARK    6  A    between atoms: S2_16  and  C9_19 
REMARK    7  A    between atoms: C15_29  and  O6_30 
ROOT
HETATM    1  C6  UNL     1      26.042   0.327  19.626  1.00  0.00     0.097 A 
HETATM    2  S1  UNL     1      24.793   1.123  20.474  1.00  0.00    -0.038 SA
HETATM    3  C7  UNL     1      23.278   0.382  20.216  1.00  0.00     0.282 A 
HETATM    4  O2  UNL     1      22.212   0.801  20.743  1.00  0.00    -0.274 OA
HETATM    5  C8  UNL     1      23.321  -0.712  19.384  1.00  0.00     0.321 A 
HETATM    6  O3  UNL     1      22.172  -1.260  19.200  1.00  0.00    -0.262 OA
HETATM    7  N2  UNL     1      24.411  -1.214  18.791  1.00  0.00    -0.174 N 
HETATM    8  C15 UNL     1      25.659  -0.766  18.880  1.00  0.00     0.178 A 
ENDROOT
BRANCH   7   9
HETATM    9  S2  UNL     1      24.139  -2.615  17.781  1.00  0.00     0.277 S 
HETATM   10  O4  UNL     1      24.883  -2.469  16.485  1.00  0.00    -0.199 OA
HETATM   11  O5  UNL     1      22.696  -2.772  17.435  1.00  0.00    -0.199 OA
BRANCH   9  12
HETATM   12  C9  UNL     1      24.658  -4.064  18.564  1.00  0.00     0.125 A 
HETATM   13  C10 UNL     1      24.742  -4.096  19.926  1.00  0.00     0.074 A 
HETATM   14  C11 UNL     1      25.147  -5.208  20.643  1.00  0.00     0.159 A 
HETATM   15  F1  UNL     1      25.207  -5.172  22.008  1.00  0.00    -0.203 F 
HETATM   16  C12 UNL     1      25.484  -6.344  19.960  1.00  0.00     0.196 A 
HETATM   17  F2  UNL     1      25.882  -7.440  20.640  1.00  0.00    -0.199 F 
HETATM   18  C13 UNL     1      25.407  -6.331  18.578  1.00  0.00     0.198 A 
HETATM   19  F3  UNL     1      25.743  -7.458  17.903  1.00  0.00    -0.199 F 
HETATM   20  C14 UNL     1      25.001  -5.215  17.879  1.00  0.00     0.181 A 
HETATM   21  F4  UNL     1      24.917  -5.171  16.533  1.00  0.00    -0.201 F 
ENDBRANCH   9  12
ENDBRANCH   7   9
BRANCH   8  22
HETATM   22  O6  UNL     1      26.686  -1.418  18.187  1.00  0.00    -0.344 OA
ATOM     23  H6  UNL     1      26.887  -2.299  18.481  1.00  0.00     0.219 HD
ENDBRANCH   8  22
BRANCH   1  24
HETATM   24  C5  UNL     1      27.452   0.778  19.675  1.00  0.00     0.402 C 
BRANCH  24  25
HETATM   25  N1  UNL     1      27.439   2.191  19.944  1.00  0.00     0.121 N 
HETATM   26  C4  UNL     1      28.298   2.572  21.027  1.00  0.00     0.314 C 
BRANCH  25  27
HETATM   27  C2  UNL     1      27.628   3.008  18.778  1.00  0.00     0.218 C 
HETATM   28  C1  UNL     1      29.075   3.515  18.836  1.00  0.00     0.042 C 
HETATM   29  C3  UNL     1      26.748   4.207  18.734  1.00  0.00     0.042 C 
ENDBRANCH  25  27
ENDBRANCH  24  25
BRANCH  24  30
HETATM   30  O1  UNL     1      28.225   0.038  20.525  1.00  0.00    -0.364 OA
ATOM     31  H1  UNL     1      29.161   0.131  20.396  1.00  0.00     0.212 HD
ENDBRANCH  24  30
ENDBRANCH   1  24
TORSDOF 7
ENDMDL
