MODEL 1
REMARK VINA RESULT: -5.332579725      0.000      0.000
REMARK  2 active torsions:
REMARK  status: ('A' for Active; 'I' for Inactive)
REMARK    1  A    between atoms: C7_7  and  C9_9 
REMARK    2  A    between atoms: C9_9  and  O1_10 
ROOT
HETATM    1  C1  UNL     1      10.451   5.372   7.315  1.00  0.00     0.045 C 
HETATM    2  C2  UNL     1       9.452   5.822   6.294  1.00  0.00     0.057 C 
HETATM    3  C3  UNL     1       9.611   5.132   4.963  1.00  0.00     0.045 C 
HETATM    4  C4  UNL     1       9.491   7.325   6.061  1.00  0.00     0.047 C 
HETATM    5  C5  UNL     1       8.871   7.833   7.342  1.00  0.00     0.047 C 
HETATM    6  C6  UNL     1       7.722   8.752   7.132  1.00  0.00     0.049 C 
HETATM    7  C7  UNL     1       6.584   8.115   7.875  1.00  0.00     0.082 C 
HETATM    8  C8  UNL     1       5.444   7.925   6.916  1.00  0.00     0.048 C 
HETATM    9  O2  UNL     1       6.990   6.917   8.372  1.00  0.00    -0.348 OA
HETATM   10  C10 UNL     1       8.220   6.590   7.892  1.00  0.00     0.266 C 
HETATM   11  O3  UNL     1       8.168   5.670   6.823  1.00  0.00    -0.351 OA
ENDROOT
BRANCH   7  12
HETATM   12  C9  UNL     1       6.116   9.023   9.019  1.00  0.00     0.201 C 
BRANCH  12  13
HETATM   13  O1  UNL     1       4.789   8.717   9.259  1.00  0.00    -0.398 OA
ATOM     14  H1  UNL     1       4.757   7.804   9.517  1.00  0.00     0.209 HD
ENDBRANCH  12  13
ENDBRANCH   7  12
TORSDOF 2
ENDMDL
MODEL 2
REMARK VINA RESULT: -5.299993325      2.221      4.638
REMARK  2 active torsions:
REMARK  status: ('A' for Active; 'I' for Inactive)
REMARK    1  A    between atoms: C7_7  and  C9_9 
REMARK    2  A    between atoms: C9_9  and  O1_10 
ROOT
HETATM    1  C1  UNL     1       2.687   7.452   7.647  1.00  0.00     0.045 C 
HETATM    2  C2  UNL     1       3.770   6.569   8.186  1.00  0.00     0.057 C 
HETATM    3  C3  UNL     1       3.283   5.192   8.558  1.00  0.00     0.045 C 
HETATM    4  C4  UNL     1       4.467   7.173   9.396  1.00  0.00     0.047 C 
HETATM    5  C5  UNL     1       5.267   8.278   8.747  1.00  0.00     0.047 C 
HETATM    6  C6  UNL     1       6.717   8.244   9.074  1.00  0.00     0.049 C 
HETATM    7  C7  UNL     1       7.406   8.171   7.742  1.00  0.00     0.082 C 
HETATM    8  C8  UNL     1       8.300   6.964   7.741  1.00  0.00     0.048 C 
HETATM    9  O2  UNL     1       6.471   8.069   6.761  1.00  0.00    -0.348 OA
HETATM   10  C10 UNL     1       5.234   7.881   7.294  1.00  0.00     0.266 C 
HETATM   11  O3  UNL     1       4.821   6.532   7.267  1.00  0.00    -0.351 OA
ENDROOT
BRANCH   7  12
HETATM   12  C9  UNL     1       8.267   9.420   7.515  1.00  0.00     0.201 C 
BRANCH  12  13
HETATM   13  O1  UNL     1       8.534   9.483   6.160  1.00  0.00    -0.398 OA
ATOM     14  H1  UNL     1       9.389   9.091   6.027  1.00  0.00     0.209 HD
ENDBRANCH  12  13
ENDBRANCH   7  12
TORSDOF 2
ENDMDL
MODEL 3
REMARK VINA RESULT: -5.233628408      1.931      2.724
REMARK  2 active torsions:
REMARK  status: ('A' for Active; 'I' for Inactive)
REMARK    1  A    between atoms: C7_7  and  C9_9 
REMARK    2  A    between atoms: C9_9  and  O1_10 
ROOT
HETATM    1  C1  UNL     1       9.550   8.308   5.089  1.00  0.00     0.045 C 
HETATM    2  C2  UNL     1       9.589   8.736   6.524  1.00  0.00     0.057 C 
HETATM    3  C3  UNL     1      10.855   9.469   6.890  1.00  0.00     0.045 C 
HETATM    4  C4  UNL     1       9.418   7.568   7.485  1.00  0.00     0.047 C 
HETATM    5  C5  UNL     1       7.951   7.254   7.299  1.00  0.00     0.047 C 
HETATM    6  C6  UNL     1       7.177   7.225   8.568  1.00  0.00     0.049 C 
HETATM    7  C7  UNL     1       6.077   8.227   8.365  1.00  0.00     0.082 C 
HETATM    8  C8  UNL     1       6.143   9.229   9.481  1.00  0.00     0.048 C 
HETATM    9  O2  UNL     1       6.250   8.842   7.165  1.00  0.00    -0.348 OA
HETATM   10  C10 UNL     1       7.446   8.498   6.616  1.00  0.00     0.266 C 
HETATM   11  O3  UNL     1       8.442   9.480   6.806  1.00  0.00    -0.351 OA
ENDROOT
BRANCH   7  12
HETATM   12  C9  UNL     1       4.709   7.536   8.405  1.00  0.00     0.201 C 
BRANCH  12  13
HETATM   13  O1  UNL     1       4.182   7.760   9.664  1.00  0.00    -0.398 OA
ATOM     14  H1  UNL     1       3.237   7.703   9.583  1.00  0.00     0.209 HD
ENDBRANCH  12  13
ENDBRANCH   7  12
TORSDOF 2
ENDMDL
MODEL 4
REMARK VINA RESULT: -5.189929931      1.918      4.436
REMARK  2 active torsions:
REMARK  status: ('A' for Active; 'I' for Inactive)
REMARK    1  A    between atoms: C7_7  and  C9_9 
REMARK    2  A    between atoms: C9_9  and  O1_10 
ROOT
HETATM    1  C1  UNL     1       5.348   6.920   8.656  1.00  0.00     0.045 C 
HETATM    2  C2  UNL     1       6.424   7.875   9.072  1.00  0.00     0.057 C 
HETATM    3  C3  UNL     1       6.316   8.300  10.514  1.00  0.00     0.045 C 
HETATM    4  C4  UNL     1       6.461   9.126   8.206  1.00  0.00     0.047 C 
HETATM    5  C5  UNL     1       7.025   8.571   6.919  1.00  0.00     0.047 C 
HETATM    6  C6  UNL     1       8.222   9.299   6.422  1.00  0.00     0.049 C 
HETATM    7  C7  UNL     1       9.286   8.247   6.305  1.00  0.00     0.082 C 
HETATM    8  C8  UNL     1      10.472   8.687   7.115  1.00  0.00     0.048 C 
HETATM    9  O2  UNL     1       8.802   7.068   6.776  1.00  0.00    -0.348 OA
HETATM   10  C10 UNL     1       7.590   7.247   7.367  1.00  0.00     0.266 C 
HETATM   11  O3  UNL     1       7.668   7.312   8.775  1.00  0.00    -0.351 OA
ENDROOT
BRANCH   7  12
HETATM   12  C9  UNL     1       9.723   8.087   4.844  1.00  0.00     0.201 C 
BRANCH  12  13
HETATM   13  O1  UNL     1       9.670   6.736   4.554  1.00  0.00    -0.398 OA
ATOM     14  H1  UNL     1      10.271   6.583   3.835  1.00  0.00     0.209 HD
ENDBRANCH  12  13
ENDBRANCH   7  12
TORSDOF 2
ENDMDL
MODEL 5
REMARK VINA RESULT: -5.172175136      1.847      4.761
REMARK  2 active torsions:
REMARK  status: ('A' for Active; 'I' for Inactive)
REMARK    1  A    between atoms: C7_7  and  C9_9 
REMARK    2  A    between atoms: C9_9  and  O1_10 
ROOT
HETATM    1  C1  UNL     1       7.792   9.306   8.138  1.00  0.00     0.045 C 
HETATM    2  C2  UNL     1       7.318   8.180   7.271  1.00  0.00     0.057 C 
HETATM    3  C3  UNL     1       5.860   8.290   6.900  1.00  0.00     0.045 C 
HETATM    4  C4  UNL     1       7.547   6.817   7.908  1.00  0.00     0.047 C 
HETATM    5  C5  UNL     1       9.048   6.689   7.783  1.00  0.00     0.047 C 
HETATM    6  C6  UNL     1       9.492   5.436   7.117  1.00  0.00     0.049 C 
HETATM    7  C7  UNL     1      10.325   5.896   5.957  1.00  0.00     0.082 C 
HETATM    8  C8  UNL     1       9.757   5.295   4.703  1.00  0.00     0.048 C 
HETATM    9  O2  UNL     1      10.285   7.254   5.890  1.00  0.00    -0.348 OA
HETATM   10  C10 UNL     1       9.372   7.752   6.766  1.00  0.00     0.266 C 
HETATM   11  O3  UNL     1       8.148   8.091   6.152  1.00  0.00    -0.351 OA
ENDROOT
BRANCH   7  12
HETATM   12  C9  UNL     1      11.774   5.423   6.116  1.00  0.00     0.201 C 
BRANCH  12  13
HETATM   13  O1  UNL     1      11.725   4.152   6.659  1.00  0.00    -0.398 OA
ATOM     14  H1  UNL     1      12.249   4.169   7.451  1.00  0.00     0.209 HD
ENDBRANCH  12  13
ENDBRANCH   7  12
TORSDOF 2
ENDMDL
