MODEL 1
REMARK VINA RESULT: -5.183119105      0.000      0.000
REMARK  2 active torsions:
REMARK  status: ('A' for Active; 'I' for Inactive)
REMARK    1  A    between atoms: C5_7  and  N3_8 
REMARK    2  A    between atoms: C8_14  and  C9_15 
ROOT
HETATM    1  N1  UNL     1       8.290  10.016   6.615  1.00  0.00    -0.195 NA
HETATM    2  C1  UNL     1       7.688   9.223   7.236  1.00  0.00     0.085 C 
HETATM    3  C2  UNL     1       6.948   8.214   8.000  1.00  0.00     0.143 C 
HETATM    4  C3  UNL     1       7.736   6.963   7.856  1.00  0.00     0.085 C 
HETATM    5  N2  UNL     1       8.349   5.986   7.762  1.00  0.00    -0.195 NA
HETATM    6  C4  UNL     1       5.625   7.940   7.374  1.00  0.00     0.073 C 
HETATM    7  C5  UNL     1       4.928   6.841   8.159  1.00  0.00     0.186 C 
HETATM    8  C6  UNL     1       4.658   7.429   9.547  1.00  0.00     0.033 C 
HETATM    9  C7  UNL     1       5.956   7.696  10.214  1.00  0.00     0.010 C 
HETATM   10  C8  UNL     1       6.914   8.538   9.452  1.00  0.00     0.033 C 
ENDROOT
BRANCH  10  11
HETATM   11  C9  UNL     1       6.765  10.002   9.763  1.00  0.00     0.093 C 
HETATM   12  S1  UNL     1       6.348  10.370  11.448  1.00  0.00    -0.097 SA
ENDBRANCH  10  11
BRANCH   7  13
HETATM   13  N3  UNL     1       3.628   6.593   7.566  1.00  0.00    -0.075 N 
ATOM     14  H33 UNL     1       2.918   7.246   7.897  1.00  0.00     0.274 HD
ATOM     15  H32 UNL     1       3.598   6.840   6.577  1.00  0.00     0.274 HD
ATOM     16  H31 UNL     1       3.371   5.620   7.732  1.00  0.00     0.274 HD
ENDBRANCH   7  13
TORSDOF 2
ENDMDL
MODEL 2
REMARK VINA RESULT: -4.907847159      2.413      3.963
REMARK  2 active torsions:
REMARK  status: ('A' for Active; 'I' for Inactive)
REMARK    1  A    between atoms: C5_7  and  N3_8 
REMARK    2  A    between atoms: C8_14  and  C9_15 
ROOT
HETATM    1  N1  UNL     1       6.343   9.866  10.074  1.00  0.00    -0.195 NA
HETATM    2  C1  UNL     1       6.742   9.290   9.133  1.00  0.00     0.085 C 
HETATM    3  C2  UNL     1       7.219   8.558   7.956  1.00  0.00     0.143 C 
HETATM    4  C3  UNL     1       5.990   8.085   7.268  1.00  0.00     0.085 C 
HETATM    5  N2  UNL     1       5.039   7.725   6.716  1.00  0.00    -0.195 NA
HETATM    6  C4  UNL     1       7.961   7.330   8.358  1.00  0.00     0.073 C 
HETATM    7  C5  UNL     1       8.372   6.572   7.108  1.00  0.00     0.186 C 
HETATM    8  C6  UNL     1       9.365   7.481   6.379  1.00  0.00     0.033 C 
HETATM    9  C7  UNL     1       8.658   8.709   5.940  1.00  0.00     0.010 C 
HETATM   10  C8  UNL     1       7.931   9.451   7.003  1.00  0.00     0.033 C 
ENDROOT
BRANCH  10  11
HETATM   11  C9  UNL     1       8.785  10.506   7.653  1.00  0.00     0.093 C 
HETATM   12  S1  UNL     1       9.795  11.443   6.536  1.00  0.00    -0.097 SA
ENDBRANCH  10  11
BRANCH   7  13
HETATM   13  N3  UNL     1       9.117   5.391   7.499  1.00  0.00    -0.075 N 
ATOM     14  H33 UNL     1       9.601   5.513   8.389  1.00  0.00     0.274 HD
ATOM     15  H32 UNL     1       8.509   4.620   7.773  1.00  0.00     0.274 HD
ATOM     16  H31 UNL     1       9.752   5.137   6.742  1.00  0.00     0.274 HD
ENDBRANCH   7  13
TORSDOF 2
ENDMDL
MODEL 3
REMARK VINA RESULT: -4.814920302      1.495      3.558
REMARK  2 active torsions:
REMARK  status: ('A' for Active; 'I' for Inactive)
REMARK    1  A    between atoms: C5_7  and  N3_8 
REMARK    2  A    between atoms: C8_14  and  C9_15 
ROOT
HETATM    1  N1  UNL     1       4.190   6.672  10.305  1.00  0.00    -0.195 NA
HETATM    2  C1  UNL     1       4.930   7.157   9.535  1.00  0.00     0.085 C 
HETATM    3  C2  UNL     1       5.840   7.756   8.555  1.00  0.00     0.143 C 
HETATM    4  C3  UNL     1       5.021   7.947   7.331  1.00  0.00     0.085 C 
HETATM    5  N2  UNL     1       4.388   8.113   6.376  1.00  0.00    -0.195 NA
HETATM    6  C4  UNL     1       6.921   6.802   8.180  1.00  0.00     0.073 C 
HETATM    7  C5  UNL     1       7.794   7.441   7.114  1.00  0.00     0.186 C 
HETATM    8  C6  UNL     1       8.464   8.640   7.789  1.00  0.00     0.033 C 
HETATM    9  C7  UNL     1       7.421   9.627   8.159  1.00  0.00     0.010 C 
HETATM   10  C8  UNL     1       6.300   9.106   8.981  1.00  0.00     0.033 C 
ENDROOT
BRANCH  10  11
HETATM   11  C9  UNL     1       6.560   9.240  10.457  1.00  0.00     0.093 C 
HETATM   12  S1  UNL     1       6.995  10.874  10.994  1.00  0.00    -0.097 SA
ENDBRANCH  10  11
BRANCH   7  13
HETATM   13  N3  UNL     1       8.861   6.522   6.769  1.00  0.00    -0.075 N 
ATOM     14  H33 UNL     1       9.625   6.982   6.272  1.00  0.00     0.274 HD
ATOM     15  H32 UNL     1       9.389   6.213   7.585  1.00  0.00     0.274 HD
ATOM     16  H31 UNL     1       8.467   5.743   6.242  1.00  0.00     0.274 HD
ENDBRANCH   7  13
TORSDOF 2
ENDMDL
MODEL 4
REMARK VINA RESULT: -4.453769351      2.419      3.644
REMARK  2 active torsions:
REMARK  status: ('A' for Active; 'I' for Inactive)
REMARK    1  A    between atoms: C5_7  and  N3_8 
REMARK    2  A    between atoms: C8_14  and  C9_15 
ROOT
HETATM    1  N1  UNL     1       8.510   5.492   7.083  1.00  0.00    -0.195 NA
HETATM    2  C1  UNL     1       7.830   6.382   7.431  1.00  0.00     0.085 C 
HETATM    3  C2  UNL     1       6.998   7.510   7.858  1.00  0.00     0.143 C 
HETATM    4  C3  UNL     1       7.533   8.686   7.125  1.00  0.00     0.085 C 
HETATM    5  N2  UNL     1       7.932   9.607   6.548  1.00  0.00    -0.195 NA
HETATM    6  C4  UNL     1       7.200   7.802   9.305  1.00  0.00     0.073 C 
HETATM    7  C5  UNL     1       6.372   9.019   9.681  1.00  0.00     0.186 C 
HETATM    8  C6  UNL     1       4.910   8.598   9.505  1.00  0.00     0.033 C 
HETATM    9  C7  UNL     1       4.662   8.320   8.069  1.00  0.00     0.010 C 
HETATM   10  C8  UNL     1       5.582   7.344   7.431  1.00  0.00     0.033 C 
ENDROOT
BRANCH  10  11
HETATM   11  C9  UNL     1       5.067   5.932   7.511  1.00  0.00     0.093 C 
HETATM   12  S1  UNL     1       3.381   5.780   8.042  1.00  0.00    -0.097 SA
ENDBRANCH  10  11
BRANCH   7  13
HETATM   13  N3  UNL     1       6.548   9.287  11.095  1.00  0.00    -0.075 N 
ATOM     14  H33 UNL     1       6.203  10.209  11.363  1.00  0.00     0.274 HD
ATOM     15  H32 UNL     1       5.925   8.728  11.678  1.00  0.00     0.274 HD
ATOM     16  H31 UNL     1       7.530   9.153  11.336  1.00  0.00     0.274 HD
ENDBRANCH   7  13
TORSDOF 2
ENDMDL
MODEL 5
REMARK VINA RESULT: -4.328023242      4.329      5.547
REMARK  2 active torsions:
REMARK  status: ('A' for Active; 'I' for Inactive)
REMARK    1  A    between atoms: C5_7  and  N3_8 
REMARK    2  A    between atoms: C8_14  and  C9_15 
ROOT
HETATM    1  N1  UNL     1      12.605   7.173   5.697  1.00  0.00    -0.195 NA
HETATM    2  C1  UNL     1      11.642   7.838   5.778  1.00  0.00     0.085 C 
HETATM    3  C2  UNL     1      10.446   8.681   5.858  1.00  0.00     0.143 C 
HETATM    4  C3  UNL     1      10.282   9.253   4.498  1.00  0.00     0.085 C 
HETATM    5  N2  UNL     1      10.137   9.694   3.437  1.00  0.00    -0.195 NA
HETATM    6  C4  UNL     1      10.672   9.840   6.766  1.00  0.00     0.073 C 
HETATM    7  C5  UNL     1       9.433  10.718   6.761  1.00  0.00     0.186 C 
HETATM    8  C6  UNL     1       8.320   9.869   7.382  1.00  0.00     0.033 C 
HETATM    9  C7  UNL     1       8.047   8.713   6.493  1.00  0.00     0.010 C 
HETATM   10  C8  UNL     1       9.224   7.879   6.139  1.00  0.00     0.033 C 
ENDROOT
BRANCH  10  11
HETATM   11  C9  UNL     1       9.430   6.740   7.100  1.00  0.00     0.093 C 
HETATM   12  S1  UNL     1       9.285   5.123   6.386  1.00  0.00    -0.097 SA
ENDBRANCH  10  11
BRANCH   7  13
HETATM   13  N3  UNL     1       9.644  11.831   7.666  1.00  0.00    -0.075 N 
ATOM     14  H33 UNL     1      10.539  11.774   8.152  1.00  0.00     0.274 HD
ATOM     15  H32 UNL     1       9.807  12.709   7.172  1.00  0.00     0.274 HD
ATOM     16  H31 UNL     1       8.854  11.888   8.309  1.00  0.00     0.274 HD
ENDBRANCH   7  13
TORSDOF 2
ENDMDL
