MODEL 1
REMARK VINA RESULT: -5.238816671      0.000      0.000
REMARK  3 active torsions:
REMARK  status: ('A' for Active; 'I' for Inactive)
REMARK    1  A    between atoms: N1_4  and  O1_6 
REMARK    2  A    between atoms: C7_12  and  C8_13 
REMARK    3  A    between atoms: C8_13  and  O2_16 
ROOT
HETATM    1  C1  UNL     1       8.680   9.510   6.501  1.00  0.00     0.017 C 
HETATM    2  C2  UNL     1       9.133   8.389   5.628  1.00  0.00     0.040 C 
HETATM    3  C3  UNL     1      10.201   8.744   4.636  1.00  0.00     0.037 C 
HETATM    4  N1  UNL     1      10.153   9.238   3.453  1.00  0.00    -0.275 N 
ATOM      5  H1  UNL     1       9.258   9.466   3.021  1.00  0.00     0.193 HD
HETATM    6  C4  UNL     1      11.183   8.275   5.636  1.00  0.00     0.093 C 
HETATM    7  C5  UNL     1      12.419   7.660   5.077  1.00  0.00     0.038 C 
HETATM    8  C6  UNL     1      11.549   9.416   6.510  1.00  0.00     0.075 C 
HETATM    9  N2  UNL     1      11.856  10.302   7.190  1.00  0.00    -0.196 NA
HETATM   10  C7  UNL     1      10.152   7.441   6.252  1.00  0.00     0.056 C 
ENDROOT
BRANCH  10  11
HETATM   11  C8  UNL     1       9.990   6.018   5.832  1.00  0.00     0.057 C 
HETATM   12  C9  UNL     1      11.255   5.232   6.115  1.00  0.00     0.045 C 
HETATM   13  C10 UNL     1       8.889   5.332   6.647  1.00  0.00     0.045 C 
BRANCH  11  14
HETATM   14  O2  UNL     1       9.682   5.833   4.511  1.00  0.00    -0.390 OA
ATOM     15  H2  UNL     1       8.779   5.595   4.336  1.00  0.00     0.210 HD
ENDBRANCH  11  14
ENDBRANCH  10  11
BRANCH   4  16
HETATM   16  O1  UNL     1      11.329   9.454   2.782  1.00  0.00    -0.290 OA
ATOM     17  H1  UNL     1      11.723   8.731   2.307  1.00  0.00     0.244 HD
ENDBRANCH   4  16
TORSDOF 3
ENDMDL
MODEL 2
REMARK VINA RESULT: -5.139985150      1.175      1.377
REMARK  3 active torsions:
REMARK  status: ('A' for Active; 'I' for Inactive)
REMARK    1  A    between atoms: N1_4  and  O1_6 
REMARK    2  A    between atoms: C7_12  and  C8_13 
REMARK    3  A    between atoms: C8_13  and  O2_16 
ROOT
HETATM    1  C1  UNL     1       9.469  10.880   6.467  1.00  0.00     0.017 C 
HETATM    2  C2  UNL     1       9.240   9.503   5.944  1.00  0.00     0.040 C 
HETATM    3  C3  UNL     1      10.163   9.076   4.841  1.00  0.00     0.037 C 
HETATM    4  N1  UNL     1      10.121   9.235   3.569  1.00  0.00    -0.275 N 
ATOM      5  H1  UNL     1       9.348   9.735   3.132  1.00  0.00     0.193 HD
HETATM    6  C4  UNL     1      11.011   8.467   5.886  1.00  0.00     0.093 C 
HETATM    7  C5  UNL     1      11.748   7.240   5.476  1.00  0.00     0.038 C 
HETATM    8  C6  UNL     1      11.977   9.486   6.366  1.00  0.00     0.075 C 
HETATM    9  N2  UNL     1      12.746  10.268   6.737  1.00  0.00    -0.196 NA
HETATM   10  C7  UNL     1       9.851   8.376   6.771  1.00  0.00     0.056 C 
ENDROOT
BRANCH  10  11
HETATM   11  C8  UNL     1       9.027   7.132   6.799  1.00  0.00     0.057 C 
HETATM   12  C9  UNL     1       9.536   6.181   7.865  1.00  0.00     0.045 C 
HETATM   13  C10 UNL     1       7.578   7.447   7.187  1.00  0.00     0.045 C 
BRANCH  11  14
HETATM   14  O2  UNL     1       8.982   6.437   5.620  1.00  0.00    -0.390 OA
ATOM     15  H2  UNL     1       9.581   5.702   5.561  1.00  0.00     0.210 HD
ENDBRANCH  11  14
ENDBRANCH  10  11
BRANCH   4  16
HETATM   16  O1  UNL     1      11.139   8.717   2.808  1.00  0.00    -0.290 OA
ATOM     17  H1  UNL     1      11.311   9.101   1.956  1.00  0.00     0.244 HD
ENDBRANCH   4  16
TORSDOF 3
ENDMDL
MODEL 3
REMARK VINA RESULT: -5.116315849      1.120      1.294
REMARK  3 active torsions:
REMARK  status: ('A' for Active; 'I' for Inactive)
REMARK    1  A    between atoms: N1_4  and  O1_6 
REMARK    2  A    between atoms: C7_12  and  C8_13 
REMARK    3  A    between atoms: C8_13  and  O2_16 
ROOT
HETATM    1  C1  UNL     1      10.613   9.582   6.601  1.00  0.00     0.017 C 
HETATM    2  C2  UNL     1      10.228   8.444   5.719  1.00  0.00     0.040 C 
HETATM    3  C3  UNL     1      10.875   8.437   4.366  1.00  0.00     0.037 C 
HETATM    4  N1  UNL     1      10.565   9.001   3.256  1.00  0.00    -0.275 N 
ATOM      5  H1  UNL     1       9.734   9.588   3.184  1.00  0.00     0.193 HD
HETATM    6  C4  UNL     1      11.908   7.553   4.945  1.00  0.00     0.093 C 
HETATM    7  C5  UNL     1      12.494   6.557   4.007  1.00  0.00     0.038 C 
HETATM    8  C6  UNL     1      12.989   8.396   5.511  1.00  0.00     0.075 C 
HETATM    9  N2  UNL     1      13.847   9.043   5.943  1.00  0.00    -0.196 NA
HETATM   10  C7  UNL     1      10.963   7.133   5.979  1.00  0.00     0.056 C 
ENDROOT
BRANCH  10  11
HETATM   11  C8  UNL     1      10.122   5.917   5.775  1.00  0.00     0.057 C 
HETATM   12  C9  UNL     1      10.961   4.661   5.907  1.00  0.00     0.045 C 
HETATM   13  C10 UNL     1       9.047   5.811   6.862  1.00  0.00     0.045 C 
BRANCH  11  14
HETATM   14  O2  UNL     1       9.477   5.852   4.568  1.00  0.00    -0.390 OA
ATOM     15  H2  UNL     1       8.879   6.568   4.390  1.00  0.00     0.210 HD
ENDBRANCH  11  14
ENDBRANCH  10  11
BRANCH   4  16
HETATM   16  O1  UNL     1      11.375   8.801   2.167  1.00  0.00    -0.290 OA
ATOM     17  H1  UNL     1      11.105   8.174   1.506  1.00  0.00     0.244 HD
ENDBRANCH   4  16
TORSDOF 3
ENDMDL
MODEL 4
REMARK VINA RESULT: -5.053324958      2.388      4.239
REMARK  3 active torsions:
REMARK  status: ('A' for Active; 'I' for Inactive)
REMARK    1  A    between atoms: N1_4  and  O1_6 
REMARK    2  A    between atoms: C7_12  and  C8_13 
REMARK    3  A    between atoms: C8_13  and  O2_16 
ROOT
HETATM    1  C1  UNL     1      13.409   5.936   4.089  1.00  0.00     0.017 C 
HETATM    2  C2  UNL     1      12.136   6.708   4.165  1.00  0.00     0.040 C 
HETATM    3  C3  UNL     1      10.900   5.884   4.373  1.00  0.00     0.037 C 
HETATM    4  N1  UNL     1      10.122   5.271   3.557  1.00  0.00    -0.275 N 
ATOM      5  H1  UNL     1      10.298   5.294   2.553  1.00  0.00     0.193 HD
HETATM    6  C4  UNL     1      11.063   6.137   5.819  1.00  0.00     0.093 C 
HETATM    7  C5  UNL     1       9.798   6.221   6.599  1.00  0.00     0.038 C 
HETATM    8  C6  UNL     1      11.926   5.074   6.391  1.00  0.00     0.075 C 
HETATM    9  N2  UNL     1      12.586   4.242   6.853  1.00  0.00    -0.196 NA
HETATM   10  C7  UNL     1      11.832   7.343   5.518  1.00  0.00     0.056 C 
ENDROOT
BRANCH  10  11
HETATM   11  C8  UNL     1      11.145   8.665   5.425  1.00  0.00     0.057 C 
HETATM   12  C9  UNL     1      11.063   9.319   6.791  1.00  0.00     0.045 C 
HETATM   13  C10 UNL     1      11.948   9.635   4.552  1.00  0.00     0.045 C 
BRANCH  11  14
HETATM   14  O2  UNL     1       9.875   8.626   4.914  1.00  0.00    -0.390 OA
ATOM     15  H2  UNL     1       9.517   9.468   4.657  1.00  0.00     0.210 HD
ENDBRANCH  11  14
ENDBRANCH  10  11
BRANCH   4  16
HETATM   16  O1  UNL     1       9.047   4.585   4.063  1.00  0.00    -0.290 OA
ATOM     17  H1  UNL     1       8.172   4.869   3.826  1.00  0.00     0.244 HD
ENDBRANCH   4  16
TORSDOF 3
ENDMDL
MODEL 5
REMARK VINA RESULT: -4.872178554      1.111      1.133
REMARK  3 active torsions:
REMARK  status: ('A' for Active; 'I' for Inactive)
REMARK    1  A    between atoms: N1_4  and  O1_6 
REMARK    2  A    between atoms: C7_12  and  C8_13 
REMARK    3  A    between atoms: C8_13  and  O2_16 
ROOT
HETATM    1  C1  UNL     1       8.780   8.628   6.139  1.00  0.00     0.017 C 
HETATM    2  C2  UNL     1       9.560   7.949   5.065  1.00  0.00     0.040 C 
HETATM    3  C3  UNL     1      10.455   8.846   4.262  1.00  0.00     0.037 C 
HETATM    4  N1  UNL     1      10.247   9.574   3.227  1.00  0.00    -0.275 N 
ATOM      5  H1  UNL     1       9.323   9.613   2.795  1.00  0.00     0.193 HD
HETATM    6  C4  UNL     1      11.541   8.475   5.194  1.00  0.00     0.093 C 
HETATM    7  C5  UNL     1      12.905   8.427   4.599  1.00  0.00     0.038 C 
HETATM    8  C6  UNL     1      11.531   9.425   6.334  1.00  0.00     0.075 C 
HETATM    9  N2  UNL     1      11.544  10.169   7.221  1.00  0.00    -0.196 NA
HETATM   10  C7  UNL     1      10.831   7.240   5.524  1.00  0.00     0.056 C 
ENDROOT
BRANCH  10  11
HETATM   11  C8  UNL     1      11.126   5.984   4.774  1.00  0.00     0.057 C 
HETATM   12  C9  UNL     1      12.299   5.255   5.399  1.00  0.00     0.045 C 
HETATM   13  C10 UNL     1       9.945   5.011   4.858  1.00  0.00     0.045 C 
BRANCH  11  14
HETATM   14  O2  UNL     1      11.410   6.153   3.445  1.00  0.00    -0.390 OA
ATOM     15  H2  UNL     1      11.438   5.353   2.933  1.00  0.00     0.210 HD
ENDBRANCH  11  14
ENDBRANCH  10  11
BRANCH   4  16
HETATM   16  O1  UNL     1      11.291  10.299   2.710  1.00  0.00    -0.290 OA
ATOM     17  H1  UNL     1      11.937  10.657   3.308  1.00  0.00     0.244 HD
ENDBRANCH   4  16
TORSDOF 3
ENDMDL
