MODEL 1
REMARK VINA RESULT: -6.701753516      0.000      0.000
REMARK  1 active torsions:
REMARK  status: ('A' for Active; 'I' for Inactive)
REMARK       I    between atoms: C2_5  and  N3_6 
REMARK       I    between atoms: C2_5  and  N5_10 
REMARK    1  A    between atoms: N5_10  and  C4_12 
ROOT
HETATM    1  N1  UNL     1       6.660   9.923  11.662  1.00  0.00    -0.171 NA
HETATM    2  C1  UNL     1       5.869   9.575  10.871  1.00  0.00     0.196 C 
HETATM    3  N2  UNL     1       4.911   9.177   9.931  1.00  0.00    -0.125 N 
ATOM      4  H2  UNL     1       4.013   9.658   9.893  1.00  0.00     0.197 HD
HETATM    5  C2  UNL     1       5.145   8.221   9.122  1.00  0.00     0.696 C 
HETATM    6  N3  UNL     1       4.132   7.866   8.193  1.00  0.00    -0.125 N 
ATOM      7  H3  UNL     1       3.688   8.581   7.617  1.00  0.00     0.197 HD
HETATM    8  C3  UNL     1       3.747   6.525   8.073  1.00  0.00     0.196 C 
HETATM    9  N4  UNL     1       3.416   5.403   7.956  1.00  0.00    -0.171 NA
HETATM   10  N5  UNL     1       6.355   7.474   9.077  1.00  0.00    -0.220 N 
ATOM     11  H5  UNL     1       6.718   7.050   9.930  1.00  0.00     0.178 HD
ENDROOT
BRANCH  10  12
HETATM   12  C4  UNL     1       7.075   7.308   7.833  1.00  0.00     0.099 C 
HETATM   13  C5  UNL     1       7.224   8.649   7.156  1.00  0.00     0.026 C 
HETATM   14  C6  UNL     1       8.549   8.862   6.523  1.00  0.00     0.002 C 
HETATM   15  C7  UNL     1       9.173   7.649   5.930  1.00  0.00     0.000 C 
HETATM   16  C8  UNL     1       9.131   6.435   6.791  1.00  0.00     0.002 C 
HETATM   17  C9  UNL     1       8.374   6.627   8.082  1.00  0.00     0.026 C 
ENDBRANCH  10  12
TORSDOF 1
ENDMDL
MODEL 2
REMARK VINA RESULT: -6.227585484      2.944      4.885
REMARK  1 active torsions:
REMARK  status: ('A' for Active; 'I' for Inactive)
REMARK       I    between atoms: C2_5  and  N3_6 
REMARK       I    between atoms: C2_5  and  N5_10 
REMARK    1  A    between atoms: N5_10  and  C4_12 
ROOT
HETATM    1  N1  UNL     1       9.158  11.808   6.350  1.00  0.00    -0.171 NA
HETATM    2  C1  UNL     1       9.525  10.725   6.603  1.00  0.00     0.196 C 
HETATM    3  N2  UNL     1       9.983   9.439   6.914  1.00  0.00    -0.125 N 
ATOM      4  H2  UNL     1      10.961   9.302   7.168  1.00  0.00     0.197 HD
HETATM    5  C2  UNL     1       9.197   8.438   6.882  1.00  0.00     0.696 C 
HETATM    6  N3  UNL     1       9.724   7.160   7.207  1.00  0.00    -0.125 N 
ATOM      7  H3  UNL     1      10.265   7.030   8.061  1.00  0.00     0.197 HD
HETATM    8  C3  UNL     1       9.494   6.081   6.345  1.00  0.00     0.196 C 
HETATM    9  N4  UNL     1       9.307   5.163   5.635  1.00  0.00    -0.171 NA
HETATM   10  N5  UNL     1       7.817   8.501   6.542  1.00  0.00    -0.220 N 
ATOM     11  H5  UNL     1       7.531   8.953   5.674  1.00  0.00     0.178 HD
ENDROOT
BRANCH  10  12
HETATM   12  C4  UNL     1       6.814   7.929   7.415  1.00  0.00     0.099 C 
HETATM   13  C5  UNL     1       6.869   8.615   8.758  1.00  0.00     0.026 C 
HETATM   14  C6  UNL     1       5.536   8.879   9.356  1.00  0.00     0.002 C 
HETATM   15  C7  UNL     1       4.500   7.848   9.081  1.00  0.00     0.000 C 
HETATM   16  C8  UNL     1       4.421   7.398   7.664  1.00  0.00     0.002 C 
HETATM   17  C9  UNL     1       5.475   8.003   6.771  1.00  0.00     0.026 C 
ENDBRANCH  10  12
TORSDOF 1
ENDMDL
MODEL 3
REMARK VINA RESULT: -6.210033218      1.089      3.588
REMARK  1 active torsions:
REMARK  status: ('A' for Active; 'I' for Inactive)
REMARK       I    between atoms: C2_5  and  N3_6 
REMARK       I    between atoms: C2_5  and  N5_10 
REMARK    1  A    between atoms: N5_10  and  C4_12 
ROOT
HETATM    1  N1  UNL     1       3.159   6.076   8.530  1.00  0.00    -0.171 NA
HETATM    2  C1  UNL     1       3.829   6.607   9.330  1.00  0.00     0.196 C 
HETATM    3  N2  UNL     1       4.623   7.229  10.302  1.00  0.00    -0.125 N 
ATOM      4  H2  UNL     1       4.478   7.007  11.286  1.00  0.00     0.197 HD
HETATM    5  C2  UNL     1       5.522   8.069   9.975  1.00  0.00     0.696 C 
HETATM    6  N3  UNL     1       6.292   8.665  11.008  1.00  0.00    -0.125 N 
ATOM      7  H3  UNL     1       6.736   8.084  11.718  1.00  0.00     0.197 HD
HETATM    8  C3  UNL     1       6.437  10.057  11.043  1.00  0.00     0.196 C 
HETATM    9  N4  UNL     1       6.573  11.224  11.085  1.00  0.00    -0.171 NA
HETATM   10  N5  UNL     1       5.818   8.462   8.639  1.00  0.00    -0.220 N 
ATOM     11  H5  UNL     1       5.067   8.790   8.031  1.00  0.00     0.178 HD
ENDROOT
BRANCH  10  12
HETATM   12  C4  UNL     1       7.172   8.401   8.134  1.00  0.00     0.099 C 
HETATM   13  C5  UNL     1       7.740   7.025   8.383  1.00  0.00     0.026 C 
HETATM   14  C6  UNL     1       8.559   6.499   7.263  1.00  0.00     0.002 C 
HETATM   15  C7  UNL     1       9.353   7.514   6.523  1.00  0.00     0.000 C 
HETATM   16  C8  UNL     1       8.610   8.754   6.164  1.00  0.00     0.002 C 
HETATM   17  C9  UNL     1       7.201   8.799   6.701  1.00  0.00     0.026 C 
ENDBRANCH  10  12
TORSDOF 1
ENDMDL
MODEL 4
REMARK VINA RESULT: -6.089661422      2.877      5.491
REMARK  1 active torsions:
REMARK  status: ('A' for Active; 'I' for Inactive)
REMARK       I    between atoms: C2_5  and  N3_6 
REMARK       I    between atoms: C2_5  and  N5_10 
REMARK    1  A    between atoms: N5_10  and  C4_12 
ROOT
HETATM    1  N1  UNL     1       9.655   5.056   6.164  1.00  0.00    -0.171 NA
HETATM    2  C1  UNL     1       9.527   6.189   5.895  1.00  0.00     0.196 C 
HETATM    3  N2  UNL     1       9.381   7.539   5.553  1.00  0.00    -0.125 N 
ATOM      4  H2  UNL     1       9.718   7.867   4.648  1.00  0.00     0.197 HD
HETATM    5  C2  UNL     1       8.834   8.363   6.355  1.00  0.00     0.696 C 
HETATM    6  N3  UNL     1       8.716   9.718   5.948  1.00  0.00    -0.125 N 
ATOM      7  H3  UNL     1       8.318   9.949   5.038  1.00  0.00     0.197 HD
HETATM    8  C3  UNL     1       9.152  10.735   6.806  1.00  0.00     0.196 C 
HETATM    9  N4  UNL     1       9.508  11.601   7.516  1.00  0.00    -0.171 NA
HETATM   10  N5  UNL     1       8.327   8.028   7.641  1.00  0.00    -0.220 N 
ATOM     11  H5  UNL     1       8.922   7.533   8.305  1.00  0.00     0.178 HD
ENDROOT
BRANCH  10  12
HETATM   12  C4  UNL     1       6.975   8.381   8.017  1.00  0.00     0.099 C 
HETATM   13  C5  UNL     1       6.016   7.895   6.959  1.00  0.00     0.026 C 
HETATM   14  C6  UNL     1       4.756   7.328   7.501  1.00  0.00     0.002 C 
HETATM   15  C7  UNL     1       4.243   7.981   8.735  1.00  0.00     0.000 C 
HETATM   16  C8  UNL     1       5.267   8.228   9.787  1.00  0.00     0.002 C 
HETATM   17  C9  UNL     1       6.669   7.855   9.375  1.00  0.00     0.026 C 
ENDBRANCH  10  12
TORSDOF 1
ENDMDL
MODEL 5
REMARK VINA RESULT: -5.549069337      2.011      4.345
REMARK  1 active torsions:
REMARK  status: ('A' for Active; 'I' for Inactive)
REMARK       I    between atoms: C2_5  and  N3_6 
REMARK       I    between atoms: C2_5  and  N5_10 
REMARK    1  A    between atoms: N5_10  and  C4_12 
ROOT
HETATM    1  N1  UNL     1       5.177  11.048  12.134  1.00  0.00    -0.171 NA
HETATM    2  C1  UNL     1       5.989  10.595  11.421  1.00  0.00     0.196 C 
HETATM    3  N2  UNL     1       6.974  10.061  10.582  1.00  0.00    -0.125 N 
ATOM      4  H2  UNL     1       7.957  10.255  10.774  1.00  0.00     0.197 HD
HETATM    5  C2  UNL     1       6.662   9.336   9.582  1.00  0.00     0.696 C 
HETATM    6  N3  UNL     1       7.709   8.825   8.771  1.00  0.00    -0.125 N 
ATOM      7  H3  UNL     1       8.500   8.342   9.196  1.00  0.00     0.197 HD
HETATM    8  C3  UNL     1       7.647   8.990   7.382  1.00  0.00     0.196 C 
HETATM    9  N4  UNL     1       7.608   9.116   6.214  1.00  0.00    -0.171 NA
HETATM   10  N5  UNL     1       5.332   8.996   9.211  1.00  0.00    -0.220 N 
ATOM     11  H5  UNL     1       4.636   9.733   9.095  1.00  0.00     0.178 HD
ENDROOT
BRANCH  10  12
HETATM   12  C4  UNL     1       4.955   7.616   8.996  1.00  0.00     0.099 C 
HETATM   13  C5  UNL     1       4.520   7.004  10.306  1.00  0.00     0.026 C 
HETATM   14  C6  UNL     1       3.343   6.107  10.192  1.00  0.00     0.002 C 
HETATM   15  C7  UNL     1       3.263   5.319   8.933  1.00  0.00     0.000 C 
HETATM   16  C8  UNL     1       3.523   6.095   7.689  1.00  0.00     0.002 C 
HETATM   17  C9  UNL     1       3.916   7.530   7.934  1.00  0.00     0.026 C 
ENDBRANCH  10  12
TORSDOF 1
ENDMDL
