MODEL 1
REMARK VINA RESULT: -7.758559240      0.000      0.000
REMARK  13 active torsions:
REMARK  status: ('A' for Active; 'I' for Inactive)
REMARK    1  A    between atoms: O1_2  and  C2_3 
REMARK    2  A    between atoms: C2_3  and  O3_5 
REMARK    3  A    between atoms: O3_5  and  C3_6 
REMARK    4  A    between atoms: C3_6  and  C4_7 
REMARK    5  A    between atoms: C3_6  and  C12_27 
REMARK       I    between atoms: C4_7  and  N1_9 
REMARK    6  A    between atoms: C5_11  and  C6_12 
REMARK    7  A    between atoms: N3_16  and  O5_18 
REMARK    8  A    between atoms: N4_20  and  C8_21 
REMARK    9  A    between atoms: C11_24  and  O6_25 
REMARK   10  A    between atoms: C12_27  and  O7_28 
REMARK   11  A    between atoms: C12_27  and  C13_30 
REMARK   12  A    between atoms: C13_30  and  O8_31 
REMARK   13  A    between atoms: C13_30  and  O9_33 
ROOT
HETATM    1  C4  UNL     1      27.902 134.166  17.178  1.00  0.00     0.254 C 
HETATM    2  O4  UNL     1      29.059 133.976  17.692  1.00  0.00    -0.270 OA
HETATM    3  N1  UNL     1      27.598 133.689  15.965  1.00  0.00    -0.333 N 
ATOM      4  H1  UNL     1      27.799 134.474  15.345  1.00  0.00     0.168 HD
HETATM    5  C5  UNL     1      27.214 132.826  15.212  1.00  0.00     0.125 C 
ENDROOT
BRANCH   1   6
HETATM    6  C3  UNL     1      26.885 134.943  17.968  1.00  0.00     0.259 C 
BRANCH   6   7
HETATM    7  O3  UNL     1      26.738 136.243  17.439  1.00  0.00    -0.280 OA
BRANCH   7   8
HETATM    8  C2  UNL     1      25.685 136.599  16.607  1.00  0.00     0.406 C 
HETATM    9  O2  UNL     1      24.647 135.879  16.592  1.00  0.00    -0.229 OA
BRANCH   8  10
HETATM   10  O1  UNL     1      25.732 137.722  15.788  1.00  0.00    -0.303 OA
HETATM   11  C1  UNL     1      26.474 137.753  14.582  1.00  0.00     0.215 C 
ENDBRANCH   8  10
ENDBRANCH   7   8
ENDBRANCH   6   7
BRANCH   6  12
HETATM   12  C12 UNL     1      27.223 134.940  19.436  1.00  0.00     0.212 C 
BRANCH  12  13
HETATM   13  O7  UNL     1      28.346 135.725  19.615  1.00  0.00    -0.388 OA
ATOM     14  H7  UNL     1      28.849 135.357  20.331  1.00  0.00     0.210 HD
ENDBRANCH  12  13
BRANCH  12  15
HETATM   15  C13 UNL     1      26.104 135.477  20.291  1.00  0.00     0.287 C 
BRANCH  15  16
HETATM   16  O8  UNL     1      24.864 135.253  19.652  1.00  0.00    -0.369 OA
ATOM     17  H8  UNL     1      24.700 134.319  19.587  1.00  0.00     0.212 HD
ENDBRANCH  15  16
BRANCH  15  18
HETATM   18  O9  UNL     1      26.073 134.735  21.468  1.00  0.00    -0.364 OA
HETATM   19  C14 UNL     1      25.277 133.596  21.327  1.00  0.00     0.204 C 
ENDBRANCH  15  18
ENDBRANCH  12  15
ENDBRANCH   6  12
ENDBRANCH   1   6
BRANCH   5  20
HETATM   20  C6  UNL     1      26.783 131.482  15.523  1.00  0.00     0.116 A 
HETATM   21  N2  UNL     1      25.579 130.963  15.185  1.00  0.00    -0.184 N 
HETATM   22  C7  UNL     1      25.506 129.696  15.624  1.00  0.00     0.707 A 
ATOM     23  H2  UNL     1      24.844 131.456  14.677  1.00  0.00     0.184 HD
HETATM   24  N3  UNL     1      24.484 128.911  15.466  1.00  0.00    -0.098 N 
HETATM   25  N4  UNL     1      26.664 129.423  16.239  1.00  0.00    -0.154 N 
ATOM     26  H3  UNL     1      24.509 127.959  15.832  1.00  0.00     0.213 HD
HETATM   27  C11 UNL     1      27.449 130.514  16.179  1.00  0.00     0.187 A 
BRANCH  24  28
HETATM   28  O5  UNL     1      23.371 129.365  14.804  1.00  0.00    -0.276 OA
ATOM     29  H5  UNL     1      22.654 128.769  14.624  1.00  0.00     0.245 HD
ENDBRANCH  24  28
BRANCH  25  30
HETATM   30  C8  UNL     1      26.965 128.135  16.852  1.00  0.00     0.102 C 
HETATM   31  C9  UNL     1      27.883 127.316  15.954  1.00  0.00     0.033 C 
HETATM   32  C10 UNL     1      27.670 128.312  18.177  1.00  0.00     0.033 C 
ENDBRANCH  25  30
BRANCH  27  33
HETATM   33  O6  UNL     1      28.719 130.513  16.739  1.00  0.00    -0.344 OA
ATOM     34  H6  UNL     1      29.563 130.315  16.353  1.00  0.00     0.219 HD
ENDBRANCH  27  33
ENDBRANCH   5  20
TORSDOF 13
ENDMDL
MODEL 2
REMARK VINA RESULT: -7.598713207      1.387      2.298
REMARK  13 active torsions:
REMARK  status: ('A' for Active; 'I' for Inactive)
REMARK    1  A    between atoms: O1_2  and  C2_3 
REMARK    2  A    between atoms: C2_3  and  O3_5 
REMARK    3  A    between atoms: O3_5  and  C3_6 
REMARK    4  A    between atoms: C3_6  and  C4_7 
REMARK    5  A    between atoms: C3_6  and  C12_27 
REMARK       I    between atoms: C4_7  and  N1_9 
REMARK    6  A    between atoms: C5_11  and  C6_12 
REMARK    7  A    between atoms: N3_16  and  O5_18 
REMARK    8  A    between atoms: N4_20  and  C8_21 
REMARK    9  A    between atoms: C11_24  and  O6_25 
REMARK   10  A    between atoms: C12_27  and  O7_28 
REMARK   11  A    between atoms: C12_27  and  C13_30 
REMARK   12  A    between atoms: C13_30  and  O8_31 
REMARK   13  A    between atoms: C13_30  and  O9_33 
ROOT
HETATM    1  C4  UNL     1      27.959 134.432  17.363  1.00  0.00     0.254 C 
HETATM    2  O4  UNL     1      29.169 134.720  17.665  1.00  0.00    -0.270 OA
HETATM    3  N1  UNL     1      27.678 133.631  16.328  1.00  0.00    -0.333 N 
ATOM      4  H1  UNL     1      27.519 134.283  15.560  1.00  0.00     0.168 HD
HETATM    5  C5  UNL     1      27.512 132.548  15.817  1.00  0.00     0.125 C 
ENDROOT
BRANCH   1   6
HETATM    6  C3  UNL     1      26.853 135.015  18.198  1.00  0.00     0.259 C 
BRANCH   6   7
HETATM    7  O3  UNL     1      26.546 136.322  17.766  1.00  0.00    -0.280 OA
BRANCH   7   8
HETATM    8  C2  UNL     1      25.905 136.582  16.561  1.00  0.00     0.406 C 
HETATM    9  O2  UNL     1      25.148 135.700  16.068  1.00  0.00    -0.229 OA
BRANCH   8  10
HETATM   10  O1  UNL     1      26.067 137.783  15.878  1.00  0.00    -0.303 OA
HETATM   11  C1  UNL     1      26.569 137.843  14.555  1.00  0.00     0.215 C 
ENDBRANCH   8  10
ENDBRANCH   7   8
ENDBRANCH   6   7
BRANCH   6  12
HETATM   12  C12 UNL     1      27.187 134.944  19.665  1.00  0.00     0.212 C 
BRANCH  12  13
HETATM   13  O7  UNL     1      28.268 135.774  19.895  1.00  0.00    -0.388 OA
ATOM     14  H7  UNL     1      28.071 136.306  20.657  1.00  0.00     0.210 HD
ENDBRANCH  12  13
BRANCH  12  15
HETATM   15  C13 UNL     1      26.040 135.371  20.544  1.00  0.00     0.287 C 
BRANCH  15  16
HETATM   16  O8  UNL     1      24.816 135.127  19.884  1.00  0.00    -0.369 OA
ATOM     17  H8  UNL     1      24.147 135.712  20.221  1.00  0.00     0.212 HD
ENDBRANCH  15  16
BRANCH  15  18
HETATM   18  O9  UNL     1      26.041 134.556  21.672  1.00  0.00    -0.364 OA
HETATM   19  C14 UNL     1      25.234 133.432  21.485  1.00  0.00     0.204 C 
ENDBRANCH  15  18
ENDBRANCH  12  15
ENDBRANCH   6  12
ENDBRANCH   1   6
BRANCH   5  20
HETATM   20  C6  UNL     1      27.605 131.240  16.423  1.00  0.00     0.116 A 
HETATM   21  N2  UNL     1      28.763 130.643  16.792  1.00  0.00    -0.184 N 
HETATM   22  C7  UNL     1      28.491 129.439  17.320  1.00  0.00     0.707 A 
ATOM     23  H2  UNL     1      29.695 131.046  16.685  1.00  0.00     0.184 HD
HETATM   24  N3  UNL     1      29.379 128.608  17.774  1.00  0.00    -0.098 N 
HETATM   25  N4  UNL     1      27.162 129.281  17.280  1.00  0.00    -0.154 N 
ATOM     26  H3  UNL     1      29.087 127.709  18.160  1.00  0.00     0.213 HD
HETATM   27  C11 UNL     1      26.615 130.381  16.732  1.00  0.00     0.187 A 
BRANCH  24  28
HETATM   28  O5  UNL     1      30.709 128.940  17.734  1.00  0.00    -0.276 OA
ATOM     29  H5  UNL     1      31.368 128.264  17.838  1.00  0.00     0.245 HD
ENDBRANCH  24  28
BRANCH  25  30
HETATM   30  C8  UNL     1      26.479 128.088  17.768  1.00  0.00     0.102 C 
HETATM   31  C9  UNL     1      25.850 127.322  16.611  1.00  0.00     0.033 C 
HETATM   32  C10 UNL     1      27.443 127.151  18.459  1.00  0.00     0.033 C 
ENDBRANCH  25  30
BRANCH  27  33
HETATM   33  O6  UNL     1      25.242 130.491  16.567  1.00  0.00    -0.344 OA
ATOM     34  H6  UNL     1      24.720 130.579  15.779  1.00  0.00     0.219 HD
ENDBRANCH  27  33
ENDBRANCH   5  20
TORSDOF 13
ENDMDL
MODEL 3
REMARK VINA RESULT: -7.345243309      2.874      7.551
REMARK  13 active torsions:
REMARK  status: ('A' for Active; 'I' for Inactive)
REMARK    1  A    between atoms: O1_2  and  C2_3 
REMARK    2  A    between atoms: C2_3  and  O3_5 
REMARK    3  A    between atoms: O3_5  and  C3_6 
REMARK    4  A    between atoms: C3_6  and  C4_7 
REMARK    5  A    between atoms: C3_6  and  C12_27 
REMARK       I    between atoms: C4_7  and  N1_9 
REMARK    6  A    between atoms: C5_11  and  C6_12 
REMARK    7  A    between atoms: N3_16  and  O5_18 
REMARK    8  A    between atoms: N4_20  and  C8_21 
REMARK    9  A    between atoms: C11_24  and  O6_25 
REMARK   10  A    between atoms: C12_27  and  O7_28 
REMARK   11  A    between atoms: C12_27  and  C13_30 
REMARK   12  A    between atoms: C13_30  and  O8_31 
REMARK   13  A    between atoms: C13_30  and  O9_33 
ROOT
HETATM    1  C4  UNL     1      26.684 128.266  16.931  1.00  0.00     0.254 C 
HETATM    2  O4  UNL     1      26.224 127.699  17.983  1.00  0.00    -0.270 OA
HETATM    3  N1  UNL     1      26.010 129.253  16.328  1.00  0.00    -0.333 N 
ATOM      4  H1  UNL     1      25.474 128.769  15.608  1.00  0.00     0.168 HD
HETATM    5  C5  UNL     1      25.698 130.411  16.181  1.00  0.00     0.125 C 
ENDROOT
BRANCH   1   6
HETATM    6  C3  UNL     1      28.003 127.797  16.381  1.00  0.00     0.259 C 
BRANCH   6   7
HETATM    7  O3  UNL     1      27.907 126.458  15.948  1.00  0.00    -0.280 OA
BRANCH   7   8
HETATM    8  C2  UNL     1      27.113 126.072  14.875  1.00  0.00     0.406 C 
HETATM    9  O2  UNL     1      26.779 124.860  14.766  1.00  0.00    -0.229 OA
BRANCH   8  10
HETATM   10  O1  UNL     1      26.673 126.977  13.914  1.00  0.00    -0.303 OA
HETATM   11  C1  UNL     1      25.307 127.106  13.562  1.00  0.00     0.215 C 
ENDBRANCH   8  10
ENDBRANCH   7   8
ENDBRANCH   6   7
BRANCH   6  12
HETATM   12  C12 UNL     1      29.112 128.015  17.377  1.00  0.00     0.212 C 
BRANCH  12  13
HETATM   13  O7  UNL     1      28.625 128.826  18.385  1.00  0.00    -0.388 OA
ATOM     14  H7  UNL     1      29.356 129.077  18.937  1.00  0.00     0.210 HD
ENDBRANCH  12  13
BRANCH  12  15
HETATM   15  C13 UNL     1      29.615 126.728  17.978  1.00  0.00     0.287 C 
BRANCH  15  16
HETATM   16  O8  UNL     1      30.992 126.841  18.268  1.00  0.00    -0.369 OA
ATOM     17  H8  UNL     1      31.367 125.976  18.393  1.00  0.00     0.212 HD
ENDBRANCH  15  16
BRANCH  15  18
HETATM   18  O9  UNL     1      28.975 126.551  19.201  1.00  0.00    -0.364 OA
HETATM   19  C14 UNL     1      28.276 125.342  19.237  1.00  0.00     0.204 C 
ENDBRANCH  15  18
ENDBRANCH  12  15
ENDBRANCH   6  12
ENDBRANCH   1   6
BRANCH   5  20
HETATM   20  C6  UNL     1      26.145 131.569  16.921  1.00  0.00     0.116 A 
HETATM   21  N2  UNL     1      25.872 131.799  18.227  1.00  0.00    -0.184 N 
HETATM   22  C7  UNL     1      26.437 132.959  18.599  1.00  0.00     0.707 A 
ATOM     23  H2  UNL     1      25.325 131.187  18.833  1.00  0.00     0.184 HD
HETATM   24  N3  UNL     1      26.367 133.474  19.788  1.00  0.00    -0.098 N 
HETATM   25  N4  UNL     1      27.062 133.457  17.524  1.00  0.00    -0.154 N 
ATOM     26  H3  UNL     1      26.826 134.363  19.988  1.00  0.00     0.213 HD
HETATM   27  C11 UNL     1      26.887 132.608  16.494  1.00  0.00     0.187 A 
BRANCH  24  28
HETATM   28  O5  UNL     1      25.676 132.818  20.776  1.00  0.00    -0.276 OA
ATOM     29  H5  UNL     1      24.741 132.679  20.685  1.00  0.00     0.245 HD
ENDBRANCH  24  28
BRANCH  25  30
HETATM   30  C8  UNL     1      27.797 134.716  17.532  1.00  0.00     0.102 C 
HETATM   31  C9  UNL     1      29.228 134.503  17.056  1.00  0.00     0.033 C 
HETATM   32  C10 UNL     1      27.159 135.726  16.607  1.00  0.00     0.033 C 
ENDBRANCH  25  30
BRANCH  27  33
HETATM   33  O6  UNL     1      27.432 132.875  15.247  1.00  0.00    -0.344 OA
ATOM     34  H6  UNL     1      28.299 132.697  14.902  1.00  0.00     0.219 HD
ENDBRANCH  27  33
ENDBRANCH   5  20
TORSDOF 13
ENDMDL
MODEL 4
REMARK VINA RESULT: -7.156306163      1.367      1.743
REMARK  13 active torsions:
REMARK  status: ('A' for Active; 'I' for Inactive)
REMARK    1  A    between atoms: O1_2  and  C2_3 
REMARK    2  A    between atoms: C2_3  and  O3_5 
REMARK    3  A    between atoms: O3_5  and  C3_6 
REMARK    4  A    between atoms: C3_6  and  C4_7 
REMARK    5  A    between atoms: C3_6  and  C12_27 
REMARK       I    between atoms: C4_7  and  N1_9 
REMARK    6  A    between atoms: C5_11  and  C6_12 
REMARK    7  A    between atoms: N3_16  and  O5_18 
REMARK    8  A    between atoms: N4_20  and  C8_21 
REMARK    9  A    between atoms: C11_24  and  O6_25 
REMARK   10  A    between atoms: C12_27  and  O7_28 
REMARK   11  A    between atoms: C12_27  and  C13_30 
REMARK   12  A    between atoms: C13_30  and  O8_31 
REMARK   13  A    between atoms: C13_30  and  O9_33 
ROOT
HETATM    1  C4  UNL     1      27.802 134.439  17.285  1.00  0.00     0.254 C 
HETATM    2  O4  UNL     1      29.013 134.479  17.700  1.00  0.00    -0.270 OA
HETATM    3  N1  UNL     1      27.498 133.918  16.090  1.00  0.00    -0.333 N 
ATOM      4  H1  UNL     1      27.488 134.730  15.473  1.00  0.00     0.168 HD
HETATM    5  C5  UNL     1      27.230 132.999  15.353  1.00  0.00     0.125 C 
ENDROOT
BRANCH   1   6
HETATM    6  C3  UNL     1      26.721 134.995  18.171  1.00  0.00     0.259 C 
BRANCH   6   7
HETATM    7  O3  UNL     1      26.410 136.319  17.796  1.00  0.00    -0.280 OA
BRANCH   7   8
HETATM    8  C2  UNL     1      25.769 136.629  16.603  1.00  0.00     0.406 C 
HETATM    9  O2  UNL     1      24.909 135.827  16.144  1.00  0.00    -0.229 OA
BRANCH   8  10
HETATM   10  O1  UNL     1      26.042 137.794  15.894  1.00  0.00    -0.303 OA
HETATM   11  C1  UNL     1      26.592 137.779  14.589  1.00  0.00     0.215 C 
ENDBRANCH   8  10
ENDBRANCH   7   8
ENDBRANCH   6   7
BRANCH   6  12
HETATM   12  C12 UNL     1      27.095 134.868  19.625  1.00  0.00     0.212 C 
BRANCH  12  13
HETATM   13  O7  UNL     1      28.126 135.753  19.877  1.00  0.00    -0.388 OA
ATOM     14  H7  UNL     1      28.088 135.993  20.795  1.00  0.00     0.210 HD
ENDBRANCH  12  13
BRANCH  12  15
HETATM   15  C13 UNL     1      25.945 135.174  20.549  1.00  0.00     0.287 C 
BRANCH  15  16
HETATM   16  O8  UNL     1      24.722 134.907  19.895  1.00  0.00    -0.369 OA
ATOM     17  H8  UNL     1      24.565 135.564  19.227  1.00  0.00     0.212 HD
ENDBRANCH  15  16
BRANCH  15  18
HETATM   18  O9  UNL     1      26.013 134.288  21.621  1.00  0.00    -0.364 OA
HETATM   19  C14 UNL     1      25.020 133.310  21.532  1.00  0.00     0.204 C 
ENDBRANCH  15  18
ENDBRANCH  12  15
ENDBRANCH   6  12
ENDBRANCH   1   6
BRANCH   5  20
HETATM   20  C6  UNL     1      27.100 131.595  15.668  1.00  0.00     0.116 A 
HETATM   21  N2  UNL     1      27.838 130.609  15.106  1.00  0.00    -0.184 N 
HETATM   22  C7  UNL     1      27.463 129.428  15.623  1.00  0.00     0.707 A 
ATOM     23  H2  UNL     1      28.565 130.743  14.402  1.00  0.00     0.184 HD
HETATM   24  N3  UNL     1      27.973 128.278  15.300  1.00  0.00    -0.098 N 
HETATM   25  N4  UNL     1      26.488 129.674  16.508  1.00  0.00    -0.154 N 
ATOM     26  H3  UNL     1      27.629 127.425  15.741  1.00  0.00     0.213 HD
HETATM   27  C11 UNL     1      26.263 131.001  16.539  1.00  0.00     0.187 A 
BRANCH  24  28
HETATM   28  O5  UNL     1      28.974 128.215  14.364  1.00  0.00    -0.276 OA
ATOM     29  H5  UNL     1      29.835 127.899  14.615  1.00  0.00     0.245 HD
ENDBRANCH  24  28
BRANCH  25  30
HETATM   30  C8  UNL     1      25.821 128.633  17.280  1.00  0.00     0.102 C 
HETATM   31  C9  UNL     1      25.219 127.584  16.354  1.00  0.00     0.033 C 
HETATM   32  C10 UNL     1      26.792 127.924  18.195  1.00  0.00     0.033 C 
ENDBRANCH  25  30
BRANCH  27  33
HETATM   33  O6  UNL     1      25.298 131.543  17.375  1.00  0.00    -0.344 OA
ATOM     34  H6  UNL     1      24.657 132.226  17.217  1.00  0.00     0.219 HD
ENDBRANCH  27  33
ENDBRANCH   5  20
TORSDOF 13
ENDMDL
MODEL 5
REMARK VINA RESULT: -7.083581272      2.614      7.526
REMARK  13 active torsions:
REMARK  status: ('A' for Active; 'I' for Inactive)
REMARK    1  A    between atoms: O1_2  and  C2_3 
REMARK    2  A    between atoms: C2_3  and  O3_5 
REMARK    3  A    between atoms: O3_5  and  C3_6 
REMARK    4  A    between atoms: C3_6  and  C4_7 
REMARK    5  A    between atoms: C3_6  and  C12_27 
REMARK       I    between atoms: C4_7  and  N1_9 
REMARK    6  A    between atoms: C5_11  and  C6_12 
REMARK    7  A    between atoms: N3_16  and  O5_18 
REMARK    8  A    between atoms: N4_20  and  C8_21 
REMARK    9  A    between atoms: C11_24  and  O6_25 
REMARK   10  A    between atoms: C12_27  and  O7_28 
REMARK   11  A    between atoms: C12_27  and  C13_30 
REMARK   12  A    between atoms: C13_30  and  O8_31 
REMARK   13  A    between atoms: C13_30  and  O9_33 
ROOT
HETATM    1  C4  UNL     1      26.014 129.199  16.404  1.00  0.00     0.254 C 
HETATM    2  O4  UNL     1      25.648 128.803  17.566  1.00  0.00    -0.270 OA
HETATM    3  N1  UNL     1      25.268 130.060  15.701  1.00  0.00    -0.333 N 
ATOM      4  H1  UNL     1      24.698 129.453  15.112  1.00  0.00     0.168 HD
HETATM    5  C5  UNL     1      24.908 131.171  15.392  1.00  0.00     0.125 C 
ENDROOT
BRANCH   1   6
HETATM    6  C3  UNL     1      27.305 128.674  15.841  1.00  0.00     0.259 C 
BRANCH   6   7
HETATM    7  O3  UNL     1      28.405 129.259  16.503  1.00  0.00    -0.280 OA
BRANCH   7   8
HETATM    8  C2  UNL     1      29.314 128.516  17.246  1.00  0.00     0.406 C 
HETATM    9  O2  UNL     1      30.527 128.502  16.892  1.00  0.00    -0.229 OA
BRANCH   8  10
HETATM   10  O1  UNL     1      28.936 127.786  18.367  1.00  0.00    -0.303 OA
HETATM   11  C1  UNL     1      28.677 126.394  18.316  1.00  0.00     0.215 C 
ENDBRANCH   8  10
ENDBRANCH   7   8
ENDBRANCH   6   7
BRANCH   6  12
HETATM   12  C12 UNL     1      27.356 128.852  14.346  1.00  0.00     0.212 C 
BRANCH  12  13
HETATM   13  O7  UNL     1      27.883 130.103  14.085  1.00  0.00    -0.388 OA
ATOM     14  H7  UNL     1      27.436 130.456  13.325  1.00  0.00     0.210 HD
ENDBRANCH  12  13
BRANCH  12  15
HETATM   15  C13 UNL     1      28.202 127.808  13.664  1.00  0.00     0.287 C 
BRANCH  15  16
HETATM   16  O8  UNL     1      29.564 128.020  13.971  1.00  0.00    -0.369 OA
ATOM     17  H8  UNL     1      29.672 128.872  14.380  1.00  0.00     0.212 HD
ENDBRANCH  15  16
BRANCH  15  18
HETATM   18  O9  UNL     1      27.871 126.571  14.207  1.00  0.00    -0.364 OA
HETATM   19  C14 UNL     1      27.143 125.798  13.300  1.00  0.00     0.204 C 
ENDBRANCH  15  18
ENDBRANCH  12  15
ENDBRANCH   6  12
ENDBRANCH   1   6
BRANCH   5  20
HETATM   20  C6  UNL     1      25.369 132.443  15.900  1.00  0.00     0.116 A 
HETATM   21  N2  UNL     1      24.563 133.491  16.193  1.00  0.00    -0.184 N 
HETATM   22  C7  UNL     1      25.312 134.512  16.640  1.00  0.00     0.707 A 
ATOM     23  H2  UNL     1      23.548 133.503  16.090  1.00  0.00     0.184 HD
HETATM   24  N3  UNL     1      24.851 135.668  17.009  1.00  0.00    -0.098 N 
HETATM   25  N4  UNL     1      26.587 134.104  16.626  1.00  0.00    -0.154 N 
ATOM     26  H3  UNL     1      25.489 136.393  17.337  1.00  0.00     0.213 HD
HETATM   27  C11 UNL     1      26.626 132.837  16.173  1.00  0.00     0.187 A 
BRANCH  24  28
HETATM   28  O5  UNL     1      23.502 135.913  16.956  1.00  0.00    -0.276 OA
ATOM     29  H5  UNL     1      22.898 135.198  16.792  1.00  0.00     0.245 HD
ENDBRANCH  24  28
BRANCH  25  30
HETATM   30  C8  UNL     1      27.705 134.941  17.045  1.00  0.00     0.102 C 
HETATM   31  C9  UNL     1      28.357 134.373  18.300  1.00  0.00     0.033 C 
HETATM   32  C10 UNL     1      28.769 135.007  15.974  1.00  0.00     0.033 C 
ENDBRANCH  25  30
BRANCH  27  33
HETATM   33  O6  UNL     1      27.830 132.157  16.055  1.00  0.00    -0.344 OA
ATOM     34  H6  UNL     1      28.690 132.465  15.794  1.00  0.00     0.219 HD
ENDBRANCH  27  33
ENDBRANCH   5  20
TORSDOF 13
ENDMDL
