MODEL 1
REMARK VINA RESULT: -8.688755886      0.000      0.000
REMARK  11 active torsions:
REMARK  status: ('A' for Active; 'I' for Inactive)
REMARK    1  A    between atoms: C2_3  and  O4_35 
REMARK    2  A    between atoms: N2_4  and  N3_6 
REMARK    3  A    between atoms: C4_13  and  C5_14 
REMARK    4  A    between atoms: N6_15  and  N7_17 
REMARK    5  A    between atoms: C6_19  and  C7_20 
REMARK    6  A    between atoms: C11_26  and  O1_27 
REMARK    7  A    between atoms: O1_27  and  O2_28 
REMARK    8  A    between atoms: C12_30  and  O3_31 
REMARK    9  A    between atoms: O4_35  and  C13_36 
REMARK   10  A    between atoms: C13_36  and  C14_37 
REMARK   11  A    between atoms: C14_37  and  N10_38 
ROOT
HETATM    1  N1  UNL     1      29.026 135.362  18.167  1.00  0.00    -0.188 NA
HETATM    2  C1  UNL     1      28.025 134.790  18.312  1.00  0.00     0.145 C 
HETATM    3  C2  UNL     1      26.801 134.091  18.499  1.00  0.00     0.241 C 
HETATM    4  N2  UNL     1      26.687 132.859  18.132  1.00  0.00    -0.257 N 
ATOM      5  H2  UNL     1      25.806 132.364  18.269  1.00  0.00     0.190 HD
ENDROOT
BRANCH   3   6
HETATM    6  O4  UNL     1      25.673 134.677  19.077  1.00  0.00    -0.325 OA
BRANCH   6   7
HETATM    7  C13 UNL     1      25.708 134.898  20.474  1.00  0.00     0.205 C 
BRANCH   7   8
HETATM    8  C14 UNL     1      24.985 133.719  21.129  1.00  0.00     0.256 C 
BRANCH   8   9
HETATM    9  N10 UNL     1      25.696 133.229  22.269  1.00  0.00    -0.077 N 
ATOM     10 3H10 UNL     1      26.686 133.096  22.061  1.00  0.00     0.274 HD
ATOM     11 2H10 UNL     1      25.779 133.944  22.992  1.00  0.00     0.274 HD
ATOM     12 1H10 UNL     1      25.277 132.376  22.638  1.00  0.00     0.274 HD
ENDBRANCH   8   9
ENDBRANCH   7   8
ENDBRANCH   6   7
ENDBRANCH   3   6
BRANCH   4  13
HETATM   13  N3  UNL     1      27.768 132.206  17.549  1.00  0.00    -0.128 N 
HETATM   14  C3  UNL     1      27.781 130.929  17.498  1.00  0.00     0.713 A 
HETATM   15  N4  UNL     1      26.690 130.204  18.040  1.00  0.00    -0.130 N 
HETATM   16  N9  UNL     1      28.839 130.178  16.922  1.00  0.00    -0.166 N 
HETATM   17  N5  UNL     1      26.696 128.803  17.989  1.00  0.00    -0.281 N 
ATOM     18  H4  UNL     1      25.904 130.697  18.464  1.00  0.00     0.205 HD
HETATM   19  C4  UNL     1      27.770 128.082  17.406  1.00  0.00     0.116 A 
ATOM     20  H5  UNL     1      25.908 128.288  18.381  1.00  0.00     0.188 HD
HETATM   21  C12 UNL     1      28.788 128.761  16.901  1.00  0.00     0.185 A 
ATOM     22  H9  UNL     1      29.643 130.662  16.521  1.00  0.00     0.186 HD
ATOM     23  H3  UNL     1      28.545 132.743  17.164  1.00  0.00     0.205 HD
BRANCH  19  24
HETATM   24  C5  UNL     1      27.756 126.602  17.363  1.00  0.00     0.142 C 
HETATM   25  N6  UNL     1      26.824 125.993  18.006  1.00  0.00    -0.310 N 
ATOM     26  H6  UNL     1      26.123 126.521  18.526  1.00  0.00     0.186 HD
BRANCH  25  27
HETATM   27  N7  UNL     1      26.788 124.602  17.981  1.00  0.00    -0.311 N 
HETATM   28  C6  UNL     1      27.144 123.993  16.914  1.00  0.00     0.122 C 
ATOM     29  H7  UNL     1      26.482 124.076  18.800  1.00  0.00     0.186 HD
BRANCH  28  30
HETATM   30  C7  UNL     1      27.113 122.544  16.871  1.00  0.00     0.035 A 
HETATM   31  C8  UNL     1      26.585 121.854  15.776  1.00  0.00     0.018 A 
HETATM   32  C9  UNL     1      26.547 120.475  15.743  1.00  0.00     0.018 A 
HETATM   33  C10 UNL     1      27.043 119.773  16.822  1.00  0.00     0.090 A 
HETATM   34  N8  UNL     1      27.553 120.424  17.879  1.00  0.00    -0.344 N 
HETATM   35  C11 UNL     1      27.591 121.792  17.911  1.00  0.00     0.189 A 
ATOM     36  H8  UNL     1      27.917 119.893  18.670  1.00  0.00     0.167 HD
BRANCH  35  37
HETATM   37  O1  UNL     1      28.132 122.415  19.032  1.00  0.00    -0.181 OA
BRANCH  37  38
HETATM   38  O2  UNL     1      27.411 122.261  20.177  1.00  0.00    -0.243 OA
ATOM     39  H2  UNL     1      26.952 123.040  20.468  1.00  0.00     0.254 HD
ENDBRANCH  37  38
ENDBRANCH  35  37
ENDBRANCH  28  30
ENDBRANCH  25  27
ENDBRANCH  19  24
BRANCH  21  40
HETATM   40  O3  UNL     1      29.841 128.028  16.328  1.00  0.00    -0.344 OA
ATOM     41  H3  UNL     1      30.323 128.432  15.615  1.00  0.00     0.219 HD
ENDBRANCH  21  40
ENDBRANCH   4  13
TORSDOF 11
ENDMDL
MODEL 2
REMARK VINA RESULT: -8.575324686      1.578      1.830
REMARK  11 active torsions:
REMARK  status: ('A' for Active; 'I' for Inactive)
REMARK    1  A    between atoms: C2_3  and  O4_35 
REMARK    2  A    between atoms: N2_4  and  N3_6 
REMARK    3  A    between atoms: C4_13  and  C5_14 
REMARK    4  A    between atoms: N6_15  and  N7_17 
REMARK    5  A    between atoms: C6_19  and  C7_20 
REMARK    6  A    between atoms: C11_26  and  O1_27 
REMARK    7  A    between atoms: O1_27  and  O2_28 
REMARK    8  A    between atoms: C12_30  and  O3_31 
REMARK    9  A    between atoms: O4_35  and  C13_36 
REMARK   10  A    between atoms: C13_36  and  C14_37 
REMARK   11  A    between atoms: C14_37  and  N10_38 
ROOT
HETATM    1  N1  UNL     1      28.976 135.001  18.294  1.00  0.00    -0.188 NA
HETATM    2  C1  UNL     1      27.820 134.981  18.414  1.00  0.00     0.145 C 
HETATM    3  C2  UNL     1      26.406 134.954  18.568  1.00  0.00     0.241 C 
HETATM    4  N2  UNL     1      25.668 134.309  17.729  1.00  0.00    -0.257 N 
ATOM      5  H2  UNL     1      24.655 134.294  17.847  1.00  0.00     0.190 HD
ENDROOT
BRANCH   3   6
HETATM    6  O4  UNL     1      25.745 135.604  19.612  1.00  0.00    -0.325 OA
BRANCH   6   7
HETATM    7  C13 UNL     1      25.947 135.097  20.917  1.00  0.00     0.205 C 
BRANCH   7   8
HETATM    8  C14 UNL     1      25.179 133.775  21.003  1.00  0.00     0.256 C 
BRANCH   8   9
HETATM    9  N10 UNL     1      25.509 133.047  22.189  1.00  0.00    -0.077 N 
ATOM     10 3H10 UNL     1      26.270 133.495  22.701  1.00  0.00     0.274 HD
ATOM     11 2H10 UNL     1      24.774 133.129  22.892  1.00  0.00     0.274 HD
ATOM     12 1H10 UNL     1      25.721 132.071  21.986  1.00  0.00     0.274 HD
ENDBRANCH   8   9
ENDBRANCH   7   8
ENDBRANCH   6   7
ENDBRANCH   3   6
BRANCH   4  13
HETATM   13  N3  UNL     1      26.255 133.636  16.664  1.00  0.00    -0.128 N 
HETATM   14  C3  UNL     1      26.384 132.365  16.715  1.00  0.00     0.713 A 
HETATM   15  N4  UNL     1      25.925 131.669  17.862  1.00  0.00    -0.130 N 
HETATM   16  N9  UNL     1      26.969 131.594  15.677  1.00  0.00    -0.166 N 
HETATM   17  N5  UNL     1      26.063 130.276  17.927  1.00  0.00    -0.281 N 
ATOM     18  H4  UNL     1      25.496 132.178  18.635  1.00  0.00     0.205 HD
HETATM   19  C4  UNL     1      26.653 129.534  16.872  1.00  0.00     0.116 A 
ATOM     20  H5  UNL     1      25.730 129.782  18.755  1.00  0.00     0.188 HD
HETATM   21  C12 UNL     1      27.081 130.186  15.801  1.00  0.00     0.185 A 
ATOM     22  H9  UNL     1      27.311 132.056  14.834  1.00  0.00     0.186 HD
ATOM     23  H3  UNL     1      26.580 134.152  15.846  1.00  0.00     0.205 HD
BRANCH  19  24
HETATM   24  C5  UNL     1      26.788 128.062  16.962  1.00  0.00     0.142 C 
HETATM   25  N6  UNL     1      27.916 127.587  17.355  1.00  0.00    -0.310 N 
ATOM     26  H6  UNL     1      28.686 128.211  17.594  1.00  0.00     0.186 HD
BRANCH  25  27
HETATM   27  N7  UNL     1      28.069 126.207  17.449  1.00  0.00    -0.311 N 
HETATM   28  C6  UNL     1      27.067 125.496  17.810  1.00  0.00     0.122 C 
ATOM     29  H7  UNL     1      28.965 125.768  17.235  1.00  0.00     0.186 HD
BRANCH  28  30
HETATM   30  C7  UNL     1      27.209 124.057  17.913  1.00  0.00     0.035 A 
HETATM   31  C8  UNL     1      26.757 123.201  16.904  1.00  0.00     0.018 A 
HETATM   32  C9  UNL     1      26.884 121.832  17.011  1.00  0.00     0.018 A 
HETATM   33  C10 UNL     1      27.471 121.308  18.144  1.00  0.00     0.090 A 
HETATM   34  N8  UNL     1      27.909 122.119  19.119  1.00  0.00    -0.344 N 
HETATM   35  C11 UNL     1      27.784 123.478  19.013  1.00  0.00     0.189 A 
ATOM     36  H8  UNL     1      28.342 121.717  19.950  1.00  0.00     0.167 HD
BRANCH  35  37
HETATM   37  O1  UNL     1      28.256 124.271  20.054  1.00  0.00    -0.181 OA
BRANCH  37  38
HETATM   38  O2  UNL     1      28.635 123.588  21.168  1.00  0.00    -0.243 OA
ATOM     39  H2  UNL     1      29.291 124.023  21.700  1.00  0.00     0.254 HD
ENDBRANCH  37  38
ENDBRANCH  35  37
ENDBRANCH  28  30
ENDBRANCH  25  27
ENDBRANCH  19  24
BRANCH  21  40
HETATM   40  O3  UNL     1      27.661 129.432  14.767  1.00  0.00    -0.344 OA
ATOM     41  H3  UNL     1      27.289 129.517  13.897  1.00  0.00     0.219 HD
ENDBRANCH  21  40
ENDBRANCH   4  13
TORSDOF 11
ENDMDL
MODEL 3
REMARK VINA RESULT: -8.206291461      4.093      5.594
REMARK  11 active torsions:
REMARK  status: ('A' for Active; 'I' for Inactive)
REMARK    1  A    between atoms: C2_3  and  O4_35 
REMARK    2  A    between atoms: N2_4  and  N3_6 
REMARK    3  A    between atoms: C4_13  and  C5_14 
REMARK    4  A    between atoms: N6_15  and  N7_17 
REMARK    5  A    between atoms: C6_19  and  C7_20 
REMARK    6  A    between atoms: C11_26  and  O1_27 
REMARK    7  A    between atoms: O1_27  and  O2_28 
REMARK    8  A    between atoms: C12_30  and  O3_31 
REMARK    9  A    between atoms: O4_35  and  C13_36 
REMARK   10  A    between atoms: C13_36  and  C14_37 
REMARK   11  A    between atoms: C14_37  and  N10_38 
ROOT
HETATM    1  N1  UNL     1      26.097 138.054  15.138  1.00  0.00    -0.188 NA
HETATM    2  C1  UNL     1      25.034 137.588  15.188  1.00  0.00     0.145 C 
HETATM    3  C2  UNL     1      23.729 137.025  15.249  1.00  0.00     0.241 C 
HETATM    4  N2  UNL     1      23.422 136.182  16.177  1.00  0.00    -0.257 N 
ATOM      5  H2  UNL     1      22.484 135.783  16.215  1.00  0.00     0.190 HD
ENDROOT
BRANCH   3   6
HETATM    6  O4  UNL     1      22.722 137.341  14.335  1.00  0.00    -0.325 OA
BRANCH   6   7
HETATM    7  C13 UNL     1      22.898 138.515  13.565  1.00  0.00     0.205 C 
BRANCH   7   8
HETATM    8  C14 UNL     1      21.845 139.519  14.040  1.00  0.00     0.256 C 
BRANCH   8   9
HETATM    9  N10 UNL     1      21.461 140.418  12.996  1.00  0.00    -0.077 N 
ATOM     10 3H10 UNL     1      21.174 139.913  12.158  1.00  0.00     0.274 HD
ATOM     11 2H10 UNL     1      20.579 140.884  13.212  1.00  0.00     0.274 HD
ATOM     12 1H10 UNL     1      22.197 141.093  12.789  1.00  0.00     0.274 HD
ENDBRANCH   8   9
ENDBRANCH   7   8
ENDBRANCH   6   7
ENDBRANCH   3   6
BRANCH   4  13
HETATM   13  N3  UNL     1      24.372 135.819  17.126  1.00  0.00    -0.128 N 
HETATM   14  C3  UNL     1      24.788 134.611  17.170  1.00  0.00     0.713 A 
HETATM   15  N4  UNL     1      24.269 133.665  16.249  1.00  0.00    -0.130 N 
HETATM   16  N9  UNL     1      25.755 134.148  18.101  1.00  0.00    -0.166 N 
HETATM   17  N5  UNL     1      24.720 132.339  16.292  1.00  0.00    -0.281 N 
ATOM     18  H4  UNL     1      23.573 133.948  15.559  1.00  0.00     0.205 HD
HETATM   19  C4  UNL     1      25.687 131.908  17.236  1.00  0.00     0.116 A 
ATOM     20  H5  UNL     1      24.342 131.664  15.626  1.00  0.00     0.188 HD
HETATM   21  C12 UNL     1      26.170 132.793  18.095  1.00  0.00     0.185 A 
ATOM     22  H9  UNL     1      26.153 134.797  18.781  1.00  0.00     0.186 HD
ATOM     23  H3  UNL     1      24.734 136.511  17.781  1.00  0.00     0.205 HD
BRANCH  19  24
HETATM   24  C5  UNL     1      26.148 130.502  17.263  1.00  0.00     0.142 C 
HETATM   25  N6  UNL     1      25.724 129.750  18.215  1.00  0.00    -0.310 N 
ATOM     26  H6  UNL     1      25.091 130.119  18.924  1.00  0.00     0.186 HD
BRANCH  25  27
HETATM   27  N7  UNL     1      26.142 128.423  18.262  1.00  0.00    -0.311 N 
HETATM   28  C6  UNL     1      26.616 127.886  17.201  1.00  0.00     0.122 C 
ATOM     29  H7  UNL     1      26.072 127.887  19.127  1.00  0.00     0.186 HD
BRANCH  28  30
HETATM   30  C7  UNL     1      27.057 126.505  17.233  1.00  0.00     0.035 A 
HETATM   31  C8  UNL     1      26.289 125.477  16.679  1.00  0.00     0.018 A 
HETATM   32  C9  UNL     1      26.706 124.163  16.721  1.00  0.00     0.018 A 
HETATM   33  C10 UNL     1      27.911 123.869  17.326  1.00  0.00     0.090 A 
HETATM   34  N8  UNL     1      28.658 124.848  17.861  1.00  0.00    -0.344 N 
HETATM   35  C11 UNL     1      28.243 126.152  17.819  1.00  0.00     0.189 A 
ATOM     36  H8  UNL     1      29.547 124.616  18.304  1.00  0.00     0.167 HD
BRANCH  35  37
HETATM   37  O1  UNL     1      29.058 127.125  18.389  1.00  0.00    -0.181 OA
BRANCH  37  38
HETATM   38  O2  UNL     1      30.392 126.858  18.337  1.00  0.00    -0.243 OA
ATOM     39  H2  UNL     1      30.625 125.952  18.500  1.00  0.00     0.254 HD
ENDBRANCH  37  38
ENDBRANCH  35  37
ENDBRANCH  28  30
ENDBRANCH  25  27
ENDBRANCH  19  24
BRANCH  21  40
HETATM   40  O3  UNL     1      27.128 132.347  19.021  1.00  0.00    -0.344 OA
ATOM     41  H3  UNL     1      27.370 132.937  19.725  1.00  0.00     0.219 HD
ENDBRANCH  21  40
ENDBRANCH   4  13
TORSDOF 11
ENDMDL
MODEL 4
REMARK VINA RESULT: -8.077722524      1.086      1.487
REMARK  11 active torsions:
REMARK  status: ('A' for Active; 'I' for Inactive)
REMARK    1  A    between atoms: C2_3  and  O4_35 
REMARK    2  A    between atoms: N2_4  and  N3_6 
REMARK    3  A    between atoms: C4_13  and  C5_14 
REMARK    4  A    between atoms: N6_15  and  N7_17 
REMARK    5  A    between atoms: C6_19  and  C7_20 
REMARK    6  A    between atoms: C11_26  and  O1_27 
REMARK    7  A    between atoms: O1_27  and  O2_28 
REMARK    8  A    between atoms: C12_30  and  O3_31 
REMARK    9  A    between atoms: O4_35  and  C13_36 
REMARK   10  A    between atoms: C13_36  and  C14_37 
REMARK   11  A    between atoms: C14_37  and  N10_38 
ROOT
HETATM    1  N1  UNL     1      29.099 135.341  18.251  1.00  0.00    -0.188 NA
HETATM    2  C1  UNL     1      28.102 134.779  18.452  1.00  0.00     0.145 C 
HETATM    3  C2  UNL     1      26.883 134.093  18.708  1.00  0.00     0.241 C 
HETATM    4  N2  UNL     1      26.735 132.863  18.344  1.00  0.00    -0.257 N 
ATOM      5  H2  UNL     1      25.858 132.378  18.531  1.00  0.00     0.190 HD
ENDROOT
BRANCH   3   6
HETATM    6  O4  UNL     1      25.797 134.689  19.352  1.00  0.00    -0.325 OA
BRANCH   6   7
HETATM    7  C13 UNL     1      25.392 135.961  18.885  1.00  0.00     0.205 C 
BRANCH   7   8
HETATM    8  C14 UNL     1      25.026 135.796  17.408  1.00  0.00     0.256 C 
BRANCH   8   9
HETATM    9  N10 UNL     1      23.684 136.215  17.145  1.00  0.00    -0.077 N 
ATOM     10 3H10 UNL     1      23.011 135.670  17.685  1.00  0.00     0.274 HD
ATOM     11 2H10 UNL     1      23.497 137.136  17.542  1.00  0.00     0.274 HD
ATOM     12 1H10 UNL     1      23.468 136.190  16.149  1.00  0.00     0.274 HD
ENDBRANCH   8   9
ENDBRANCH   7   8
ENDBRANCH   6   7
ENDBRANCH   3   6
BRANCH   4  13
HETATM   13  N3  UNL     1      27.772 132.202  17.697  1.00  0.00    -0.128 N 
HETATM   14  C3  UNL     1      27.731 130.930  17.575  1.00  0.00     0.713 A 
HETATM   15  N4  UNL     1      26.623 130.220  18.106  1.00  0.00    -0.130 N 
HETATM   16  N9  UNL     1      28.741 130.170  16.931  1.00  0.00    -0.166 N 
HETATM   17  N5  UNL     1      26.570 128.825  17.978  1.00  0.00    -0.281 N 
ATOM     18  H4  UNL     1      25.870 130.721  18.578  1.00  0.00     0.205 HD
HETATM   19  C4  UNL     1      27.598 128.095  17.328  1.00  0.00     0.116 A 
ATOM     20  H5  UNL     1      25.770 128.322  18.362  1.00  0.00     0.188 HD
HETATM   21  C12 UNL     1      28.631 128.760  16.833  1.00  0.00     0.185 A 
ATOM     22  H9  UNL     1      29.554 130.642  16.535  1.00  0.00     0.186 HD
ATOM     23  H3  UNL     1      28.561 132.727  17.321  1.00  0.00     0.205 HD
BRANCH  19  24
HETATM   24  C5  UNL     1      27.520 126.621  17.204  1.00  0.00     0.142 C 
HETATM   25  N6  UNL     1      26.917 125.973  18.136  1.00  0.00    -0.310 N 
ATOM     26  H6  UNL     1      26.510 126.466  18.930  1.00  0.00     0.186 HD
BRANCH  25  27
HETATM   27  N7  UNL     1      26.830 124.587  18.043  1.00  0.00    -0.311 N 
HETATM   28  C6  UNL     1      27.326 124.003  17.018  1.00  0.00     0.122 C 
ATOM     29  H7  UNL     1      26.377 124.045  18.780  1.00  0.00     0.186 HD
BRANCH  28  30
HETATM   30  C7  UNL     1      27.244 122.560  16.905  1.00  0.00     0.035 A 
HETATM   31  C8  UNL     1      26.768 121.940  15.747  1.00  0.00     0.018 A 
HETATM   32  C9  UNL     1      26.680 120.567  15.648  1.00  0.00     0.018 A 
HETATM   33  C10 UNL     1      27.076 119.799  16.723  1.00  0.00     0.090 A 
HETATM   34  N8  UNL     1      27.536 120.382  17.841  1.00  0.00    -0.344 N 
HETATM   35  C11 UNL     1      27.623 121.745  17.939  1.00  0.00     0.189 A 
ATOM     36  H8  UNL     1      27.826 119.802  18.628  1.00  0.00     0.167 HD
BRANCH  35  37
HETATM   37  O1  UNL     1      28.108 122.295  19.121  1.00  0.00    -0.181 OA
BRANCH  37  38
HETATM   38  O2  UNL     1      27.307 122.119  20.207  1.00  0.00    -0.243 OA
ATOM     39  H2  UNL     1      27.375 121.266  20.620  1.00  0.00     0.254 HD
ENDBRANCH  37  38
ENDBRANCH  35  37
ENDBRANCH  28  30
ENDBRANCH  25  27
ENDBRANCH  19  24
BRANCH  21  40
HETATM   40  O3  UNL     1      29.637 128.018  16.192  1.00  0.00    -0.344 OA
ATOM     41  H3  UNL     1      30.458 128.458  16.005  1.00  0.00     0.219 HD
ENDBRANCH  21  40
ENDBRANCH   4  13
TORSDOF 11
ENDMDL
MODEL 5
REMARK VINA RESULT: -8.008609809      1.904      2.133
REMARK  11 active torsions:
REMARK  status: ('A' for Active; 'I' for Inactive)
REMARK    1  A    between atoms: C2_3  and  O4_35 
REMARK    2  A    between atoms: N2_4  and  N3_6 
REMARK    3  A    between atoms: C4_13  and  C5_14 
REMARK    4  A    between atoms: N6_15  and  N7_17 
REMARK    5  A    between atoms: C6_19  and  C7_20 
REMARK    6  A    between atoms: C11_26  and  O1_27 
REMARK    7  A    between atoms: O1_27  and  O2_28 
REMARK    8  A    between atoms: C12_30  and  O3_31 
REMARK    9  A    between atoms: O4_35  and  C13_36 
REMARK   10  A    between atoms: C13_36  and  C14_37 
REMARK   11  A    between atoms: C14_37  and  N10_38 
ROOT
HETATM    1  N1  UNL     1      26.707 136.443  16.263  1.00  0.00    -0.188 NA
HETATM    2  C1  UNL     1      26.242 135.886  17.171  1.00  0.00     0.145 C 
HETATM    3  C2  UNL     1      25.680 135.204  18.285  1.00  0.00     0.241 C 
HETATM    4  N2  UNL     1      25.226 134.003  18.158  1.00  0.00    -0.257 N 
ATOM      5  H2  UNL     1      24.825 133.521  18.962  1.00  0.00     0.190 HD
ENDROOT
BRANCH   3   6
HETATM    6  O4  UNL     1      25.588 135.776  19.556  1.00  0.00    -0.325 OA
BRANCH   6   7
HETATM    7  C13 UNL     1      26.160 135.052  20.629  1.00  0.00     0.205 C 
BRANCH   7   8
HETATM    8  C14 UNL     1      25.159 133.960  21.012  1.00  0.00     0.256 C 
BRANCH   8   9
HETATM    9  N10 UNL     1      25.582 133.236  22.171  1.00  0.00    -0.077 N 
ATOM     10 3H10 UNL     1      25.521 133.811  23.012  1.00  0.00     0.274 HD
ATOM     11 2H10 UNL     1      24.910 132.511  22.423  1.00  0.00     0.274 HD
ATOM     12 1H10 UNL     1      26.519 132.849  22.053  1.00  0.00     0.274 HD
ENDBRANCH   8   9
ENDBRANCH   7   8
ENDBRANCH   6   7
ENDBRANCH   3   6
BRANCH   4  13
HETATM   13  N3  UNL     1      25.284 133.367  16.923  1.00  0.00    -0.128 N 
HETATM   14  C3  UNL     1      25.514 132.111  16.870  1.00  0.00     0.713 A 
HETATM   15  N4  UNL     1      25.706 131.391  18.078  1.00  0.00    -0.130 N 
HETATM   16  N9  UNL     1      25.590 131.377  15.658  1.00  0.00    -0.166 N 
HETATM   17  N5  UNL     1      25.958 130.014  18.029  1.00  0.00    -0.281 N 
ATOM     18  H4  UNL     1      25.659 131.873  18.976  1.00  0.00     0.205 HD
HETATM   19  C4  UNL     1      26.029 129.310  16.800  1.00  0.00     0.116 A 
ATOM     20  H5  UNL     1      26.095 129.503  18.902  1.00  0.00     0.188 HD
HETATM   21  C12 UNL     1      25.849 129.983  15.674  1.00  0.00     0.185 A 
ATOM     22  H9  UNL     1      25.457 131.857  14.767  1.00  0.00     0.186 HD
ATOM     23  H3  UNL     1      25.144 133.899  16.064  1.00  0.00     0.205 HD
BRANCH  19  24
HETATM   24  C5  UNL     1      26.297 127.854  16.773  1.00  0.00     0.142 C 
HETATM   25  N6  UNL     1      27.337 127.425  17.395  1.00  0.00    -0.310 N 
ATOM     26  H6  UNL     1      27.951 128.073  17.886  1.00  0.00     0.186 HD
BRANCH  25  27
HETATM   27  N7  UNL     1      27.611 126.060  17.385  1.00  0.00    -0.311 N 
HETATM   28  C6  UNL     1      26.704 125.244  17.773  1.00  0.00     0.122 C 
ATOM     29  H7  UNL     1      28.519 125.716  17.075  1.00  0.00     0.186 HD
BRANCH  28  30
HETATM   30  C7  UNL     1      26.973 123.820  17.769  1.00  0.00     0.035 A 
HETATM   31  C8  UNL     1      26.555 122.997  16.720  1.00  0.00     0.018 A 
HETATM   32  C9  UNL     1      26.802 121.640  16.725  1.00  0.00     0.018 A 
HETATM   33  C10 UNL     1      27.479 121.094  17.797  1.00  0.00     0.090 A 
HETATM   34  N8  UNL     1      27.886 121.874  18.810  1.00  0.00    -0.344 N 
HETATM   35  C11 UNL     1      27.640 123.221  18.805  1.00  0.00     0.189 A 
ATOM     36  H8  UNL     1      28.386 121.457  19.596  1.00  0.00     0.167 HD
BRANCH  35  37
HETATM   37  O1  UNL     1      28.086 123.981  19.881  1.00  0.00    -0.181 OA
BRANCH  37  38
HETATM   38  O2  UNL     1      28.290 123.282  21.032  1.00  0.00    -0.243 OA
ATOM     39  H2  UNL     1      28.427 123.816  21.805  1.00  0.00     0.254 HD
ENDBRANCH  37  38
ENDBRANCH  35  37
ENDBRANCH  28  30
ENDBRANCH  25  27
ENDBRANCH  19  24
BRANCH  21  40
HETATM   40  O3  UNL     1      25.922 129.268  14.467  1.00  0.00    -0.344 OA
ATOM     41  H3  UNL     1      25.397 128.479  14.389  1.00  0.00     0.219 HD
ENDBRANCH  21  40
ENDBRANCH   4  13
TORSDOF 11
ENDMDL
