MODEL 1
REMARK VINA RESULT: -8.788704671      0.000      0.000
REMARK  8 active torsions:
REMARK  status: ('A' for Active; 'I' for Inactive)
REMARK    1  A    between atoms: O1_2  and  N1_3 
REMARK    2  A    between atoms: C2_5  and  C3_6 
REMARK    3  A    between atoms: C2_5  and  C8_20 
REMARK    4  A    between atoms: C3_6  and  C4_7 
REMARK    5  A    between atoms: C6_14  and  N4_15 
REMARK       I    between atoms: C8_20  and  N6_22 
REMARK    6  A    between atoms: N6_22  and  N7_24 
REMARK    7  A    between atoms: C9_26  and  C10_27 
REMARK    8  A    between atoms: C13_30  and  N8_31 
ROOT
HETATM    1  N1  UNL     1      27.216 130.721  18.014  1.00  0.00    -0.266 N 
ATOM      2  H1  UNL     1      27.416 131.419  18.730  1.00  0.00     0.194 HD
HETATM    3  C2  UNL     1      26.281 130.972  17.175  1.00  0.00     0.106 C 
ENDROOT
BRANCH   3   4
HETATM    4  C3  UNL     1      25.521 132.228  17.244  1.00  0.00     0.124 C 
BRANCH   4   5
HETATM    5  C4  UNL     1      25.911 133.078  18.389  1.00  0.00     0.047 A 
HETATM    6  N2  UNL     1      25.391 132.929  19.619  1.00  0.00    -0.310 N 
HETATM    7  C5  UNL     1      25.732 133.686  20.660  1.00  0.00     0.326 A 
ATOM      8  H2  UNL     1      24.697 132.196  19.763  1.00  0.00     0.170 HD
HETATM    9  O2  UNL     1      25.187 133.473  21.793  1.00  0.00    -0.247 OA
HETATM   10  N3  UNL     1      26.648 134.657  20.484  1.00  0.00    -0.293 N 
HETATM   11  C6  UNL     1      27.221 134.880  19.295  1.00  0.00     0.129 A 
ATOM     12  H3  UNL     1      26.913 135.238  21.278  1.00  0.00     0.172 HD
HETATM   13  C7  UNL     1      26.852 134.083  18.226  1.00  0.00     0.113 A 
HETATM   14  N5  UNL     1      27.474 134.342  16.983  1.00  0.00    -0.096 NA
BRANCH  11  15
HETATM   15  N4  UNL     1      28.099 135.825  19.164  1.00  0.00    -0.384 N 
ATOM     16  H42 UNL     1      29.065 135.699  19.466  1.00  0.00     0.157 HD
ATOM     17  H41 UNL     1      27.831 136.718  18.753  1.00  0.00     0.157 HD
ENDBRANCH  11  15
ENDBRANCH   4   5
ENDBRANCH   3   4
BRANCH   3  18
HETATM   18  C8  UNL     1      25.972 130.000  16.147  1.00  0.00     0.284 C 
HETATM   19  O3  UNL     1      26.309 130.242  14.938  1.00  0.00    -0.265 OA
HETATM   20  N6  UNL     1      25.300 128.774  16.426  1.00  0.00    -0.265 N 
ATOM     21  H6  UNL     1      25.019 128.553  17.382  1.00  0.00     0.190 HD
BRANCH  20  22
HETATM   22  N7  UNL     1      25.035 127.895  15.417  1.00  0.00    -0.306 N 
HETATM   23  C9  UNL     1      25.466 126.729  15.209  1.00  0.00     0.144 C 
ATOM     24  H7  UNL     1      24.380 128.238  14.715  1.00  0.00     0.186 HD
BRANCH  23  25
HETATM   25  C10 UNL     1      26.420 126.074  16.119  1.00  0.00     0.095 A 
HETATM   26  C11 UNL     1      26.542 124.704  16.316  1.00  0.00     0.043 A 
HETATM   27  C12 UNL     1      27.545 124.556  17.240  1.00  0.00     0.065 A 
HETATM   28  C13 UNL     1      27.992 125.838  17.567  1.00  0.00     0.215 A 
HETATM   29  O6  UNL     1      27.288 126.696  16.871  1.00  0.00    -0.287 OA
BRANCH  28  30
HETATM   30  N8  UNL     1      29.026 126.128  18.491  1.00  0.00    -0.090 N 
HETATM   31  O4  UNL     1      28.812 126.031  19.697  1.00  0.00    -0.530 OA
HETATM   32  O5  UNL     1      30.244 126.512  18.029  1.00  0.00    -0.530 OA
ENDBRANCH  28  30
ENDBRANCH  23  25
ENDBRANCH  20  22
ENDBRANCH   3  18
BRANCH   1  33
HETATM   33  O1  UNL     1      27.958 129.581  18.009  1.00  0.00    -0.285 OA
HETATM   34  C1  UNL     1      29.202 129.585  17.341  1.00  0.00     0.237 C 
ENDBRANCH   1  33
TORSDOF 8
ENDMDL
MODEL 2
REMARK VINA RESULT: -8.646021248      1.455      2.237
REMARK  8 active torsions:
REMARK  status: ('A' for Active; 'I' for Inactive)
REMARK    1  A    between atoms: O1_2  and  N1_3 
REMARK    2  A    between atoms: C2_5  and  C3_6 
REMARK    3  A    between atoms: C2_5  and  C8_20 
REMARK    4  A    between atoms: C3_6  and  C4_7 
REMARK    5  A    between atoms: C6_14  and  N4_15 
REMARK       I    between atoms: C8_20  and  N6_22 
REMARK    6  A    between atoms: N6_22  and  N7_24 
REMARK    7  A    between atoms: C9_26  and  C10_27 
REMARK    8  A    between atoms: C13_30  and  N8_31 
ROOT
HETATM    1  N1  UNL     1      25.068 132.201  16.527  1.00  0.00    -0.266 N 
ATOM      2  H1  UNL     1      25.201 133.081  17.024  1.00  0.00     0.194 HD
HETATM    3  C2  UNL     1      25.955 131.287  16.673  1.00  0.00     0.106 C 
ENDROOT
BRANCH   3   4
HETATM    4  C3  UNL     1      27.127 131.505  17.532  1.00  0.00     0.124 C 
BRANCH   4   5
HETATM    5  C4  UNL     1      26.983 132.675  18.424  1.00  0.00     0.047 A 
HETATM    6  N2  UNL     1      26.013 132.771  19.349  1.00  0.00    -0.310 N 
HETATM    7  C5  UNL     1      25.870 133.818  20.161  1.00  0.00     0.326 A 
ATOM      8  H2  UNL     1      25.349 132.002  19.434  1.00  0.00     0.170 HD
HETATM    9  O2  UNL     1      24.919 133.824  21.010  1.00  0.00    -0.247 OA
HETATM   10  N3  UNL     1      26.739 134.840  20.060  1.00  0.00    -0.293 N 
HETATM   11  C6  UNL     1      27.738 134.833  19.169  1.00  0.00     0.129 A 
ATOM     12  H3  UNL     1      26.634 135.643  20.680  1.00  0.00     0.172 HD
HETATM   13  C7  UNL     1      27.868 133.737  18.334  1.00  0.00     0.113 A 
HETATM   14  N5  UNL     1      28.932 133.757  17.404  1.00  0.00    -0.096 NA
BRANCH  11  15
HETATM   15  N4  UNL     1      28.555 135.837  19.101  1.00  0.00    -0.384 N 
ATOM     16  H42 UNL     1      29.534 135.746  19.373  1.00  0.00     0.157 HD
ATOM     17  H41 UNL     1      28.225 136.743  18.772  1.00  0.00     0.157 HD
ENDBRANCH  11  15
ENDBRANCH   4   5
ENDBRANCH   3   4
BRANCH   3  18
HETATM   18  C8  UNL     1      25.795 130.027  15.979  1.00  0.00     0.284 C 
HETATM   19  O3  UNL     1      26.113 129.952  14.742  1.00  0.00    -0.265 OA
HETATM   20  N6  UNL     1      25.295 128.855  16.617  1.00  0.00    -0.265 N 
ATOM     21  H6  UNL     1      25.033 128.885  17.603  1.00  0.00     0.190 HD
BRANCH  20  22
HETATM   22  N7  UNL     1      25.166 127.695  15.912  1.00  0.00    -0.306 N 
HETATM   23  C9  UNL     1      25.901 126.672  15.872  1.00  0.00     0.144 C 
ATOM     24  H7  UNL     1      24.337 127.647  15.319  1.00  0.00     0.186 HD
BRANCH  23  25
HETATM   25  C10 UNL     1      27.137 126.567  16.664  1.00  0.00     0.095 A 
HETATM   26  C11 UNL     1      27.412 125.588  17.612  1.00  0.00     0.043 A 
HETATM   27  C12 UNL     1      28.663 125.884  18.089  1.00  0.00     0.065 A 
HETATM   28  C13 UNL     1      29.099 127.027  17.415  1.00  0.00     0.215 A 
HETATM   29  O6  UNL     1      28.152 127.385  16.584  1.00  0.00    -0.287 OA
BRANCH  28  30
HETATM   30  N8  UNL     1      30.349 127.663  17.616  1.00  0.00    -0.090 N 
HETATM   31  O4  UNL     1      30.570 128.752  17.092  1.00  0.00    -0.530 OA
HETATM   32  O5  UNL     1      31.288 127.057  18.387  1.00  0.00    -0.530 OA
ENDBRANCH  28  30
ENDBRANCH  23  25
ENDBRANCH  20  22
ENDBRANCH   3  18
BRANCH   1  33
HETATM   33  O1  UNL     1      23.960 132.068  15.749  1.00  0.00    -0.285 OA
HETATM   34  C1  UNL     1      23.487 133.197  15.044  1.00  0.00     0.237 C 
ENDBRANCH   1  33
TORSDOF 8
ENDMDL
MODEL 3
REMARK VINA RESULT: -8.640121859      1.949      2.925
REMARK  8 active torsions:
REMARK  status: ('A' for Active; 'I' for Inactive)
REMARK    1  A    between atoms: O1_2  and  N1_3 
REMARK    2  A    between atoms: C2_5  and  C3_6 
REMARK    3  A    between atoms: C2_5  and  C8_20 
REMARK    4  A    between atoms: C3_6  and  C4_7 
REMARK    5  A    between atoms: C6_14  and  N4_15 
REMARK       I    between atoms: C8_20  and  N6_22 
REMARK    6  A    between atoms: N6_22  and  N7_24 
REMARK    7  A    between atoms: C9_26  and  C10_27 
REMARK    8  A    between atoms: C13_30  and  N8_31 
ROOT
HETATM    1  N1  UNL     1      27.113 133.267  15.339  1.00  0.00    -0.266 N 
ATOM      2  H1  UNL     1      27.566 134.107  15.699  1.00  0.00     0.194 HD
HETATM    3  C2  UNL     1      27.250 132.178  16.000  1.00  0.00     0.106 C 
ENDROOT
BRANCH   3   4
HETATM    4  C3  UNL     1      28.036 132.143  17.241  1.00  0.00     0.124 C 
BRANCH   4   5
HETATM    5  C4  UNL     1      27.661 133.209  18.195  1.00  0.00     0.047 A 
HETATM    6  N2  UNL     1      28.463 134.249  18.478  1.00  0.00    -0.310 N 
HETATM    7  C5  UNL     1      28.141 135.217  19.333  1.00  0.00     0.326 A 
ATOM      8  H2  UNL     1      29.369 134.300  18.012  1.00  0.00     0.170 HD
HETATM    9  O2  UNL     1      28.965 136.168  19.541  1.00  0.00    -0.247 OA
HETATM   10  N3  UNL     1      26.948 135.163  19.954  1.00  0.00    -0.293 N 
HETATM   11  C6  UNL     1      26.083 134.165  19.736  1.00  0.00     0.129 A 
ATOM     12  H3  UNL     1      26.696 135.902  20.609  1.00  0.00     0.172 HD
HETATM   13  C7  UNL     1      26.438 133.169  18.844  1.00  0.00     0.113 A 
HETATM   14  N5  UNL     1      25.504 132.128  18.633  1.00  0.00    -0.096 NA
BRANCH  11  15
HETATM   15  N4  UNL     1      24.943 134.147  20.353  1.00  0.00    -0.384 N 
ATOM     16  H42 UNL     1      24.774 134.724  21.177  1.00  0.00     0.157 HD
ATOM     17  H41 UNL     1      24.190 133.547  20.018  1.00  0.00     0.157 HD
ENDBRANCH  11  15
ENDBRANCH   4   5
ENDBRANCH   3   4
BRANCH   3  18
HETATM   18  C8  UNL     1      26.621 130.969  15.512  1.00  0.00     0.284 C 
HETATM   19  O3  UNL     1      26.902 130.551  14.336  1.00  0.00    -0.265 OA
HETATM   20  N6  UNL     1      25.693 130.217  16.290  1.00  0.00    -0.265 N 
ATOM     21  H6  UNL     1      25.449 130.526  17.232  1.00  0.00     0.190 HD
BRANCH  20  22
HETATM   22  N7  UNL     1      25.131 129.085  15.777  1.00  0.00    -0.306 N 
HETATM   23  C9  UNL     1      25.480 127.877  15.878  1.00  0.00     0.144 C 
ATOM     24  H7  UNL     1      24.291 129.240  15.221  1.00  0.00     0.186 HD
BRANCH  23  25
HETATM   25  C10 UNL     1      26.669 127.468  16.642  1.00  0.00     0.095 A 
HETATM   26  C11 UNL     1      26.706 126.471  17.611  1.00  0.00     0.043 A 
HETATM   27  C12 UNL     1      28.005 126.438  18.049  1.00  0.00     0.065 A 
HETATM   28  C13 UNL     1      28.704 127.411  17.333  1.00  0.00     0.215 A 
HETATM   29  O6  UNL     1      27.859 127.988  16.515  1.00  0.00    -0.287 OA
BRANCH  28  30
HETATM   30  N8  UNL     1      30.082 127.701  17.486  1.00  0.00    -0.090 N 
HETATM   31  O4  UNL     1      30.527 128.777  17.093  1.00  0.00    -0.530 OA
HETATM   32  O5  UNL     1      30.896 126.781  18.066  1.00  0.00    -0.530 OA
ENDBRANCH  28  30
ENDBRANCH  23  25
ENDBRANCH  20  22
ENDBRANCH   3  18
BRANCH   1  33
HETATM   33  O1  UNL     1      26.401 133.372  14.184  1.00  0.00    -0.285 OA
HETATM   34  C1  UNL     1      25.243 134.180  14.172  1.00  0.00     0.237 C 
ENDBRANCH   1  33
TORSDOF 8
ENDMDL
MODEL 4
REMARK VINA RESULT: -8.599805110      2.048      3.095
REMARK  8 active torsions:
REMARK  status: ('A' for Active; 'I' for Inactive)
REMARK    1  A    between atoms: O1_2  and  N1_3 
REMARK    2  A    between atoms: C2_5  and  C3_6 
REMARK    3  A    between atoms: C2_5  and  C8_20 
REMARK    4  A    between atoms: C3_6  and  C4_7 
REMARK    5  A    between atoms: C6_14  and  N4_15 
REMARK       I    between atoms: C8_20  and  N6_22 
REMARK    6  A    between atoms: N6_22  and  N7_24 
REMARK    7  A    between atoms: C9_26  and  C10_27 
REMARK    8  A    between atoms: C13_30  and  N8_31 
ROOT
HETATM    1  N1  UNL     1      25.257 130.690  16.285  1.00  0.00    -0.266 N 
ATOM      2  H1  UNL     1      24.306 131.053  16.355  1.00  0.00     0.194 HD
HETATM    3  C2  UNL     1      26.111 131.069  17.161  1.00  0.00     0.106 C 
ENDROOT
BRANCH   3   4
HETATM    4  C3  UNL     1      25.730 131.998  18.234  1.00  0.00     0.124 C 
BRANCH   4   5
HETATM    5  C4  UNL     1      26.339 133.337  18.084  1.00  0.00     0.047 A 
HETATM    6  N2  UNL     1      27.310 133.791  18.894  1.00  0.00    -0.310 N 
HETATM    7  C5  UNL     1      27.870 134.994  18.772  1.00  0.00     0.326 A 
ATOM      8  H2  UNL     1      27.637 133.183  19.644  1.00  0.00     0.170 HD
HETATM    9  O2  UNL     1      28.786 135.343  19.587  1.00  0.00    -0.247 OA
HETATM   10  N3  UNL     1      27.448 135.808  17.786  1.00  0.00    -0.293 N 
HETATM   11  C6  UNL     1      26.486 135.441  16.931  1.00  0.00     0.129 A 
ATOM     12  H3  UNL     1      27.874 136.729  17.688  1.00  0.00     0.172 HD
HETATM   13  C7  UNL     1      25.918 134.188  17.075  1.00  0.00     0.113 A 
HETATM   14  N5  UNL     1      24.904 133.829  16.157  1.00  0.00    -0.096 NA
BRANCH  11  15
HETATM   15  N4  UNL     1      26.107 136.254  15.993  1.00  0.00    -0.384 N 
ATOM     16  H42 UNL     1      25.512 137.057  16.193  1.00  0.00     0.157 HD
ATOM     17  H41 UNL     1      26.404 136.097  15.031  1.00  0.00     0.157 HD
ENDBRANCH  11  15
ENDBRANCH   4   5
ENDBRANCH   3   4
BRANCH   3  18
HETATM   18  C8  UNL     1      27.469 130.573  17.087  1.00  0.00     0.284 C 
HETATM   19  O3  UNL     1      28.429 131.404  16.928  1.00  0.00    -0.265 OA
HETATM   20  N6  UNL     1      27.789 129.188  17.185  1.00  0.00    -0.265 N 
ATOM     21  H6  UNL     1      27.044 128.501  17.313  1.00  0.00     0.190 HD
BRANCH  20  22
HETATM   22  N7  UNL     1      29.088 128.779  17.108  1.00  0.00    -0.306 N 
HETATM   23  C9  UNL     1      29.627 127.691  17.446  1.00  0.00     0.144 C 
ATOM     24  H7  UNL     1      29.728 129.466  16.712  1.00  0.00     0.186 HD
BRANCH  23  25
HETATM   25  C10 UNL     1      28.855 126.585  18.036  1.00  0.00     0.095 A 
HETATM   26  C11 UNL     1      27.892 125.829  17.379  1.00  0.00     0.043 A 
HETATM   27  C12 UNL     1      27.443 124.925  18.307  1.00  0.00     0.065 A 
HETATM   28  C13 UNL     1      28.149 125.166  19.488  1.00  0.00     0.215 A 
HETATM   29  O6  UNL     1      28.971 126.161  19.266  1.00  0.00    -0.287 OA
BRANCH  28  30
HETATM   30  N8  UNL     1      27.984 124.445  20.697  1.00  0.00    -0.090 N 
HETATM   31  O4  UNL     1      28.168 125.007  21.773  1.00  0.00    -0.530 OA
HETATM   32  O5  UNL     1      27.623 123.136  20.648  1.00  0.00    -0.530 OA
ENDBRANCH  28  30
ENDBRANCH  23  25
ENDBRANCH  20  22
ENDBRANCH   3  18
BRANCH   1  33
HETATM   33  O1  UNL     1      25.540 129.834  15.266  1.00  0.00    -0.285 OA
HETATM   34  C1  UNL     1      24.486 129.092  14.691  1.00  0.00     0.237 C 
ENDBRANCH   1  33
TORSDOF 8
ENDMDL
MODEL 5
REMARK VINA RESULT: -8.536625252      1.518      2.612
REMARK  8 active torsions:
REMARK  status: ('A' for Active; 'I' for Inactive)
REMARK    1  A    between atoms: O1_2  and  N1_3 
REMARK    2  A    between atoms: C2_5  and  C3_6 
REMARK    3  A    between atoms: C2_5  and  C8_20 
REMARK    4  A    between atoms: C3_6  and  C4_7 
REMARK    5  A    between atoms: C6_14  and  N4_15 
REMARK       I    between atoms: C8_20  and  N6_22 
REMARK    6  A    between atoms: N6_22  and  N7_24 
REMARK    7  A    between atoms: C9_26  and  C10_27 
REMARK    8  A    between atoms: C13_30  and  N8_31 
ROOT
HETATM    1  N1  UNL     1      25.353 129.675  16.672  1.00  0.00    -0.266 N 
ATOM      2  H1  UNL     1      24.416 129.972  16.402  1.00  0.00     0.194 HD
HETATM    3  C2  UNL     1      26.254 130.576  16.806  1.00  0.00     0.106 C 
ENDROOT
BRANCH   3   4
HETATM    4  C3  UNL     1      25.943 131.994  16.578  1.00  0.00     0.124 C 
BRANCH   4   5
HETATM    5  C4  UNL     1      26.239 132.847  17.748  1.00  0.00     0.047 A 
HETATM    6  N2  UNL     1      25.585 132.735  18.917  1.00  0.00    -0.310 N 
HETATM    7  C5  UNL     1      25.839 133.495  19.980  1.00  0.00     0.326 A 
ATOM      8  H2  UNL     1      24.853 132.029  18.993  1.00  0.00     0.170 HD
HETATM    9  O2  UNL     1      25.168 133.319  21.049  1.00  0.00    -0.247 OA
HETATM   10  N3  UNL     1      26.803 134.430  19.893  1.00  0.00    -0.293 N 
HETATM   11  C6  UNL     1      27.508 134.615  18.770  1.00  0.00     0.129 A 
ATOM     12  H3  UNL     1      27.002 135.014  20.704  1.00  0.00     0.172 HD
HETATM   13  C7  UNL     1      27.227 133.815  17.677  1.00  0.00     0.113 A 
HETATM   14  N5  UNL     1      27.988 134.034  16.505  1.00  0.00    -0.096 NA
BRANCH  11  15
HETATM   15  N4  UNL     1      28.429 135.527  18.725  1.00  0.00    -0.384 N 
ATOM     16  H42 UNL     1      29.280 135.453  19.281  1.00  0.00     0.157 HD
ATOM     17  H41 UNL     1      28.312 136.342  18.123  1.00  0.00     0.157 HD
ENDBRANCH  11  15
ENDBRANCH   4   5
ENDBRANCH   3   4
BRANCH   3  18
HETATM   18  C8  UNL     1      27.595 130.185  17.186  1.00  0.00     0.284 C 
HETATM   19  O3  UNL     1      28.066 130.581  18.308  1.00  0.00    -0.265 OA
HETATM   20  N6  UNL     1      28.423 129.371  16.359  1.00  0.00    -0.265 N 
ATOM     21  H6  UNL     1      28.074 129.040  15.458  1.00  0.00     0.190 HD
BRANCH  20  22
HETATM   22  N7  UNL     1      29.679 129.035  16.769  1.00  0.00    -0.306 N 
HETATM   23  C9  UNL     1      30.100 128.010  17.371  1.00  0.00     0.144 C 
ATOM     24  H7  UNL     1      30.397 129.726  16.553  1.00  0.00     0.186 HD
BRANCH  23  25
HETATM   25  C10 UNL     1      29.203 126.911  17.762  1.00  0.00     0.095 A 
HETATM   26  C11 UNL     1      28.280 126.284  16.933  1.00  0.00     0.043 A 
HETATM   27  C12 UNL     1      27.677 125.331  17.714  1.00  0.00     0.065 A 
HETATM   28  C13 UNL     1      28.254 125.416  18.982  1.00  0.00     0.215 A 
HETATM   29  O6  UNL     1      29.152 126.370  18.949  1.00  0.00    -0.287 OA
BRANCH  28  30
HETATM   30  N8  UNL     1      27.910 124.601  20.089  1.00  0.00    -0.090 N 
HETATM   31  O4  UNL     1      28.306 124.900  21.213  1.00  0.00    -0.530 OA
HETATM   32  O5  UNL     1      27.146 123.496  19.891  1.00  0.00    -0.530 OA
ENDBRANCH  28  30
ENDBRANCH  23  25
ENDBRANCH  20  22
ENDBRANCH   3  18
BRANCH   1  33
HETATM   33  O1  UNL     1      25.570 128.346  16.866  1.00  0.00    -0.285 OA
HETATM   34  C1  UNL     1      25.221 127.444  15.838  1.00  0.00     0.237 C 
ENDBRANCH   1  33
TORSDOF 8
ENDMDL
