MODEL 1
REMARK VINA RESULT: -7.502272305      0.000      0.000
REMARK  8 active torsions:
REMARK  status: ('A' for Active; 'I' for Inactive)
REMARK    1  A    between atoms: C2_2  and  O1_3 
REMARK    2  A    between atoms: O1_3  and  N1_4 
REMARK    3  A    between atoms: C6_9  and  C7_10 
REMARK    4  A    between atoms: C8_13  and  C9_14 
REMARK    5  A    between atoms: C12_17  and  N2_18 
REMARK       I    between atoms: N2_18  and  C13_20 
REMARK       I    between atoms: C13_20  and  N3_22 
REMARK    6  A    between atoms: C17_28  and  C18_29 
REMARK    7  A    between atoms: C18_29  and  O4_31 
REMARK    8  A    between atoms: O4_31  and  C19_32 
ROOT
HETATM    1  N1  UNL     1     -40.090 -15.297 378.422  1.00  0.00    -0.274 N 
ATOM      2  H1  UNL     1     -39.931 -15.930 377.639  1.00  0.00     0.193 HD
HETATM    3  C3  UNL     1     -39.061 -14.712 378.885  1.00  0.00     0.030 C 
HETATM    4  C4  UNL     1     -39.050 -13.776 379.991  1.00  0.00     0.046 C 
HETATM    5  C5  UNL     1     -40.358 -13.641 380.729  1.00  0.00     0.017 C 
HETATM    6  C6  UNL     1     -38.552 -12.406 379.608  1.00  0.00     0.085 C 
HETATM    7  S1  UNL     1     -37.760 -12.329 378.027  1.00  0.00    -0.150 SA
HETATM    8  C8  UNL     1     -37.584 -13.956 377.189  1.00  0.00     0.103 C 
HETATM    9  C17 UNL     1     -37.736 -15.014 378.220  1.00  0.00     0.151 C 
ENDROOT
BRANCH   8  10
HETATM   10  C9  UNL     1     -36.368 -13.952 376.395  1.00  0.00    -0.004 A 
HETATM   11  C10 UNL     1     -35.124 -14.014 376.946  1.00  0.00     0.013 A 
HETATM   12  C11 UNL     1     -34.008 -13.992 376.152  1.00  0.00     0.030 A 
HETATM   13  C12 UNL     1     -34.068 -13.908 374.754  1.00  0.00     0.039 A 
HETATM   14  C15 UNL     1     -35.329 -13.848 374.219  1.00  0.00     0.072 A 
HETATM   15  C16 UNL     1     -36.464 -13.870 375.028  1.00  0.00     0.126 A 
HETATM   16  F2  UNL     1     -37.675 -13.805 374.404  1.00  0.00    -0.205 F 
BRANCH  13  17
HETATM   17  N2  UNL     1     -32.869 -13.899 374.005  1.00  0.00    -0.309 N 
HETATM   18  C13 UNL     1     -32.383 -12.905 373.150  1.00  0.00     0.320 C 
HETATM   19  O2  UNL     1     -32.943 -11.810 372.894  1.00  0.00    -0.247 OA
HETATM   20  N3  UNL     1     -31.120 -13.075 372.453  1.00  0.00    -0.347 N 
HETATM   21  C14 UNL     1     -30.584 -12.079 371.566  1.00  0.00     0.151 C 
ATOM     22  H3  UNL     1     -30.593 -13.936 372.598  1.00  0.00     0.163 HD
ATOM     23  H2  UNL     1     -32.280 -14.726 374.101  1.00  0.00     0.170 HD
ENDBRANCH  13  17
ENDBRANCH   8  10
BRANCH   9  24
HETATM   24  C18 UNL     1     -37.821 -16.383 377.646  1.00  0.00     0.270 C 
HETATM   25  O3  UNL     1     -37.757 -17.355 378.431  1.00  0.00    -0.264 OA
BRANCH  24  26
HETATM   26  O4  UNL     1     -37.965 -16.644 376.305  1.00  0.00    -0.321 OA
BRANCH  26  27
HETATM   27  C19 UNL     1     -39.161 -17.226 375.806  1.00  0.00     0.174 C 
HETATM   28  C20 UNL     1     -39.957 -16.283 374.953  1.00  0.00     0.034 C 
ENDBRANCH  26  27
ENDBRANCH  24  26
ENDBRANCH   9  24
BRANCH   6  29
HETATM   29  C7  UNL     1     -37.628 -11.846 380.669  1.00  0.00     0.237 C 
HETATM   30  F1  UNL     1     -37.047 -12.828 381.439  1.00  0.00    -0.254 F 
ENDBRANCH   6  29
BRANCH   1  31
HETATM   31  O1  UNL     1     -41.364 -15.181 378.845  1.00  0.00    -0.281 OA
BRANCH  31  32
HETATM   32  C2  UNL     1     -42.327 -16.216 378.783  1.00  0.00     0.196 C 
HETATM   33  C1  UNL     1     -41.637 -17.548 378.648  1.00  0.00     0.036 C 
ENDBRANCH  31  32
ENDBRANCH   1  31
TORSDOF 8
ENDMDL
MODEL 2
REMARK VINA RESULT: -7.433375824      2.921      8.211
REMARK  8 active torsions:
REMARK  status: ('A' for Active; 'I' for Inactive)
REMARK    1  A    between atoms: C2_2  and  O1_3 
REMARK    2  A    between atoms: O1_3  and  N1_4 
REMARK    3  A    between atoms: C6_9  and  C7_10 
REMARK    4  A    between atoms: C8_13  and  C9_14 
REMARK    5  A    between atoms: C12_17  and  N2_18 
REMARK       I    between atoms: N2_18  and  C13_20 
REMARK       I    between atoms: C13_20  and  N3_22 
REMARK    6  A    between atoms: C17_28  and  C18_29 
REMARK    7  A    between atoms: C18_29  and  O4_31 
REMARK    8  A    between atoms: O4_31  and  C19_32 
ROOT
HETATM    1  N1  UNL     1     -36.800 -14.203 375.975  1.00  0.00    -0.274 N 
ATOM      2  H1  UNL     1     -37.215 -14.997 375.487  1.00  0.00     0.193 HD
HETATM    3  C3  UNL     1     -37.568 -13.564 376.759  1.00  0.00     0.030 C 
HETATM    4  C4  UNL     1     -37.194 -12.408 377.549  1.00  0.00     0.046 C 
HETATM    5  C5  UNL     1     -35.821 -11.854 377.263  1.00  0.00     0.017 C 
HETATM    6  C6  UNL     1     -37.342 -12.628 379.033  1.00  0.00     0.085 C 
HETATM    7  S1  UNL     1     -38.263 -14.074 379.472  1.00  0.00    -0.150 SA
HETATM    8  C8  UNL     1     -38.972 -14.984 378.041  1.00  0.00     0.103 C 
HETATM    9  C17 UNL     1     -38.994 -14.055 376.882  1.00  0.00     0.151 C 
ENDROOT
BRANCH   8  10
HETATM   10  C9  UNL     1     -40.226 -15.598 378.442  1.00  0.00    -0.004 A 
HETATM   11  C10 UNL     1     -41.300 -14.877 378.869  1.00  0.00     0.013 A 
HETATM   12  C11 UNL     1     -42.455 -15.507 379.250  1.00  0.00     0.030 A 
HETATM   13  C12 UNL     1     -42.607 -16.901 379.227  1.00  0.00     0.039 A 
HETATM   14  C15 UNL     1     -41.515 -17.607 378.794  1.00  0.00     0.072 A 
HETATM   15  C16 UNL     1     -40.340 -16.965 378.406  1.00  0.00     0.126 A 
HETATM   16  F2  UNL     1     -39.308 -17.754 377.990  1.00  0.00    -0.205 F 
BRANCH  13  17
HETATM   17  N2  UNL     1     -43.835 -17.474 379.630  1.00  0.00    -0.309 N 
HETATM   18  C13 UNL     1     -44.521 -18.553 379.063  1.00  0.00     0.320 C 
HETATM   19  O2  UNL     1     -44.151 -19.225 378.070  1.00  0.00    -0.247 OA
HETATM   20  N3  UNL     1     -45.788 -19.001 379.616  1.00  0.00    -0.347 N 
HETATM   21  C14 UNL     1     -46.525 -20.106 379.064  1.00  0.00     0.151 C 
ATOM     22  H3  UNL     1     -46.169 -18.514 380.426  1.00  0.00     0.163 HD
ATOM     23  H2  UNL     1     -44.280 -17.044 380.441  1.00  0.00     0.170 HD
ENDBRANCH  13  17
ENDBRANCH   8  10
BRANCH   9  24
HETATM   24  C18 UNL     1     -39.353 -14.723 375.603  1.00  0.00     0.270 C 
HETATM   25  O3  UNL     1     -39.709 -14.005 374.643  1.00  0.00    -0.264 OA
BRANCH  24  26
HETATM   26  O4  UNL     1     -39.316 -16.084 375.413  1.00  0.00    -0.321 OA
BRANCH  26  27
HETATM   27  C19 UNL     1     -40.247 -16.720 374.548  1.00  0.00     0.174 C 
HETATM   28  C20 UNL     1     -41.600 -16.889 375.170  1.00  0.00     0.034 C 
ENDBRANCH  26  27
ENDBRANCH  24  26
ENDBRANCH   9  24
BRANCH   6  29
HETATM   29  C7  UNL     1     -37.948 -11.414 379.705  1.00  0.00     0.237 C 
HETATM   30  F1  UNL     1     -39.292 -11.564 379.962  1.00  0.00    -0.254 F 
ENDBRANCH   6  29
BRANCH   1  31
HETATM   31  O1  UNL     1     -35.501 -13.957 375.711  1.00  0.00    -0.281 OA
BRANCH  31  32
HETATM   32  C2  UNL     1     -34.916 -14.029 374.425  1.00  0.00     0.196 C 
HETATM   33  C1  UNL     1     -33.477 -13.589 374.493  1.00  0.00     0.036 C 
ENDBRANCH  31  32
ENDBRANCH   1  31
TORSDOF 8
ENDMDL
MODEL 3
REMARK VINA RESULT: -7.201562566      0.858      1.209
REMARK  8 active torsions:
REMARK  status: ('A' for Active; 'I' for Inactive)
REMARK    1  A    between atoms: C2_2  and  O1_3 
REMARK    2  A    between atoms: O1_3  and  N1_4 
REMARK    3  A    between atoms: C6_9  and  C7_10 
REMARK    4  A    between atoms: C8_13  and  C9_14 
REMARK    5  A    between atoms: C12_17  and  N2_18 
REMARK       I    between atoms: N2_18  and  C13_20 
REMARK       I    between atoms: C13_20  and  N3_22 
REMARK    6  A    between atoms: C17_28  and  C18_29 
REMARK    7  A    between atoms: C18_29  and  O4_31 
REMARK    8  A    between atoms: O4_31  and  C19_32 
ROOT
HETATM    1  N1  UNL     1     -40.059 -15.299 378.369  1.00  0.00    -0.274 N 
ATOM      2  H1  UNL     1     -39.921 -15.932 377.582  1.00  0.00     0.193 HD
HETATM    3  C3  UNL     1     -39.021 -14.707 378.799  1.00  0.00     0.030 C 
HETATM    4  C4  UNL     1     -38.982 -13.770 379.904  1.00  0.00     0.046 C 
HETATM    5  C5  UNL     1     -40.269 -13.642 380.680  1.00  0.00     0.017 C 
HETATM    6  C6  UNL     1     -38.504 -12.397 379.504  1.00  0.00     0.085 C 
HETATM    7  S1  UNL     1     -37.761 -12.318 377.900  1.00  0.00    -0.150 SA
HETATM    8  C8  UNL     1     -37.600 -13.944 377.058  1.00  0.00     0.103 C 
HETATM    9  C17 UNL     1     -37.714 -15.002 378.095  1.00  0.00     0.151 C 
ENDROOT
BRANCH   8  10
HETATM   10  C9  UNL     1     -36.409 -13.934 376.228  1.00  0.00    -0.004 A 
HETATM   11  C10 UNL     1     -36.453 -14.017 374.869  1.00  0.00     0.013 A 
HETATM   12  C11 UNL     1     -35.298 -14.019 374.134  1.00  0.00     0.030 A 
HETATM   13  C12 UNL     1     -34.024 -13.938 374.714  1.00  0.00     0.039 A 
HETATM   14  C15 UNL     1     -34.002 -13.855 376.082  1.00  0.00     0.072 A 
HETATM   15  C16 UNL     1     -35.178 -13.853 376.830  1.00  0.00     0.126 A 
HETATM   16  F2  UNL     1     -35.054 -13.767 378.186  1.00  0.00    -0.205 F 
BRANCH  13  17
HETATM   17  N2  UNL     1     -32.879 -13.939 373.883  1.00  0.00    -0.309 N 
HETATM   18  C13 UNL     1     -32.470 -12.969 372.963  1.00  0.00     0.320 C 
HETATM   19  O2  UNL     1     -33.064 -11.892 372.709  1.00  0.00    -0.247 OA
HETATM   20  N3  UNL     1     -31.255 -13.147 372.186  1.00  0.00    -0.347 N 
HETATM   21  C14 UNL     1     -30.799 -12.175 371.230  1.00  0.00     0.151 C 
ATOM     22  H3  UNL     1     -30.706 -13.994 372.324  1.00  0.00     0.163 HD
ATOM     23  H2  UNL     1     -32.272 -14.754 373.966  1.00  0.00     0.170 HD
ENDBRANCH  13  17
ENDBRANCH   8  10
BRANCH   9  24
HETATM   24  C18 UNL     1     -37.808 -16.372 377.526  1.00  0.00     0.270 C 
HETATM   25  O3  UNL     1     -37.728 -17.342 378.311  1.00  0.00    -0.264 OA
BRANCH  24  26
HETATM   26  O4  UNL     1     -37.978 -16.636 376.188  1.00  0.00    -0.321 OA
BRANCH  26  27
HETATM   27  C19 UNL     1     -39.240 -17.053 375.687  1.00  0.00     0.174 C 
HETATM   28  C20 UNL     1     -39.894 -16.019 374.820  1.00  0.00     0.034 C 
ENDBRANCH  26  27
ENDBRANCH  24  26
ENDBRANCH   9  24
BRANCH   6  29
HETATM   29  C7  UNL     1     -37.552 -11.830 380.536  1.00  0.00     0.237 C 
HETATM   30  F1  UNL     1     -37.030 -12.798 381.365  1.00  0.00    -0.254 F 
ENDBRANCH   6  29
BRANCH   1  31
HETATM   31  O1  UNL     1     -41.322 -15.190 378.829  1.00  0.00    -0.281 OA
BRANCH  31  32
HETATM   32  C2  UNL     1     -42.289 -16.220 378.768  1.00  0.00     0.196 C 
HETATM   33  C1  UNL     1     -41.610 -17.548 378.553  1.00  0.00     0.036 C 
ENDBRANCH  31  32
ENDBRANCH   1  31
TORSDOF 8
ENDMDL
MODEL 4
REMARK VINA RESULT: -7.107179666      1.621      1.898
REMARK  8 active torsions:
REMARK  status: ('A' for Active; 'I' for Inactive)
REMARK    1  A    between atoms: C2_2  and  O1_3 
REMARK    2  A    between atoms: O1_3  and  N1_4 
REMARK    3  A    between atoms: C6_9  and  C7_10 
REMARK    4  A    between atoms: C8_13  and  C9_14 
REMARK    5  A    between atoms: C12_17  and  N2_18 
REMARK       I    between atoms: N2_18  and  C13_20 
REMARK       I    between atoms: C13_20  and  N3_22 
REMARK    6  A    between atoms: C17_28  and  C18_29 
REMARK    7  A    between atoms: C18_29  and  O4_31 
REMARK    8  A    between atoms: O4_31  and  C19_32 
ROOT
HETATM    1  N1  UNL     1     -40.670 -15.459 377.962  1.00  0.00    -0.274 N 
ATOM      2  H1  UNL     1     -40.899 -15.833 377.041  1.00  0.00     0.193 HD
HETATM    3  C3  UNL     1     -39.461 -15.114 378.140  1.00  0.00     0.030 C 
HETATM    4  C4  UNL     1     -38.914 -14.562 379.363  1.00  0.00     0.046 C 
HETATM    5  C5  UNL     1     -39.851 -14.569 380.544  1.00  0.00     0.017 C 
HETATM    6  C6  UNL     1     -38.343 -13.177 379.189  1.00  0.00     0.085 C 
HETATM    7  S1  UNL     1     -38.132 -12.677 377.505  1.00  0.00    -0.150 SA
HETATM    8  C8  UNL     1     -38.535 -13.979 376.272  1.00  0.00     0.103 C 
HETATM    9  C17 UNL     1     -38.512 -15.289 376.975  1.00  0.00     0.151 C 
ENDROOT
BRANCH   8  10
HETATM   10  C9  UNL     1     -37.678 -13.817 375.111  1.00  0.00    -0.004 A 
HETATM   11  C10 UNL     1     -36.374 -14.211 375.093  1.00  0.00     0.013 A 
HETATM   12  C11 UNL     1     -35.605 -14.021 373.976  1.00  0.00     0.030 A 
HETATM   13  C12 UNL     1     -36.093 -13.425 372.805  1.00  0.00     0.039 A 
HETATM   14  C15 UNL     1     -37.407 -13.036 372.844  1.00  0.00     0.072 A 
HETATM   15  C16 UNL     1     -38.190 -13.229 373.982  1.00  0.00     0.126 A 
HETATM   16  F2  UNL     1     -39.487 -12.809 373.924  1.00  0.00    -0.205 F 
BRANCH  13  17
HETATM   17  N2  UNL     1     -35.235 -13.271 371.692  1.00  0.00    -0.309 N 
HETATM   18  C13 UNL     1     -34.105 -12.458 371.568  1.00  0.00     0.320 C 
HETATM   19  O2  UNL     1     -33.636 -11.703 372.455  1.00  0.00    -0.247 OA
HETATM   20  N3  UNL     1     -33.343 -12.426 370.332  1.00  0.00    -0.347 N 
HETATM   21  C14 UNL     1     -32.174 -11.606 370.163  1.00  0.00     0.151 C 
ATOM     22  H3  UNL     1     -33.649 -13.009 369.553  1.00  0.00     0.163 HD
ATOM     23  H2  UNL     1     -35.472 -13.827 370.871  1.00  0.00     0.170 HD
ENDBRANCH  13  17
ENDBRANCH   8  10
BRANCH   9  24
HETATM   24  C18 UNL     1     -39.022 -16.409 376.141  1.00  0.00     0.270 C 
HETATM   25  O3  UNL     1     -38.590 -17.560 376.373  1.00  0.00    -0.264 OA
BRANCH  24  26
HETATM   26  O4  UNL     1     -39.942 -16.256 375.132  1.00  0.00    -0.321 OA
BRANCH  26  27
HETATM   27  C19 UNL     1     -40.709 -17.362 374.677  1.00  0.00     0.174 C 
HETATM   28  C20 UNL     1     -42.068 -17.426 375.306  1.00  0.00     0.034 C 
ENDBRANCH  26  27
ENDBRANCH  24  26
ENDBRANCH   9  24
BRANCH   6  29
HETATM   29  C7  UNL     1     -37.033 -13.031 379.934  1.00  0.00     0.237 C 
HETATM   30  F1  UNL     1     -37.208 -12.657 381.248  1.00  0.00    -0.254 F 
ENDBRANCH   6  29
BRANCH   1  31
HETATM   31  O1  UNL     1     -41.686 -15.391 378.844  1.00  0.00    -0.281 OA
BRANCH  31  32
HETATM   32  C2  UNL     1     -42.779 -16.289 378.880  1.00  0.00     0.196 C 
HETATM   33  C1  UNL     1     -42.285 -17.685 379.155  1.00  0.00     0.036 C 
ENDBRANCH  31  32
ENDBRANCH   1  31
TORSDOF 8
ENDMDL
MODEL 5
REMARK VINA RESULT: -7.074376344      1.987      2.183
REMARK  8 active torsions:
REMARK  status: ('A' for Active; 'I' for Inactive)
REMARK    1  A    between atoms: C2_2  and  O1_3 
REMARK    2  A    between atoms: O1_3  and  N1_4 
REMARK    3  A    between atoms: C6_9  and  C7_10 
REMARK    4  A    between atoms: C8_13  and  C9_14 
REMARK    5  A    between atoms: C12_17  and  N2_18 
REMARK       I    between atoms: N2_18  and  C13_20 
REMARK       I    between atoms: C13_20  and  N3_22 
REMARK    6  A    between atoms: C17_28  and  C18_29 
REMARK    7  A    between atoms: C18_29  and  O4_31 
REMARK    8  A    between atoms: O4_31  and  C19_32 
ROOT
HETATM    1  N1  UNL     1     -40.536 -15.542 377.808  1.00  0.00    -0.274 N 
ATOM      2  H1  UNL     1     -40.698 -15.918 376.874  1.00  0.00     0.193 HD
HETATM    3  C3  UNL     1     -39.352 -15.159 378.059  1.00  0.00     0.030 C 
HETATM    4  C4  UNL     1     -38.896 -14.597 379.315  1.00  0.00     0.046 C 
HETATM    5  C5  UNL     1     -39.901 -14.641 380.438  1.00  0.00     0.017 C 
HETATM    6  C6  UNL     1     -38.362 -13.193 379.180  1.00  0.00     0.085 C 
HETATM    7  S1  UNL     1     -38.068 -12.677 377.513  1.00  0.00    -0.150 SA
HETATM    8  C8  UNL     1     -38.355 -13.985 376.254  1.00  0.00     0.103 C 
HETATM    9  C17 UNL     1     -38.330 -15.296 376.951  1.00  0.00     0.151 C 
ENDROOT
BRANCH   8  10
HETATM   10  C9  UNL     1     -37.436 -13.789 375.147  1.00  0.00    -0.004 A 
HETATM   11  C10 UNL     1     -36.132 -14.181 375.188  1.00  0.00     0.013 A 
HETATM   12  C11 UNL     1     -35.304 -13.958 374.121  1.00  0.00     0.030 A 
HETATM   13  C12 UNL     1     -35.729 -13.328 372.942  1.00  0.00     0.039 A 
HETATM   14  C15 UNL     1     -37.044 -12.942 372.921  1.00  0.00     0.072 A 
HETATM   15  C16 UNL     1     -37.888 -13.169 374.008  1.00  0.00     0.126 A 
HETATM   16  F2  UNL     1     -39.180 -12.748 373.892  1.00  0.00    -0.205 F 
BRANCH  13  17
HETATM   17  N2  UNL     1     -34.813 -13.142 371.882  1.00  0.00    -0.309 N 
HETATM   18  C13 UNL     1     -34.665 -13.898 370.715  1.00  0.00     0.320 C 
HETATM   19  O2  UNL     1     -35.346 -14.903 370.393  1.00  0.00    -0.247 OA
HETATM   20  N3  UNL     1     -33.653 -13.556 369.731  1.00  0.00    -0.347 N 
HETATM   21  C14 UNL     1     -33.468 -14.306 368.518  1.00  0.00     0.151 C 
ATOM     22  H3  UNL     1     -33.049 -12.753 369.907  1.00  0.00     0.163 HD
ATOM     23  H2  UNL     1     -34.175 -12.352 371.981  1.00  0.00     0.170 HD
ENDBRANCH  13  17
ENDBRANCH   8  10
BRANCH   9  24
HETATM   24  C18 UNL     1     -38.754 -16.428 376.085  1.00  0.00     0.270 C 
HETATM   25  O3  UNL     1     -38.262 -17.556 376.308  1.00  0.00    -0.264 OA
BRANCH  24  26
HETATM   26  O4  UNL     1     -39.655 -16.308 375.054  1.00  0.00    -0.321 OA
BRANCH  26  27
HETATM   27  C19 UNL     1     -40.439 -17.420 374.645  1.00  0.00     0.174 C 
HETATM   28  C20 UNL     1     -41.858 -17.340 375.124  1.00  0.00     0.034 C 
ENDBRANCH  26  27
ENDBRANCH  24  26
ENDBRANCH   9  24
BRANCH   6  29
HETATM   29  C7  UNL     1     -37.104 -13.009 380.002  1.00  0.00     0.237 C 
HETATM   30  F1  UNL     1     -37.368 -12.648 381.304  1.00  0.00    -0.254 F 
ENDBRANCH   6  29
BRANCH   1  31
HETATM   31  O1  UNL     1     -41.605 -15.512 378.629  1.00  0.00    -0.281 OA
BRANCH  31  32
HETATM   32  C2  UNL     1     -42.581 -16.532 378.714  1.00  0.00     0.196 C 
HETATM   33  C1  UNL     1     -41.907 -17.878 378.799  1.00  0.00     0.036 C 
ENDBRANCH  31  32
ENDBRANCH   1  31
TORSDOF 8
ENDMDL
