MODEL 1
REMARK VINA RESULT: -7.691435749      0.000      0.000
REMARK  8 active torsions:
REMARK  status: ('A' for Active; 'I' for Inactive)
REMARK    1  A    between atoms: O1_2  and  N1_3 
REMARK    2  A    between atoms: C2_5  and  C3_6 
REMARK    3  A    between atoms: C2_5  and  C19_32 
REMARK    4  A    between atoms: C8_13  and  N2_14 
REMARK       I    between atoms: N2_14  and  C9_16 
REMARK       I    between atoms: C9_16  and  N3_18 
REMARK    5  A    between atoms: N3_18  and  C10_20 
REMARK    6  A    between atoms: C11_21  and  O3_22 
REMARK    7  A    between atoms: C14_25  and  O4_26 
REMARK    8  A    between atoms: C17_29  and  O5_30 
ROOT
HETATM    1  N2  UNL     1     -38.744 -15.655 378.539  1.00  0.00    -0.308 N 
ATOM      2  H2  UNL     1     -38.044 -16.336 378.830  1.00  0.00     0.170 HD
HETATM    3  C9  UNL     1     -39.896 -16.127 377.877  1.00  0.00     0.325 C 
HETATM    4  O2  UNL     1     -40.794 -15.393 377.470  1.00  0.00    -0.247 OA
HETATM    5  N3  UNL     1     -40.042 -17.547 377.657  1.00  0.00    -0.304 N 
ATOM      6  H3  UNL     1     -39.312 -18.180 377.984  1.00  0.00     0.171 HD
ENDROOT
BRANCH   1   7
HETATM    7  C8  UNL     1     -38.506 -14.302 378.820  1.00  0.00     0.051 A 
HETATM    8  C3  UNL     1     -37.676 -13.495 378.038  1.00  0.00     0.019 A 
HETATM    9  C4  UNL     1     -37.372 -12.236 378.487  1.00  0.00     0.061 A 
HETATM   10  C5  UNL     1     -37.878 -11.740 379.703  1.00  0.00     0.155 A 
HETATM   11  F1  UNL     1     -37.531 -10.496 380.064  1.00  0.00    -0.203 F 
HETATM   12  C6  UNL     1     -38.687 -12.513 380.464  1.00  0.00     0.157 A 
HETATM   13  F2  UNL     1     -39.165 -12.005 381.635  1.00  0.00    -0.203 F 
HETATM   14  C7  UNL     1     -38.997 -13.776 380.029  1.00  0.00     0.076 A 
BRANCH   8  15
HETATM   15  C2  UNL     1     -37.226 -13.923 376.710  1.00  0.00     0.052 C 
HETATM   16  N1  UNL     1     -37.951 -13.624 375.716  1.00  0.00    -0.270 N 
ATOM     17  H1  UNL     1     -38.778 -13.106 376.016  1.00  0.00     0.194 HD
BRANCH  16  18
HETATM   18  O1  UNL     1     -37.949 -13.783 374.425  1.00  0.00    -0.285 OA
HETATM   19  C1  UNL     1     -38.153 -12.793 373.468  1.00  0.00     0.237 C 
ENDBRANCH  16  18
BRANCH  15  20
HETATM   20  C19 UNL     1     -35.969 -14.666 376.472  1.00  0.00    -0.006 C 
HETATM   21  C20 UNL     1     -36.161 -16.162 376.438  1.00  0.00     0.021 C 
HETATM   22  C21 UNL     1     -34.916 -14.390 377.531  1.00  0.00     0.021 C 
HETATM   23  C22 UNL     1     -35.295 -14.240 375.166  1.00  0.00     0.021 C 
ENDBRANCH  15  20
ENDBRANCH   8  15
ENDBRANCH   1   7
BRANCH   5  24
HETATM   24  C10 UNL     1     -41.168 -18.076 377.003  1.00  0.00     0.103 A 
HETATM   25  C11 UNL     1     -41.163 -18.160 375.614  1.00  0.00     0.100 A 
HETATM   26  C13 UNL     1     -42.284 -18.686 374.959  1.00  0.00     0.076 A 
HETATM   27  C14 UNL     1     -43.355 -19.103 375.713  1.00  0.00     0.073 A 
HETATM   28  C16 UNL     1     -43.333 -19.008 377.087  1.00  0.00     0.076 A 
HETATM   29  C17 UNL     1     -42.243 -18.494 377.749  1.00  0.00     0.100 A 
BRANCH  25  30
HETATM   30  O3  UNL     1     -40.049 -17.721 374.913  1.00  0.00    -0.353 OA
HETATM   31  C12 UNL     1     -40.174 -16.520 374.176  1.00  0.00     0.210 C 
ENDBRANCH  25  30
BRANCH  27  32
HETATM   32  O4  UNL     1     -44.480 -19.628 375.111  1.00  0.00    -0.356 OA
HETATM   33  C15 UNL     1     -45.459 -20.253 375.882  1.00  0.00     0.210 C 
ENDBRANCH  27  32
BRANCH  29  34
HETATM   34  O5  UNL     1     -42.200 -18.391 379.123  1.00  0.00    -0.353 OA
HETATM   35  C18 UNL     1     -42.976 -17.385 379.749  1.00  0.00     0.210 C 
ENDBRANCH  29  34
ENDBRANCH   5  24
TORSDOF 8
ENDMDL
MODEL 2
REMARK VINA RESULT: -7.686655969      0.051      2.151
REMARK  8 active torsions:
REMARK  status: ('A' for Active; 'I' for Inactive)
REMARK    1  A    between atoms: O1_2  and  N1_3 
REMARK    2  A    between atoms: C2_5  and  C3_6 
REMARK    3  A    between atoms: C2_5  and  C19_32 
REMARK    4  A    between atoms: C8_13  and  N2_14 
REMARK       I    between atoms: N2_14  and  C9_16 
REMARK       I    between atoms: C9_16  and  N3_18 
REMARK    5  A    between atoms: N3_18  and  C10_20 
REMARK    6  A    between atoms: C11_21  and  O3_22 
REMARK    7  A    between atoms: C14_25  and  O4_26 
REMARK    8  A    between atoms: C17_29  and  O5_30 
ROOT
HETATM    1  N2  UNL     1     -38.764 -15.675 378.545  1.00  0.00    -0.308 N 
ATOM      2  H2  UNL     1     -38.069 -16.359 378.844  1.00  0.00     0.170 HD
HETATM    3  C9  UNL     1     -39.909 -16.143 377.869  1.00  0.00     0.325 C 
HETATM    4  O2  UNL     1     -40.801 -15.406 377.453  1.00  0.00    -0.247 OA
HETATM    5  N3  UNL     1     -40.057 -17.563 377.647  1.00  0.00    -0.304 N 
ATOM      6  H3  UNL     1     -39.333 -18.198 377.981  1.00  0.00     0.171 HD
ENDROOT
BRANCH   1   7
HETATM    7  C8  UNL     1     -38.525 -14.322 378.830  1.00  0.00     0.051 A 
HETATM    8  C3  UNL     1     -37.695 -13.514 378.049  1.00  0.00     0.019 A 
HETATM    9  C4  UNL     1     -37.390 -12.256 378.502  1.00  0.00     0.061 A 
HETATM   10  C5  UNL     1     -37.895 -11.764 379.719  1.00  0.00     0.155 A 
HETATM   11  F1  UNL     1     -37.547 -10.521 380.084  1.00  0.00    -0.203 F 
HETATM   12  C6  UNL     1     -38.705 -12.538 380.479  1.00  0.00     0.157 A 
HETATM   13  F2  UNL     1     -39.181 -12.033 381.651  1.00  0.00    -0.203 F 
HETATM   14  C7  UNL     1     -39.015 -13.800 380.040  1.00  0.00     0.076 A 
BRANCH   8  15
HETATM   15  C2  UNL     1     -37.245 -13.939 376.720  1.00  0.00     0.052 C 
HETATM   16  N1  UNL     1     -37.968 -13.630 375.727  1.00  0.00    -0.270 N 
ATOM     17  H1  UNL     1     -38.792 -13.110 376.027  1.00  0.00     0.194 HD
BRANCH  16  18
HETATM   18  O1  UNL     1     -37.965 -13.784 374.434  1.00  0.00    -0.285 OA
HETATM   19  C1  UNL     1     -38.149 -12.786 373.482  1.00  0.00     0.237 C 
ENDBRANCH  16  18
BRANCH  15  20
HETATM   20  C19 UNL     1     -35.993 -14.687 376.480  1.00  0.00    -0.006 C 
HETATM   21  C20 UNL     1     -36.195 -16.182 376.430  1.00  0.00     0.021 C 
HETATM   22  C21 UNL     1     -34.943 -14.430 377.547  1.00  0.00     0.021 C 
HETATM   23  C22 UNL     1     -35.310 -14.253 375.182  1.00  0.00     0.021 C 
ENDBRANCH  15  20
ENDBRANCH   8  15
ENDBRANCH   1   7
BRANCH   5  24
HETATM   24  C10 UNL     1     -41.178 -18.088 376.980  1.00  0.00     0.103 A 
HETATM   25  C11 UNL     1     -42.266 -18.520 377.730  1.00  0.00     0.100 A 
HETATM   26  C13 UNL     1     -43.385 -19.044 377.068  1.00  0.00     0.076 A 
HETATM   27  C14 UNL     1     -43.368 -19.112 375.695  1.00  0.00     0.073 A 
HETATM   28  C16 UNL     1     -42.276 -18.676 374.977  1.00  0.00     0.076 A 
HETATM   29  C17 UNL     1     -41.169 -18.160 375.608  1.00  0.00     0.100 A 
BRANCH  25  30
HETATM   30  O3  UNL     1     -42.218 -18.423 379.112  1.00  0.00    -0.353 OA
HETATM   31  C12 UNL     1     -42.996 -17.411 379.722  1.00  0.00     0.210 C 
ENDBRANCH  25  30
BRANCH  27  32
HETATM   32  O4  UNL     1     -44.447 -19.620 375.001  1.00  0.00    -0.356 OA
HETATM   33  C15 UNL     1     -45.481 -20.258 375.686  1.00  0.00     0.210 C 
ENDBRANCH  27  32
BRANCH  29  34
HETATM   34  O5  UNL     1     -40.066 -17.717 374.910  1.00  0.00    -0.353 OA
HETATM   35  C18 UNL     1     -40.172 -16.512 374.174  1.00  0.00     0.210 C 
ENDBRANCH  29  34
ENDBRANCH   5  24
TORSDOF 8
ENDMDL
MODEL 3
REMARK VINA RESULT: -7.576722282      1.021      1.201
REMARK  8 active torsions:
REMARK  status: ('A' for Active; 'I' for Inactive)
REMARK    1  A    between atoms: O1_2  and  N1_3 
REMARK    2  A    between atoms: C2_5  and  C3_6 
REMARK    3  A    between atoms: C2_5  and  C19_32 
REMARK    4  A    between atoms: C8_13  and  N2_14 
REMARK       I    between atoms: N2_14  and  C9_16 
REMARK       I    between atoms: C9_16  and  N3_18 
REMARK    5  A    between atoms: N3_18  and  C10_20 
REMARK    6  A    between atoms: C11_21  and  O3_22 
REMARK    7  A    between atoms: C14_25  and  O4_26 
REMARK    8  A    between atoms: C17_29  and  O5_30 
ROOT
HETATM    1  N2  UNL     1     -39.295 -15.805 378.986  1.00  0.00    -0.308 N 
ATOM      2  H2  UNL     1     -38.683 -16.449 379.487  1.00  0.00     0.170 HD
HETATM    3  C9  UNL     1     -40.389 -16.344 378.278  1.00  0.00     0.325 C 
HETATM    4  O2  UNL     1     -41.180 -15.662 377.629  1.00  0.00    -0.247 OA
HETATM    5  N3  UNL     1     -40.603 -17.773 378.305  1.00  0.00    -0.304 N 
ATOM      6  H3  UNL     1     -39.962 -18.363 378.835  1.00  0.00     0.171 HD
ENDROOT
BRANCH   1   7
HETATM    7  C8  UNL     1     -39.002 -14.435 379.042  1.00  0.00     0.051 A 
HETATM    8  C3  UNL     1     -38.295 -13.765 378.041  1.00  0.00     0.019 A 
HETATM    9  C4  UNL     1     -37.911 -12.468 378.264  1.00  0.00     0.061 A 
HETATM   10  C5  UNL     1     -38.215 -11.801 379.465  1.00  0.00     0.155 A 
HETATM   11  F1  UNL     1     -37.802 -10.532 379.597  1.00  0.00    -0.203 F 
HETATM   12  C6  UNL     1     -38.904 -12.441 380.438  1.00  0.00     0.157 A 
HETATM   13  F2  UNL     1     -39.187 -11.769 381.590  1.00  0.00    -0.203 F 
HETATM   14  C7  UNL     1     -39.292 -13.740 380.230  1.00  0.00     0.076 A 
BRANCH   8  15
HETATM   15  C2  UNL     1     -38.063 -14.378 376.729  1.00  0.00     0.052 C 
HETATM   16  N1  UNL     1     -38.954 -14.229 375.842  1.00  0.00    -0.270 N 
ATOM     17  H1  UNL     1     -39.734 -13.679 376.202  1.00  0.00     0.194 HD
BRANCH  16  18
HETATM   18  O1  UNL     1     -39.166 -14.574 374.605  1.00  0.00    -0.285 OA
HETATM   19  C1  UNL     1     -40.068 -15.534 374.156  1.00  0.00     0.237 C 
ENDBRANCH  16  18
BRANCH  15  20
HETATM   20  C19 UNL     1     -36.843 -15.140 376.387  1.00  0.00    -0.006 C 
HETATM   21  C20 UNL     1     -37.063 -16.633 376.362  1.00  0.00     0.021 C 
HETATM   22  C21 UNL     1     -35.703 -14.889 377.358  1.00  0.00     0.021 C 
HETATM   23  C22 UNL     1     -36.270 -14.718 375.032  1.00  0.00     0.021 C 
ENDBRANCH  15  20
ENDBRANCH   8  15
ENDBRANCH   1   7
BRANCH   5  24
HETATM   24  C10 UNL     1     -41.676 -18.366 377.618  1.00  0.00     0.103 A 
HETATM   25  C11 UNL     1     -41.487 -18.781 376.304  1.00  0.00     0.100 A 
HETATM   26  C13 UNL     1     -42.555 -19.373 375.616  1.00  0.00     0.076 A 
HETATM   27  C14 UNL     1     -43.757 -19.525 376.266  1.00  0.00     0.073 A 
HETATM   28  C16 UNL     1     -43.916 -19.105 377.568  1.00  0.00     0.076 A 
HETATM   29  C17 UNL     1     -42.881 -18.521 378.261  1.00  0.00     0.100 A 
BRANCH  25  30
HETATM   30  O3  UNL     1     -40.249 -18.598 375.707  1.00  0.00    -0.353 OA
HETATM   31  C12 UNL     1     -39.640 -19.726 375.109  1.00  0.00     0.210 C 
ENDBRANCH  25  30
BRANCH  27  32
HETATM   32  O4  UNL     1     -44.835 -20.103 375.628  1.00  0.00    -0.356 OA
HETATM   33  C15 UNL     1     -46.041 -20.273 376.307  1.00  0.00     0.210 C 
ENDBRANCH  27  32
BRANCH  29  34
HETATM   34  O5  UNL     1     -43.017 -18.095 379.564  1.00  0.00    -0.353 OA
HETATM   35  C18 UNL     1     -44.300 -18.154 380.162  1.00  0.00     0.210 C 
ENDBRANCH  29  34
ENDBRANCH   5  24
TORSDOF 8
ENDMDL
MODEL 4
REMARK VINA RESULT: -7.503932955      1.147      1.648
REMARK  8 active torsions:
REMARK  status: ('A' for Active; 'I' for Inactive)
REMARK    1  A    between atoms: O1_2  and  N1_3 
REMARK    2  A    between atoms: C2_5  and  C3_6 
REMARK    3  A    between atoms: C2_5  and  C19_32 
REMARK    4  A    between atoms: C8_13  and  N2_14 
REMARK       I    between atoms: N2_14  and  C9_16 
REMARK       I    between atoms: C9_16  and  N3_18 
REMARK    5  A    between atoms: N3_18  and  C10_20 
REMARK    6  A    between atoms: C11_21  and  O3_22 
REMARK    7  A    between atoms: C14_25  and  O4_26 
REMARK    8  A    between atoms: C17_29  and  O5_30 
ROOT
HETATM    1  N2  UNL     1     -38.671 -15.694 378.474  1.00  0.00    -0.308 N 
ATOM      2  H2  UNL     1     -37.918 -16.362 378.633  1.00  0.00     0.170 HD
HETATM    3  C9  UNL     1     -39.860 -16.163 377.880  1.00  0.00     0.325 C 
HETATM    4  O2  UNL     1     -40.825 -15.442 377.629  1.00  0.00    -0.247 OA
HETATM    5  N3  UNL     1     -39.966 -17.563 377.540  1.00  0.00    -0.304 N 
ATOM      6  H3  UNL     1     -39.181 -18.184 377.736  1.00  0.00     0.171 HD
ENDROOT
BRANCH   1   7
HETATM    7  C8  UNL     1     -38.465 -14.361 378.859  1.00  0.00     0.051 A 
HETATM    8  C3  UNL     1     -37.483 -13.546 378.291  1.00  0.00     0.019 A 
HETATM    9  C4  UNL     1     -37.247 -12.316 378.849  1.00  0.00     0.061 A 
HETATM   10  C5  UNL     1     -37.969 -11.858 379.966  1.00  0.00     0.155 A 
HETATM   11  F1  UNL     1     -37.674 -10.641 380.446  1.00  0.00    -0.203 F 
HETATM   12  C6  UNL     1     -38.926 -12.639 380.520  1.00  0.00     0.157 A 
HETATM   13  F2  UNL     1     -39.611 -12.168 381.599  1.00  0.00    -0.203 F 
HETATM   14  C7  UNL     1     -39.170 -13.873 379.974  1.00  0.00     0.076 A 
BRANCH   8  15
HETATM   15  C2  UNL     1     -36.793 -13.931 377.056  1.00  0.00     0.052 C 
HETATM   16  N1  UNL     1     -35.600 -14.346 377.151  1.00  0.00    -0.270 N 
ATOM     17  H1  UNL     1     -35.294 -14.345 378.124  1.00  0.00     0.194 HD
BRANCH  16  18
HETATM   18  O1  UNL     1     -34.652 -14.775 376.370  1.00  0.00    -0.285 OA
HETATM   19  C1  UNL     1     -33.661 -14.002 375.770  1.00  0.00     0.237 C 
ENDBRANCH  16  18
BRANCH  15  20
HETATM   20  C19 UNL     1     -37.419 -13.876 375.717  1.00  0.00    -0.006 C 
HETATM   21  C20 UNL     1     -37.400 -15.202 374.999  1.00  0.00     0.021 C 
HETATM   22  C21 UNL     1     -36.745 -12.876 374.795  1.00  0.00     0.021 C 
HETATM   23  C22 UNL     1     -38.869 -13.390 375.787  1.00  0.00     0.021 C 
ENDBRANCH  15  20
ENDBRANCH   8  15
ENDBRANCH   1   7
BRANCH   5  24
HETATM   24  C10 UNL     1     -41.127 -18.088 376.946  1.00  0.00     0.103 A 
HETATM   25  C11 UNL     1     -41.200 -18.158 375.559  1.00  0.00     0.100 A 
HETATM   26  C13 UNL     1     -42.356 -18.680 374.963  1.00  0.00     0.076 A 
HETATM   27  C14 UNL     1     -43.382 -19.108 375.774  1.00  0.00     0.073 A 
HETATM   28  C16 UNL     1     -43.282 -19.026 377.145  1.00  0.00     0.076 A 
HETATM   29  C17 UNL     1     -42.157 -18.517 377.749  1.00  0.00     0.100 A 
BRANCH  25  30
HETATM   30  O3  UNL     1     -40.130 -17.710 374.800  1.00  0.00    -0.353 OA
HETATM   31  C12 UNL     1     -40.303 -16.509 374.072  1.00  0.00     0.210 C 
ENDBRANCH  25  30
BRANCH  27  32
HETATM   32  O4  UNL     1     -44.538 -19.630 375.231  1.00  0.00    -0.356 OA
HETATM   33  C15 UNL     1     -45.475 -20.256 376.052  1.00  0.00     0.210 C 
ENDBRANCH  27  32
BRANCH  29  34
HETATM   34  O5  UNL     1     -42.035 -18.427 379.118  1.00  0.00    -0.353 OA
HETATM   35  C18 UNL     1     -42.820 -17.467 379.804  1.00  0.00     0.210 C 
ENDBRANCH  29  34
ENDBRANCH   5  24
TORSDOF 8
ENDMDL
MODEL 5
REMARK VINA RESULT: -7.495603835      1.146      2.756
REMARK  8 active torsions:
REMARK  status: ('A' for Active; 'I' for Inactive)
REMARK    1  A    between atoms: O1_2  and  N1_3 
REMARK    2  A    between atoms: C2_5  and  C3_6 
REMARK    3  A    between atoms: C2_5  and  C19_32 
REMARK    4  A    between atoms: C8_13  and  N2_14 
REMARK       I    between atoms: N2_14  and  C9_16 
REMARK       I    between atoms: C9_16  and  N3_18 
REMARK    5  A    between atoms: N3_18  and  C10_20 
REMARK    6  A    between atoms: C11_21  and  O3_22 
REMARK    7  A    between atoms: C14_25  and  O4_26 
REMARK    8  A    between atoms: C17_29  and  O5_30 
ROOT
HETATM    1  N2  UNL     1     -38.671 -15.703 378.442  1.00  0.00    -0.308 N 
ATOM      2  H2  UNL     1     -37.914 -16.369 378.593  1.00  0.00     0.170 HD
HETATM    3  C9  UNL     1     -39.861 -16.173 377.848  1.00  0.00     0.325 C 
HETATM    4  O2  UNL     1     -40.829 -15.455 377.607  1.00  0.00    -0.247 OA
HETATM    5  N3  UNL     1     -39.961 -17.571 377.497  1.00  0.00    -0.304 N 
ATOM      6  H3  UNL     1     -39.173 -18.190 377.685  1.00  0.00     0.171 HD
ENDROOT
BRANCH   1   7
HETATM    7  C8  UNL     1     -38.470 -14.373 378.837  1.00  0.00     0.051 A 
HETATM    8  C3  UNL     1     -37.493 -13.549 378.273  1.00  0.00     0.019 A 
HETATM    9  C4  UNL     1     -37.260 -12.322 378.840  1.00  0.00     0.061 A 
HETATM   10  C5  UNL     1     -37.982 -11.876 379.962  1.00  0.00     0.155 A 
HETATM   11  F1  UNL     1     -37.691 -10.662 380.451  1.00  0.00    -0.203 F 
HETATM   12  C6  UNL     1     -38.934 -12.665 380.512  1.00  0.00     0.157 A 
HETATM   13  F2  UNL     1     -39.619 -12.206 381.597  1.00  0.00    -0.203 F 
HETATM   14  C7  UNL     1     -39.175 -13.896 379.957  1.00  0.00     0.076 A 
BRANCH   8  15
HETATM   15  C2  UNL     1     -36.803 -13.921 377.033  1.00  0.00     0.052 C 
HETATM   16  N1  UNL     1     -35.619 -14.360 377.126  1.00  0.00    -0.270 N 
ATOM     17  H1  UNL     1     -35.317 -14.383 378.100  1.00  0.00     0.194 HD
BRANCH  16  18
HETATM   18  O1  UNL     1     -34.674 -14.789 376.340  1.00  0.00    -0.285 OA
HETATM   19  C1  UNL     1     -33.663 -14.023 375.766  1.00  0.00     0.237 C 
ENDBRANCH  16  18
BRANCH  15  20
HETATM   20  C19 UNL     1     -37.422 -13.828 375.694  1.00  0.00    -0.006 C 
HETATM   21  C20 UNL     1     -36.731 -12.839 374.788  1.00  0.00     0.021 C 
HETATM   22  C21 UNL     1     -38.882 -13.415 375.750  1.00  0.00     0.021 C 
HETATM   23  C22 UNL     1     -37.452 -15.185 374.986  1.00  0.00     0.021 C 
ENDBRANCH  15  20
ENDBRANCH   8  15
ENDBRANCH   1   7
BRANCH   5  24
HETATM   24  C10 UNL     1     -41.122 -18.096 376.903  1.00  0.00     0.103 A 
HETATM   25  C11 UNL     1     -42.159 -18.532 377.721  1.00  0.00     0.100 A 
HETATM   26  C13 UNL     1     -43.317 -19.056 377.132  1.00  0.00     0.076 A 
HETATM   27  C14 UNL     1     -43.389 -19.121 375.761  1.00  0.00     0.073 A 
HETATM   28  C16 UNL     1     -42.347 -18.682 374.975  1.00  0.00     0.076 A 
HETATM   29  C17 UNL     1     -41.202 -18.165 375.533  1.00  0.00     0.100 A 
BRANCH  25  30
HETATM   30  O3  UNL     1     -42.021 -18.437 379.098  1.00  0.00    -0.353 OA
HETATM   31  C12 UNL     1     -42.826 -17.487 379.770  1.00  0.00     0.210 C 
ENDBRANCH  25  30
BRANCH  27  32
HETATM   32  O4  UNL     1     -44.511 -19.629 375.137  1.00  0.00    -0.356 OA
HETATM   33  C15 UNL     1     -45.509 -20.248 375.889  1.00  0.00     0.210 C 
ENDBRANCH  27  32
BRANCH  29  34
HETATM   34  O5  UNL     1     -40.147 -17.720 374.766  1.00  0.00    -0.353 OA
HETATM   35  C18 UNL     1     -40.307 -16.519 374.031  1.00  0.00     0.210 C 
ENDBRANCH  29  34
ENDBRANCH   5  24
TORSDOF 8
ENDMDL
