MODEL 1
REMARK VINA RESULT: -7.780270831      0.000      0.000
REMARK  6 active torsions:
REMARK  status: ('A' for Active; 'I' for Inactive)
REMARK    1  A    between atoms: O1_2  and  C2_3 
REMARK    2  A    between atoms: C7_9  and  C8_10 
REMARK    3  A    between atoms: C8_10  and  C9_11 
REMARK    4  A    between atoms: C9_11  and  S1_12 
REMARK    5  A    between atoms: C9_11  and  C19_26 
REMARK    6  A    between atoms: S1_12  and  C10_13 
ROOT
HETATM    1  C9  UNL     1      29.943 -28.689  13.179  1.00  0.00     0.161 C 
ENDROOT
BRANCH   1   2
HETATM    2  C8  UNL     1      30.309 -29.371  14.448  1.00  0.00     0.072 C 
BRANCH   2   3
HETATM    3  C7  UNL     1      29.878 -28.672  15.688  1.00  0.00    -0.011 A 
HETATM    4  C6  UNL     1      30.807 -28.147  16.557  1.00  0.00     0.027 A 
HETATM    5  C5  UNL     1      30.516 -27.485  17.724  1.00  0.00    -0.017 A 
HETATM    6  C4  UNL     1      31.593 -27.016  18.485  1.00  0.00     0.039 A 
HETATM    7  C21 UNL     1      29.258 -27.234  18.225  1.00  0.00     0.056 A 
HETATM    8  C3  UNL     1      31.473 -26.342  19.664  1.00  0.00     0.070 A 
HETATM    9  C2  UNL     1      30.208 -26.097  20.156  1.00  0.00     0.112 A 
HETATM   10 CL1  UNL     1      32.855 -25.776  20.577  1.00  0.00    -0.081 Cl
HETATM   11  C22 UNL     1      29.115 -26.540  19.439  1.00  0.00     0.084 A 
HETATM   12 CL2  UNL     1      27.540 -26.198  20.116  1.00  0.00    -0.080 Cl
HETATM   13  C20 UNL     1      28.081 -27.622  17.611  1.00  0.00     0.226 A 
HETATM   14  S2  UNL     1      28.257 -28.460  16.140  1.00  0.00    -0.052 SA
HETATM   15  O4  UNL     1      26.978 -27.340  18.158  1.00  0.00    -0.279 OA
BRANCH   9  16
HETATM   16  O1  UNL     1      30.077 -25.417  21.345  1.00  0.00    -0.352 OA
HETATM   17  C1  UNL     1      30.037 -26.061  22.605  1.00  0.00     0.210 C 
ENDBRANCH   9  16
ENDBRANCH   2   3
ENDBRANCH   1   2
BRANCH   1  18
HETATM   18  S1  UNL     1      30.812 -29.547  11.810  1.00  0.00    -0.078 SA
BRANCH  18  19
HETATM   19  C10 UNL     1      29.686 -29.620  10.426  1.00  0.00     0.146 A 
HETATM   20  N1  UNL     1      28.735 -28.756  10.034  1.00  0.00    -0.335 N 
HETATM   21  C11 UNL     1      28.142 -29.229   8.934  1.00  0.00     0.061 A 
ATOM     22  H1  UNL     1      28.503 -27.880  10.501  1.00  0.00     0.168 HD
HETATM   23  C12 UNL     1      27.108 -28.744   8.125  1.00  0.00     0.039 A 
HETATM   24  C18 UNL     1      28.729 -30.424   8.617  1.00  0.00     0.061 A 
HETATM   25  C13 UNL     1      26.663 -29.432   7.018  1.00  0.00    -0.054 A 
HETATM   26  C14 UNL     1      25.561 -28.919   6.151  1.00  0.00     0.049 C 
HETATM   27  C15 UNL     1      27.269 -30.633   6.717  1.00  0.00    -0.054 A 
HETATM   28  C16 UNL     1      26.797 -31.400   5.511  1.00  0.00     0.049 C 
HETATM   29  C17 UNL     1      28.287 -31.127   7.501  1.00  0.00     0.039 A 
HETATM   30  N2  UNL     1      29.681 -30.661   9.542  1.00  0.00    -0.335 N 
ATOM     31  H2  UNL     1      30.292 -31.477   9.574  1.00  0.00     0.168 HD
ENDBRANCH  18  19
ENDBRANCH   1  18
BRANCH   1  32
HETATM   32  C19 UNL     1      30.143 -27.248  13.119  1.00  0.00     0.188 C 
HETATM   33  O2  UNL     1      31.292 -26.776  12.942  1.00  0.00    -0.647 OA
HETATM   34  O3  UNL     1      29.089 -26.367  13.251  1.00  0.00    -0.647 OA
ENDBRANCH   1  32
TORSDOF 6
ENDMDL
MODEL 2
REMARK VINA RESULT: -7.735500927      0.119      1.232
REMARK  6 active torsions:
REMARK  status: ('A' for Active; 'I' for Inactive)
REMARK    1  A    between atoms: O1_2  and  C2_3 
REMARK    2  A    between atoms: C7_9  and  C8_10 
REMARK    3  A    between atoms: C8_10  and  C9_11 
REMARK    4  A    between atoms: C9_11  and  S1_12 
REMARK    5  A    between atoms: C9_11  and  C19_26 
REMARK    6  A    between atoms: S1_12  and  C10_13 
ROOT
HETATM    1  C9  UNL     1      29.883 -28.680  13.099  1.00  0.00     0.161 C 
ENDROOT
BRANCH   1   2
HETATM    2  C8  UNL     1      30.134 -29.433  14.356  1.00  0.00     0.072 C 
BRANCH   2   3
HETATM    3  C7  UNL     1      29.743 -28.727  15.604  1.00  0.00    -0.011 A 
HETATM    4  C6  UNL     1      30.700 -28.218  16.453  1.00  0.00     0.027 A 
HETATM    5  C5  UNL     1      30.447 -27.552  17.626  1.00  0.00    -0.017 A 
HETATM    6  C4  UNL     1      31.548 -27.102  18.363  1.00  0.00     0.039 A 
HETATM    7  C21 UNL     1      29.204 -27.279  18.154  1.00  0.00     0.056 A 
HETATM    8  C3  UNL     1      31.466 -26.425  19.544  1.00  0.00     0.070 A 
HETATM    9  C2  UNL     1      30.217 -26.158  20.063  1.00  0.00     0.112 A 
HETATM   10 CL1  UNL     1      32.878 -25.885  20.426  1.00  0.00    -0.081 Cl
HETATM   11  C22 UNL     1      29.100 -26.582  19.371  1.00  0.00     0.084 A 
HETATM   12 CL2  UNL     1      27.547 -26.212  20.082  1.00  0.00    -0.080 Cl
HETATM   13  C20 UNL     1      28.008 -27.645  17.566  1.00  0.00     0.226 A 
HETATM   14  S2  UNL     1      28.136 -28.487  16.092  1.00  0.00    -0.052 SA
HETATM   15  O4  UNL     1      26.922 -27.344  18.137  1.00  0.00    -0.279 OA
BRANCH   9  16
HETATM   16  O1  UNL     1      30.124 -25.476  21.255  1.00  0.00    -0.352 OA
HETATM   17  C1  UNL     1      30.100 -26.120  22.515  1.00  0.00     0.210 C 
ENDBRANCH   9  16
ENDBRANCH   2   3
ENDBRANCH   1   2
BRANCH   1  18
HETATM   18  S1  UNL     1      30.865 -29.470  11.766  1.00  0.00    -0.078 SA
BRANCH  18  19
HETATM   19  C10 UNL     1      29.784 -29.677  10.359  1.00  0.00     0.146 A 
HETATM   20  N1  UNL     1      29.696 -30.681   9.473  1.00  0.00    -0.335 N 
HETATM   21  C11 UNL     1      28.734 -30.400   8.588  1.00  0.00     0.061 A 
ATOM     22  H1  UNL     1      30.271 -31.524   9.473  1.00  0.00     0.168 HD
HETATM   23  C12 UNL     1      28.231 -31.086   7.476  1.00  0.00     0.039 A 
HETATM   24  C18 UNL     1      28.195 -29.186   8.920  1.00  0.00     0.061 A 
HETATM   25  C13 UNL     1      27.210 -30.576   6.705  1.00  0.00    -0.054 A 
HETATM   26  C14 UNL     1      26.670 -31.303   5.518  1.00  0.00     0.049 C 
HETATM   27  C15 UNL     1      26.683 -29.352   7.057  1.00  0.00    -0.054 A 
HETATM   28  C16 UNL     1      25.566 -28.779   6.227  1.00  0.00     0.049 C 
HETATM   29  C17 UNL     1      27.164 -28.664   8.147  1.00  0.00     0.039 A 
HETATM   30  N2  UNL     1      28.848 -28.744  10.013  1.00  0.00    -0.335 N 
ATOM     31  H2  UNL     1      28.672 -27.864  10.499  1.00  0.00     0.168 HD
ENDBRANCH  18  19
ENDBRANCH   1  18
BRANCH   1  32
HETATM   32  C19 UNL     1      30.094 -27.240  13.136  1.00  0.00     0.188 C 
HETATM   33  O2  UNL     1      31.253 -26.769  13.047  1.00  0.00    -0.647 OA
HETATM   34  O3  UNL     1      29.039 -26.359  13.266  1.00  0.00    -0.647 OA
ENDBRANCH   1  32
TORSDOF 6
ENDMDL
MODEL 3
REMARK VINA RESULT: -7.588911469      6.282     10.339
REMARK  6 active torsions:
REMARK  status: ('A' for Active; 'I' for Inactive)
REMARK    1  A    between atoms: O1_2  and  C2_3 
REMARK    2  A    between atoms: C7_9  and  C8_10 
REMARK    3  A    between atoms: C8_10  and  C9_11 
REMARK    4  A    between atoms: C9_11  and  S1_12 
REMARK    5  A    between atoms: C9_11  and  C19_26 
REMARK    6  A    between atoms: S1_12  and  C10_13 
ROOT
HETATM    1  C9  UNL     1      29.768 -28.234  10.800  1.00  0.00     0.161 C 
ENDROOT
BRANCH   1   2
HETATM    2  C8  UNL     1      29.340 -29.608  10.430  1.00  0.00     0.072 C 
BRANCH   2   3
HETATM    3  C7  UNL     1      28.601 -29.716   9.145  1.00  0.00    -0.011 A 
HETATM    4  C6  UNL     1      28.730 -30.834   8.352  1.00  0.00     0.027 A 
HETATM    5  C5  UNL     1      28.094 -31.033   7.152  1.00  0.00    -0.017 A 
HETATM    6  C4  UNL     1      28.344 -32.235   6.481  1.00  0.00     0.039 A 
HETATM    7  C21 UNL     1      27.225 -30.159   6.537  1.00  0.00     0.056 A 
HETATM    8  C3  UNL     1      27.791 -32.584   5.284  1.00  0.00     0.070 A 
HETATM    9  C2  UNL     1      26.924 -31.701   4.678  1.00  0.00     0.112 A 
HETATM   10 CL1  UNL     1      28.139 -34.103   4.487  1.00  0.00    -0.081 Cl
HETATM   11  C22 UNL     1      26.646 -30.502   5.303  1.00  0.00     0.084 A 
HETATM   12 CL2  UNL     1      25.538 -29.426   4.483  1.00  0.00    -0.080 Cl
HETATM   13  C20 UNL     1      26.861 -28.928   7.052  1.00  0.00     0.226 A 
HETATM   14  S2  UNL     1      27.562 -28.516   8.547  1.00  0.00    -0.052 SA
HETATM   15  O4  UNL     1      26.055 -28.202   6.404  1.00  0.00    -0.279 OA
BRANCH   9  16
HETATM   16  O1  UNL     1      26.361 -32.044   3.470  1.00  0.00    -0.352 OA
HETATM   17  C1  UNL     1      26.937 -31.702   2.223  1.00  0.00     0.210 C 
ENDBRANCH   9  16
ENDBRANCH   2   3
ENDBRANCH   1   2
BRANCH   1  18
HETATM   18  S1  UNL     1      31.397 -27.923  10.016  1.00  0.00    -0.078 SA
BRANCH  18  19
HETATM   19  C10 UNL     1      31.091 -27.424   8.329  1.00  0.00     0.146 A 
HETATM   20  N1  UNL     1      30.793 -26.216   7.822  1.00  0.00    -0.335 N 
HETATM   21  C11 UNL     1      30.653 -26.322   6.497  1.00  0.00     0.061 A 
ATOM     22  H1  UNL     1      30.689 -25.357   8.361  1.00  0.00     0.168 HD
HETATM   23  C12 UNL     1      30.349 -25.394   5.493  1.00  0.00     0.039 A 
HETATM   24  C18 UNL     1      30.868 -27.629   6.151  1.00  0.00     0.061 A 
HETATM   25  C13 UNL     1      30.260 -25.757   4.167  1.00  0.00    -0.054 A 
HETATM   26  C14 UNL     1      29.937 -24.772   3.093  1.00  0.00     0.049 C 
HETATM   27  C15 UNL     1      30.481 -27.078   3.842  1.00  0.00    -0.054 A 
HETATM   28  C16 UNL     1      30.388 -27.493   2.398  1.00  0.00     0.049 C 
HETATM   29  C17 UNL     1      30.780 -28.004   4.815  1.00  0.00     0.039 A 
HETATM   30  N2  UNL     1      31.137 -28.304   7.286  1.00  0.00    -0.335 N 
ATOM     31  H2  UNL     1      31.341 -29.302   7.353  1.00  0.00     0.168 HD
ENDBRANCH  18  19
ENDBRANCH   1  18
BRANCH   1  32
HETATM   32  C19 UNL     1      29.785 -27.902  12.218  1.00  0.00     0.188 C 
HETATM   33  O2  UNL     1      30.515 -26.974  12.640  1.00  0.00    -0.647 OA
HETATM   34  O3  UNL     1      29.008 -28.589  13.129  1.00  0.00    -0.647 OA
ENDBRANCH   1  32
TORSDOF 6
ENDMDL
MODEL 4
REMARK VINA RESULT: -7.586047534      9.473     12.114
REMARK  6 active torsions:
REMARK  status: ('A' for Active; 'I' for Inactive)
REMARK    1  A    between atoms: O1_2  and  C2_3 
REMARK    2  A    between atoms: C7_9  and  C8_10 
REMARK    3  A    between atoms: C8_10  and  C9_11 
REMARK    4  A    between atoms: C9_11  and  S1_12 
REMARK    5  A    between atoms: C9_11  and  C19_26 
REMARK    6  A    between atoms: S1_12  and  C10_13 
ROOT
HETATM    1  C9  UNL     1      27.561 -30.750   4.043  1.00  0.00     0.161 C 
ENDROOT
BRANCH   1   2
HETATM    2  C8  UNL     1      26.747 -31.571   4.978  1.00  0.00     0.072 C 
BRANCH   2   3
HETATM    3  C7  UNL     1      27.524 -32.473   5.867  1.00  0.00    -0.011 A 
HETATM    4  C6  UNL     1      27.678 -33.806   5.556  1.00  0.00     0.027 A 
HETATM    5  C5  UNL     1      28.373 -34.721   6.306  1.00  0.00    -0.017 A 
HETATM    6  C4  UNL     1      28.425 -36.036   5.832  1.00  0.00     0.039 A 
HETATM    7  C21 UNL     1      29.033 -34.470   7.489  1.00  0.00     0.056 A 
HETATM    8  C3  UNL     1      29.074 -37.060   6.458  1.00  0.00     0.070 A 
HETATM    9  C2  UNL     1      29.730 -36.797   7.642  1.00  0.00     0.112 A 
HETATM   10 CL1  UNL     1      29.107 -38.690   5.821  1.00  0.00    -0.081 Cl
HETATM   11  C22 UNL     1      29.707 -35.513   8.148  1.00  0.00     0.084 A 
HETATM   12 CL2  UNL     1      30.557 -35.245   9.651  1.00  0.00    -0.080 Cl
HETATM   13  C20 UNL     1      29.088 -33.233   8.105  1.00  0.00     0.226 A 
HETATM   14  S2  UNL     1      28.273 -31.972   7.304  1.00  0.00    -0.052 SA
HETATM   15  O4  UNL     1      29.722 -33.113   9.192  1.00  0.00    -0.279 OA
BRANCH   9  16
HETATM   16  O1  UNL     1      30.387 -37.824   8.281  1.00  0.00    -0.352 OA
HETATM   17  C1  UNL     1      31.730 -38.173   8.003  1.00  0.00     0.210 C 
ENDBRANCH   9  16
ENDBRANCH   2   3
ENDBRANCH   1   2
BRANCH   1  18
HETATM   18  S1  UNL     1      27.673 -29.055   4.735  1.00  0.00    -0.078 SA
BRANCH  18  19
HETATM   19  C10 UNL     1      28.940 -28.189   3.822  1.00  0.00     0.146 A 
HETATM   20  N1  UNL     1      29.918 -28.662   3.033  1.00  0.00    -0.335 N 
HETATM   21  C11 UNL     1      30.629 -27.636   2.556  1.00  0.00     0.061 A 
ATOM     22  H1  UNL     1      30.091 -29.646   2.830  1.00  0.00     0.168 HD
HETATM   23  C12 UNL     1      31.738 -27.558   1.705  1.00  0.00     0.039 A 
HETATM   24  C18 UNL     1      30.090 -26.480   3.054  1.00  0.00     0.061 A 
HETATM   25  C13 UNL     1      32.304 -26.353   1.352  1.00  0.00    -0.054 A 
HETATM   26  C14 UNL     1      33.486 -26.264   0.444  1.00  0.00     0.049 C 
HETATM   27  C15 UNL     1      31.745 -25.202   1.865  1.00  0.00    -0.054 A 
HETATM   28  C16 UNL     1      32.349 -23.875   1.490  1.00  0.00     0.049 C 
HETATM   29  C17 UNL     1      30.655 -25.258   2.703  1.00  0.00     0.039 A 
HETATM   30  N2  UNL     1      29.049 -26.827   3.835  1.00  0.00    -0.335 N 
ATOM     31  H2  UNL     1      28.445 -26.183   4.347  1.00  0.00     0.168 HD
ENDBRANCH  18  19
ENDBRANCH   1  18
BRANCH   1  32
HETATM   32  C19 UNL     1      27.150 -30.732   2.646  1.00  0.00     0.188 C 
HETATM   33  O2  UNL     1      27.996 -30.909   1.737  1.00  0.00    -0.647 OA
HETATM   34  O3  UNL     1      25.835 -30.522   2.284  1.00  0.00    -0.647 OA
ENDBRANCH   1  32
TORSDOF 6
ENDMDL
MODEL 5
REMARK VINA RESULT: -7.585359679      9.587     12.106
REMARK  6 active torsions:
REMARK  status: ('A' for Active; 'I' for Inactive)
REMARK    1  A    between atoms: O1_2  and  C2_3 
REMARK    2  A    between atoms: C7_9  and  C8_10 
REMARK    3  A    between atoms: C8_10  and  C9_11 
REMARK    4  A    between atoms: C9_11  and  S1_12 
REMARK    5  A    between atoms: C9_11  and  C19_26 
REMARK    6  A    between atoms: S1_12  and  C10_13 
ROOT
HETATM    1  C9  UNL     1      27.584 -30.951   3.868  1.00  0.00     0.161 C 
ENDROOT
BRANCH   1   2
HETATM    2  C8  UNL     1      26.747 -31.864   4.689  1.00  0.00     0.072 C 
BRANCH   2   3
HETATM    3  C7  UNL     1      27.496 -32.712   5.653  1.00  0.00    -0.011 A 
HETATM    4  C6  UNL     1      27.731 -34.042   5.385  1.00  0.00     0.027 A 
HETATM    5  C5  UNL     1      28.409 -34.909   6.205  1.00  0.00    -0.017 A 
HETATM    6  C4  UNL     1      28.553 -36.230   5.767  1.00  0.00     0.039 A 
HETATM    7  C21 UNL     1      28.968 -34.604   7.426  1.00  0.00     0.056 A 
HETATM    8  C3  UNL     1      29.200 -37.210   6.462  1.00  0.00     0.070 A 
HETATM    9  C2  UNL     1      29.755 -36.893   7.683  1.00  0.00     0.112 A 
HETATM   10 CL1  UNL     1      29.352 -38.850   5.868  1.00  0.00    -0.081 Cl
HETATM   11  C22 UNL     1      29.638 -35.602   8.156  1.00  0.00     0.084 A 
HETATM   12 CL2  UNL     1      30.363 -35.265   9.710  1.00  0.00    -0.080 Cl
HETATM   13  C20 UNL     1      28.924 -33.354   8.015  1.00  0.00     0.226 A 
HETATM   14  S2  UNL     1      28.115 -32.148   7.128  1.00  0.00    -0.052 SA
HETATM   15  O4  UNL     1      29.471 -33.183   9.142  1.00  0.00    -0.279 OA
BRANCH   9  16
HETATM   16  O1  UNL     1      30.409 -37.876   8.392  1.00  0.00    -0.352 OA
HETATM   17  C1  UNL     1      31.799 -38.116   8.279  1.00  0.00     0.210 C 
ENDBRANCH   9  16
ENDBRANCH   2   3
ENDBRANCH   1   2
BRANCH   1  18
HETATM   18  S1  UNL     1      27.548 -29.295   4.656  1.00  0.00    -0.078 SA
BRANCH  18  19
HETATM   19  C10 UNL     1      28.770 -28.286   3.833  1.00  0.00     0.146 A 
HETATM   20  N1  UNL     1      28.934 -26.953   3.829  1.00  0.00    -0.335 N 
HETATM   21  C11 UNL     1      29.992 -26.646   3.071  1.00  0.00     0.061 A 
ATOM     22  H1  UNL     1      28.346 -26.282   4.323  1.00  0.00     0.168 HD
HETATM   23  C12 UNL     1      30.598 -25.432   2.727  1.00  0.00     0.039 A 
HETATM   24  C18 UNL     1      30.514 -27.813   2.581  1.00  0.00     0.061 A 
HETATM   25  C13 UNL     1      31.706 -25.375   1.911  1.00  0.00    -0.054 A 
HETATM   26  C14 UNL     1      32.358 -24.083   1.542  1.00  0.00     0.049 C 
HETATM   27  C15 UNL     1      32.216 -26.562   1.430  1.00  0.00    -0.054 A 
HETATM   28  C16 UNL     1      33.427 -26.520   0.537  1.00  0.00     0.049 C 
HETATM   29  C17 UNL     1      31.633 -27.765   1.756  1.00  0.00     0.039 A 
HETATM   30  N2  UNL     1      29.756 -28.821   3.054  1.00  0.00    -0.335 N 
ATOM     31  H2  UNL     1      29.896 -29.814   2.864  1.00  0.00     0.168 HD
ENDBRANCH  18  19
ENDBRANCH   1  18
BRANCH   1  32
HETATM   32  C19 UNL     1      27.281 -30.873   2.446  1.00  0.00     0.188 C 
HETATM   33  O2  UNL     1      26.099 -30.713   2.060  1.00  0.00    -0.647 OA
HETATM   34  O3  UNL     1      28.273 -30.969   1.490  1.00  0.00    -0.647 OA
ENDBRANCH   1  32
TORSDOF 6
ENDMDL
