MODEL 1
REMARK VINA RESULT: -7.310503931      0.000      0.000
REMARK  9 active torsions:
REMARK  status: ('A' for Active; 'I' for Inactive)
REMARK    1  A    between atoms: O1_2  and  C2_3 
REMARK    2  A    between atoms: C5_6  and  N1_7 
REMARK    3  A    between atoms: C9_17  and  C10_18 
REMARK    4  A    between atoms: C11_19  and  C12_20 
REMARK    5  A    between atoms: C12_20  and  C13_21 
REMARK    6  A    between atoms: C13_21  and  C14_22 
REMARK    7  A    between atoms: C14_22  and  N4_23 
REMARK    8  A    between atoms: C15_24  and  N5_25 
REMARK    9  A    between atoms: N5_25  and  C17_27 
ROOT
HETATM    1  C12 UNL     1      27.199 -27.901   7.570  1.00  0.00     0.096 C 
ENDROOT
BRANCH   1   2
HETATM    2  C11 UNL     1      26.811 -28.740   6.447  1.00  0.00    -0.101 C 
HETATM    3  C10 UNL     1      26.495 -29.451   5.529  1.00  0.00    -0.064 C 
BRANCH   3   4
HETATM    4  C9  UNL     1      26.138 -30.311   4.449  1.00  0.00     0.053 A 
HETATM    5  C2  UNL     1      26.619 -31.608   4.407  1.00  0.00     0.088 A 
HETATM    6  C3  UNL     1      26.272 -32.430   3.366  1.00  0.00     0.055 A 
HETATM    7  C4  UNL     1      25.454 -31.993   2.365  1.00  0.00     0.037 A 
HETATM    8  C5  UNL     1      25.078 -32.795   1.292  1.00  0.00     0.112 A 
HETATM    9  C7  UNL     1      24.985 -30.696   2.427  1.00  0.00     0.048 A 
HETATM   10  N2  UNL     1      24.264 -32.256   0.358  1.00  0.00    -0.338 N 
HETATM   11  C6  UNL     1      23.824 -31.001   0.440  1.00  0.00     0.182 A 
ATOM     12  H2  UNL     1      23.977 -32.829  -0.436  1.00  0.00     0.168 HD
HETATM   13  N3  UNL     1      24.183 -30.232   1.466  1.00  0.00    -0.351 N 
ATOM     14  H3  UNL     1      23.840 -29.272   1.519  1.00  0.00     0.166 HD
HETATM   15  C8  UNL     1      25.311 -29.831   3.460  1.00  0.00     0.054 A 
BRANCH   5  16
HETATM   16  O1  UNL     1      27.448 -32.026   5.439  1.00  0.00    -0.354 OA
HETATM   17  C1  UNL     1      28.002 -33.327   5.446  1.00  0.00     0.210 C 
ENDBRANCH   5  16
BRANCH   8  18
HETATM   18  N1  UNL     1      25.487 -33.989   1.202  1.00  0.00    -0.385 N 
ATOM     19  H12 UNL     1      26.135 -34.382   1.884  1.00  0.00     0.157 HD
ATOM     20  H11 UNL     1      25.176 -34.590   0.439  1.00  0.00     0.157 HD
ENDBRANCH   8  18
ENDBRANCH   3   4
ENDBRANCH   1   2
BRANCH   1  21
HETATM   21  C13 UNL     1      27.509 -28.681   8.779  1.00  0.00     0.033 C 
BRANCH  21  22
HETATM   22  C14 UNL     1      28.834 -29.282   8.978  1.00  0.00     0.149 C 
BRANCH  22  23
HETATM   23  N4  UNL     1      29.790 -28.588   9.785  1.00  0.00    -0.181 N 
HETATM   24  C15 UNL     1      30.822 -27.846   9.278  1.00  0.00     0.683 A 
HETATM   25  N6  UNL     1      31.458 -27.340  10.363  1.00  0.00    -0.189 N 
HETATM   26  C20 UNL     1      30.885 -27.721  11.502  1.00  0.00     0.078 A 
ATOM     27  H6  UNL     1      32.281 -26.738  10.312  1.00  0.00     0.184 HD
HETATM   28  C21 UNL     1      31.148 -27.463  12.838  1.00  0.00     0.058 A 
HETATM   29  C25 UNL     1      29.816 -28.520  11.123  1.00  0.00     0.080 A 
HETATM   30  C22 UNL     1      30.355 -27.988  13.840  1.00  0.00     0.058 A 
HETATM   31 CL1  UNL     1      30.709 -27.646  15.524  1.00  0.00    -0.082 Cl
HETATM   32  C23 UNL     1      29.283 -28.785  13.500  1.00  0.00     0.058 A 
HETATM   33 CL2  UNL     1      28.285 -29.443  14.779  1.00  0.00    -0.082 Cl
HETATM   34  C24 UNL     1      29.045 -29.026  12.169  1.00  0.00     0.058 A 
BRANCH  24  35
HETATM   35  N5  UNL     1      31.190 -27.603   7.927  1.00  0.00    -0.218 N 
HETATM   36  C16 UNL     1      32.216 -28.383   7.294  1.00  0.00     0.169 C 
BRANCH  35  37
HETATM   37  C17 UNL     1      30.502 -26.595   7.169  1.00  0.00     0.093 C 
HETATM   38  C18 UNL     1      30.595 -27.067   5.702  1.00  0.00     0.032 C 
HETATM   39  C19 UNL     1      31.250 -25.267   7.214  1.00  0.00     0.032 C 
ENDBRANCH  35  37
ENDBRANCH  24  35
ENDBRANCH  22  23
ENDBRANCH  21  22
ENDBRANCH   1  21
TORSDOF 9
ENDMDL
MODEL 2
REMARK VINA RESULT: -7.103791027      3.090      4.663
REMARK  9 active torsions:
REMARK  status: ('A' for Active; 'I' for Inactive)
REMARK    1  A    between atoms: O1_2  and  C2_3 
REMARK    2  A    between atoms: C5_6  and  N1_7 
REMARK    3  A    between atoms: C9_17  and  C10_18 
REMARK    4  A    between atoms: C11_19  and  C12_20 
REMARK    5  A    between atoms: C12_20  and  C13_21 
REMARK    6  A    between atoms: C13_21  and  C14_22 
REMARK    7  A    between atoms: C14_22  and  N4_23 
REMARK    8  A    between atoms: C15_24  and  N5_25 
REMARK    9  A    between atoms: N5_25  and  C17_27 
ROOT
HETATM    1  C12 UNL     1      26.766 -27.881   7.672  1.00  0.00     0.096 C 
ENDROOT
BRANCH   1   2
HETATM    2  C11 UNL     1      26.484 -28.722   6.519  1.00  0.00    -0.101 C 
HETATM    3  C10 UNL     1      26.239 -29.431   5.578  1.00  0.00    -0.064 C 
BRANCH   3   4
HETATM    4  C9  UNL     1      25.948 -30.291   4.478  1.00  0.00     0.053 A 
HETATM    5  C2  UNL     1      26.445 -31.582   4.457  1.00  0.00     0.088 A 
HETATM    6  C3  UNL     1      26.160 -32.403   3.397  1.00  0.00     0.055 A 
HETATM    7  C4  UNL     1      25.390 -31.971   2.356  1.00  0.00     0.037 A 
HETATM    8  C5  UNL     1      25.079 -32.774   1.263  1.00  0.00     0.112 A 
HETATM    9  C7  UNL     1      24.904 -30.680   2.398  1.00  0.00     0.048 A 
HETATM   10  N2  UNL     1      24.308 -32.240   0.290  1.00  0.00    -0.338 N 
HETATM   11  C6  UNL     1      23.850 -30.990   0.353  1.00  0.00     0.182 A 
ATOM     12  H2  UNL     1      24.068 -32.813  -0.520  1.00  0.00     0.168 HD
HETATM   13  N3  UNL     1      24.148 -30.221   1.399  1.00  0.00    -0.351 N 
ATOM     14  H3  UNL     1      23.792 -29.266   1.438  1.00  0.00     0.166 HD
HETATM   15  C8  UNL     1      25.167 -29.816   3.449  1.00  0.00     0.054 A 
BRANCH   5  16
HETATM   16  O1  UNL     1      27.225 -31.995   5.528  1.00  0.00    -0.354 OA
HETATM   17  C1  UNL     1      27.944 -33.211   5.479  1.00  0.00     0.210 C 
ENDBRANCH   5  16
BRANCH   8  18
HETATM   18  N1  UNL     1      25.505 -33.962   1.190  1.00  0.00    -0.385 N 
ATOM     19  H12 UNL     1      26.130 -34.348   1.898  1.00  0.00     0.157 HD
ATOM     20  H11 UNL     1      25.232 -34.568   0.416  1.00  0.00     0.157 HD
ENDBRANCH   8  18
ENDBRANCH   3   4
ENDBRANCH   1   2
BRANCH   1  21
HETATM   21  C13 UNL     1      27.597 -28.560   8.679  1.00  0.00     0.033 C 
BRANCH  21  22
HETATM   22  C14 UNL     1      28.837 -29.252   8.303  1.00  0.00     0.149 C 
BRANCH  22  23
HETATM   23  N4  UNL     1      30.006 -28.470   8.034  1.00  0.00    -0.181 N 
HETATM   24  C15 UNL     1      30.978 -28.207   8.960  1.00  0.00     0.683 A 
HETATM   25  N6  UNL     1      31.907 -27.475   8.297  1.00  0.00    -0.189 N 
HETATM   26  C20 UNL     1      31.570 -27.273   7.025  1.00  0.00     0.078 A 
ATOM     27  H6  UNL     1      32.763 -27.121   8.724  1.00  0.00     0.184 HD
HETATM   28  C21 UNL     1      32.180 -26.618   5.967  1.00  0.00     0.058 A 
HETATM   29  C25 UNL     1      30.351 -27.915   6.865  1.00  0.00     0.080 A 
HETATM   30  C22 UNL     1      31.599 -26.581   4.715  1.00  0.00     0.058 A 
HETATM   31 CL1  UNL     1      32.391 -25.745   3.392  1.00  0.00    -0.082 Cl
HETATM   32  C23 UNL     1      30.388 -27.211   4.518  1.00  0.00     0.058 A 
HETATM   33 CL2  UNL     1      29.663 -27.158   2.926  1.00  0.00    -0.082 Cl
HETATM   34  C24 UNL     1      29.805 -27.852   5.583  1.00  0.00     0.058 A 
BRANCH  24  35
HETATM   35  N5  UNL     1      31.065 -28.599  10.324  1.00  0.00    -0.218 N 
HETATM   36  C16 UNL     1      31.880 -29.714  10.716  1.00  0.00     0.169 C 
BRANCH  35  37
HETATM   37  C17 UNL     1      30.366 -27.848  11.329  1.00  0.00     0.093 C 
HETATM   38  C18 UNL     1      31.421 -27.565  12.420  1.00  0.00     0.032 C 
HETATM   39  C19 UNL     1      29.300 -28.700  12.010  1.00  0.00     0.032 C 
ENDBRANCH  35  37
ENDBRANCH  24  35
ENDBRANCH  22  23
ENDBRANCH  21  22
ENDBRANCH   1  21
TORSDOF 9
ENDMDL
MODEL 3
REMARK VINA RESULT: -7.066204814      4.391     10.026
REMARK  9 active torsions:
REMARK  status: ('A' for Active; 'I' for Inactive)
REMARK    1  A    between atoms: O1_2  and  C2_3 
REMARK    2  A    between atoms: C5_6  and  N1_7 
REMARK    3  A    between atoms: C9_17  and  C10_18 
REMARK    4  A    between atoms: C11_19  and  C12_20 
REMARK    5  A    between atoms: C12_20  and  C13_21 
REMARK    6  A    between atoms: C13_21  and  C14_22 
REMARK    7  A    between atoms: C14_22  and  N4_23 
REMARK    8  A    between atoms: C15_24  and  N5_25 
REMARK    9  A    between atoms: N5_25  and  C17_27 
ROOT
HETATM    1  C12 UNL     1      25.933 -29.721   7.179  1.00  0.00     0.096 C 
ENDROOT
BRANCH   1   2
HETATM    2  C11 UNL     1      27.047 -29.314   8.021  1.00  0.00    -0.101 C 
HETATM    3  C10 UNL     1      27.981 -28.977   8.700  1.00  0.00    -0.064 C 
BRANCH   3   4
HETATM    4  C9  UNL     1      29.104 -28.588   9.489  1.00  0.00     0.053 A 
HETATM    5  C2  UNL     1      30.280 -28.194   8.874  1.00  0.00     0.088 A 
HETATM    6  C3  UNL     1      31.355 -27.822   9.639  1.00  0.00     0.055 A 
HETATM    7  C4  UNL     1      31.289 -27.830  11.002  1.00  0.00     0.037 A 
HETATM    8  C5  UNL     1      32.357 -27.458  11.812  1.00  0.00     0.112 A 
HETATM    9  C7  UNL     1      30.105 -28.225  11.594  1.00  0.00     0.048 A 
HETATM   10  N2  UNL     1      32.177 -27.505  13.151  1.00  0.00    -0.338 N 
HETATM   11  C6  UNL     1      31.025 -27.890  13.699  1.00  0.00     0.182 A 
ATOM     12  H2  UNL     1      32.949 -27.236  13.762  1.00  0.00     0.168 HD
HETATM   13  N3  UNL     1      30.002 -28.245  12.924  1.00  0.00    -0.351 N 
ATOM     14  H3  UNL     1      29.124 -28.538  13.354  1.00  0.00     0.166 HD
HETATM   15  C8  UNL     1      28.994 -28.610  10.860  1.00  0.00     0.054 A 
BRANCH   5  16
HETATM   16  O1  UNL     1      30.319 -28.196   7.487  1.00  0.00    -0.354 OA
HETATM   17  C1  UNL     1      30.399 -26.986   6.760  1.00  0.00     0.210 C 
ENDBRANCH   5  16
BRANCH   8  18
HETATM   18  N1  UNL     1      33.456 -27.089  11.306  1.00  0.00    -0.385 N 
ATOM     19  H12 UNL     1      33.595 -26.135  10.974  1.00  0.00     0.157 HD
ATOM     20  H11 UNL     1      34.235 -27.742  11.219  1.00  0.00     0.157 HD
ENDBRANCH   8  18
ENDBRANCH   3   4
ENDBRANCH   1   2
BRANCH   1  21
HETATM   21  C13 UNL     1      26.012 -29.155   5.822  1.00  0.00     0.033 C 
BRANCH  21  22
HETATM   22  C14 UNL     1      27.148 -29.448   4.939  1.00  0.00     0.149 C 
BRANCH  22  23
HETATM   23  N4  UNL     1      27.188 -30.711   4.266  1.00  0.00    -0.181 N 
HETATM   24  C15 UNL     1      28.071 -31.711   4.571  1.00  0.00     0.683 A 
HETATM   25  N6  UNL     1      27.753 -32.729   3.734  1.00  0.00    -0.189 N 
HETATM   26  C20 UNL     1      26.732 -32.422   2.938  1.00  0.00     0.078 A 
ATOM     27  H6  UNL     1      28.240 -33.625   3.718  1.00  0.00     0.184 HD
HETATM   28  C21 UNL     1      26.047 -33.113   1.951  1.00  0.00     0.058 A 
HETATM   29  C25 UNL     1      26.375 -31.127   3.286  1.00  0.00     0.080 A 
HETATM   30  C22 UNL     1      24.983 -32.541   1.280  1.00  0.00     0.058 A 
HETATM   31 CL1  UNL     1      24.133 -33.437   0.035  1.00  0.00    -0.082 Cl
HETATM   32  C23 UNL     1      24.599 -31.256   1.602  1.00  0.00     0.058 A 
HETATM   33 CL2  UNL     1      23.250 -30.544   0.746  1.00  0.00    -0.082 Cl
HETATM   34  C24 UNL     1      25.295 -30.593   2.583  1.00  0.00     0.058 A 
BRANCH  24  35
HETATM   35  N5  UNL     1      29.105 -31.746   5.547  1.00  0.00    -0.218 N 
HETATM   36  C16 UNL     1      30.398 -31.188   5.266  1.00  0.00     0.169 C 
BRANCH  35  37
HETATM   37  C17 UNL     1      28.845 -32.306   6.843  1.00  0.00     0.093 C 
HETATM   38  C18 UNL     1      29.990 -31.786   7.739  1.00  0.00     0.032 C 
HETATM   39  C19 UNL     1      29.000 -33.823   6.828  1.00  0.00     0.032 C 
ENDBRANCH  35  37
ENDBRANCH  24  35
ENDBRANCH  22  23
ENDBRANCH  21  22
ENDBRANCH   1  21
TORSDOF 9
ENDMDL
MODEL 4
REMARK VINA RESULT: -7.065971363      3.955      9.870
REMARK  9 active torsions:
REMARK  status: ('A' for Active; 'I' for Inactive)
REMARK    1  A    between atoms: O1_2  and  C2_3 
REMARK    2  A    between atoms: C5_6  and  N1_7 
REMARK    3  A    between atoms: C9_17  and  C10_18 
REMARK    4  A    between atoms: C11_19  and  C12_20 
REMARK    5  A    between atoms: C12_20  and  C13_21 
REMARK    6  A    between atoms: C13_21  and  C14_22 
REMARK    7  A    between atoms: C14_22  and  N4_23 
REMARK    8  A    between atoms: C15_24  and  N5_25 
REMARK    9  A    between atoms: N5_25  and  C17_27 
ROOT
HETATM    1  C12 UNL     1      28.845 -29.659   9.600  1.00  0.00     0.096 C 
ENDROOT
BRANCH   1   2
HETATM    2  C11 UNL     1      28.958 -29.218  10.982  1.00  0.00    -0.101 C 
HETATM    3  C10 UNL     1      29.031 -28.860  12.128  1.00  0.00    -0.064 C 
BRANCH   3   4
HETATM    4  C9  UNL     1      29.093 -28.431  13.487  1.00  0.00     0.053 A 
HETATM    5  C2  UNL     1      29.909 -27.371  13.843  1.00  0.00     0.088 A 
HETATM    6  C3  UNL     1      29.964 -26.964  15.151  1.00  0.00     0.055 A 
HETATM    7  C4  UNL     1      29.223 -27.585  16.114  1.00  0.00     0.037 A 
HETATM    8  C5  UNL     1      29.250 -27.201  17.452  1.00  0.00     0.112 A 
HETATM    9  C7  UNL     1      28.415 -28.639  15.737  1.00  0.00     0.048 A 
HETATM   10  N2  UNL     1      28.475 -27.888  18.320  1.00  0.00    -0.338 N 
HETATM   11  C6  UNL     1      27.702 -28.902  17.931  1.00  0.00     0.182 A 
ATOM     12  H2  UNL     1      28.481 -27.622  19.304  1.00  0.00     0.168 HD
HETATM   13  N3  UNL     1      27.676 -29.270  16.651  1.00  0.00    -0.351 N 
ATOM     14  H3  UNL     1      27.081 -30.048  16.364  1.00  0.00     0.166 HD
HETATM   15  C8  UNL     1      28.330 -29.084  14.427  1.00  0.00     0.054 A 
BRANCH   5  16
HETATM   16  O1  UNL     1      30.651 -26.759  12.843  1.00  0.00    -0.354 OA
HETATM   17  C1  UNL     1      32.022 -27.057  12.667  1.00  0.00     0.210 C 
ENDBRANCH   5  16
BRANCH   8  18
HETATM   18  N1  UNL     1      29.977 -26.240  17.835  1.00  0.00    -0.385 N 
ATOM     19  H12 UNL     1      29.964 -25.916  18.802  1.00  0.00     0.157 HD
ATOM     20  H11 UNL     1      30.598 -25.762  17.182  1.00  0.00     0.157 HD
ENDBRANCH   8  18
ENDBRANCH   3   4
ENDBRANCH   1   2
BRANCH   1  21
HETATM   21  C13 UNL     1      30.142 -30.046   9.022  1.00  0.00     0.033 C 
BRANCH  21  22
HETATM   22  C14 UNL     1      30.517 -29.649   7.659  1.00  0.00     0.149 C 
BRANCH  22  23
HETATM   23  N4  UNL     1      30.352 -28.281   7.270  1.00  0.00    -0.181 N 
HETATM   24  C15 UNL     1      29.390 -27.845   6.400  1.00  0.00     0.683 A 
HETATM   25  N6  UNL     1      29.558 -26.502   6.333  1.00  0.00    -0.189 N 
HETATM   26  C20 UNL     1      30.558 -26.084   7.105  1.00  0.00     0.078 A 
ATOM     27  H6  UNL     1      28.985 -25.885   5.758  1.00  0.00     0.184 HD
HETATM   28  C21 UNL     1      31.097 -24.837   7.381  1.00  0.00     0.058 A 
HETATM   29  C25 UNL     1      31.061 -27.230   7.703  1.00  0.00     0.080 A 
HETATM   30  C22 UNL     1      32.150 -24.688   8.262  1.00  0.00     0.058 A 
HETATM   31 CL1  UNL     1      32.813 -23.099   8.594  1.00  0.00    -0.082 Cl
HETATM   32  C23 UNL     1      32.674 -25.806   8.877  1.00  0.00     0.058 A 
HETATM   33 CL2  UNL     1      34.007 -25.605   9.992  1.00  0.00    -0.082 Cl
HETATM   34  C24 UNL     1      32.123 -27.030   8.585  1.00  0.00     0.058 A 
BRANCH  24  35
HETATM   35  N5  UNL     1      28.393 -28.581   5.703  1.00  0.00    -0.218 N 
HETATM   36  C16 UNL     1      28.493 -28.790   4.285  1.00  0.00     0.169 C 
BRANCH  35  37
HETATM   37  C17 UNL     1      27.295 -29.160   6.425  1.00  0.00     0.093 C 
HETATM   38  C18 UNL     1      26.269 -29.554   5.341  1.00  0.00     0.032 C 
HETATM   39  C19 UNL     1      26.593 -28.116   7.287  1.00  0.00     0.032 C 
ENDBRANCH  35  37
ENDBRANCH  24  35
ENDBRANCH  22  23
ENDBRANCH  21  22
ENDBRANCH   1  21
TORSDOF 9
ENDMDL
MODEL 5
REMARK VINA RESULT: -7.034642936      4.350     10.330
REMARK  9 active torsions:
REMARK  status: ('A' for Active; 'I' for Inactive)
REMARK    1  A    between atoms: O1_2  and  C2_3 
REMARK    2  A    between atoms: C5_6  and  N1_7 
REMARK    3  A    between atoms: C9_17  and  C10_18 
REMARK    4  A    between atoms: C11_19  and  C12_20 
REMARK    5  A    between atoms: C12_20  and  C13_21 
REMARK    6  A    between atoms: C13_21  and  C14_22 
REMARK    7  A    between atoms: C14_22  and  N4_23 
REMARK    8  A    between atoms: C15_24  and  N5_25 
REMARK    9  A    between atoms: N5_25  and  C17_27 
ROOT
HETATM    1  C12 UNL     1      29.822 -28.724   8.793  1.00  0.00     0.096 C 
ENDROOT
BRANCH   1   2
HETATM    2  C11 UNL     1      29.729 -28.535  10.232  1.00  0.00    -0.101 C 
HETATM    3  C10 UNL     1      29.658 -28.357  11.420  1.00  0.00    -0.064 C 
BRANCH   3   4
HETATM    4  C9  UNL     1      29.591 -28.130  12.827  1.00  0.00     0.053 A 
HETATM    5  C2  UNL     1      30.421 -27.192  13.417  1.00  0.00     0.088 A 
HETATM    6  C3  UNL     1      30.351 -26.978  14.769  1.00  0.00     0.055 A 
HETATM    7  C4  UNL     1      29.473 -27.673  15.550  1.00  0.00     0.037 A 
HETATM    8  C5  UNL     1      29.372 -27.484  16.924  1.00  0.00     0.112 A 
HETATM    9  C7  UNL     1      28.655 -28.602  14.940  1.00  0.00     0.048 A 
HETATM   10  N2  UNL     1      28.467 -28.229  17.597  1.00  0.00    -0.338 N 
HETATM   11  C6  UNL     1      27.687 -29.120  16.985  1.00  0.00     0.182 A 
ATOM     12  H2  UNL     1      28.377 -28.104  18.606  1.00  0.00     0.168 HD
HETATM   13  N3  UNL     1      27.784 -29.301  15.669  1.00  0.00    -0.351 N 
ATOM     14  H3  UNL     1      27.182 -29.987  15.212  1.00  0.00     0.166 HD
HETATM   15  C8  UNL     1      28.692 -28.852  13.577  1.00  0.00     0.054 A 
BRANCH   5  16
HETATM   16  O1  UNL     1      31.303 -26.500  12.600  1.00  0.00    -0.354 OA
HETATM   17  C1  UNL     1      32.638 -26.937  12.435  1.00  0.00     0.210 C 
ENDBRANCH   5  16
BRANCH   8  18
HETATM   18  N1  UNL     1      30.104 -26.640  17.518  1.00  0.00    -0.385 N 
ATOM     19  H12 UNL     1      30.908 -26.216  17.057  1.00  0.00     0.157 HD
ATOM     20  H11 UNL     1      29.906 -26.363  18.479  1.00  0.00     0.157 HD
ENDBRANCH   8  18
ENDBRANCH   3   4
ENDBRANCH   1   2
BRANCH   1  21
HETATM   21  C13 UNL     1      29.818 -30.145   8.407  1.00  0.00     0.033 C 
BRANCH  21  22
HETATM   22  C14 UNL     1      28.573 -30.922   8.377  1.00  0.00     0.149 C 
BRANCH  22  23
HETATM   23  N4  UNL     1      28.322 -31.776   7.255  1.00  0.00    -0.181 N 
HETATM   24  C15 UNL     1      27.948 -31.323   6.019  1.00  0.00     0.683 A 
HETATM   25  N6  UNL     1      27.848 -32.436   5.252  1.00  0.00    -0.189 N 
HETATM   26  C20 UNL     1      28.137 -33.541   5.934  1.00  0.00     0.078 A 
ATOM     27  H6  UNL     1      27.582 -32.426   4.267  1.00  0.00     0.184 HD
HETATM   28  C21 UNL     1      28.191 -34.885   5.599  1.00  0.00     0.058 A 
HETATM   29  C25 UNL     1      28.442 -33.109   7.217  1.00  0.00     0.080 A 
HETATM   30  C22 UNL     1      28.551 -35.843   6.527  1.00  0.00     0.058 A 
HETATM   31 CL1  UNL     1      28.611 -37.537   6.078  1.00  0.00    -0.082 Cl
HETATM   32  C23 UNL     1      28.862 -35.449   7.811  1.00  0.00     0.058 A 
HETATM   33 CL2  UNL     1      29.318 -36.672   8.977  1.00  0.00    -0.082 Cl
HETATM   34  C24 UNL     1      28.800 -34.112   8.117  1.00  0.00     0.058 A 
BRANCH  24  35
HETATM   35  N5  UNL     1      27.717 -29.994   5.569  1.00  0.00    -0.218 N 
HETATM   36  C16 UNL     1      28.780 -29.218   4.995  1.00  0.00     0.169 C 
BRANCH  35  37
HETATM   37  C17 UNL     1      26.397 -29.432   5.647  1.00  0.00     0.093 C 
HETATM   38  C18 UNL     1      26.263 -28.555   4.384  1.00  0.00     0.032 C 
HETATM   39  C19 UNL     1      26.278 -28.469   6.823  1.00  0.00     0.032 C 
ENDBRANCH  35  37
ENDBRANCH  24  35
ENDBRANCH  22  23
ENDBRANCH  21  22
ENDBRANCH   1  21
TORSDOF 9
ENDMDL
