MODEL 1
REMARK VINA RESULT: -6.029841525      0.000      0.000
REMARK  6 active torsions:
REMARK  status: ('A' for Active; 'I' for Inactive)
REMARK    1  A    between atoms: C2_2  and  C3_3 
REMARK    2  A    between atoms: C7_9  and  O1_10 
REMARK    3  A    between atoms: O1_10  and  C8_11 
REMARK       I    between atoms: C8_11  and  N1_13 
REMARK    4  A    between atoms: C10_16  and  N2_17 
REMARK    5  A    between atoms: N2_17  and  S1_19 
REMARK    6  A    between atoms: S1_19  and  C11_22 
ROOT
HETATM    1  C3  UNL     1      29.264 -32.009   5.141  1.00  0.00    -0.006 A 
HETATM    2  C4  UNL     1      28.741 -31.788   6.398  1.00  0.00     0.044 A 
HETATM    3 CL1  UNL     1      29.499 -32.490   7.839  1.00  0.00    -0.084 Cl
HETATM    4  C5  UNL     1      27.618 -31.009   6.494  1.00  0.00     0.051 A 
HETATM    5  C6  UNL     1      27.020 -30.459   5.381  1.00  0.00     0.072 A 
HETATM    6 CL2  UNL     1      25.592 -29.434   5.548  1.00  0.00    -0.081 Cl
HETATM    7  C7  UNL     1      27.538 -30.677   4.098  1.00  0.00     0.130 A 
HETATM    8  C10 UNL     1      28.664 -31.456   3.985  1.00  0.00     0.086 A 
ENDROOT
BRANCH   8   9
HETATM    9  N2  UNL     1      29.353 -31.518   2.746  1.00  0.00    -0.277 N 
ATOM     10  H2  UNL     1      29.197 -32.420   2.297  1.00  0.00     0.179 HD
BRANCH   9  11
HETATM   11  S1  UNL     1      30.324 -30.577   1.819  1.00  0.00     0.264 S 
HETATM   12  O3  UNL     1      31.162 -31.385   0.856  1.00  0.00    -0.200 OA
HETATM   13  O4  UNL     1      29.395 -29.673   0.956  1.00  0.00    -0.200 OA
BRANCH  11  14
HETATM   14  C11 UNL     1      31.442 -29.461   2.628  1.00  0.00     0.094 A 
HETATM   15  C12 UNL     1      32.795 -29.629   2.582  1.00  0.00     0.076 A 
HETATM   16  S2  UNL     1      33.413 -28.284   3.419  1.00  0.00    -0.104 SA
HETATM   17  C13 UNL     1      31.945 -27.523   3.815  1.00  0.00    -0.007 A 
HETATM   18  C14 UNL     1      30.998 -28.339   3.284  1.00  0.00    -0.012 A 
HETATM   19  C19 UNL     1      31.575 -26.258   4.568  1.00  0.00     0.066 C 
HETATM   20  C15 UNL     1      29.572 -27.836   3.500  1.00  0.00     0.116 C 
HETATM   21  S3  UNL     1      29.418 -27.634   5.303  1.00  0.00    -0.155 SA
HETATM   22  C16 UNL     1      30.835 -26.588   5.835  1.00  0.00     0.005 C 
HETATM   23  C17 UNL     1      31.680 -27.282   6.855  1.00  0.00     0.027 C 
HETATM   24  C18 UNL     1      30.274 -25.286   6.377  1.00  0.00     0.027 C 
ENDBRANCH  11  14
ENDBRANCH   9  11
ENDBRANCH   8   9
BRANCH   1  25
HETATM   25  C2  UNL     1      30.578 -32.694   5.077  1.00  0.00     0.038 C 
HETATM   26  C1  UNL     1      31.767 -31.865   5.362  1.00  0.00     0.010 C 
ENDBRANCH   1  25
BRANCH   7  27
HETATM   27  O1  UNL     1      26.887 -30.096   3.020  1.00  0.00    -0.257 OA
BRANCH  27  28
HETATM   28  C8  UNL     1      25.869 -30.802   2.349  1.00  0.00     0.365 C 
HETATM   29  O2  UNL     1      26.188 -31.926   1.930  1.00  0.00    -0.238 OA
HETATM   30  N1  UNL     1      24.584 -30.223   2.189  1.00  0.00    -0.341 N 
HETATM   31  C9  UNL     1      23.525 -30.916   1.510  1.00  0.00     0.151 C 
ATOM     32  H1  UNL     1      24.408 -29.291   2.566  1.00  0.00     0.164 HD
ENDBRANCH  27  28
ENDBRANCH   7  27
TORSDOF 6
ENDMDL
MODEL 2
REMARK VINA RESULT: -5.920787247      2.407      3.743
REMARK  6 active torsions:
REMARK  status: ('A' for Active; 'I' for Inactive)
REMARK    1  A    between atoms: C2_2  and  C3_3 
REMARK    2  A    between atoms: C7_9  and  O1_10 
REMARK    3  A    between atoms: O1_10  and  C8_11 
REMARK       I    between atoms: C8_11  and  N1_13 
REMARK    4  A    between atoms: C10_16  and  N2_17 
REMARK    5  A    between atoms: N2_17  and  S1_19 
REMARK    6  A    between atoms: S1_19  and  C11_22 
ROOT
HETATM    1  C3  UNL     1      27.749 -32.479   5.589  1.00  0.00    -0.006 A 
HETATM    2  C4  UNL     1      28.059 -33.748   5.145  1.00  0.00     0.044 A 
HETATM    3 CL1  UNL     1      29.143 -34.799   6.074  1.00  0.00    -0.084 Cl
HETATM    4  C5  UNL     1      27.503 -34.165   3.964  1.00  0.00     0.051 A 
HETATM    5  C6  UNL     1      26.661 -33.356   3.235  1.00  0.00     0.072 A 
HETATM    6 CL2  UNL     1      25.937 -33.940   1.733  1.00  0.00    -0.081 Cl
HETATM    7  C7  UNL     1      26.338 -32.064   3.670  1.00  0.00     0.130 A 
HETATM    8  C10 UNL     1      26.888 -31.631   4.853  1.00  0.00     0.086 A 
ENDROOT
BRANCH   8   9
HETATM    9  N2  UNL     1      26.418 -30.431   5.447  1.00  0.00    -0.277 N 
ATOM     10  H2  UNL     1      25.654 -30.629   6.093  1.00  0.00     0.179 HD
BRANCH   9  11
HETATM   11  S1  UNL     1      26.733 -28.823   5.409  1.00  0.00     0.264 S 
HETATM   12  O3  UNL     1      26.388 -28.198   4.078  1.00  0.00    -0.200 OA
HETATM   13  O4  UNL     1      25.815 -28.151   6.472  1.00  0.00    -0.200 OA
BRANCH  11  14
HETATM   14  C11 UNL     1      28.377 -28.274   5.798  1.00  0.00     0.094 A 
HETATM   15  C12 UNL     1      28.669 -27.620   6.958  1.00  0.00     0.076 A 
HETATM   16  S2  UNL     1      30.352 -27.389   6.897  1.00  0.00    -0.104 SA
HETATM   17  C13 UNL     1      30.665 -28.130   5.400  1.00  0.00    -0.007 A 
HETATM   18  C14 UNL     1      29.444 -28.544   4.975  1.00  0.00    -0.012 A 
HETATM   19  C19 UNL     1      31.917 -28.364   4.573  1.00  0.00     0.066 C 
HETATM   20  C15 UNL     1      29.481 -29.271   3.633  1.00  0.00     0.116 C 
HETATM   21  S3  UNL     1      30.281 -28.099   2.491  1.00  0.00    -0.155 SA
HETATM   22  C16 UNL     1      31.859 -27.589   3.286  1.00  0.00     0.005 C 
HETATM   23  C17 UNL     1      31.926 -26.108   3.478  1.00  0.00     0.027 C 
HETATM   24  C18 UNL     1      33.000 -28.084   2.415  1.00  0.00     0.027 C 
ENDBRANCH  11  14
ENDBRANCH   9  11
ENDBRANCH   8   9
BRANCH   1  25
HETATM   25  C2  UNL     1      28.207 -32.118   6.952  1.00  0.00     0.038 C 
HETATM   26  C1  UNL     1      29.536 -31.479   7.053  1.00  0.00     0.010 C 
ENDBRANCH   1  25
BRANCH   7  27
HETATM   27  O1  UNL     1      25.486 -31.300   2.887  1.00  0.00    -0.257 OA
BRANCH  27  28
HETATM   28  C8  UNL     1      25.839 -30.991   1.559  1.00  0.00     0.365 C 
HETATM   29  O2  UNL     1      27.048 -30.789   1.362  1.00  0.00    -0.238 OA
HETATM   30  N1  UNL     1      24.843 -30.925   0.552  1.00  0.00    -0.341 N 
HETATM   31  C9  UNL     1      25.170 -30.612  -0.812  1.00  0.00     0.151 C 
ATOM     32  H1  UNL     1      23.870 -31.105   0.801  1.00  0.00     0.164 HD
ENDBRANCH  27  28
ENDBRANCH   7  27
TORSDOF 6
ENDMDL
MODEL 3
REMARK VINA RESULT: -5.899982285      2.512      4.138
REMARK  6 active torsions:
REMARK  status: ('A' for Active; 'I' for Inactive)
REMARK    1  A    between atoms: C2_2  and  C3_3 
REMARK    2  A    between atoms: C7_9  and  O1_10 
REMARK    3  A    between atoms: O1_10  and  C8_11 
REMARK       I    between atoms: C8_11  and  N1_13 
REMARK    4  A    between atoms: C10_16  and  N2_17 
REMARK    5  A    between atoms: N2_17  and  S1_19 
REMARK    6  A    between atoms: S1_19  and  C11_22 
ROOT
HETATM    1  C3  UNL     1      27.080 -30.855   3.437  1.00  0.00    -0.006 A 
HETATM    2  C4  UNL     1      25.862 -30.221   3.571  1.00  0.00     0.044 A 
HETATM    3 CL1  UNL     1      24.607 -30.385   2.330  1.00  0.00    -0.084 Cl
HETATM    4  C5  UNL     1      25.658 -29.462   4.694  1.00  0.00     0.051 A 
HETATM    5  C6  UNL     1      26.626 -29.327   5.663  1.00  0.00     0.072 A 
HETATM    6 CL2  UNL     1      26.314 -28.366   7.112  1.00  0.00    -0.081 Cl
HETATM    7  C7  UNL     1      27.869 -29.962   5.540  1.00  0.00     0.130 A 
HETATM    8  C10 UNL     1      28.090 -30.727   4.420  1.00  0.00     0.086 A 
ENDROOT
BRANCH   8   9
HETATM    9  N2  UNL     1      29.232 -31.566   4.358  1.00  0.00    -0.277 N 
ATOM     10  H2  UNL     1      28.960 -32.545   4.440  1.00  0.00     0.179 HD
BRANCH   9  11
HETATM   11  S1  UNL     1      30.858 -31.435   4.192  1.00  0.00     0.264 S 
HETATM   12  O3  UNL     1      31.605 -32.499   4.963  1.00  0.00    -0.200 OA
HETATM   13  O4  UNL     1      31.185 -31.661   2.686  1.00  0.00    -0.200 OA
BRANCH  11  14
HETATM   14  C11 UNL     1      31.629 -29.892   4.612  1.00  0.00     0.094 A 
HETATM   15  C12 UNL     1      32.591 -29.799   5.574  1.00  0.00     0.076 A 
HETATM   16  S2  UNL     1      33.061 -28.166   5.541  1.00  0.00    -0.104 SA
HETATM   17  C13 UNL     1      32.030 -27.621   4.303  1.00  0.00    -0.007 A 
HETATM   18  C14 UNL     1      31.338 -28.730   3.940  1.00  0.00    -0.012 A 
HETATM   19  C19 UNL     1      31.790 -26.278   3.637  1.00  0.00     0.066 C 
HETATM   20  C15 UNL     1      30.346 -28.483   2.805  1.00  0.00     0.116 C 
HETATM   21  S3  UNL     1      29.280 -27.133   3.403  1.00  0.00    -0.155 SA
HETATM   22  C16 UNL     1      30.403 -25.776   3.933  1.00  0.00     0.005 C 
HETATM   23  C17 UNL     1      30.194 -25.416   5.369  1.00  0.00     0.027 C 
HETATM   24  C18 UNL     1      30.156 -24.585   3.024  1.00  0.00     0.027 C 
ENDBRANCH  11  14
ENDBRANCH   9  11
ENDBRANCH   8   9
BRANCH   1  25
HETATM   25  C2  UNL     1      27.212 -31.816   2.316  1.00  0.00     0.038 C 
HETATM   26  C1  UNL     1      26.653 -33.165   2.535  1.00  0.00     0.010 C 
ENDBRANCH   1  25
BRANCH   7  27
HETATM   27  O1  UNL     1      28.801 -29.783   6.552  1.00  0.00    -0.257 OA
BRANCH  27  28
HETATM   28  C8  UNL     1      28.966 -30.773   7.541  1.00  0.00     0.365 C 
HETATM   29  O2  UNL     1      28.214 -31.756   7.441  1.00  0.00    -0.238 OA
HETATM   30  N1  UNL     1      29.939 -30.609   8.559  1.00  0.00    -0.341 N 
HETATM   31  C9  UNL     1      30.132 -31.600   9.582  1.00  0.00     0.151 C 
ATOM     32  H1  UNL     1      30.516 -29.768   8.566  1.00  0.00     0.164 HD
ENDBRANCH  27  28
ENDBRANCH   7  27
TORSDOF 6
ENDMDL
MODEL 4
REMARK VINA RESULT: -5.875428604     13.910     16.179
REMARK  6 active torsions:
REMARK  status: ('A' for Active; 'I' for Inactive)
REMARK    1  A    between atoms: C2_2  and  C3_3 
REMARK    2  A    between atoms: C7_9  and  O1_10 
REMARK    3  A    between atoms: O1_10  and  C8_11 
REMARK       I    between atoms: C8_11  and  N1_13 
REMARK    4  A    between atoms: C10_16  and  N2_17 
REMARK    5  A    between atoms: N2_17  and  S1_19 
REMARK    6  A    between atoms: S1_19  and  C11_22 
ROOT
HETATM    1  C3  UNL     1      30.779 -29.028  20.690  1.00  0.00    -0.006 A 
HETATM    2  C4  UNL     1      32.155 -29.035  20.783  1.00  0.00     0.044 A 
HETATM    3 CL1  UNL     1      33.057 -30.560  20.840  1.00  0.00    -0.084 Cl
HETATM    4  C5  UNL     1      32.798 -27.827  20.831  1.00  0.00     0.051 A 
HETATM    5  C6  UNL     1      32.107 -26.636  20.788  1.00  0.00     0.072 A 
HETATM    6 CL2  UNL     1      32.973 -25.097  20.820  1.00  0.00    -0.081 Cl
HETATM    7  C7  UNL     1      30.709 -26.612  20.696  1.00  0.00     0.130 A 
HETATM    8  C10 UNL     1      30.049 -27.816  20.647  1.00  0.00     0.086 A 
ENDROOT
BRANCH   8   9
HETATM    9  N2  UNL     1      28.667 -27.847  20.327  1.00  0.00    -0.277 N 
ATOM     10  H2  UNL     1      28.110 -27.999  21.168  1.00  0.00     0.179 HD
BRANCH   9  11
HETATM   11  S1  UNL     1      27.696 -27.710  19.014  1.00  0.00     0.264 S 
HETATM   12  O3  UNL     1      26.288 -28.187  19.284  1.00  0.00    -0.200 OA
HETATM   13  O4  UNL     1      27.598 -26.194  18.672  1.00  0.00    -0.200 OA
BRANCH  11  14
HETATM   14  C11 UNL     1      28.200 -28.498  17.504  1.00  0.00     0.094 A 
HETATM   15  C12 UNL     1      27.486 -29.514  16.942  1.00  0.00     0.076 A 
HETATM   16  S2  UNL     1      28.315 -29.862  15.499  1.00  0.00    -0.104 SA
HETATM   17  C13 UNL     1      29.559 -28.710  15.627  1.00  0.00    -0.007 A 
HETATM   18  C14 UNL     1      29.300 -28.075  16.799  1.00  0.00    -0.012 A 
HETATM   19  C19 UNL     1      30.751 -28.335  14.764  1.00  0.00     0.066 C 
HETATM   20  C15 UNL     1      30.295 -26.962  17.119  1.00  0.00     0.116 C 
HETATM   21  S3  UNL     1      31.927 -27.770  17.084  1.00  0.00    -0.155 SA
HETATM   22  C16 UNL     1      32.041 -28.647  15.471  1.00  0.00     0.005 C 
HETATM   23  C17 UNL     1      32.281 -30.111  15.655  1.00  0.00     0.027 C 
HETATM   24  C18 UNL     1      33.157 -28.002  14.669  1.00  0.00     0.027 C 
ENDBRANCH  11  14
ENDBRANCH   9  11
ENDBRANCH   8   9
BRANCH   1  25
HETATM   25  C2  UNL     1      30.119 -30.334  20.452  1.00  0.00     0.038 C 
HETATM   26  C1  UNL     1      30.220 -30.884  19.084  1.00  0.00     0.010 C 
ENDBRANCH   1  25
BRANCH   7  27
HETATM   27  O1  UNL     1      30.075 -25.379  20.660  1.00  0.00    -0.257 OA
BRANCH  27  28
HETATM   28  C8  UNL     1      29.522 -24.837  21.837  1.00  0.00     0.365 C 
HETATM   29  O2  UNL     1      28.371 -25.216  22.108  1.00  0.00    -0.238 OA
HETATM   30  N1  UNL     1      30.270 -23.925  22.623  1.00  0.00    -0.341 N 
HETATM   31  C9  UNL     1      29.735 -23.354  23.829  1.00  0.00     0.151 C 
ATOM     32  H1  UNL     1      31.211 -23.667  22.326  1.00  0.00     0.164 HD
ENDBRANCH  27  28
ENDBRANCH   7  27
TORSDOF 6
ENDMDL
MODEL 5
REMARK VINA RESULT: -5.866470654     13.592     15.601
REMARK  6 active torsions:
REMARK  status: ('A' for Active; 'I' for Inactive)
REMARK    1  A    between atoms: C2_2  and  C3_3 
REMARK    2  A    between atoms: C7_9  and  O1_10 
REMARK    3  A    between atoms: O1_10  and  C8_11 
REMARK       I    between atoms: C8_11  and  N1_13 
REMARK    4  A    between atoms: C10_16  and  N2_17 
REMARK    5  A    between atoms: N2_17  and  S1_19 
REMARK    6  A    between atoms: S1_19  and  C11_22 
ROOT
HETATM    1  C3  UNL     1      29.614 -30.932  18.845  1.00  0.00    -0.006 A 
HETATM    2  C4  UNL     1      29.360 -32.224  18.432  1.00  0.00     0.044 A 
HETATM    3 CL1  UNL     1      30.036 -33.610  19.306  1.00  0.00    -0.084 Cl
HETATM    4  C5  UNL     1      28.570 -32.397  17.326  1.00  0.00     0.051 A 
HETATM    5  C6  UNL     1      28.041 -31.327  16.639  1.00  0.00     0.072 A 
HETATM    6 CL2  UNL     1      27.001 -31.590  15.236  1.00  0.00    -0.081 Cl
HETATM    7  C7  UNL     1      28.292 -30.010  17.044  1.00  0.00     0.130 A 
HETATM    8  C10 UNL     1      29.083 -29.819  18.151  1.00  0.00     0.086 A 
ENDROOT
BRANCH   8   9
HETATM    9  N2  UNL     1      29.179 -28.528  18.731  1.00  0.00    -0.277 N 
ATOM     10  H2  UNL     1      30.156 -28.268  18.863  1.00  0.00     0.179 HD
BRANCH   9  11
HETATM   11  S1  UNL     1      28.193 -27.326  19.252  1.00  0.00     0.264 S 
HETATM   12  O3  UNL     1      27.821 -26.364  18.148  1.00  0.00    -0.200 OA
HETATM   13  O4  UNL     1      26.869 -27.995  19.729  1.00  0.00    -0.200 OA
BRANCH  11  14
HETATM   14  C11 UNL     1      28.729 -26.325  20.617  1.00  0.00     0.094 A 
HETATM   15  C12 UNL     1      27.875 -25.510  21.299  1.00  0.00     0.076 A 
HETATM   16  S2  UNL     1      28.829 -24.845  22.539  1.00  0.00    -0.104 SA
HETATM   17  C13 UNL     1      30.302 -25.614  22.177  1.00  0.00    -0.007 A 
HETATM   18  C14 UNL     1      30.017 -26.376  21.091  1.00  0.00    -0.012 A 
HETATM   19  C19 UNL     1      31.693 -25.583  22.786  1.00  0.00     0.066 C 
HETATM   20  C15 UNL     1      31.209 -27.191  20.591  1.00  0.00     0.116 C 
HETATM   21  S3  UNL     1      32.517 -25.962  20.284  1.00  0.00    -0.155 SA
HETATM   22  C16 UNL     1      32.681 -24.976  21.828  1.00  0.00     0.005 C 
HETATM   23  C17 UNL     1      32.453 -23.520  21.580  1.00  0.00     0.027 C 
HETATM   24  C18 UNL     1      34.066 -25.229  22.396  1.00  0.00     0.027 C 
ENDBRANCH  11  14
ENDBRANCH   9  11
ENDBRANCH   8   9
BRANCH   1  25
HETATM   25  C2  UNL     1      30.311 -30.772  20.143  1.00  0.00     0.038 C 
HETATM   26  C1  UNL     1      31.788 -30.754  20.101  1.00  0.00     0.010 C 
ENDBRANCH   1  25
BRANCH   7  27
HETATM   27  O1  UNL     1      27.731 -28.978  16.306  1.00  0.00    -0.257 OA
BRANCH  27  28
HETATM   28  C8  UNL     1      28.466 -28.375  15.267  1.00  0.00     0.365 C 
HETATM   29  O2  UNL     1      28.411 -28.954  14.170  1.00  0.00    -0.238 OA
HETATM   30  N1  UNL     1      29.203 -27.187  15.509  1.00  0.00    -0.341 N 
HETATM   31  C9  UNL     1      29.963 -26.548  14.470  1.00  0.00     0.151 C 
ATOM     32  H1  UNL     1      29.193 -26.777  16.443  1.00  0.00     0.164 HD
ENDBRANCH  27  28
ENDBRANCH   7  27
TORSDOF 6
ENDMDL
