MODEL 1
REMARK VINA RESULT: -7.453110827      0.000      0.000
REMARK  8 active torsions:
REMARK  status: ('A' for Active; 'I' for Inactive)
REMARK    1  A    between atoms: C2_2  and  C3_3 
REMARK    2  A    between atoms: C3_3  and  N1_5 
REMARK    3  A    between atoms: N1_5  and  C5_7 
REMARK    4  A    between atoms: C9_13  and  N3_14 
REMARK    5  A    between atoms: N3_14  and  C10_16 
REMARK    6  A    between atoms: C16_23  and  O1_24 
REMARK    7  A    between atoms: O1_24  and  C17_25 
REMARK    8  A    between atoms: C21_33  and  O2_34 
ROOT
HETATM    1  C10 UNL     1      25.309 -30.788   3.355  1.00  0.00     0.070 A 
HETATM    2  C11 UNL     1      24.525 -30.358   2.313  1.00  0.00     0.039 A 
HETATM    3  C12 UNL     1      24.497 -31.054   1.126  1.00  0.00    -0.058 A 
HETATM    4  C13 UNL     1      23.638 -30.561   0.018  1.00  0.00     0.048 C 
HETATM    5  C14 UNL     1      25.272 -32.189   1.010  1.00  0.00     0.033 A 
HETATM    6  C15 UNL     1      26.075 -32.631   2.071  1.00  0.00     0.070 A 
HETATM    7 CL1  UNL     1      26.972 -34.087   1.788  1.00  0.00    -0.081 Cl
HETATM    8  C16 UNL     1      26.120 -31.949   3.268  1.00  0.00     0.126 A 
ENDROOT
BRANCH   1   9
HETATM    9  N3  UNL     1      25.229 -30.070   4.575  1.00  0.00    -0.340 N 
ATOM     10  H3  UNL     1      24.373 -30.118   5.128  1.00  0.00     0.167 HD
BRANCH   9  11
HETATM   11  C9  UNL     1      26.213 -29.361   4.999  1.00  0.00     0.123 A 
HETATM   12  C8  UNL     1      26.509 -29.349   6.354  1.00  0.00     0.074 A 
HETATM   13  C6  UNL     1      27.565 -28.588   6.808  1.00  0.00     0.026 A 
HETATM   14  N2  UNL     1      28.319 -27.855   5.971  1.00  0.00    -0.196 N 
HETATM   15  C7  UNL     1      27.829 -28.619   8.276  1.00  0.00     0.069 C 
HETATM   16  C5  UNL     1      28.048 -27.856   4.663  1.00  0.00     0.680 A 
ATOM     17  H2  UNL     1      29.094 -27.300   6.333  1.00  0.00     0.184 HD
HETATM   18  N6  UNL     1      26.983 -28.625   4.216  1.00  0.00    -0.177 N 
ATOM     19  H6  UNL     1      26.779 -28.622   3.216  1.00  0.00     0.186 HD
BRANCH  16  20
HETATM   20  N1  UNL     1      28.694 -27.205   3.795  1.00  0.00    -0.222 N 
ATOM     21  H1  UNL     1      28.126 -26.640   3.164  1.00  0.00     0.178 HD
BRANCH  20  22
HETATM   22  C3  UNL     1      30.076 -27.142   3.570  1.00  0.00     0.095 C 
HETATM   23  C4  UNL     1      30.578 -27.715   2.285  1.00  0.00     0.032 C 
BRANCH  22  24
HETATM   24  C2  UNL     1      30.604 -25.733   3.780  1.00  0.00     0.021 C 
HETATM   25  C1  UNL     1      29.695 -24.770   3.041  1.00  0.00     0.007 C 
ENDBRANCH  22  24
ENDBRANCH  20  22
ENDBRANCH  16  20
ENDBRANCH   9  11
ENDBRANCH   1   9
BRANCH   8  26
HETATM   26  O1  UNL     1      26.895 -32.353   4.297  1.00  0.00    -0.289 OA
BRANCH  26  27
HETATM   27  C17 UNL     1      28.236 -32.336   4.464  1.00  0.00     0.161 A 
HETATM   28  N4  UNL     1      28.956 -31.305   3.875  1.00  0.00    -0.332 N 
HETATM   29  C18 UNL     1      30.267 -31.170   3.959  1.00  0.00     0.182 A 
ATOM     30  H4  UNL     1      28.438 -30.606   3.343  1.00  0.00     0.168 HD
HETATM   31  N5  UNL     1      30.995 -32.063   4.647  1.00  0.00    -0.351 N 
HETATM   32  C19 UNL     1      30.412 -33.108   5.261  1.00  0.00     0.050 A 
ATOM     33  H5  UNL     1      32.007 -31.947   4.705  1.00  0.00     0.166 HD
HETATM   34  C20 UNL     1      31.196 -34.022   5.968  1.00  0.00     0.069 A 
HETATM   35  C25 UNL     1      29.029 -33.221   5.154  1.00  0.00     0.044 A 
HETATM   36  C21 UNL     1      30.614 -35.088   6.593  1.00  0.00     0.092 A 
HETATM   37  C23 UNL     1      29.250 -35.202   6.489  1.00  0.00     0.068 A 
HETATM   38 CL2  UNL     1      28.454 -36.563   7.280  1.00  0.00    -0.081 Cl
HETATM   39  C24 UNL     1      28.465 -34.303   5.793  1.00  0.00     0.045 A 
BRANCH  36  40
HETATM   40  O2  UNL     1      31.316 -36.041   7.314  1.00  0.00    -0.354 OA
HETATM   41  C22 UNL     1      32.076 -37.069   6.764  1.00  0.00     0.210 C 
ENDBRANCH  36  40
ENDBRANCH  26  27
ENDBRANCH   8  26
TORSDOF 8
ENDMDL
MODEL 2
REMARK VINA RESULT: -7.251423626      3.001      6.207
REMARK  8 active torsions:
REMARK  status: ('A' for Active; 'I' for Inactive)
REMARK    1  A    between atoms: C2_2  and  C3_3 
REMARK    2  A    between atoms: C3_3  and  N1_5 
REMARK    3  A    between atoms: N1_5  and  C5_7 
REMARK    4  A    between atoms: C9_13  and  N3_14 
REMARK    5  A    between atoms: N3_14  and  C10_16 
REMARK    6  A    between atoms: C16_23  and  O1_24 
REMARK    7  A    between atoms: O1_24  and  C17_25 
REMARK    8  A    between atoms: C21_33  and  O2_34 
ROOT
HETATM    1  C10 UNL     1      29.281 -32.364   4.006  1.00  0.00     0.070 A 
HETATM    2  C11 UNL     1      28.602 -33.430   4.540  1.00  0.00     0.039 A 
HETATM    3  C12 UNL     1      29.128 -34.136   5.598  1.00  0.00    -0.058 A 
HETATM    4  C13 UNL     1      28.367 -35.285   6.152  1.00  0.00     0.048 C 
HETATM    5  C14 UNL     1      30.349 -33.745   6.106  1.00  0.00     0.033 A 
HETATM    6  C15 UNL     1      31.048 -32.657   5.563  1.00  0.00     0.070 A 
HETATM    7 CL1  UNL     1      32.556 -32.268   6.322  1.00  0.00    -0.081 Cl
HETATM    8  C16 UNL     1      30.541 -31.939   4.502  1.00  0.00     0.126 A 
ENDROOT
BRANCH   1   9
HETATM    9  N3  UNL     1      28.645 -31.632   2.971  1.00  0.00    -0.340 N 
ATOM     10  H3  UNL     1      29.051 -31.633   2.035  1.00  0.00     0.167 HD
BRANCH   9  11
HETATM   11  C9  UNL     1      27.566 -30.967   3.188  1.00  0.00     0.123 A 
HETATM   12  C8  UNL     1      26.422 -31.272   2.465  1.00  0.00     0.074 A 
HETATM   13  C6  UNL     1      25.266 -30.559   2.699  1.00  0.00     0.026 A 
HETATM   14  N2  UNL     1      25.216 -29.574   3.612  1.00  0.00    -0.196 N 
HETATM   15  C7  UNL     1      24.072 -30.936   1.887  1.00  0.00     0.069 C 
HETATM   16  C5  UNL     1      26.308 -29.268   4.318  1.00  0.00     0.680 A 
ATOM     17  H2  UNL     1      24.347 -29.061   3.765  1.00  0.00     0.184 HD
HETATM   18  N6  UNL     1      27.467 -29.991   4.074  1.00  0.00    -0.177 N 
ATOM     19  H6  UNL     1      28.299 -29.754   4.615  1.00  0.00     0.186 HD
BRANCH  16  20
HETATM   20  N1  UNL     1      26.366 -28.364   5.197  1.00  0.00    -0.222 N 
ATOM     21  H1  UNL     1      26.522 -27.421   4.840  1.00  0.00     0.178 HD
BRANCH  20  22
HETATM   22  C3  UNL     1      26.247 -28.462   6.590  1.00  0.00     0.095 C 
HETATM   23  C4  UNL     1      25.822 -29.783   7.140  1.00  0.00     0.032 C 
BRANCH  22  24
HETATM   24  C2  UNL     1      27.502 -27.963   7.285  1.00  0.00     0.021 C 
HETATM   25  C1  UNL     1      27.713 -28.791   8.538  1.00  0.00     0.007 C 
ENDBRANCH  22  24
ENDBRANCH  20  22
ENDBRANCH  16  20
ENDBRANCH   9  11
ENDBRANCH   1   9
BRANCH   8  26
HETATM   26  O1  UNL     1      31.203 -30.894   3.958  1.00  0.00    -0.289 OA
BRANCH  26  27
HETATM   27  C17 UNL     1      30.929 -29.571   3.954  1.00  0.00     0.161 A 
HETATM   28  N4  UNL     1      30.541 -28.987   2.756  1.00  0.00    -0.332 N 
HETATM   29  C18 UNL     1      30.245 -27.707   2.614  1.00  0.00     0.182 A 
ATOM     30  H4  UNL     1      30.479 -29.584   1.932  1.00  0.00     0.168 HD
HETATM   31  N5  UNL     1      30.310 -26.878   3.666  1.00  0.00    -0.351 N 
HETATM   32  C19 UNL     1      30.675 -27.325   4.881  1.00  0.00     0.050 A 
ATOM     33  H5  UNL     1      30.078 -25.891   3.543  1.00  0.00     0.166 HD
HETATM   34  C20 UNL     1      30.735 -26.438   5.957  1.00  0.00     0.069 A 
HETATM   35  C25 UNL     1      30.979 -28.678   4.998  1.00  0.00     0.044 A 
HETATM   36  C21 UNL     1      31.107 -26.882   7.194  1.00  0.00     0.092 A 
HETATM   37  C23 UNL     1      31.409 -28.215   7.313  1.00  0.00     0.068 A 
HETATM   38 CL2  UNL     1      31.894 -28.835   8.891  1.00  0.00    -0.081 Cl
HETATM   39  C24 UNL     1      31.351 -29.102   6.254  1.00  0.00     0.045 A 
BRANCH  36  40
HETATM   40  O2  UNL     1      31.194 -26.071   8.315  1.00  0.00    -0.354 OA
HETATM   41  C22 UNL     1      32.176 -25.110   8.540  1.00  0.00     0.210 C 
ENDBRANCH  36  40
ENDBRANCH  26  27
ENDBRANCH   8  26
TORSDOF 8
ENDMDL
MODEL 3
REMARK VINA RESULT: -7.251368469      2.926      6.948
REMARK  8 active torsions:
REMARK  status: ('A' for Active; 'I' for Inactive)
REMARK    1  A    between atoms: C2_2  and  C3_3 
REMARK    2  A    between atoms: C3_3  and  N1_5 
REMARK    3  A    between atoms: N1_5  and  C5_7 
REMARK    4  A    between atoms: C9_13  and  N3_14 
REMARK    5  A    between atoms: N3_14  and  C10_16 
REMARK    6  A    between atoms: C16_23  and  O1_24 
REMARK    7  A    between atoms: O1_24  and  C17_25 
REMARK    8  A    between atoms: C21_33  and  O2_34 
ROOT
HETATM    1  C10 UNL     1      29.284 -32.381   4.059  1.00  0.00     0.070 A 
HETATM    2  C11 UNL     1      28.680 -33.480   4.617  1.00  0.00     0.039 A 
HETATM    3  C12 UNL     1      29.249 -34.118   5.696  1.00  0.00    -0.058 A 
HETATM    4  C13 UNL     1      28.570 -35.305   6.276  1.00  0.00     0.048 C 
HETATM    5  C14 UNL     1      30.435 -33.627   6.200  1.00  0.00     0.033 A 
HETATM    6  C15 UNL     1      31.056 -32.505   5.632  1.00  0.00     0.070 A 
HETATM    7 CL1  UNL     1      32.527 -31.987   6.389  1.00  0.00    -0.081 Cl
HETATM    8  C16 UNL     1      30.506 -31.853   4.550  1.00  0.00     0.126 A 
ENDROOT
BRANCH   1   9
HETATM    9  N3  UNL     1      28.604 -31.725   3.001  1.00  0.00    -0.340 N 
ATOM     10  H3  UNL     1      28.959 -31.810   2.050  1.00  0.00     0.167 HD
BRANCH   9  11
HETATM   11  C9  UNL     1      27.547 -31.026   3.219  1.00  0.00     0.123 A 
HETATM   12  C8  UNL     1      26.413 -31.249   2.452  1.00  0.00     0.074 A 
HETATM   13  C6  UNL     1      25.281 -30.499   2.686  1.00  0.00     0.026 A 
HETATM   14  N2  UNL     1      25.244 -29.555   3.641  1.00  0.00    -0.196 N 
HETATM   15  C7  UNL     1      24.097 -30.790   1.826  1.00  0.00     0.069 C 
HETATM   16  C5  UNL     1      26.327 -29.327   4.390  1.00  0.00     0.680 A 
ATOM     17  H2  UNL     1      24.393 -29.013   3.793  1.00  0.00     0.184 HD
HETATM   18  N6  UNL     1      27.463 -30.087   4.146  1.00  0.00    -0.177 N 
ATOM     19  H6  UNL     1      28.287 -29.909   4.719  1.00  0.00     0.186 HD
BRANCH  16  20
HETATM   20  N1  UNL     1      26.396 -28.465   5.310  1.00  0.00    -0.222 N 
ATOM     21  H1  UNL     1      26.770 -27.559   5.029  1.00  0.00     0.178 HD
BRANCH  20  22
HETATM   22  C3  UNL     1      26.035 -28.569   6.660  1.00  0.00     0.095 C 
HETATM   23  C4  UNL     1      25.705 -29.933   7.169  1.00  0.00     0.032 C 
BRANCH  22  24
HETATM   24  C2  UNL     1      27.055 -27.886   7.556  1.00  0.00     0.021 C 
HETATM   25  C1  UNL     1      27.635 -28.927   8.495  1.00  0.00     0.007 C 
ENDBRANCH  22  24
ENDBRANCH  20  22
ENDBRANCH  16  20
ENDBRANCH   9  11
ENDBRANCH   1   9
BRANCH   8  26
HETATM   26  O1  UNL     1      31.094 -30.777   3.983  1.00  0.00    -0.289 OA
BRANCH  26  27
HETATM   27  C17 UNL     1      30.987 -29.457   4.253  1.00  0.00     0.161 A 
HETATM   28  N4  UNL     1      30.475 -29.082   5.488  1.00  0.00    -0.332 N 
HETATM   29  C18 UNL     1      30.317 -27.830   5.879  1.00  0.00     0.182 A 
ATOM     30  H4  UNL     1      30.202 -29.821   6.136  1.00  0.00     0.168 HD
HETATM   31  N5  UNL     1      30.660 -26.820   5.065  1.00  0.00    -0.351 N 
HETATM   32  C19 UNL     1      31.167 -27.057   3.841  1.00  0.00     0.050 A 
ATOM     33  H5  UNL     1      30.534 -25.857   5.379  1.00  0.00     0.166 HD
HETATM   34  C20 UNL     1      31.512 -25.986   3.015  1.00  0.00     0.069 A 
HETATM   35  C25 UNL     1      31.321 -28.386   3.460  1.00  0.00     0.044 A 
HETATM   36  C21 UNL     1      32.026 -26.215   1.770  1.00  0.00     0.092 A 
HETATM   37  C23 UNL     1      32.178 -27.525   1.391  1.00  0.00     0.068 A 
HETATM   38 CL2  UNL     1      32.837 -27.870  -0.208  1.00  0.00    -0.081 Cl
HETATM   39  C24 UNL     1      31.840 -28.593   2.202  1.00  0.00     0.045 A 
BRANCH  36  40
HETATM   40  O2  UNL     1      32.394 -25.212   0.887  1.00  0.00    -0.354 OA
HETATM   41  C22 UNL     1      32.687 -23.898   1.239  1.00  0.00     0.210 C 
ENDBRANCH  36  40
ENDBRANCH  26  27
ENDBRANCH   8  26
TORSDOF 8
ENDMDL
MODEL 4
REMARK VINA RESULT: -7.248304560      2.781      5.846
REMARK  8 active torsions:
REMARK  status: ('A' for Active; 'I' for Inactive)
REMARK    1  A    between atoms: C2_2  and  C3_3 
REMARK    2  A    between atoms: C3_3  and  N1_5 
REMARK    3  A    between atoms: N1_5  and  C5_7 
REMARK    4  A    between atoms: C9_13  and  N3_14 
REMARK    5  A    between atoms: N3_14  and  C10_16 
REMARK    6  A    between atoms: C16_23  and  O1_24 
REMARK    7  A    between atoms: O1_24  and  C17_25 
REMARK    8  A    between atoms: C21_33  and  O2_34 
ROOT
HETATM    1  C10 UNL     1      30.549 -26.094   4.217  1.00  0.00     0.070 A 
HETATM    2  C11 UNL     1      31.126 -25.183   3.368  1.00  0.00     0.039 A 
HETATM    3  C12 UNL     1      31.639 -25.585   2.155  1.00  0.00    -0.058 A 
HETATM    4  C13 UNL     1      32.258 -24.574   1.260  1.00  0.00     0.048 C 
HETATM    5  C14 UNL     1      31.558 -26.920   1.817  1.00  0.00     0.033 A 
HETATM    6  C15 UNL     1      30.971 -27.854   2.682  1.00  0.00     0.070 A 
HETATM    7 CL1  UNL     1      30.917 -29.489   2.110  1.00  0.00    -0.081 Cl
HETATM    8  C16 UNL     1      30.453 -27.474   3.901  1.00  0.00     0.126 A 
ENDROOT
BRANCH   1   9
HETATM    9  N3  UNL     1      29.968 -25.600   5.413  1.00  0.00    -0.340 N 
ATOM     10  H3  UNL     1      29.132 -25.019   5.359  1.00  0.00     0.167 HD
BRANCH   9  11
HETATM   11  C9  UNL     1      30.476 -25.869   6.563  1.00  0.00     0.123 A 
HETATM   12  C8  UNL     1      31.343 -24.962   7.153  1.00  0.00     0.074 A 
HETATM   13  C6  UNL     1      31.886 -25.251   8.387  1.00  0.00     0.026 A 
HETATM   14  N2  UNL     1      31.597 -26.391   9.036  1.00  0.00    -0.196 N 
HETATM   15  C7  UNL     1      32.811 -24.233   8.964  1.00  0.00     0.069 C 
HETATM   16  C5  UNL     1      30.763 -27.276   8.482  1.00  0.00     0.680 A 
ATOM     17  H2  UNL     1      32.014 -26.581   9.948  1.00  0.00     0.184 HD
HETATM   18  N6  UNL     1      30.222 -26.976   7.240  1.00  0.00    -0.177 N 
ATOM     19  H6  UNL     1      29.586 -27.654   6.821  1.00  0.00     0.186 HD
BRANCH  16  20
HETATM   20  N1  UNL     1      30.427 -28.373   9.008  1.00  0.00    -0.222 N 
ATOM     21  H1  UNL     1      30.909 -28.604   9.877  1.00  0.00     0.178 HD
BRANCH  20  22
HETATM   22  C3  UNL     1      29.490 -29.322   8.577  1.00  0.00     0.095 C 
HETATM   23  C4  UNL     1      29.877 -30.758   8.700  1.00  0.00     0.032 C 
BRANCH  22  24
HETATM   24  C2  UNL     1      28.127 -29.071   9.200  1.00  0.00     0.021 C 
HETATM   25  C1  UNL     1      27.125 -28.859   8.081  1.00  0.00     0.007 C 
ENDBRANCH  22  24
ENDBRANCH  20  22
ENDBRANCH  16  20
ENDBRANCH   9  11
ENDBRANCH   1   9
BRANCH   8  26
HETATM   26  O1  UNL     1      29.892 -28.360   4.752  1.00  0.00    -0.289 OA
BRANCH  26  27
HETATM   27  C17 UNL     1      28.741 -29.064   4.675  1.00  0.00     0.161 A 
HETATM   28  N4  UNL     1      27.563 -28.367   4.436  1.00  0.00    -0.332 N 
HETATM   29  C18 UNL     1      26.373 -28.931   4.338  1.00  0.00     0.182 A 
ATOM     30  H4  UNL     1      27.622 -27.355   4.330  1.00  0.00     0.168 HD
HETATM   31  N5  UNL     1      26.241 -30.260   4.469  1.00  0.00    -0.351 N 
HETATM   32  C19 UNL     1      27.310 -31.043   4.704  1.00  0.00     0.050 A 
ATOM     33  H5  UNL     1      25.316 -30.683   4.390  1.00  0.00     0.166 HD
HETATM   34  C20 UNL     1      27.141 -32.422   4.838  1.00  0.00     0.069 A 
HETATM   35  C25 UNL     1      28.550 -30.419   4.802  1.00  0.00     0.044 A 
HETATM   36  C21 UNL     1      28.220 -33.226   5.079  1.00  0.00     0.092 A 
HETATM   37  C23 UNL     1      29.443 -32.613   5.177  1.00  0.00     0.068 A 
HETATM   38 CL2  UNL     1      30.865 -33.611   5.487  1.00  0.00    -0.081 Cl
HETATM   39  C24 UNL     1      29.621 -31.249   5.044  1.00  0.00     0.045 A 
BRANCH  36  40
HETATM   40  O2  UNL     1      28.142 -34.602   5.226  1.00  0.00    -0.354 OA
HETATM   41  C22 UNL     1      28.327 -35.297   6.418  1.00  0.00     0.210 C 
ENDBRANCH  36  40
ENDBRANCH  26  27
ENDBRANCH   8  26
TORSDOF 8
ENDMDL
MODEL 5
REMARK VINA RESULT: -7.210058925      2.989      6.643
REMARK  8 active torsions:
REMARK  status: ('A' for Active; 'I' for Inactive)
REMARK    1  A    between atoms: C2_2  and  C3_3 
REMARK    2  A    between atoms: C3_3  and  N1_5 
REMARK    3  A    between atoms: N1_5  and  C5_7 
REMARK    4  A    between atoms: C9_13  and  N3_14 
REMARK    5  A    between atoms: N3_14  and  C10_16 
REMARK    6  A    between atoms: C16_23  and  O1_24 
REMARK    7  A    between atoms: O1_24  and  C17_25 
REMARK    8  A    between atoms: C21_33  and  O2_34 
ROOT
HETATM    1  C10 UNL     1      28.512 -33.043   4.016  1.00  0.00     0.070 A 
HETATM    2  C11 UNL     1      28.227 -34.211   4.677  1.00  0.00     0.039 A 
HETATM    3  C12 UNL     1      28.937 -34.570   5.801  1.00  0.00    -0.058 A 
HETATM    4  C13 UNL     1      28.603 -35.842   6.492  1.00  0.00     0.048 C 
HETATM    5  C14 UNL     1      29.936 -33.729   6.243  1.00  0.00     0.033 A 
HETATM    6  C15 UNL     1      30.232 -32.535   5.570  1.00  0.00     0.070 A 
HETATM    7 CL1  UNL     1      31.495 -31.568   6.258  1.00  0.00    -0.081 Cl
HETATM    8  C16 UNL     1      29.536 -32.158   4.442  1.00  0.00     0.126 A 
ENDROOT
BRANCH   1   9
HETATM    9  N3  UNL     1      27.690 -32.695   2.914  1.00  0.00    -0.340 N 
ATOM     10  H3  UNL     1      27.795 -33.198   2.034  1.00  0.00     0.167 HD
BRANCH   9  11
HETATM   11  C9  UNL     1      26.814 -31.758   3.003  1.00  0.00     0.123 A 
HETATM   12  C8  UNL     1      25.730 -31.756   2.138  1.00  0.00     0.074 A 
HETATM   13  C6  UNL     1      24.791 -30.751   2.234  1.00  0.00     0.026 A 
HETATM   14  N2  UNL     1      24.897 -29.770   3.146  1.00  0.00    -0.196 N 
HETATM   15  C7  UNL     1      23.651 -30.807   1.274  1.00  0.00     0.069 C 
HETATM   16  C5  UNL     1      25.935 -29.758   3.988  1.00  0.00     0.680 A 
ATOM     17  H2  UNL     1      24.189 -29.037   3.196  1.00  0.00     0.184 HD
HETATM   18  N6  UNL     1      26.875 -30.773   3.883  1.00  0.00    -0.177 N 
ATOM     19  H6  UNL     1      27.666 -30.759   4.527  1.00  0.00     0.186 HD
BRANCH  16  20
HETATM   20  N1  UNL     1      26.127 -28.884   4.879  1.00  0.00    -0.222 N 
ATOM     21  H1  UNL     1      25.549 -28.047   4.798  1.00  0.00     0.178 HD
BRANCH  20  22
HETATM   22  C3  UNL     1      27.014 -28.893   5.964  1.00  0.00     0.095 C 
HETATM   23  C4  UNL     1      28.336 -28.230   5.761  1.00  0.00     0.032 C 
BRANCH  22  24
HETATM   24  C2  UNL     1      26.342 -28.387   7.229  1.00  0.00     0.021 C 
HETATM   25  C1  UNL     1      27.300 -28.583   8.388  1.00  0.00     0.007 C 
ENDBRANCH  22  24
ENDBRANCH  20  22
ENDBRANCH  16  20
ENDBRANCH   9  11
ENDBRANCH   1   9
BRANCH   8  26
HETATM   26  O1  UNL     1      29.812 -31.017   3.774  1.00  0.00    -0.289 OA
BRANCH  26  27
HETATM   27  C17 UNL     1      30.791 -30.715   2.892  1.00  0.00     0.161 A 
HETATM   28  N4  UNL     1      31.526 -31.760   2.348  1.00  0.00    -0.332 N 
HETATM   29  C18 UNL     1      32.507 -31.605   1.478  1.00  0.00     0.182 A 
ATOM     30  H4  UNL     1      31.293 -32.709   2.640  1.00  0.00     0.168 HD
HETATM   31  N5  UNL     1      32.852 -30.378   1.061  1.00  0.00    -0.351 N 
HETATM   32  C19 UNL     1      32.214 -29.285   1.516  1.00  0.00     0.050 A 
ATOM     33  H5  UNL     1      33.612 -30.272   0.387  1.00  0.00     0.166 HD
HETATM   34  C20 UNL     1      32.598 -28.020   1.066  1.00  0.00     0.069 A 
HETATM   35  C25 UNL     1      31.185 -29.482   2.432  1.00  0.00     0.044 A 
HETATM   36  C21 UNL     1      31.958 -26.904   1.525  1.00  0.00     0.092 A 
HETATM   37  C23 UNL     1      30.943 -27.095   2.429  1.00  0.00     0.068 A 
HETATM   38 CL2  UNL     1      30.087 -25.683   3.049  1.00  0.00    -0.081 Cl
HETATM   39  C24 UNL     1      30.555 -28.342   2.880  1.00  0.00     0.045 A 
BRANCH  36  40
HETATM   40  O2  UNL     1      32.274 -25.613   1.131  1.00  0.00    -0.354 OA
HETATM   41  C22 UNL     1      33.025 -25.274   0.010  1.00  0.00     0.210 C 
ENDBRANCH  36  40
ENDBRANCH  26  27
ENDBRANCH   8  26
TORSDOF 8
ENDMDL
