MODEL 1
REMARK VINA RESULT: -7.690453163      0.000      0.000
REMARK  8 active torsions:
REMARK  status: ('A' for Active; 'I' for Inactive)
REMARK    1  A    between atoms: O1_2  and  C2_3 
REMARK    2  A    between atoms: C2_3  and  C3_4 
REMARK    3  A    between atoms: C3_4  and  N1_5 
REMARK    4  A    between atoms: N1_5  and  C5_7 
REMARK    5  A    between atoms: C6_10  and  C7_11 
REMARK    6  A    between atoms: C20_26  and  N4_27 
REMARK    7  A    between atoms: N4_27  and  C21_29 
REMARK    8  A    between atoms: C23_31  and  O2_32 
ROOT
HETATM    1  C5  UNL     1      29.270 -30.282   6.074  1.00  0.00     0.682 A 
HETATM    2  N2  UNL     1      29.934 -29.640   5.135  1.00  0.00    -0.189 N 
ATOM      3  H2  UNL     1      30.865 -29.288   5.359  1.00  0.00     0.184 HD
HETATM    4  C6  UNL     1      29.437 -29.415   3.855  1.00  0.00     0.080 A 
HETATM    5  C19 UNL     1      28.204 -29.921   3.668  1.00  0.00     0.081 A 
HETATM    6  C20 UNL     1      27.457 -30.615   4.644  1.00  0.00     0.123 A 
HETATM    7  N5  UNL     1      28.023 -30.776   5.835  1.00  0.00    -0.176 N 
ATOM      8  H5  UNL     1      27.523 -31.272   6.573  1.00  0.00     0.186 HD
ENDROOT
BRANCH   4   9
HETATM    9  C7  UNL     1      30.350 -28.692   2.992  1.00  0.00     0.066 A 
HETATM   10  N3  UNL     1      30.317 -27.323   3.047  1.00  0.00    -0.353 N 
HETATM   11  C8  UNL     1      31.120 -26.573   2.302  1.00  0.00     0.049 A 
ATOM     12  H3  UNL     1      29.657 -26.868   3.678  1.00  0.00     0.166 HD
HETATM   13  C9  UNL     1      31.039 -25.178   2.405  1.00  0.00    -0.034 A 
HETATM   14  C15 UNL     1      32.030 -27.133   1.433  1.00  0.00    -0.008 A 
HETATM   15  C10 UNL     1      30.047 -24.583   3.350  1.00  0.00     0.050 C 
HETATM   16  C11 UNL     1      31.873 -24.410   1.633  1.00  0.00     0.015 A 
HETATM   17  C12 UNL     1      32.784 -24.988   0.763  1.00  0.00    -0.061 A 
HETATM   18  C13 UNL     1      33.682 -24.136  -0.065  1.00  0.00     0.048 C 
HETATM   19  C14 UNL     1      32.855 -26.354   0.670  1.00  0.00     0.020 A 
HETATM   20  C16 UNL     1      32.113 -28.503   1.330  1.00  0.00     0.022 A 
HETATM   21  C17 UNL     1      31.239 -29.265   2.144  1.00  0.00    -0.032 A 
HETATM   22  C18 UNL     1      31.391 -30.727   1.982  1.00  0.00     0.050 C 
ENDBRANCH   4   9
BRANCH   1  23
HETATM   23  N1  UNL     1      29.856 -30.459   7.354  1.00  0.00    -0.220 N 
HETATM   24  C4  UNL     1      31.293 -30.627   7.488  1.00  0.00     0.168 C 
BRANCH  23  25
HETATM   25  C3  UNL     1      29.052 -30.482   8.540  1.00  0.00     0.167 C 
BRANCH  25  26
HETATM   26  C2  UNL     1      28.448 -29.119   8.796  1.00  0.00     0.187 C 
BRANCH  26  27
HETATM   27  O1  UNL     1      27.113 -29.115   8.419  1.00  0.00    -0.394 OA
HETATM   28  C1  UNL     1      26.852 -27.975   7.676  1.00  0.00     0.201 C 
ENDBRANCH  26  27
ENDBRANCH  25  26
ENDBRANCH  23  25
ENDBRANCH   1  23
BRANCH   6  29
HETATM   29  N4  UNL     1      26.318 -31.038   4.371  1.00  0.00    -0.341 N 
ATOM     30  H4  UNL     1      25.720 -31.172   5.186  1.00  0.00     0.167 HD
BRANCH  29  31
HETATM   31  C21 UNL     1      25.714 -31.359   3.172  1.00  0.00     0.058 A 
HETATM   32  C22 UNL     1      24.823 -30.488   2.589  1.00  0.00     0.069 A 
HETATM   33  C23 UNL     1      24.200 -30.797   1.375  1.00  0.00     0.089 A 
HETATM   34  C24 UNL     1      24.474 -31.982   0.748  1.00  0.00     0.068 A 
HETATM   35 CL1  UNL     1      23.683 -32.351  -0.774  1.00  0.00    -0.081 Cl
HETATM   36  C25 UNL     1      25.355 -32.858   1.311  1.00  0.00     0.052 A 
HETATM   37  C26 UNL     1      25.978 -32.544   2.528  1.00  0.00     0.062 A 
HETATM   38 CL2  UNL     1      27.090 -33.732   3.166  1.00  0.00    -0.082 Cl
BRANCH  33  39
HETATM   39  O2  UNL     1      23.302 -29.894   0.810  1.00  0.00    -0.359 OA
ATOM     40  H2  UNL     1      22.453 -30.199   0.511  1.00  0.00     0.217 HD
ENDBRANCH  33  39
ENDBRANCH  29  31
ENDBRANCH   6  29
TORSDOF 8
ENDMDL
MODEL 2
REMARK VINA RESULT: -7.500549728      1.835      2.762
REMARK  8 active torsions:
REMARK  status: ('A' for Active; 'I' for Inactive)
REMARK    1  A    between atoms: O1_2  and  C2_3 
REMARK    2  A    between atoms: C2_3  and  C3_4 
REMARK    3  A    between atoms: C3_4  and  N1_5 
REMARK    4  A    between atoms: N1_5  and  C5_7 
REMARK    5  A    between atoms: C6_10  and  C7_11 
REMARK    6  A    between atoms: C20_26  and  N4_27 
REMARK    7  A    between atoms: N4_27  and  C21_29 
REMARK    8  A    between atoms: C23_31  and  O2_32 
ROOT
HETATM    1  C5  UNL     1      29.870 -28.867   6.411  1.00  0.00     0.682 A 
HETATM    2  N2  UNL     1      30.373 -28.118   5.451  1.00  0.00    -0.189 N 
ATOM      3  H2  UNL     1      31.297 -27.708   5.594  1.00  0.00     0.184 HD
HETATM    4  C6  UNL     1      29.715 -27.853   4.254  1.00  0.00     0.080 A 
HETATM    5  C19 UNL     1      28.508 -28.441   4.172  1.00  0.00     0.081 A 
HETATM    6  C20 UNL     1      27.930 -29.250   5.173  1.00  0.00     0.123 A 
HETATM    7  N5  UNL     1      28.642 -29.441   6.278  1.00  0.00    -0.176 N 
ATOM      8  H5  UNL     1      28.268 -30.020   7.030  1.00  0.00     0.186 HD
ENDROOT
BRANCH   4   9
HETATM    9  C7  UNL     1      30.468 -27.007   3.348  1.00  0.00     0.066 A 
HETATM   10  N3  UNL     1      31.212 -27.627   2.380  1.00  0.00    -0.353 N 
HETATM   11  C8  UNL     1      31.927 -26.939   1.499  1.00  0.00     0.049 A 
ATOM     12  H3  UNL     1      31.217 -28.647   2.335  1.00  0.00     0.166 HD
HETATM   13  C9  UNL     1      32.667 -27.632   0.531  1.00  0.00    -0.034 A 
HETATM   14  C15 UNL     1      31.958 -25.562   1.512  1.00  0.00    -0.008 A 
HETATM   15  C10 UNL     1      32.626 -29.125   0.528  1.00  0.00     0.050 C 
HETATM   16  C11 UNL     1      33.403 -26.913  -0.377  1.00  0.00     0.015 A 
HETATM   17  C12 UNL     1      33.424 -25.527  -0.351  1.00  0.00    -0.061 A 
HETATM   18  C13 UNL     1      34.227 -24.766  -1.347  1.00  0.00     0.048 C 
HETATM   19  C14 UNL     1      32.696 -24.860   0.601  1.00  0.00     0.020 A 
HETATM   20  C16 UNL     1      31.232 -24.878   2.461  1.00  0.00     0.022 A 
HETATM   21  C17 UNL     1      30.482 -25.652   3.380  1.00  0.00    -0.032 A 
HETATM   22  C18 UNL     1      29.725 -24.847   4.364  1.00  0.00     0.050 C 
ENDBRANCH   4   9
BRANCH   1  23
HETATM   23  N1  UNL     1      30.613 -29.078   7.600  1.00  0.00    -0.220 N 
HETATM   24  C4  UNL     1      31.437 -30.265   7.753  1.00  0.00     0.168 C 
BRANCH  23  25
HETATM   25  C3  UNL     1      30.568 -28.136   8.680  1.00  0.00     0.167 C 
BRANCH  25  26
HETATM   26  C2  UNL     1      31.871 -27.372   8.769  1.00  0.00     0.187 C 
BRANCH  26  27
HETATM   27  O1  UNL     1      31.615 -26.017   8.921  1.00  0.00    -0.394 OA
HETATM   28  C1  UNL     1      31.599 -25.412   7.674  1.00  0.00     0.201 C 
ENDBRANCH  26  27
ENDBRANCH  25  26
ENDBRANCH  23  25
ENDBRANCH   1  23
BRANCH   6  29
HETATM   29  N4  UNL     1      26.800 -29.743   5.000  1.00  0.00    -0.341 N 
ATOM     30  H4  UNL     1      26.154 -29.580   5.772  1.00  0.00     0.167 HD
BRANCH  29  31
HETATM   31  C21 UNL     1      26.258 -30.468   3.957  1.00  0.00     0.058 A 
HETATM   32  C22 UNL     1      25.257 -29.927   3.184  1.00  0.00     0.069 A 
HETATM   33  C23 UNL     1      24.693 -30.648   2.125  1.00  0.00     0.089 A 
HETATM   34  C24 UNL     1      25.138 -31.911   1.844  1.00  0.00     0.068 A 
HETATM   35 CL1  UNL     1      24.419 -32.797   0.512  1.00  0.00    -0.081 Cl
HETATM   36  C25 UNL     1      26.129 -32.463   2.600  1.00  0.00     0.052 A 
HETATM   37  C26 UNL     1      26.691 -31.738   3.661  1.00  0.00     0.062 A 
HETATM   38 CL2  UNL     1      27.956 -32.533   4.569  1.00  0.00    -0.082 Cl
BRANCH  33  39
HETATM   39  O2  UNL     1      23.681 -30.072   1.360  1.00  0.00    -0.359 OA
ATOM     40  H2  UNL     1      23.876 -29.744   0.490  1.00  0.00     0.217 HD
ENDBRANCH  33  39
ENDBRANCH  29  31
ENDBRANCH   6  29
TORSDOF 8
ENDMDL
MODEL 3
REMARK VINA RESULT: -7.486394261      1.279      1.510
REMARK  8 active torsions:
REMARK  status: ('A' for Active; 'I' for Inactive)
REMARK    1  A    between atoms: O1_2  and  C2_3 
REMARK    2  A    between atoms: C2_3  and  C3_4 
REMARK    3  A    between atoms: C3_4  and  N1_5 
REMARK    4  A    between atoms: N1_5  and  C5_7 
REMARK    5  A    between atoms: C6_10  and  C7_11 
REMARK    6  A    between atoms: C20_26  and  N4_27 
REMARK    7  A    between atoms: N4_27  and  C21_29 
REMARK    8  A    between atoms: C23_31  and  O2_32 
ROOT
HETATM    1  C5  UNL     1      28.751 -29.360   6.295  1.00  0.00     0.682 A 
HETATM    2  N2  UNL     1      29.510 -28.914   5.315  1.00  0.00    -0.189 N 
ATOM      3  H2  UNL     1      30.336 -28.366   5.556  1.00  0.00     0.184 HD
HETATM    4  C6  UNL     1      29.247 -29.148   3.968  1.00  0.00     0.080 A 
HETATM    5  C19 UNL     1      28.137 -29.879   3.764  1.00  0.00     0.081 A 
HETATM    6  C20 UNL     1      27.296 -30.377   4.782  1.00  0.00     0.123 A 
HETATM    7  N5  UNL     1      27.636 -30.098   6.035  1.00  0.00    -0.176 N 
ATOM      8  H5  UNL     1      27.061 -30.437   6.806  1.00  0.00     0.186 HD
ENDROOT
BRANCH   4   9
HETATM    9  C7  UNL     1      30.225 -28.561   3.072  1.00  0.00     0.066 A 
HETATM   10  N3  UNL     1      30.278 -27.194   3.006  1.00  0.00    -0.353 N 
HETATM   11  C8  UNL     1      31.144 -26.565   2.221  1.00  0.00     0.049 A 
ATOM     12  H3  UNL     1      29.634 -26.644   3.575  1.00  0.00     0.166 HD
HETATM   13  C9  UNL     1      31.150 -25.163   2.199  1.00  0.00    -0.034 A 
HETATM   14  C15 UNL     1      32.037 -27.255   1.432  1.00  0.00    -0.008 A 
HETATM   15  C10 UNL     1      30.176 -24.427   3.059  1.00  0.00     0.050 C 
HETATM   16  C11 UNL     1      32.049 -24.520   1.387  1.00  0.00     0.015 A 
HETATM   17  C12 UNL     1      32.942 -25.229   0.598  1.00  0.00    -0.061 A 
HETATM   18  C13 UNL     1      33.912 -24.511  -0.276  1.00  0.00     0.048 C 
HETATM   19  C14 UNL     1      32.927 -26.600   0.628  1.00  0.00     0.020 A 
HETATM   20  C16 UNL     1      32.034 -28.631   1.452  1.00  0.00     0.022 A 
HETATM   21  C17 UNL     1      31.094 -29.262   2.304  1.00  0.00    -0.032 A 
HETATM   22  C18 UNL     1      31.156 -30.740   2.275  1.00  0.00     0.050 C 
ENDBRANCH   4   9
BRANCH   1  23
HETATM   23  N1  UNL     1      29.096 -29.068   7.639  1.00  0.00    -0.220 N 
HETATM   24  C4  UNL     1      28.059 -28.824   8.628  1.00  0.00     0.168 C 
BRANCH  23  25
HETATM   25  C3  UNL     1      30.465 -28.998   8.056  1.00  0.00     0.167 C 
BRANCH  25  26
HETATM   26  C2  UNL     1      30.895 -27.557   8.218  1.00  0.00     0.187 C 
BRANCH  26  27
HETATM   27  O1  UNL     1      31.331 -27.053   7.002  1.00  0.00    -0.394 OA
HETATM   28  C1  UNL     1      30.790 -25.791   6.810  1.00  0.00     0.201 C 
ENDBRANCH  26  27
ENDBRANCH  25  26
ENDBRANCH  23  25
ENDBRANCH   1  23
BRANCH   6  29
HETATM   29  N4  UNL     1      26.285 -31.040   4.485  1.00  0.00    -0.341 N 
ATOM     30  H4  UNL     1      25.789 -31.423   5.289  1.00  0.00     0.167 HD
BRANCH  29  31
HETATM   31  C21 UNL     1      25.709 -31.353   3.269  1.00  0.00     0.058 A 
HETATM   32  C22 UNL     1      24.799 -30.497   2.693  1.00  0.00     0.069 A 
HETATM   33  C23 UNL     1      24.202 -30.798   1.463  1.00  0.00     0.089 A 
HETATM   34  C24 UNL     1      24.524 -31.959   0.814  1.00  0.00     0.068 A 
HETATM   35 CL1  UNL     1      23.766 -32.318  -0.727  1.00  0.00    -0.081 Cl
HETATM   36  C25 UNL     1      25.424 -32.819   1.370  1.00  0.00     0.052 A 
HETATM   37  C26 UNL     1      26.018 -32.514   2.603  1.00  0.00     0.062 A 
HETATM   38 CL2  UNL     1      27.159 -33.680   3.231  1.00  0.00    -0.082 Cl
BRANCH  33  39
HETATM   39  O2  UNL     1      23.284 -29.911   0.905  1.00  0.00    -0.359 OA
ATOM     40  H2  UNL     1      23.442 -29.553   0.040  1.00  0.00     0.217 HD
ENDBRANCH  33  39
ENDBRANCH  29  31
ENDBRANCH   6  29
TORSDOF 8
ENDMDL
MODEL 4
REMARK VINA RESULT: -7.392024944      2.358      5.866
REMARK  8 active torsions:
REMARK  status: ('A' for Active; 'I' for Inactive)
REMARK    1  A    between atoms: O1_2  and  C2_3 
REMARK    2  A    between atoms: C2_3  and  C3_4 
REMARK    3  A    between atoms: C3_4  and  N1_5 
REMARK    4  A    between atoms: N1_5  and  C5_7 
REMARK    5  A    between atoms: C6_10  and  C7_11 
REMARK    6  A    between atoms: C20_26  and  N4_27 
REMARK    7  A    between atoms: N4_27  and  C21_29 
REMARK    8  A    between atoms: C23_31  and  O2_32 
ROOT
HETATM    1  C5  UNL     1      27.286 -31.414   3.004  1.00  0.00     0.682 A 
HETATM    2  N2  UNL     1      28.234 -30.602   2.582  1.00  0.00    -0.189 N 
ATOM      3  H2  UNL     1      28.296 -30.414   1.581  1.00  0.00     0.184 HD
HETATM    4  C6  UNL     1      29.155 -29.988   3.424  1.00  0.00     0.080 A 
HETATM    5  C19 UNL     1      28.983 -30.305   4.720  1.00  0.00     0.081 A 
HETATM    6  C20 UNL     1      27.983 -31.169   5.217  1.00  0.00     0.123 A 
HETATM    7  N5  UNL     1      27.152 -31.703   4.328  1.00  0.00    -0.176 N 
ATOM      8  H5  UNL     1      26.412 -32.332   4.639  1.00  0.00     0.186 HD
ENDROOT
BRANCH   4   9
HETATM    9  C7  UNL     1      30.101 -29.134   2.733  1.00  0.00     0.066 A 
HETATM   10  N3  UNL     1      30.024 -27.787   2.970  1.00  0.00    -0.353 N 
HETATM   11  C8  UNL     1      30.851 -26.926   2.391  1.00  0.00     0.049 A 
ATOM     12  H3  UNL     1      29.310 -27.437   3.610  1.00  0.00     0.166 HD
HETATM   13  C9  UNL     1      30.722 -25.559   2.676  1.00  0.00    -0.034 A 
HETATM   14  C15 UNL     1      31.833 -27.342   1.520  1.00  0.00    -0.008 A 
HETATM   15  C10 UNL     1      29.652 -25.121   3.622  1.00  0.00     0.050 C 
HETATM   16  C11 UNL     1      31.582 -24.676   2.075  1.00  0.00     0.015 A 
HETATM   17  C12 UNL     1      32.565 -25.111   1.200  1.00  0.00    -0.061 A 
HETATM   18  C13 UNL     1      33.490 -24.134   0.559  1.00  0.00     0.048 C 
HETATM   19  C14 UNL     1      32.682 -26.449   0.928  1.00  0.00     0.020 A 
HETATM   20  C16 UNL     1      31.964 -28.683   1.238  1.00  0.00     0.022 A 
HETATM   21  C17 UNL     1      31.060 -29.567   1.879  1.00  0.00    -0.032 A 
HETATM   22  C18 UNL     1      31.266 -30.990   1.531  1.00  0.00     0.050 C 
ENDBRANCH   4   9
BRANCH   1  23
HETATM   23  N1  UNL     1      26.393 -31.998   2.070  1.00  0.00    -0.220 N 
HETATM   24  C4  UNL     1      26.314 -33.443   1.932  1.00  0.00     0.168 C 
BRANCH  23  25
HETATM   25  C3  UNL     1      25.555 -31.187   1.237  1.00  0.00     0.167 C 
BRANCH  25  26
HETATM   26  C2  UNL     1      24.433 -30.579   2.051  1.00  0.00     0.187 C 
BRANCH  26  27
HETATM   27  O1  UNL     1      23.308 -30.416   1.257  1.00  0.00    -0.394 OA
HETATM   28  C1  UNL     1      23.560 -30.932  -0.004  1.00  0.00     0.201 C 
ENDBRANCH  26  27
ENDBRANCH  25  26
ENDBRANCH  23  25
ENDBRANCH   1  23
BRANCH   6  29
HETATM   29  N4  UNL     1      27.913 -31.403   6.438  1.00  0.00    -0.341 N 
ATOM     30  H4  UNL     1      27.564 -32.334   6.662  1.00  0.00     0.167 HD
BRANCH  29  31
HETATM   31  C21 UNL     1      28.220 -30.637   7.545  1.00  0.00     0.058 A 
HETATM   32  C22 UNL     1      29.327 -30.931   8.306  1.00  0.00     0.069 A 
HETATM   33  C23 UNL     1      29.653 -30.167   9.433  1.00  0.00     0.089 A 
HETATM   34  C24 UNL     1      28.865 -29.109   9.792  1.00  0.00     0.068 A 
HETATM   35 CL1  UNL     1      29.291 -28.164  11.207  1.00  0.00    -0.081 Cl
HETATM   36  C25 UNL     1      27.763 -28.802   9.050  1.00  0.00     0.052 A 
HETATM   37  C26 UNL     1      27.440 -29.570   7.921  1.00  0.00     0.062 A 
HETATM   38 CL2  UNL     1      26.008 -29.096   7.037  1.00  0.00    -0.082 Cl
BRANCH  33  39
HETATM   39  O2  UNL     1      30.782 -30.491  10.183  1.00  0.00    -0.359 OA
ATOM     40  H2  UNL     1      31.071 -31.394  10.232  1.00  0.00     0.217 HD
ENDBRANCH  33  39
ENDBRANCH  29  31
ENDBRANCH   6  29
TORSDOF 8
ENDMDL
MODEL 5
REMARK VINA RESULT: -7.333866299      1.455      2.544
REMARK  8 active torsions:
REMARK  status: ('A' for Active; 'I' for Inactive)
REMARK    1  A    between atoms: O1_2  and  C2_3 
REMARK    2  A    between atoms: C2_3  and  C3_4 
REMARK    3  A    between atoms: C3_4  and  N1_5 
REMARK    4  A    between atoms: N1_5  and  C5_7 
REMARK    5  A    between atoms: C6_10  and  C7_11 
REMARK    6  A    between atoms: C20_26  and  N4_27 
REMARK    7  A    between atoms: N4_27  and  C21_29 
REMARK    8  A    between atoms: C23_31  and  O2_32 
ROOT
HETATM    1  C5  UNL     1      29.773 -29.241   6.472  1.00  0.00     0.682 A 
HETATM    2  N2  UNL     1      30.303 -28.476   5.539  1.00  0.00    -0.189 N 
ATOM      3  H2  UNL     1      31.227 -28.078   5.711  1.00  0.00     0.184 HD
HETATM    4  C6  UNL     1      29.674 -28.181   4.334  1.00  0.00     0.080 A 
HETATM    5  C19 UNL     1      28.464 -28.757   4.213  1.00  0.00     0.081 A 
HETATM    6  C20 UNL     1      27.858 -29.582   5.184  1.00  0.00     0.123 A 
HETATM    7  N5  UNL     1      28.543 -29.802   6.301  1.00  0.00    -0.176 N 
ATOM      8  H5  UNL     1      28.148 -30.393   7.032  1.00  0.00     0.186 HD
ENDROOT
BRANCH   4   9
HETATM    9  C7  UNL     1      30.453 -27.323   3.463  1.00  0.00     0.066 A 
HETATM   10  N3  UNL     1      31.081 -27.912   2.397  1.00  0.00    -0.353 N 
HETATM   11  C8  UNL     1      31.810 -27.210   1.539  1.00  0.00     0.049 A 
ATOM     12  H3  UNL     1      30.987 -28.919   2.260  1.00  0.00     0.166 HD
HETATM   13  C9  UNL     1      32.427 -27.871   0.467  1.00  0.00    -0.034 A 
HETATM   14  C15 UNL     1      31.973 -25.849   1.674  1.00  0.00    -0.008 A 
HETATM   15  C10 UNL     1      32.244 -29.347   0.333  1.00  0.00     0.050 C 
HETATM   16  C11 UNL     1      33.177 -27.137  -0.416  1.00  0.00     0.015 A 
HETATM   17  C12 UNL     1      33.331 -25.768  -0.266  1.00  0.00    -0.061 A 
HETATM   18  C13 UNL     1      34.149 -24.990  -1.239  1.00  0.00     0.048 C 
HETATM   19  C14 UNL     1      32.723 -25.132   0.785  1.00  0.00     0.020 A 
HETATM   20  C16 UNL     1      31.367 -25.196   2.724  1.00  0.00     0.022 A 
HETATM   21  C17 UNL     1      30.599 -25.985   3.616  1.00  0.00    -0.032 A 
HETATM   22  C18 UNL     1      29.976 -25.213   4.714  1.00  0.00     0.050 C 
ENDBRANCH   4   9
BRANCH   1  23
HETATM   23  N1  UNL     1      30.487 -29.483   7.673  1.00  0.00    -0.220 N 
HETATM   24  C4  UNL     1      30.663 -28.423   8.651  1.00  0.00     0.168 C 
BRANCH  23  25
HETATM   25  C3  UNL     1      31.058 -30.768   7.951  1.00  0.00     0.167 C 
BRANCH  25  26
HETATM   26  C2  UNL     1      30.270 -31.472   9.034  1.00  0.00     0.187 C 
BRANCH  26  27
HETATM   27  O1  UNL     1      28.993 -31.762   8.576  1.00  0.00    -0.394 OA
HETATM   28  C1  UNL     1      28.983 -33.034   8.026  1.00  0.00     0.201 C 
ENDBRANCH  26  27
ENDBRANCH  25  26
ENDBRANCH  23  25
ENDBRANCH   1  23
BRANCH   6  29
HETATM   29  N4  UNL     1      26.728 -30.061   4.976  1.00  0.00    -0.341 N 
ATOM     30  H4  UNL     1      26.092 -29.983   5.769  1.00  0.00     0.167 HD
BRANCH  29  31
HETATM   31  C21 UNL     1      26.174 -30.678   3.871  1.00  0.00     0.058 A 
HETATM   32  C22 UNL     1      25.188 -30.048   3.148  1.00  0.00     0.069 A 
HETATM   33  C23 UNL     1      24.614 -30.659   2.027  1.00  0.00     0.089 A 
HETATM   34  C24 UNL     1      25.033 -31.900   1.635  1.00  0.00     0.068 A 
HETATM   35 CL1  UNL     1      24.301 -32.648   0.227  1.00  0.00    -0.081 Cl
HETATM   36  C25 UNL     1      26.009 -32.539   2.340  1.00  0.00     0.052 A 
HETATM   37  C26 UNL     1      26.582 -31.925   3.463  1.00  0.00     0.062 A 
HETATM   38 CL2  UNL     1      27.826 -32.825   4.298  1.00  0.00    -0.082 Cl
BRANCH  33  39
HETATM   39  O2  UNL     1      23.617 -29.995   1.315  1.00  0.00    -0.359 OA
ATOM     40  H2  UNL     1      23.279 -30.375   0.513  1.00  0.00     0.217 HD
ENDBRANCH  33  39
ENDBRANCH  29  31
ENDBRANCH   6  29
TORSDOF 8
ENDMDL
