MODEL 1
REMARK VINA RESULT: -7.638069480      0.000      0.000
REMARK  8 active torsions:
REMARK  status: ('A' for Active; 'I' for Inactive)
REMARK    1  A    between atoms: C2_2  and  C3_3 
REMARK    2  A    between atoms: N1_5  and  C5_6 
REMARK    3  A    between atoms: C5_6  and  C6_7 
REMARK    4  A    between atoms: C7_9  and  C8_10 
REMARK    5  A    between atoms: C11_14  and  O2_15 
REMARK    6  A    between atoms: C12_17  and  C13_18 
REMARK    7  A    between atoms: C15_22  and  C16_23 
REMARK    8  A    between atoms: C16_23  and  O5_25 
ROOT
HETATM    1  C6  UNL     1      27.736 -28.491   4.522  1.00  0.00     0.079 A 
HETATM    2  O1  UNL     1      28.505 -28.237   3.528  1.00  0.00    -0.311 OA
HETATM    3  C7  UNL     1      29.640 -27.624   3.868  1.00  0.00     0.103 A 
HETATM    4  C15 UNL     1      29.602 -27.466   5.226  1.00  0.00     0.082 A 
HETATM    5  C18 UNL     1      28.378 -28.024   5.635  1.00  0.00    -0.011 A 
HETATM    6  C19 UNL     1      27.943 -28.072   7.051  1.00  0.00     0.052 C 
ENDROOT
BRANCH   1   7
HETATM    7  C5  UNL     1      26.405 -29.153   4.533  1.00  0.00     0.194 C 
BRANCH   7   8
HETATM    8  N1  UNL     1      26.374 -30.470   3.981  1.00  0.00    -0.349 N 
HETATM    9  C4  UNL     1      25.872 -30.972   2.837  1.00  0.00     0.099 A 
HETATM   10  C3  UNL     1      26.075 -32.330   2.749  1.00  0.00    -0.030 A 
HETATM   11  C26 UNL     1      26.738 -32.658   3.911  1.00  0.00     0.000 A 
HETATM   12  C20 UNL     1      26.926 -31.523   4.671  1.00  0.00     0.046 A 
HETATM   13  C25 UNL     1      27.217 -33.863   4.413  1.00  0.00     0.038 A 
HETATM   14  C21 UNL     1      27.572 -31.631   5.883  1.00  0.00     0.039 A 
HETATM   15  C22 UNL     1      28.049 -32.833   6.381  1.00  0.00    -0.038 A 
HETATM   16  C23 UNL     1      28.743 -32.866   7.718  1.00  0.00     0.050 C 
HETATM   17  C24 UNL     1      27.863 -33.954   5.628  1.00  0.00     0.041 A 
HETATM   18 CL2  UNL     1      28.457 -35.484   6.242  1.00  0.00    -0.084 Cl
BRANCH  10  19
HETATM   19  C2  UNL     1      25.675 -33.273   1.652  1.00  0.00     0.036 C 
HETATM   20  C1  UNL     1      24.475 -32.745   0.903  1.00  0.00     0.010 C 
ENDBRANCH  10  19
ENDBRANCH   7   8
ENDBRANCH   1   7
BRANCH   3  21
HETATM   21  C8  UNL     1      30.650 -27.247   2.881  1.00  0.00     0.002 A 
HETATM   22  C9  UNL     1      31.094 -28.213   1.999  1.00  0.00     0.041 A 
HETATM   23  C10 UNL     1      32.041 -27.962   1.031  1.00  0.00     0.069 A 
HETATM   24 CL1  UNL     1      32.584 -29.202  -0.073  1.00  0.00    -0.081 Cl
HETATM   25  C11 UNL     1      32.592 -26.709   0.903  1.00  0.00     0.102 A 
HETATM   26  C12 UNL     1      32.156 -25.749   1.772  1.00  0.00     0.065 A 
HETATM   27  C14 UNL     1      31.187 -26.004   2.765  1.00  0.00     0.033 A 
BRANCH  25  28
HETATM   28  O2  UNL     1      33.557 -26.443  -0.079  1.00  0.00    -0.358 OA
ATOM     29  H2  UNL     1      33.327 -25.984  -0.878  1.00  0.00     0.217 HD
ENDBRANCH  25  28
BRANCH  26  30
HETATM   30  C13 UNL     1      32.716 -24.414   1.657  1.00  0.00     0.267 C 
HETATM   31  N2  UNL     1      34.069 -24.121   1.953  1.00  0.00    -0.057 NA
HETATM   32  O3  UNL     1      31.975 -23.475   1.277  1.00  0.00    -0.271 OA
ENDBRANCH  26  30
ENDBRANCH   3  21
BRANCH   4  33
HETATM   33  C16 UNL     1      30.578 -26.872   6.114  1.00  0.00     0.296 C 
HETATM   34  O4  UNL     1      31.567 -27.614   6.442  1.00  0.00    -0.259 OA
BRANCH  33  35
HETATM   35  O5  UNL     1      30.498 -25.574   6.619  1.00  0.00    -0.322 OA
HETATM   36  C17 UNL     1      31.437 -25.238   7.652  1.00  0.00     0.213 C 
ENDBRANCH  33  35
ENDBRANCH   4  33
TORSDOF 8
ENDMDL
MODEL 2
REMARK VINA RESULT: -7.634876778      1.503      2.976
REMARK  8 active torsions:
REMARK  status: ('A' for Active; 'I' for Inactive)
REMARK    1  A    between atoms: C2_2  and  C3_3 
REMARK    2  A    between atoms: N1_5  and  C5_6 
REMARK    3  A    between atoms: C5_6  and  C6_7 
REMARK    4  A    between atoms: C7_9  and  C8_10 
REMARK    5  A    between atoms: C11_14  and  O2_15 
REMARK    6  A    between atoms: C12_17  and  C13_18 
REMARK    7  A    between atoms: C15_22  and  C16_23 
REMARK    8  A    between atoms: C16_23  and  O5_25 
ROOT
HETATM    1  C6  UNL     1      28.173 -28.403   4.499  1.00  0.00     0.079 A 
HETATM    2  O1  UNL     1      28.884 -28.087   3.479  1.00  0.00    -0.311 OA
HETATM    3  C7  UNL     1      29.982 -27.394   3.781  1.00  0.00     0.103 A 
HETATM    4  C15 UNL     1      29.983 -27.244   5.140  1.00  0.00     0.082 A 
HETATM    5  C18 UNL     1      28.821 -27.893   5.591  1.00  0.00    -0.011 A 
HETATM    6  C19 UNL     1      28.444 -27.980   7.022  1.00  0.00     0.052 C 
ENDROOT
BRANCH   1   7
HETATM    7  C5  UNL     1      26.897 -29.162   4.555  1.00  0.00     0.194 C 
BRANCH   7   8
HETATM    8  N1  UNL     1      26.999 -30.552   4.244  1.00  0.00    -0.349 N 
HETATM    9  C4  UNL     1      27.754 -31.549   4.742  1.00  0.00     0.099 A 
HETATM   10  C3  UNL     1      27.507 -32.739   4.097  1.00  0.00    -0.030 A 
HETATM   11  C26 UNL     1      26.547 -32.434   3.157  1.00  0.00     0.000 A 
HETATM   12  C20 UNL     1      26.230 -31.094   3.242  1.00  0.00     0.046 A 
HETATM   13  C25 UNL     1      25.890 -33.199   2.201  1.00  0.00     0.038 A 
HETATM   14  C21 UNL     1      25.285 -30.577   2.382  1.00  0.00     0.039 A 
HETATM   15  C22 UNL     1      24.631 -31.342   1.429  1.00  0.00    -0.038 A 
HETATM   16  C23 UNL     1      23.612 -30.699   0.525  1.00  0.00     0.050 C 
HETATM   17  C24 UNL     1      24.946 -32.666   1.348  1.00  0.00     0.041 A 
HETATM   18 CL2  UNL     1      24.130 -33.649   0.149  1.00  0.00    -0.084 Cl
BRANCH  10  19
HETATM   19  C2  UNL     1      28.127 -34.085   4.335  1.00  0.00     0.036 C 
HETATM   20  C1  UNL     1      28.233 -34.372   5.814  1.00  0.00     0.010 C 
ENDBRANCH  10  19
ENDBRANCH   7   8
ENDBRANCH   1   7
BRANCH   3  21
HETATM   21  C8  UNL     1      30.923 -26.939   2.759  1.00  0.00     0.002 A 
HETATM   22  C9  UNL     1      31.376 -27.856   1.832  1.00  0.00     0.041 A 
HETATM   23  C10 UNL     1      32.261 -27.531   0.829  1.00  0.00     0.069 A 
HETATM   24 CL1  UNL     1      32.816 -28.712  -0.333  1.00  0.00    -0.081 Cl
HETATM   25  C11 UNL     1      32.739 -26.248   0.710  1.00  0.00     0.102 A 
HETATM   26  C12 UNL     1      32.295 -25.335   1.625  1.00  0.00     0.065 A 
HETATM   27  C14 UNL     1      31.389 -25.665   2.653  1.00  0.00     0.033 A 
BRANCH  25  28
HETATM   28  O2  UNL     1      33.641 -25.906  -0.307  1.00  0.00    -0.358 OA
ATOM     29  H2  UNL     1      34.131 -25.093  -0.274  1.00  0.00     0.217 HD
ENDBRANCH  25  28
BRANCH  26  30
HETATM   30  C13 UNL     1      32.778 -23.968   1.520  1.00  0.00     0.267 C 
HETATM   31  N2  UNL     1      34.142 -23.624   1.674  1.00  0.00    -0.057 NA
HETATM   32  O3  UNL     1      31.957 -23.050   1.282  1.00  0.00    -0.271 OA
ENDBRANCH  26  30
ENDBRANCH   3  21
BRANCH   4  33
HETATM   33  C16 UNL     1      30.946 -26.583   5.996  1.00  0.00     0.296 C 
HETATM   34  O4  UNL     1      32.072 -27.172   6.138  1.00  0.00    -0.259 OA
BRANCH  33  35
HETATM   35  O5  UNL     1      30.716 -25.375   6.655  1.00  0.00    -0.322 OA
HETATM   36  C17 UNL     1      31.589 -25.080   7.756  1.00  0.00     0.213 C 
ENDBRANCH  33  35
ENDBRANCH   4  33
TORSDOF 8
ENDMDL
MODEL 3
REMARK VINA RESULT: -7.622481962      1.419      1.973
REMARK  8 active torsions:
REMARK  status: ('A' for Active; 'I' for Inactive)
REMARK    1  A    between atoms: C2_2  and  C3_3 
REMARK    2  A    between atoms: N1_5  and  C5_6 
REMARK    3  A    between atoms: C5_6  and  C6_7 
REMARK    4  A    between atoms: C7_9  and  C8_10 
REMARK    5  A    between atoms: C11_14  and  O2_15 
REMARK    6  A    between atoms: C12_17  and  C13_18 
REMARK    7  A    between atoms: C15_22  and  C16_23 
REMARK    8  A    between atoms: C16_23  and  O5_25 
ROOT
HETATM    1  C6  UNL     1      27.624 -28.614   4.493  1.00  0.00     0.079 A 
HETATM    2  O1  UNL     1      28.405 -28.346   3.511  1.00  0.00    -0.311 OA
HETATM    3  C7  UNL     1      29.506 -27.680   3.864  1.00  0.00     0.103 A 
HETATM    4  C15 UNL     1      29.430 -27.497   5.217  1.00  0.00     0.082 A 
HETATM    5  C18 UNL     1      28.221 -28.098   5.610  1.00  0.00    -0.011 A 
HETATM    6  C19 UNL     1      27.757 -28.138   7.017  1.00  0.00     0.052 C 
ENDROOT
BRANCH   1   7
HETATM    7  C5  UNL     1      26.322 -29.331   4.488  1.00  0.00     0.194 C 
BRANCH   7   8
HETATM    8  N1  UNL     1      26.359 -30.658   3.962  1.00  0.00    -0.349 N 
HETATM    9  C4  UNL     1      25.903 -31.202   2.818  1.00  0.00     0.099 A 
HETATM   10  C3  UNL     1      26.164 -32.552   2.761  1.00  0.00    -0.030 A 
HETATM   11  C26 UNL     1      26.817 -32.830   3.943  1.00  0.00     0.000 A 
HETATM   12  C20 UNL     1      26.940 -31.673   4.684  1.00  0.00     0.046 A 
HETATM   13  C25 UNL     1      27.335 -34.003   4.477  1.00  0.00     0.038 A 
HETATM   14  C21 UNL     1      27.565 -31.730   5.910  1.00  0.00     0.039 A 
HETATM   15  C22 UNL     1      28.081 -32.902   6.442  1.00  0.00    -0.038 A 
HETATM   16  C23 UNL     1      28.749 -32.879   7.792  1.00  0.00     0.050 C 
HETATM   17  C24 UNL     1      27.959 -34.043   5.707  1.00  0.00     0.041 A 
HETATM   18 CL2  UNL     1      28.605 -35.534   6.363  1.00  0.00    -0.084 Cl
BRANCH  10  19
HETATM   19  C2  UNL     1      25.828 -33.532   1.676  1.00  0.00     0.036 C 
HETATM   20  C1  UNL     1      24.626 -33.067   0.888  1.00  0.00     0.010 C 
ENDBRANCH  10  19
ENDBRANCH   7   8
ENDBRANCH   1   7
BRANCH   3  21
HETATM   21  C8  UNL     1      30.521 -27.280   2.892  1.00  0.00     0.002 A 
HETATM   22  C9  UNL     1      30.786 -25.933   2.739  1.00  0.00     0.041 A 
HETATM   23  C10 UNL     1      31.723 -25.451   1.853  1.00  0.00     0.069 A 
HETATM   24 CL1  UNL     1      32.038 -23.741   1.681  1.00  0.00    -0.081 Cl
HETATM   25  C11 UNL     1      32.448 -26.314   1.067  1.00  0.00     0.102 A 
HETATM   26  C12 UNL     1      32.192 -27.649   1.214  1.00  0.00     0.065 A 
HETATM   27  C14 UNL     1      31.233 -28.145   2.120  1.00  0.00     0.033 A 
BRANCH  25  28
HETATM   28  O2  UNL     1      33.405 -25.834   0.161  1.00  0.00    -0.358 OA
ATOM     29  H2  UNL     1      33.356 -24.949  -0.178  1.00  0.00     0.217 HD
ENDBRANCH  25  28
BRANCH  26  30
HETATM   30  C13 UNL     1      32.949 -28.586   0.402  1.00  0.00     0.267 C 
HETATM   31  N2  UNL     1      34.347 -28.763   0.537  1.00  0.00    -0.057 NA
HETATM   32  O3  UNL     1      32.344 -29.272  -0.457  1.00  0.00    -0.271 OA
ENDBRANCH  26  30
ENDBRANCH   3  21
BRANCH   4  33
HETATM   33  C16 UNL     1      30.360 -26.846   6.114  1.00  0.00     0.296 C 
HETATM   34  O4  UNL     1      31.296 -27.580   6.587  1.00  0.00    -0.259 OA
BRANCH  33  35
HETATM   35  O5  UNL     1      30.292 -25.502   6.482  1.00  0.00    -0.322 OA
HETATM   36  C17 UNL     1      31.301 -25.043   7.394  1.00  0.00     0.213 C 
ENDBRANCH  33  35
ENDBRANCH   4  33
TORSDOF 8
ENDMDL
MODEL 4
REMARK VINA RESULT: -7.550295095      2.063      3.608
REMARK  8 active torsions:
REMARK  status: ('A' for Active; 'I' for Inactive)
REMARK    1  A    between atoms: C2_2  and  C3_3 
REMARK    2  A    between atoms: N1_5  and  C5_6 
REMARK    3  A    between atoms: C5_6  and  C6_7 
REMARK    4  A    between atoms: C7_9  and  C8_10 
REMARK    5  A    between atoms: C11_14  and  O2_15 
REMARK    6  A    between atoms: C12_17  and  C13_18 
REMARK    7  A    between atoms: C15_22  and  C16_23 
REMARK    8  A    between atoms: C16_23  and  O5_25 
ROOT
HETATM    1  C6  UNL     1      27.928 -28.600   4.673  1.00  0.00     0.079 A 
HETATM    2  O1  UNL     1      28.665 -28.351   3.653  1.00  0.00    -0.311 OA
HETATM    3  C7  UNL     1      29.720 -27.581   3.927  1.00  0.00     0.103 A 
HETATM    4  C15 UNL     1      29.659 -27.302   5.264  1.00  0.00     0.082 A 
HETATM    5  C18 UNL     1      28.508 -27.959   5.733  1.00  0.00    -0.011 A 
HETATM    6  C19 UNL     1      28.078 -27.926   7.151  1.00  0.00     0.052 C 
ENDROOT
BRANCH   1   7
HETATM    7  C5  UNL     1      26.684 -29.409   4.757  1.00  0.00     0.194 C 
BRANCH   7   8
HETATM    8  N1  UNL     1      26.819 -30.777   4.372  1.00  0.00    -0.349 N 
HETATM    9  C4  UNL     1      27.573 -31.791   4.838  1.00  0.00     0.099 A 
HETATM   10  C3  UNL     1      27.366 -32.946   4.120  1.00  0.00    -0.030 A 
HETATM   11  C26 UNL     1      26.432 -32.601   3.167  1.00  0.00     0.000 A 
HETATM   12  C20 UNL     1      26.091 -31.273   3.316  1.00  0.00     0.046 A 
HETATM   13  C25 UNL     1      25.819 -33.320   2.148  1.00  0.00     0.038 A 
HETATM   14  C21 UNL     1      25.167 -30.722   2.455  1.00  0.00     0.039 A 
HETATM   15  C22 UNL     1      24.557 -31.441   1.440  1.00  0.00    -0.038 A 
HETATM   16  C23 UNL     1      23.557 -30.762   0.540  1.00  0.00     0.050 C 
HETATM   17  C24 UNL     1      24.895 -32.754   1.296  1.00  0.00     0.041 A 
HETATM   18 CL2  UNL     1      24.134 -33.679   0.017  1.00  0.00    -0.084 Cl
BRANCH  10  19
HETATM   19  C2  UNL     1      28.000 -34.294   4.302  1.00  0.00     0.036 C 
HETATM   20  C1  UNL     1      28.459 -34.481   5.729  1.00  0.00     0.010 C 
ENDBRANCH  10  19
ENDBRANCH   7   8
ENDBRANCH   1   7
BRANCH   3  21
HETATM   21  C8  UNL     1      30.681 -27.183   2.901  1.00  0.00     0.002 A 
HETATM   22  C9  UNL     1      30.944 -25.837   2.738  1.00  0.00     0.041 A 
HETATM   23  C10 UNL     1      31.833 -25.356   1.803  1.00  0.00     0.069 A 
HETATM   24 CL1  UNL     1      32.147 -23.647   1.620  1.00  0.00    -0.081 Cl
HETATM   25  C11 UNL     1      32.509 -26.220   0.975  1.00  0.00     0.102 A 
HETATM   26  C12 UNL     1      32.254 -27.553   1.130  1.00  0.00     0.065 A 
HETATM   27  C14 UNL     1      31.344 -28.048   2.087  1.00  0.00     0.033 A 
BRANCH  25  28
HETATM   28  O2  UNL     1      33.415 -25.741   0.019  1.00  0.00    -0.358 OA
ATOM     29  H2  UNL     1      33.121 -25.212  -0.713  1.00  0.00     0.217 HD
ENDBRANCH  25  28
BRANCH  26  30
HETATM   30  C13 UNL     1      32.959 -28.491   0.274  1.00  0.00     0.267 C 
HETATM   31  N2  UNL     1      34.357 -28.696   0.349  1.00  0.00    -0.057 NA
HETATM   32  O3  UNL     1      32.307 -29.152  -0.570  1.00  0.00    -0.271 OA
ENDBRANCH  26  30
ENDBRANCH   3  21
BRANCH   4  33
HETATM   33  C16 UNL     1      30.557 -26.519   6.085  1.00  0.00     0.296 C 
HETATM   34  O4  UNL     1      30.311 -25.265   6.153  1.00  0.00    -0.259 OA
BRANCH  33  35
HETATM   35  O5  UNL     1      31.645 -27.041   6.785  1.00  0.00    -0.322 OA
HETATM   36  C17 UNL     1      31.810 -26.581   8.135  1.00  0.00     0.213 C 
ENDBRANCH  33  35
ENDBRANCH   4  33
TORSDOF 8
ENDMDL
MODEL 5
REMARK VINA RESULT: -7.297118276      4.225      7.436
REMARK  8 active torsions:
REMARK  status: ('A' for Active; 'I' for Inactive)
REMARK    1  A    between atoms: C2_2  and  C3_3 
REMARK    2  A    between atoms: N1_5  and  C5_6 
REMARK    3  A    between atoms: C5_6  and  C6_7 
REMARK    4  A    between atoms: C7_9  and  C8_10 
REMARK    5  A    between atoms: C11_14  and  O2_15 
REMARK    6  A    between atoms: C12_17  and  C13_18 
REMARK    7  A    between atoms: C15_22  and  C16_23 
REMARK    8  A    between atoms: C16_23  and  O5_25 
ROOT
HETATM    1  C6  UNL     1      28.158 -29.039   6.948  1.00  0.00     0.079 A 
HETATM    2  O1  UNL     1      28.201 -29.361   8.189  1.00  0.00    -0.311 OA
HETATM    3  C7  UNL     1      29.250 -28.857   8.840  1.00  0.00     0.103 A 
HETATM    4  C15 UNL     1      29.962 -28.132   7.924  1.00  0.00     0.082 A 
HETATM    5  C18 UNL     1      29.254 -28.255   6.715  1.00  0.00    -0.011 A 
HETATM    6  C19 UNL     1      29.682 -27.602   5.456  1.00  0.00     0.052 C 
ENDROOT
BRANCH   1   7
HETATM    7  C5  UNL     1      27.153 -29.408   5.916  1.00  0.00     0.194 C 
BRANCH   7   8
HETATM    8  N1  UNL     1      27.324 -30.701   5.334  1.00  0.00    -0.349 N 
HETATM    9  C4  UNL     1      28.135 -31.736   5.622  1.00  0.00     0.099 A 
HETATM   10  C3  UNL     1      27.943 -32.785   4.753  1.00  0.00    -0.030 A 
HETATM   11  C26 UNL     1      26.957 -32.350   3.894  1.00  0.00     0.000 A 
HETATM   12  C20 UNL     1      26.572 -31.073   4.245  1.00  0.00     0.046 A 
HETATM   13  C25 UNL     1      26.330 -32.944   2.806  1.00  0.00     0.038 A 
HETATM   14  C21 UNL     1      25.592 -30.447   3.507  1.00  0.00     0.039 A 
HETATM   15  C22 UNL     1      24.967 -31.040   2.421  1.00  0.00    -0.038 A 
HETATM   16  C23 UNL     1      23.905 -30.285   1.665  1.00  0.00     0.050 C 
HETATM   17  C24 UNL     1      25.349 -32.303   2.077  1.00  0.00     0.041 A 
HETATM   18 CL2  UNL     1      24.571 -33.070   0.707  1.00  0.00    -0.084 Cl
BRANCH  10  19
HETATM   19  C2  UNL     1      28.634 -34.117   4.717  1.00  0.00     0.036 C 
HETATM   20  C1  UNL     1      28.268 -34.944   5.927  1.00  0.00     0.010 C 
ENDBRANCH  10  19
ENDBRANCH   7   8
ENDBRANCH   1   7
BRANCH   3  21
HETATM   21  C8  UNL     1      29.481 -29.108  10.261  1.00  0.00     0.002 A 
HETATM   22  C9  UNL     1      30.017 -30.326  10.631  1.00  0.00     0.041 A 
HETATM   23  C10 UNL     1      30.274 -30.662  11.941  1.00  0.00     0.069 A 
HETATM   24 CL1  UNL     1      30.954 -32.210  12.381  1.00  0.00    -0.081 Cl
HETATM   25  C11 UNL     1      30.001 -29.775  12.955  1.00  0.00     0.102 A 
HETATM   26  C12 UNL     1      29.471 -28.568  12.595  1.00  0.00     0.065 A 
HETATM   27  C14 UNL     1      29.206 -28.221  11.255  1.00  0.00     0.033 A 
BRANCH  25  28
HETATM   28  O2  UNL     1      30.259 -30.107  14.292  1.00  0.00    -0.358 OA
ATOM     29  H2  UNL     1      29.843 -30.858  14.699  1.00  0.00     0.217 HD
ENDBRANCH  25  28
BRANCH  26  30
HETATM   30  C13 UNL     1      29.178 -27.607  13.645  1.00  0.00     0.267 C 
HETATM   31  N2  UNL     1      29.676 -26.282  13.633  1.00  0.00    -0.057 NA
HETATM   32  O3  UNL     1      28.452 -27.959  14.606  1.00  0.00    -0.271 OA
ENDBRANCH  26  30
ENDBRANCH   3  21
BRANCH   4  33
HETATM   33  C16 UNL     1      31.180 -27.370   8.094  1.00  0.00     0.296 C 
HETATM   34  O4  UNL     1      32.265 -27.955   7.749  1.00  0.00    -0.259 OA
BRANCH  33  35
HETATM   35  O5  UNL     1      31.234 -26.072   8.602  1.00  0.00    -0.322 OA
HETATM   36  C17 UNL     1      31.540 -25.035   7.657  1.00  0.00     0.213 C 
ENDBRANCH  33  35
ENDBRANCH   4  33
TORSDOF 8
ENDMDL
