MODEL 1
REMARK VINA RESULT: -5.078132797      0.000      0.000
REMARK  2 active torsions:
REMARK  status: ('A' for Active; 'I' for Inactive)
REMARK    1  A    between atoms: C1_2  and  C2_4 
REMARK    2  A    between atoms: C2_4  and  N2_5 
ROOT
HETATM    1  C2  UNL     1     305.558 219.554 331.761  1.00  0.00     0.369 C 
HETATM    2  N3  UNL     1     304.178 219.636 331.187  1.00  0.00    -0.080 NA
HETATM    3  N4  UNL     1     304.189 218.216 331.046  1.00  0.00    -0.267 N 
ATOM      4  H4  UNL     1     303.488 217.479 330.977  1.00  0.00     0.185 HD
HETATM    5  C3  UNL     1     305.622 218.284 331.043  1.00  0.00     0.297 C 
HETATM    6  O2  UNL     1     306.467 217.513 330.578  1.00  0.00    -0.267 OA
ENDROOT
BRANCH   1   7
HETATM    7  C1  UNL     1     305.526 219.515 333.185  1.00  0.00     0.295 C 
HETATM    8  N1  UNL     1     305.602 220.777 333.945  1.00  0.00    -0.058 NA
HETATM    9  O1  UNL     1     305.451 218.512 333.874  1.00  0.00    -0.272 OA
ENDBRANCH   1   7
BRANCH   1  10
HETATM   10  N2  UNL     1     306.321 220.580 331.114  1.00  0.00    -0.036 N 
ATOM     11  H23 UNL     1     307.262 220.229 330.937  1.00  0.00     0.278 HD
ATOM     12  H22 UNL     1     305.973 220.700 330.163  1.00  0.00     0.278 HD
ATOM     13  H21 UNL     1     306.388 221.497 331.557  1.00  0.00     0.278 HD
ENDBRANCH   1  10
TORSDOF 2
ENDMDL
MODEL 2
REMARK VINA RESULT: -5.038197561      1.143      1.143
REMARK  2 active torsions:
REMARK  status: ('A' for Active; 'I' for Inactive)
REMARK    1  A    between atoms: C1_2  and  C2_4 
REMARK    2  A    between atoms: C2_4  and  N2_5 
ROOT
HETATM    1  C2  UNL     1     305.723 219.755 331.927  1.00  0.00     0.369 C 
HETATM    2  N3  UNL     1     304.508 220.127 331.137  1.00  0.00    -0.080 NA
HETATM    3  N4  UNL     1     304.260 218.737 330.928  1.00  0.00    -0.267 N 
ATOM      4  H4  UNL     1     303.448 218.160 330.706  1.00  0.00     0.185 HD
HETATM    5  C3  UNL     1     305.655 218.510 331.167  1.00  0.00     0.297 C 
HETATM    6  O2  UNL     1     306.397 217.589 330.810  1.00  0.00    -0.267 OA
ENDROOT
BRANCH   1   7
HETATM    7  C1  UNL     1     305.438 219.701 333.323  1.00  0.00     0.295 C 
HETATM    8  N1  UNL     1     305.090 218.407 333.941  1.00  0.00    -0.058 NA
HETATM    9  O1  UNL     1     305.442 220.647 334.092  1.00  0.00    -0.272 OA
ENDBRANCH   1   7
BRANCH   1  10
HETATM   10  N2  UNL     1     306.776 220.613 331.468  1.00  0.00    -0.036 N 
ATOM     11  H23 UNL     1     307.288 220.137 330.725  1.00  0.00     0.278 HD
ATOM     12  H22 UNL     1     306.365 221.394 330.958  1.00  0.00     0.278 HD
ATOM     13  H21 UNL     1     307.444 220.979 332.148  1.00  0.00     0.278 HD
ENDBRANCH   1  10
TORSDOF 2
ENDMDL
MODEL 3
REMARK VINA RESULT: -4.966796320      1.432      3.357
REMARK  2 active torsions:
REMARK  status: ('A' for Active; 'I' for Inactive)
REMARK    1  A    between atoms: C1_2  and  C2_4 
REMARK    2  A    between atoms: C2_4  and  N2_5 
ROOT
HETATM    1  C2  UNL     1     305.482 218.213 331.143  1.00  0.00     0.369 C 
HETATM    2  N3  UNL     1     305.821 219.512 330.481  1.00  0.00    -0.080 NA
HETATM    3  N4  UNL     1     306.557 219.875 331.648  1.00  0.00    -0.267 N 
ATOM      4  H4  UNL     1     307.320 220.516 331.866  1.00  0.00     0.185 HD
HETATM    5  C3  UNL     1     305.750 218.942 332.379  1.00  0.00     0.297 C 
HETATM    6  O2  UNL     1     305.464 218.888 333.579  1.00  0.00    -0.267 OA
ENDROOT
BRANCH   1   7
HETATM    7  C1  UNL     1     306.392 217.184 330.763  1.00  0.00     0.295 C 
HETATM    8  N1  UNL     1     306.616 216.908 329.332  1.00  0.00    -0.058 NA
HETATM    9  O1  UNL     1     307.024 216.470 331.523  1.00  0.00    -0.272 OA
ENDBRANCH   1   7
BRANCH   1  10
HETATM   10  N2  UNL     1     304.079 218.010 330.928  1.00  0.00    -0.036 N 
ATOM     11  H23 UNL     1     303.602 218.909 330.995  1.00  0.00     0.278 HD
ATOM     12  H22 UNL     1     303.926 217.778 329.947  1.00  0.00     0.278 HD
ATOM     13  H21 UNL     1     303.586 217.330 331.508  1.00  0.00     0.278 HD
ENDBRANCH   1  10
TORSDOF 2
ENDMDL
MODEL 4
REMARK VINA RESULT: -4.858569261      1.550      1.746
REMARK  2 active torsions:
REMARK  status: ('A' for Active; 'I' for Inactive)
REMARK    1  A    between atoms: C1_2  and  C2_4 
REMARK    2  A    between atoms: C2_4  and  N2_5 
ROOT
HETATM    1  C2  UNL     1     305.484 218.944 331.830  1.00  0.00     0.369 C 
HETATM    2  N3  UNL     1     305.485 219.955 330.727  1.00  0.00    -0.080 NA
HETATM    3  N4  UNL     1     304.060 219.984 330.798  1.00  0.00    -0.267 N 
ATOM      4  H4  UNL     1     303.324 220.643 330.544  1.00  0.00     0.185 HD
HETATM    5  C3  UNL     1     304.119 218.677 331.386  1.00  0.00     0.297 C 
HETATM    6  O2  UNL     1     303.281 217.771 331.427  1.00  0.00    -0.267 OA
ENDROOT
BRANCH   1   7
HETATM    7  C1  UNL     1     305.664 219.563 333.101  1.00  0.00     0.295 C 
HETATM    8  N1  UNL     1     305.906 221.016 333.171  1.00  0.00    -0.058 NA
HETATM    9  O1  UNL     1     305.648 218.998 334.182  1.00  0.00    -0.272 OA
ENDBRANCH   1   7
BRANCH   1  10
HETATM   10  N2  UNL     1     306.395 217.913 331.428  1.00  0.00    -0.036 N 
ATOM     11  H23 UNL     1     306.035 217.465 330.585  1.00  0.00     0.278 HD
ATOM     12  H22 UNL     1     307.247 218.346 331.072  1.00  0.00     0.278 HD
ATOM     13  H21 UNL     1     306.650 217.191 332.102  1.00  0.00     0.278 HD
ENDBRANCH   1  10
TORSDOF 2
ENDMDL
MODEL 5
REMARK VINA RESULT: -4.820150736      1.657      3.039
REMARK  2 active torsions:
REMARK  status: ('A' for Active; 'I' for Inactive)
REMARK    1  A    between atoms: C1_2  and  C2_4 
REMARK    2  A    between atoms: C2_4  and  N2_5 
ROOT
HETATM    1  C2  UNL     1     305.408 219.730 331.297  1.00  0.00     0.369 C 
HETATM    2  N3  UNL     1     306.467 220.634 331.845  1.00  0.00    -0.080 NA
HETATM    3  N4  UNL     1     305.774 220.634 333.093  1.00  0.00    -0.267 N 
ATOM      4  H4  UNL     1     306.016 220.806 334.069  1.00  0.00     0.185 HD
HETATM    5  C3  UNL     1     304.586 220.286 332.368  1.00  0.00     0.297 C 
HETATM    6  O2  UNL     1     303.393 220.452 332.644  1.00  0.00    -0.267 OA
ENDROOT
BRANCH   1   7
HETATM    7  C1  UNL     1     305.793 218.361 331.393  1.00  0.00     0.295 C 
HETATM    8  N1  UNL     1     306.439 217.709 330.238  1.00  0.00    -0.058 NA
HETATM    9  O1  UNL     1     305.633 217.638 332.362  1.00  0.00    -0.272 OA
ENDBRANCH   1   7
BRANCH   1  10
HETATM   10  N2  UNL     1     305.055 220.261 330.013  1.00  0.00    -0.036 N 
ATOM     11  H23 UNL     1     305.907 220.407 329.472  1.00  0.00     0.278 HD
ATOM     12  H22 UNL     1     304.598 219.529 329.469  1.00  0.00     0.278 HD
ATOM     13  H21 UNL     1     304.487 221.107 329.970  1.00  0.00     0.278 HD
ENDBRANCH   1  10
TORSDOF 2
ENDMDL
