MODEL 1
REMARK VINA RESULT: -4.664534772      0.000      0.000
REMARK  1 active torsions:
REMARK  status: ('A' for Active; 'I' for Inactive)
REMARK       I    between atoms: N1_2  and  C2_4 
REMARK       I    between atoms: N3_6  and  C3_8 
REMARK       I    between atoms: C3_8  and  N4_10 
REMARK    1  A    between atoms: N4_10  and  N5_12 
ROOT
HETATM    1  C1  UNL     1     301.657 216.852 331.243  1.00  0.00     0.148 C 
HETATM    2  N1  UNL     1     303.050 217.155 330.988  1.00  0.00    -0.369 N 
ATOM      3  H1  UNL     1     303.601 216.474 330.465  1.00  0.00     0.161 HD
HETATM    4  C2  UNL     1     303.691 218.339 331.420  1.00  0.00     0.191 C 
HETATM    5  N2  UNL     1     302.964 219.536 331.500  1.00  0.00    -0.063 NA
HETATM    6  N3  UNL     1     304.935 218.305 331.736  1.00  0.00    -0.282 N 
ATOM      7  H3  UNL     1     305.429 217.416 331.665  1.00  0.00     0.173 HD
HETATM    8  C3  UNL     1     305.656 219.445 332.179  1.00  0.00     0.340 C 
HETATM    9  O1  UNL     1     306.368 220.104 331.383  1.00  0.00    -0.245 OA
HETATM   10  N4  UNL     1     305.566 219.840 333.537  1.00  0.00    -0.258 N 
ATOM     11  H4  UNL     1     304.983 219.293 334.169  1.00  0.00     0.191 HD
ENDROOT
BRANCH  10  12
HETATM   12  N5  UNL     1     306.247 220.947 334.042  1.00  0.00    -0.341 N 
ATOM     13  H52 UNL     1     306.020 221.862 333.649  1.00  0.00     0.177 HD
ATOM     14  H51 UNL     1     306.950 220.871 334.776  1.00  0.00     0.177 HD
ENDBRANCH  10  12
TORSDOF 1
ENDMDL
MODEL 2
REMARK VINA RESULT: -4.585310685      2.104      2.773
REMARK  1 active torsions:
REMARK  status: ('A' for Active; 'I' for Inactive)
REMARK       I    between atoms: N1_2  and  C2_4 
REMARK       I    between atoms: N3_6  and  C3_8 
REMARK       I    between atoms: C3_8  and  N4_10 
REMARK    1  A    between atoms: N4_10  and  N5_12 
ROOT
HETATM    1  C1  UNL     1     300.552 219.140 330.490  1.00  0.00     0.148 C 
HETATM    2  N1  UNL     1     301.814 219.645 330.988  1.00  0.00    -0.369 N 
ATOM      3  H1  UNL     1     301.924 220.655 331.078  1.00  0.00     0.161 HD
HETATM    4  C2  UNL     1     302.902 218.821 331.357  1.00  0.00     0.191 C 
HETATM    5  N2  UNL     1     302.661 217.553 331.908  1.00  0.00    -0.063 NA
HETATM    6  N3  UNL     1     304.102 219.243 331.184  1.00  0.00    -0.282 N 
ATOM      7  H3  UNL     1     304.236 220.170 330.781  1.00  0.00     0.173 HD
HETATM    8  C3  UNL     1     305.251 218.482 331.527  1.00  0.00     0.340 C 
HETATM    9  O1  UNL     1     305.850 218.677 332.613  1.00  0.00    -0.245 OA
HETATM   10  N4  UNL     1     305.723 217.494 330.628  1.00  0.00    -0.258 N 
ATOM     11  H4  UNL     1     305.224 217.350 329.751  1.00  0.00     0.191 HD
ENDROOT
BRANCH  10  12
HETATM   12  N5  UNL     1     306.844 216.710 330.899  1.00  0.00    -0.341 N 
ATOM     13  H52 UNL     1     307.007 216.434 331.867  1.00  0.00     0.177 HD
ATOM     14  H51 UNL     1     307.493 216.412 330.171  1.00  0.00     0.177 HD
ENDBRANCH  10  12
TORSDOF 1
ENDMDL
MODEL 3
REMARK VINA RESULT: -4.383847987      2.705      4.687
REMARK  1 active torsions:
REMARK  status: ('A' for Active; 'I' for Inactive)
REMARK       I    between atoms: N1_2  and  C2_4 
REMARK       I    between atoms: N3_6  and  C3_8 
REMARK       I    between atoms: C3_8  and  N4_10 
REMARK    1  A    between atoms: N4_10  and  N5_12 
ROOT
HETATM    1  C1  UNL     1     304.903 220.752 331.825  1.00  0.00     0.148 C 
HETATM    2  N1  UNL     1     304.176 219.853 330.953  1.00  0.00    -0.369 N 
ATOM      3  H1  UNL     1     304.093 220.103 329.968  1.00  0.00     0.161 HD
HETATM    4  C2  UNL     1     303.576 218.648 331.388  1.00  0.00     0.191 C 
HETATM    5  N2  UNL     1     304.164 217.911 332.427  1.00  0.00    -0.063 NA
HETATM    6  N3  UNL     1     302.497 218.240 330.825  1.00  0.00    -0.282 N 
ATOM      7  H3  UNL     1     302.100 218.803 330.073  1.00  0.00     0.173 HD
HETATM    8  C3  UNL     1     301.830 217.044 331.198  1.00  0.00     0.340 C 
HETATM    9  O1  UNL     1     302.001 215.983 330.549  1.00  0.00    -0.245 OA
HETATM   10  N4  UNL     1     300.960 217.053 332.317  1.00  0.00    -0.258 N 
ATOM     11  H4  UNL     1     300.833 217.923 332.832  1.00  0.00     0.191 HD
ENDROOT
BRANCH  10  12
HETATM   12  N5  UNL     1     300.272 215.916 332.739  1.00  0.00    -0.341 N 
ATOM     13  H52 UNL     1     299.352 216.047 333.158  1.00  0.00     0.177 HD
ATOM     14  H51 UNL     1     300.656 214.976 332.643  1.00  0.00     0.177 HD
ENDBRANCH  10  12
TORSDOF 1
ENDMDL
MODEL 4
REMARK VINA RESULT: -4.356090397      1.272      1.336
REMARK  1 active torsions:
REMARK  status: ('A' for Active; 'I' for Inactive)
REMARK       I    between atoms: N1_2  and  C2_4 
REMARK       I    between atoms: N3_6  and  C3_8 
REMARK       I    between atoms: C3_8  and  N4_10 
REMARK    1  A    between atoms: N4_10  and  N5_12 
ROOT
HETATM    1  C1  UNL     1     300.862 216.081 330.884  1.00  0.00     0.148 C 
HETATM    2  N1  UNL     1     301.968 216.892 330.418  1.00  0.00    -0.369 N 
ATOM      3  H1  UNL     1     302.303 216.745 329.466  1.00  0.00     0.161 HD
HETATM    4  C2  UNL     1     302.611 217.876 331.206  1.00  0.00     0.191 C 
HETATM    5  N2  UNL     1     301.874 218.599 332.156  1.00  0.00    -0.063 NA
HETATM    6  N3  UNL     1     303.864 218.096 331.042  1.00  0.00    -0.282 N 
ATOM      7  H3  UNL     1     304.366 217.550 330.342  1.00  0.00     0.173 HD
HETATM    8  C3  UNL     1     304.588 219.063 331.789  1.00  0.00     0.340 C 
HETATM    9  O1  UNL     1     304.814 220.203 331.314  1.00  0.00    -0.245 OA
HETATM   10  N4  UNL     1     305.058 218.733 333.084  1.00  0.00    -0.258 N 
ATOM     11  H4  UNL     1     304.865 217.802 333.453  1.00  0.00     0.191 HD
ENDROOT
BRANCH  10  12
HETATM   12  N5  UNL     1     305.774 219.632 333.872  1.00  0.00    -0.341 N 
ATOM     13  H52 UNL     1     305.630 219.598 334.882  1.00  0.00     0.177 HD
ATOM     14  H51 UNL     1     306.426 220.310 333.477  1.00  0.00     0.177 HD
ENDBRANCH  10  12
TORSDOF 1
ENDMDL
MODEL 5
REMARK VINA RESULT: -4.290842034      1.807      2.024
REMARK  1 active torsions:
REMARK  status: ('A' for Active; 'I' for Inactive)
REMARK       I    between atoms: N1_2  and  C2_4 
REMARK       I    between atoms: N3_6  and  C3_8 
REMARK       I    between atoms: C3_8  and  N4_10 
REMARK    1  A    between atoms: N4_10  and  N5_12 
ROOT
HETATM    1  C1  UNL     1     301.461 216.412 330.375  1.00  0.00     0.148 C 
HETATM    2  N1  UNL     1     301.637 217.830 330.608  1.00  0.00    -0.369 N 
ATOM      3  H1  UNL     1     300.900 218.462 330.298  1.00  0.00     0.161 HD
HETATM    4  C2  UNL     1     302.772 218.390 331.239  1.00  0.00     0.191 C 
HETATM    5  N2  UNL     1     303.439 217.670 332.242  1.00  0.00    -0.063 NA
HETATM    6  N3  UNL     1     303.182 219.554 330.887  1.00  0.00    -0.282 N 
ATOM      7  H3  UNL     1     302.672 220.046 330.153  1.00  0.00     0.173 HD
HETATM    8  C3  UNL     1     304.311 220.190 331.467  1.00  0.00     0.340 C 
HETATM    9  O1  UNL     1     304.171 221.041 332.379  1.00  0.00    -0.245 OA
HETATM   10  N4  UNL     1     305.609 219.856 331.009  1.00  0.00    -0.258 N 
ATOM     11  H4  UNL     1     305.704 219.162 330.267  1.00  0.00     0.191 HD
ENDROOT
BRANCH  10  12
HETATM   12  N5  UNL     1     306.762 220.441 331.532  1.00  0.00    -0.341 N 
ATOM     13  H52 UNL     1     307.662 220.080 331.216  1.00  0.00     0.177 HD
ATOM     14  H51 UNL     1     306.731 221.203 332.209  1.00  0.00     0.177 HD
ENDBRANCH  10  12
TORSDOF 1
ENDMDL
