MODEL 1
REMARK VINA RESULT: -8.603598724      0.000      0.000
REMARK  11 active torsions:
REMARK  status: ('A' for Active; 'I' for Inactive)
REMARK    1  A    between atoms: C2_2  and  C3_3 
REMARK    2  A    between atoms: C4_4  and  C5_5 
REMARK    3  A    between atoms: C10_10  and  O1_11 
REMARK    4  A    between atoms: C13_15  and  O2_16 
REMARK    5  A    between atoms: C14_18  and  C15_19 
REMARK    6  A    between atoms: C15_19  and  O3_20 
REMARK    7  A    between atoms: C16_23  and  O5_24 
REMARK    8  A    between atoms: O5_24  and  C17_25 
REMARK    9  A    between atoms: C17_25  and  C18_26 
REMARK   10  A    between atoms: C18_26  and  C19_27 
REMARK   11  A    between atoms: C19_27  and  N1_28 
ROOT
HETATM    1  C3  UNL     1       3.231  -7.332 -29.399  1.00  0.00     0.016 C 
HETATM    2  C4  UNL     1       3.768  -8.461 -30.279  1.00  0.00    -0.006 C 
HETATM    3  C7  UNL     1       3.172  -9.743 -29.737  1.00  0.00     0.017 C 
HETATM    4  C8  UNL     1       2.527  -9.353 -28.451  1.00  0.00    -0.013 C 
HETATM    5  C9  UNL     1       3.483  -9.401 -27.319  1.00  0.00     0.018 C 
HETATM    6  C10 UNL     1       1.279 -10.147 -28.154  1.00  0.00     0.131 C 
HETATM    7  C11 UNL     1       0.325  -9.509 -27.222  1.00  0.00     0.026 C 
HETATM    8  C12 UNL     1       0.160 -10.476 -26.057  1.00  0.00     0.042 C 
HETATM    9  C13 UNL     1      -0.788 -10.028 -25.009  1.00  0.00     0.149 C 
HETATM   10  C14 UNL     1      -1.812  -9.029 -25.449  1.00  0.00     0.176 C 
HETATM   11  O4  UNL     1      -1.309  -7.711 -25.391  1.00  0.00    -0.351 OA
HETATM   12  C16 UNL     1      -0.696  -7.377 -26.608  1.00  0.00     0.264 C 
HETATM   13  C20 UNL     1       0.606  -8.155 -26.735  1.00  0.00     0.048 C 
HETATM   14  C21 UNL     1       1.571  -7.328 -27.501  1.00  0.00     0.016 C 
HETATM   15  C22 UNL     1       2.039  -7.953 -28.781  1.00  0.00     0.005 C 
ENDROOT
BRANCH  12  16
HETATM   16  O5  UNL     1      -0.526  -6.015 -26.598  1.00  0.00    -0.361 OA
BRANCH  16  17
HETATM   17  C17 UNL     1      -1.402  -5.298 -27.392  1.00  0.00     0.172 C 
BRANCH  17  18
HETATM   18  C18 UNL     1      -1.691  -3.919 -26.838  1.00  0.00     0.053 C 
BRANCH  18  19
HETATM   19  C19 UNL     1      -2.682  -4.000 -25.689  1.00  0.00     0.231 C 
BRANCH  19  20
HETATM   20  N1  UNL     1      -3.388  -5.246 -25.670  1.00  0.00    -0.079 N 
ATOM     21  H13 UNL     1      -4.363  -5.121 -25.940  1.00  0.00     0.274 HD
ATOM     22  H12 UNL     1      -3.084  -5.853 -26.431  1.00  0.00     0.274 HD
ATOM     23  H11 UNL     1      -3.312  -5.717 -24.769  1.00  0.00     0.274 HD
ENDBRANCH  19  20
ENDBRANCH  18  19
ENDBRANCH  17  18
ENDBRANCH  16  17
ENDBRANCH  12  16
BRANCH  10  24
HETATM   24  C15 UNL     1      -2.931  -9.063 -24.397  1.00  0.00     0.198 C 
BRANCH  24  25
HETATM   25  O3  UNL     1      -2.360  -8.716 -23.198  1.00  0.00    -0.398 OA
ATOM     26  H3  UNL     1      -2.619  -9.379 -22.568  1.00  0.00     0.209 HD
ENDBRANCH  24  25
ENDBRANCH  10  24
BRANCH   9  27
HETATM   27  O2  UNL     1      -1.417 -11.184 -24.485  1.00  0.00    -0.393 OA
ATOM     28  H2  UNL     1      -0.759 -11.670 -24.001  1.00  0.00     0.210 HD
ENDBRANCH   9  27
BRANCH   6  29
HETATM   29  O1  UNL     1       1.731 -11.417 -27.729  1.00  0.00    -0.394 OA
ATOM     30  H1  UNL     1       2.068 -11.287 -26.850  1.00  0.00     0.210 HD
ENDBRANCH   6  29
BRANCH   1  31
HETATM   31  C2  UNL     1       2.835  -6.217 -30.282  1.00  0.00    -0.031 C 
HETATM   32  C1  UNL     1       1.924  -5.302 -30.049  1.00  0.00     0.007 C 
ENDBRANCH   1  31
BRANCH   2  33
HETATM   33  C5  UNL     1       5.256  -8.472 -30.270  1.00  0.00     0.001 C 
HETATM   34  C6  UNL     1       5.893  -9.814 -30.130  1.00  0.00     0.005 C 
ENDBRANCH   2  33
TORSDOF 11
ENDMDL
MODEL 2
REMARK VINA RESULT: -8.172740109      1.133      1.243
REMARK  11 active torsions:
REMARK  status: ('A' for Active; 'I' for Inactive)
REMARK    1  A    between atoms: C2_2  and  C3_3 
REMARK    2  A    between atoms: C4_4  and  C5_5 
REMARK    3  A    between atoms: C10_10  and  O1_11 
REMARK    4  A    between atoms: C13_15  and  O2_16 
REMARK    5  A    between atoms: C14_18  and  C15_19 
REMARK    6  A    between atoms: C15_19  and  O3_20 
REMARK    7  A    between atoms: C16_23  and  O5_24 
REMARK    8  A    between atoms: O5_24  and  C17_25 
REMARK    9  A    between atoms: C17_25  and  C18_26 
REMARK   10  A    between atoms: C18_26  and  C19_27 
REMARK   11  A    between atoms: C19_27  and  N1_28 
ROOT
HETATM    1  C3  UNL     1       2.504  -7.262 -28.852  1.00  0.00     0.016 C 
HETATM    2  C4  UNL     1       3.042  -8.320 -29.816  1.00  0.00    -0.006 C 
HETATM    3  C7  UNL     1       2.606  -9.662 -29.262  1.00  0.00     0.017 C 
HETATM    4  C8  UNL     1       2.060  -9.359 -27.909  1.00  0.00    -0.013 C 
HETATM    5  C9  UNL     1       3.122  -9.356 -26.875  1.00  0.00     0.018 C 
HETATM    6  C10 UNL     1       0.915 -10.261 -27.522  1.00  0.00     0.131 C 
HETATM    7  C11 UNL     1       0.007  -9.728 -26.482  1.00  0.00     0.026 C 
HETATM    8  C12 UNL     1       0.034 -10.734 -25.340  1.00  0.00     0.042 C 
HETATM    9  C13 UNL     1      -0.840 -10.393 -24.192  1.00  0.00     0.149 C 
HETATM   10  C14 UNL     1      -1.979  -9.471 -24.499  1.00  0.00     0.176 C 
HETATM   11  O4  UNL     1      -1.579  -8.119 -24.446  1.00  0.00    -0.351 OA
HETATM   12  C16 UNL     1      -1.116  -7.704 -25.704  1.00  0.00     0.264 C 
HETATM   13  C20 UNL     1       0.226  -8.368 -25.979  1.00  0.00     0.048 C 
HETATM   14  C21 UNL     1       1.042  -7.445 -26.806  1.00  0.00     0.016 C 
HETATM   15  C22 UNL     1       1.431  -7.996 -28.145  1.00  0.00     0.005 C 
ENDROOT
BRANCH  12  16
HETATM   16  O5  UNL     1      -1.056  -6.333 -25.665  1.00  0.00    -0.361 OA
BRANCH  16  17
HETATM   17  C17 UNL     1      -2.258  -5.677 -25.850  1.00  0.00     0.172 C 
BRANCH  17  18
HETATM   18  C18 UNL     1      -2.074  -4.247 -26.311  1.00  0.00     0.053 C 
BRANCH  18  19
HETATM   19  C19 UNL     1      -1.336  -4.203 -27.639  1.00  0.00     0.231 C 
BRANCH  19  20
HETATM   20  N1  UNL     1      -1.529  -5.396 -28.405  1.00  0.00    -0.079 N 
ATOM     21  H13 UNL     1      -0.685  -5.645 -28.920  1.00  0.00     0.274 HD
ATOM     22  H12 UNL     1      -1.598  -6.215 -27.801  1.00  0.00     0.274 HD
ATOM     23  H11 UNL     1      -2.334  -5.328 -29.028  1.00  0.00     0.274 HD
ENDBRANCH  19  20
ENDBRANCH  18  19
ENDBRANCH  17  18
ENDBRANCH  16  17
ENDBRANCH  12  16
BRANCH  10  24
HETATM   24  C15 UNL     1      -2.983  -9.625 -23.348  1.00  0.00     0.198 C 
BRANCH  24  25
HETATM   25  O3  UNL     1      -2.308  -9.332 -22.189  1.00  0.00    -0.398 OA
ATOM     26  H3  UNL     1      -2.732  -8.572 -21.809  1.00  0.00     0.209 HD
ENDBRANCH  24  25
ENDBRANCH  10  24
BRANCH   9  27
HETATM   27  O2  UNL     1      -1.320 -11.610 -23.650  1.00  0.00    -0.393 OA
ATOM     28  H2  UNL     1      -2.179 -11.438 -23.283  1.00  0.00     0.210 HD
ENDBRANCH   9  27
BRANCH   6  29
HETATM   29  O1  UNL     1       1.506 -11.500 -27.183  1.00  0.00    -0.394 OA
ATOM     30  H1  UNL     1       2.435 -11.392 -27.349  1.00  0.00     0.210 HD
ENDBRANCH   6  29
BRANCH   1  31
HETATM   31  C2  UNL     1       1.937  -6.163 -29.656  1.00  0.00    -0.031 C 
HETATM   32  C1  UNL     1       1.973  -4.878 -29.386  1.00  0.00     0.007 C 
ENDBRANCH   1  31
BRANCH   2  33
HETATM   33  C5  UNL     1       4.520  -8.208 -29.948  1.00  0.00     0.001 C 
HETATM   34  C6  UNL     1       5.075  -8.520 -31.298  1.00  0.00     0.005 C 
ENDBRANCH   2  33
TORSDOF 11
ENDMDL
MODEL 3
REMARK VINA RESULT: -8.142588658      3.097      5.649
REMARK  11 active torsions:
REMARK  status: ('A' for Active; 'I' for Inactive)
REMARK    1  A    between atoms: C2_2  and  C3_3 
REMARK    2  A    between atoms: C4_4  and  C5_5 
REMARK    3  A    between atoms: C10_10  and  O1_11 
REMARK    4  A    between atoms: C13_15  and  O2_16 
REMARK    5  A    between atoms: C14_18  and  C15_19 
REMARK    6  A    between atoms: C15_19  and  O3_20 
REMARK    7  A    between atoms: C16_23  and  O5_24 
REMARK    8  A    between atoms: O5_24  and  C17_25 
REMARK    9  A    between atoms: C17_25  and  C18_26 
REMARK   10  A    between atoms: C18_26  and  C19_27 
REMARK   11  A    between atoms: C19_27  and  N1_28 
ROOT
HETATM    1  C3  UNL     1      -1.628  -6.411 -26.729  1.00  0.00     0.016 C 
HETATM    2  C4  UNL     1      -1.416  -5.889 -28.151  1.00  0.00    -0.006 C 
HETATM    3  C7  UNL     1      -0.500  -6.882 -28.837  1.00  0.00     0.017 C 
HETATM    4  C8  UNL     1      -0.030  -7.785 -27.748  1.00  0.00    -0.013 C 
HETATM    5  C9  UNL     1       1.174  -7.249 -27.071  1.00  0.00     0.018 C 
HETATM    6  C10 UNL     1       0.183  -9.205 -28.212  1.00  0.00     0.131 C 
HETATM    7  C11 UNL     1       0.139 -10.235 -27.153  1.00  0.00     0.026 C 
HETATM    8  C12 UNL     1       1.484 -10.948 -27.198  1.00  0.00     0.042 C 
HETATM    9  C13 UNL     1       1.636 -12.048 -26.216  1.00  0.00     0.149 C 
HETATM   10  C14 UNL     1       0.360 -12.651 -25.719  1.00  0.00     0.176 C 
HETATM   11  O4  UNL     1      -0.174 -11.918 -24.638  1.00  0.00    -0.351 OA
HETATM   12  C16 UNL     1      -1.025 -10.909 -25.114  1.00  0.00     0.264 C 
HETATM   13  C20 UNL     1      -0.186  -9.829 -25.781  1.00  0.00     0.048 C 
HETATM   14  C21 UNL     1      -0.864  -8.524 -25.586  1.00  0.00     0.016 C 
HETATM   15  C22 UNL     1      -1.260  -7.838 -26.859  1.00  0.00     0.005 C 
ENDROOT
BRANCH  12  16
HETATM   16  O5  UNL     1      -1.743 -10.462 -24.033  1.00  0.00    -0.361 OA
BRANCH  16  17
HETATM   17  C17 UNL     1      -1.173 -10.700 -22.797  1.00  0.00     0.172 C 
BRANCH  17  18
HETATM   18  C18 UNL     1      -2.207 -10.873 -21.705  1.00  0.00     0.053 C 
BRANCH  18  19
HETATM   19  C19 UNL     1      -2.502 -12.347 -21.475  1.00  0.00     0.231 C 
BRANCH  19  20
HETATM   20  N1  UNL     1      -1.745 -13.192 -22.347  1.00  0.00    -0.079 N 
ATOM     21  H13 UNL     1      -2.354 -13.813 -22.880  1.00  0.00     0.274 HD
ATOM     22  H12 UNL     1      -1.341 -12.660 -23.118  1.00  0.00     0.274 HD
ATOM     23  H11 UNL     1      -1.029 -13.719 -21.848  1.00  0.00     0.274 HD
ENDBRANCH  19  20
ENDBRANCH  18  19
ENDBRANCH  17  18
ENDBRANCH  16  17
ENDBRANCH  12  16
BRANCH  10  24
HETATM   24  C15 UNL     1       0.731 -14.015 -25.118  1.00  0.00     0.198 C 
BRANCH  24  25
HETATM   25  O3  UNL     1      -0.031 -14.955 -25.765  1.00  0.00    -0.398 OA
ATOM     26  H3  UNL     1       0.337 -15.057 -26.635  1.00  0.00     0.209 HD
ENDBRANCH  24  25
ENDBRANCH  10  24
BRANCH   9  27
HETATM   27  O2  UNL     1       2.453 -13.038 -26.814  1.00  0.00    -0.393 OA
ATOM     28  H2  UNL     1       3.318 -12.662 -26.928  1.00  0.00     0.210 HD
ENDBRANCH   9  27
BRANCH   6  29
HETATM   29  O1  UNL     1       1.394  -9.187 -28.942  1.00  0.00    -0.394 OA
ATOM     30  H1  UNL     1       1.287  -9.834 -29.629  1.00  0.00     0.210 HD
ENDBRANCH   6  29
BRANCH   1  31
HETATM   31  C2  UNL     1      -3.061  -6.272 -26.404  1.00  0.00    -0.031 C 
HETATM   32  C1  UNL     1      -4.049  -6.050 -27.240  1.00  0.00     0.007 C 
ENDBRANCH   1  31
BRANCH   2  33
HETATM   33  C5  UNL     1      -0.852  -4.512 -28.127  1.00  0.00     0.001 C 
HETATM   34  C6  UNL     1      -0.921  -3.806 -26.813  1.00  0.00     0.005 C 
ENDBRANCH   2  33
TORSDOF 11
ENDMDL
MODEL 4
REMARK VINA RESULT: -8.095460232      2.080      5.607
REMARK  11 active torsions:
REMARK  status: ('A' for Active; 'I' for Inactive)
REMARK    1  A    between atoms: C2_2  and  C3_3 
REMARK    2  A    between atoms: C4_4  and  C5_5 
REMARK    3  A    between atoms: C10_10  and  O1_11 
REMARK    4  A    between atoms: C13_15  and  O2_16 
REMARK    5  A    between atoms: C14_18  and  C15_19 
REMARK    6  A    between atoms: C15_19  and  O3_20 
REMARK    7  A    between atoms: C16_23  and  O5_24 
REMARK    8  A    between atoms: O5_24  and  C17_25 
REMARK    9  A    between atoms: C17_25  and  C18_26 
REMARK   10  A    between atoms: C18_26  and  C19_27 
REMARK   11  A    between atoms: C19_27  and  N1_28 
ROOT
HETATM    1  C3  UNL     1      -0.808 -10.481 -24.524  1.00  0.00     0.016 C 
HETATM    2  C4  UNL     1       0.240 -11.259 -23.727  1.00  0.00    -0.006 C 
HETATM    3  C7  UNL     1       1.562 -11.037 -24.432  1.00  0.00     0.017 C 
HETATM    4  C8  UNL     1       1.206 -10.362 -25.712  1.00  0.00    -0.013 C 
HETATM    5  C9  UNL     1       0.882 -11.340 -26.777  1.00  0.00     0.018 C 
HETATM    6  C10 UNL     1       2.252  -9.375 -26.168  1.00  0.00     0.131 C 
HETATM    7  C11 UNL     1       1.776  -8.324 -27.093  1.00  0.00     0.026 C 
HETATM    8  C12 UNL     1       2.615  -8.460 -28.356  1.00  0.00     0.042 C 
HETATM    9  C13 UNL     1       2.307  -7.469 -29.415  1.00  0.00     0.149 C 
HETATM   10  C14 UNL     1       1.656  -6.205 -28.947  1.00  0.00     0.176 C 
HETATM   11  O4  UNL     1       0.256  -6.352 -28.841  1.00  0.00    -0.351 OA
HETATM   12  C16 UNL     1      -0.083  -6.810 -27.559  1.00  0.00     0.264 C 
HETATM   13  C20 UNL     1       0.348  -8.264 -27.424  1.00  0.00     0.048 C 
HETATM   14  C21 UNL     1      -0.604  -8.951 -26.518  1.00  0.00     0.016 C 
HETATM   15  C22 UNL     1       0.022  -9.515 -25.277  1.00  0.00     0.005 C 
ENDROOT
BRANCH  12  16
HETATM   16  O5  UNL     1      -1.436  -6.621 -27.422  1.00  0.00    -0.361 OA
BRANCH  16  17
HETATM   17  C17 UNL     1      -1.926  -5.429 -27.920  1.00  0.00     0.172 C 
BRANCH  17  18
HETATM   18  C18 UNL     1      -1.670  -4.262 -26.989  1.00  0.00     0.053 C 
BRANCH  18  19
HETATM   19  C19 UNL     1      -2.642  -4.287 -25.820  1.00  0.00     0.231 C 
BRANCH  19  20
HETATM   20  N1  UNL     1      -3.556  -5.385 -25.899  1.00  0.00    -0.079 N 
ATOM     21  H13 UNL     1      -3.198  -6.119 -26.511  1.00  0.00     0.274 HD
ATOM     22  H12 UNL     1      -3.585  -5.905 -25.022  1.00  0.00     0.274 HD
ATOM     23  H11 UNL     1      -4.489  -5.090 -26.184  1.00  0.00     0.274 HD
ENDBRANCH  19  20
ENDBRANCH  18  19
ENDBRANCH  17  18
ENDBRANCH  16  17
ENDBRANCH  12  16
BRANCH  10  24
HETATM   24  C15 UNL     1       1.854  -5.175 -30.068  1.00  0.00     0.198 C 
BRANCH  24  25
HETATM   25  O3  UNL     1       1.487  -3.955 -29.557  1.00  0.00    -0.398 OA
ATOM     26  H3  UNL     1       1.926  -3.865 -28.719  1.00  0.00     0.209 HD
ENDBRANCH  24  25
ENDBRANCH  10  24
BRANCH   9  27
HETATM   27  O2  UNL     1       3.517  -7.182 -30.092  1.00  0.00    -0.393 OA
ATOM     28  H2  UNL     1       4.087  -7.935 -29.985  1.00  0.00     0.210 HD
ENDBRANCH   9  27
BRANCH   6  29
HETATM   29  O1  UNL     1       3.310 -10.157 -26.687  1.00  0.00    -0.394 OA
ATOM     30  H1  UNL     1       3.866 -10.359 -25.943  1.00  0.00     0.210 HD
ENDBRANCH   6  29
BRANCH   1  31
HETATM   31  C2  UNL     1      -1.678  -9.777 -23.563  1.00  0.00    -0.031 C 
HETATM   32  C1  UNL     1      -2.210 -10.264 -22.466  1.00  0.00     0.007 C 
ENDBRANCH   1  31
BRANCH   2  33
HETATM   33  C5  UNL     1      -0.128 -12.698 -23.639  1.00  0.00     0.001 C 
HETATM   34  C6  UNL     1       1.010 -13.663 -23.705  1.00  0.00     0.005 C 
ENDBRANCH   2  33
TORSDOF 11
ENDMDL
MODEL 5
REMARK VINA RESULT: -8.088315024      2.338      6.657
REMARK  11 active torsions:
REMARK  status: ('A' for Active; 'I' for Inactive)
REMARK    1  A    between atoms: C2_2  and  C3_3 
REMARK    2  A    between atoms: C4_4  and  C5_5 
REMARK    3  A    between atoms: C10_10  and  O1_11 
REMARK    4  A    between atoms: C13_15  and  O2_16 
REMARK    5  A    between atoms: C14_18  and  C15_19 
REMARK    6  A    between atoms: C15_19  and  O3_20 
REMARK    7  A    between atoms: C16_23  and  O5_24 
REMARK    8  A    between atoms: O5_24  and  C17_25 
REMARK    9  A    between atoms: C17_25  and  C18_26 
REMARK   10  A    between atoms: C18_26  and  C19_27 
REMARK   11  A    between atoms: C19_27  and  N1_28 
ROOT
HETATM    1  C3  UNL     1      -1.947  -6.930 -25.829  1.00  0.00     0.016 C 
HETATM    2  C4  UNL     1      -2.893  -6.298 -26.851  1.00  0.00    -0.006 C 
HETATM    3  C7  UNL     1      -2.088  -6.121 -28.123  1.00  0.00     0.017 C 
HETATM    4  C8  UNL     1      -0.681  -6.419 -27.730  1.00  0.00    -0.013 C 
HETATM    5  C9  UNL     1       0.010  -5.217 -27.208  1.00  0.00     0.018 C 
HETATM    6  C10 UNL     1       0.110  -7.077 -28.834  1.00  0.00     0.131 C 
HETATM    7  C11 UNL     1       1.291  -7.852 -28.396  1.00  0.00     0.026 C 
HETATM    8  C12 UNL     1       2.490  -7.233 -29.100  1.00  0.00     0.042 C 
HETATM    9  C13 UNL     1       3.787  -7.890 -28.810  1.00  0.00     0.149 C 
HETATM   10  C14 UNL     1       3.702  -9.310 -28.345  1.00  0.00     0.176 C 
HETATM   11  O4  UNL     1       3.485  -9.388 -26.953  1.00  0.00    -0.351 OA
HETATM   12  C16 UNL     1       2.109  -9.386 -26.680  1.00  0.00     0.264 C 
HETATM   13  C20 UNL     1       1.552  -7.997 -26.960  1.00  0.00     0.048 C 
HETATM   14  C21 UNL     1       0.430  -7.747 -26.021  1.00  0.00     0.016 C 
HETATM   15  C22 UNL     1      -0.891  -7.505 -26.689  1.00  0.00     0.005 C 
ENDROOT
BRANCH  12  16
HETATM   16  O5  UNL     1       1.969  -9.784 -25.373  1.00  0.00    -0.361 OA
BRANCH  16  17
HETATM   17  C17 UNL     1       1.620 -11.107 -25.186  1.00  0.00     0.172 C 
BRANCH  17  18
HETATM   18  C18 UNL     1       0.133 -11.289 -24.960  1.00  0.00     0.053 C 
BRANCH  18  19
HETATM   19  C19 UNL     1      -0.211 -11.112 -23.490  1.00  0.00     0.231 C 
BRANCH  19  20
HETATM   20  N1  UNL     1      -0.196  -9.737 -23.092  1.00  0.00    -0.079 N 
ATOM     21  H13 UNL     1       0.345  -9.170 -23.745  1.00  0.00     0.274 HD
ATOM     22  H12 UNL     1      -1.111  -9.306 -23.222  1.00  0.00     0.274 HD
ATOM     23  H11 UNL     1       0.136  -9.617 -22.135  1.00  0.00     0.274 HD
ENDBRANCH  19  20
ENDBRANCH  18  19
ENDBRANCH  17  18
ENDBRANCH  16  17
ENDBRANCH  12  16
BRANCH  10  24
HETATM   24  C15 UNL     1       5.096  -9.919 -28.555  1.00  0.00     0.198 C 
BRANCH  24  25
HETATM   25  O3  UNL     1       5.014 -10.730 -29.659  1.00  0.00    -0.398 OA
ATOM     26  H3  UNL     1       4.934 -10.159 -30.415  1.00  0.00     0.209 HD
ENDBRANCH  24  25
ENDBRANCH  10  24
BRANCH   9  27
HETATM   27  O2  UNL     1       4.579  -7.798 -29.980  1.00  0.00    -0.393 OA
ATOM     28  H2  UNL     1       5.302  -7.212 -29.788  1.00  0.00     0.210 HD
ENDBRANCH   9  27
BRANCH   6  29
HETATM   29  O1  UNL     1       0.414  -6.043 -29.750  1.00  0.00    -0.394 OA
ATOM     30  H1  UNL     1       0.408  -5.241 -29.240  1.00  0.00     0.210 HD
ENDBRANCH   6  29
BRANCH   1  31
HETATM   31  C2  UNL     1      -2.685  -7.999 -25.129  1.00  0.00    -0.031 C 
HETATM   32  C1  UNL     1      -2.888  -9.229 -25.542  1.00  0.00     0.007 C 
ENDBRANCH   1  31
BRANCH   2  33
HETATM   33  C5  UNL     1      -3.441  -5.014 -26.337  1.00  0.00     0.001 C 
HETATM   34  C6  UNL     1      -2.502  -4.189 -25.520  1.00  0.00     0.005 C 
ENDBRANCH   2  33
TORSDOF 11
ENDMDL
