MODEL 1
REMARK VINA RESULT: -7.494518316      0.000      0.000
REMARK  11 active torsions:
REMARK  status: ('A' for Active; 'I' for Inactive)
REMARK    1  A    between atoms: C2_2  and  C3_3 
REMARK    2  A    between atoms: C3_3  and  C4_4 
REMARK    3  A    between atoms: C4_4  and  O1_5 
REMARK    4  A    between atoms: C6_8  and  C7_9 
REMARK    5  A    between atoms: C7_9  and  C8_10 
REMARK    6  A    between atoms: C13_17  and  C14_18 
REMARK    7  A    between atoms: C14_18  and  O4_19 
REMARK    8  A    between atoms: C17_23  and  O5_24 
REMARK    9  A    between atoms: C17_23  and  C18_26 
REMARK   10  A    between atoms: C18_26  and  C19_27 
REMARK   11  A    between atoms: C19_27  and  O7_29 
ROOT
HETATM    1  C4  UNL     1       0.628  -9.242 -27.015  1.00  0.00     0.072 C 
HETATM    2  C5  UNL     1       1.013  -8.539 -28.283  1.00  0.00     0.030 C 
HETATM    3  C6  UNL     1       2.400  -7.980 -28.268  1.00  0.00     0.003 C 
HETATM    4  C9  UNL     1       2.292  -6.525 -28.555  1.00  0.00     0.006 C 
HETATM    5  C10 UNL     1       0.885  -6.214 -28.985  1.00  0.00     0.006 C 
HETATM    6  C11 UNL     1       0.058  -7.383 -28.483  1.00  0.00     0.002 C 
HETATM    7  C12 UNL     1      -0.426  -7.073 -27.142  1.00  0.00     0.031 C 
HETATM    8  C13 UNL     1      -1.805  -6.612 -26.978  1.00  0.00    -0.055 C 
HETATM    9  C15 UNL     1      -2.228  -6.643 -25.693  1.00  0.00    -0.018 C 
HETATM   10  C16 UNL     1      -1.372  -7.099 -24.584  1.00  0.00     0.066 C 
HETATM   11  C17 UNL     1      -0.261  -8.041 -24.973  1.00  0.00     0.077 C 
HETATM   12  C21 UNL     1      -0.416  -8.412 -26.394  1.00  0.00     0.064 C 
ENDROOT
BRANCH  11  13
HETATM   13  O5  UNL     1       0.949  -7.331 -24.774  1.00  0.00    -0.389 OA
ATOM     14  H5  UNL     1       1.648  -7.920 -25.033  1.00  0.00     0.210 HD
ENDBRANCH  11  13
BRANCH  11  15
HETATM   15  C18 UNL     1      -0.283  -9.206 -24.017  1.00  0.00     0.149 C 
BRANCH  15  16
HETATM   16  C19 UNL     1      -1.651  -9.764 -23.858  1.00  0.00     0.261 C 
HETATM   17  O6  UNL     1      -2.132 -10.433 -24.809  1.00  0.00    -0.265 OA
BRANCH  16  18
HETATM   18  O7  UNL     1      -2.433  -9.600 -22.740  1.00  0.00    -0.326 OA
HETATM   19  C20 UNL     1      -2.526 -10.628 -21.752  1.00  0.00     0.213 C 
ENDBRANCH  16  18
ENDBRANCH  15  16
ENDBRANCH  11  15
BRANCH   1  20
HETATM   20  C3  UNL     1       0.029 -10.622 -27.298  1.00  0.00     0.065 C 
BRANCH  20  21
HETATM   21  C2  UNL     1       0.829 -11.736 -26.782  1.00  0.00    -0.034 C 
HETATM   22  C1  UNL     1       0.397 -12.488 -25.788  1.00  0.00     0.007 C 
ENDBRANCH  20  21
ENDBRANCH   1  20
BRANCH   1  23
HETATM   23  O1  UNL     1       1.774  -9.447 -26.277  1.00  0.00    -0.389 OA
ATOM     24  H1  UNL     1       1.692  -8.925 -25.488  1.00  0.00     0.210 HD
ENDBRANCH   1  23
BRANCH   8  25
HETATM   25  C14 UNL     1      -2.749  -6.154 -27.992  1.00  0.00     0.198 C 
BRANCH  25  26
HETATM   26  O4  UNL     1      -4.042  -6.125 -27.491  1.00  0.00    -0.397 OA
ATOM     27  H4  UNL     1      -4.447  -6.982 -27.546  1.00  0.00     0.209 HD
ENDBRANCH  25  26
ENDBRANCH   8  25
BRANCH   3  28
HETATM   28  C7  UNL     1       3.303  -8.714 -29.229  1.00  0.00     0.118 C 
BRANCH  28  29
HETATM   29  C8  UNL     1       4.291  -9.562 -28.554  1.00  0.00     0.172 C 
HETATM   30  O2  UNL     1       3.969 -10.511 -27.799  1.00  0.00    -0.648 OA
HETATM   31  O3  UNL     1       5.643  -9.323 -28.744  1.00  0.00    -0.648 OA
ENDBRANCH  28  29
ENDBRANCH   3  28
TORSDOF 11
ENDMDL
MODEL 2
REMARK VINA RESULT: -6.948043915      1.854      5.364
REMARK  11 active torsions:
REMARK  status: ('A' for Active; 'I' for Inactive)
REMARK    1  A    between atoms: C2_2  and  C3_3 
REMARK    2  A    between atoms: C3_3  and  C4_4 
REMARK    3  A    between atoms: C4_4  and  O1_5 
REMARK    4  A    between atoms: C6_8  and  C7_9 
REMARK    5  A    between atoms: C7_9  and  C8_10 
REMARK    6  A    between atoms: C13_17  and  C14_18 
REMARK    7  A    between atoms: C14_18  and  O4_19 
REMARK    8  A    between atoms: C17_23  and  O5_24 
REMARK    9  A    between atoms: C17_23  and  C18_26 
REMARK   10  A    between atoms: C18_26  and  C19_27 
REMARK   11  A    between atoms: C19_27  and  O7_29 
ROOT
HETATM    1  C4  UNL     1       0.368  -7.840 -26.682  1.00  0.00     0.072 C 
HETATM    2  C5  UNL     1       0.599  -6.545 -27.404  1.00  0.00     0.030 C 
HETATM    3  C6  UNL     1      -0.499  -6.175 -28.349  1.00  0.00     0.003 C 
HETATM    4  C9  UNL     1       0.117  -5.993 -29.690  1.00  0.00     0.006 C 
HETATM    5  C10 UNL     1       1.614  -6.008 -29.547  1.00  0.00     0.006 C 
HETATM    6  C11 UNL     1       1.869  -6.682 -28.212  1.00  0.00     0.002 C 
HETATM    7  C12 UNL     1       2.009  -8.118 -28.431  1.00  0.00     0.031 C 
HETATM    8  C13 UNL     1       3.352  -8.699 -28.470  1.00  0.00    -0.055 C 
HETATM    9  C15 UNL     1       3.351 -10.049 -28.379  1.00  0.00    -0.018 C 
HETATM   10  C16 UNL     1       2.113 -10.838 -28.254  1.00  0.00     0.066 C 
HETATM   11  C17 UNL     1       0.936 -10.101 -27.666  1.00  0.00     0.077 C 
HETATM   12  C21 UNL     1       1.382  -8.774 -27.195  1.00  0.00     0.064 C 
ENDROOT
BRANCH  11  13
HETATM   13  O5  UNL     1      -0.010  -9.964 -28.712  1.00  0.00    -0.389 OA
ATOM     14  H5  UNL     1       0.057 -10.754 -29.236  1.00  0.00     0.210 HD
ENDBRANCH  11  13
BRANCH  11  15
HETATM   15  C18 UNL     1       0.329 -10.972 -26.596  1.00  0.00     0.149 C 
BRANCH  15  16
HETATM   16  C19 UNL     1       1.369 -11.619 -25.755  1.00  0.00     0.261 C 
HETATM   17  O6  UNL     1       1.920 -10.929 -24.858  1.00  0.00    -0.265 OA
BRANCH  16  18
HETATM   18  O7  UNL     1       1.775 -12.925 -25.887  1.00  0.00    -0.326 OA
HETATM   19  C20 UNL     1       0.827 -13.994 -25.870  1.00  0.00     0.213 C 
ENDBRANCH  16  18
ENDBRANCH  15  16
ENDBRANCH  11  15
BRANCH   1  20
HETATM   20  C3  UNL     1       0.584  -7.689 -25.174  1.00  0.00     0.065 C 
BRANCH  20  21
HETATM   21  C2  UNL     1      -0.615  -7.951 -24.372  1.00  0.00    -0.034 C 
HETATM   22  C1  UNL     1      -0.737  -9.057 -23.664  1.00  0.00     0.007 C 
ENDBRANCH  20  21
ENDBRANCH   1  20
BRANCH   1  23
HETATM   23  O1  UNL     1      -0.951  -8.199 -26.864  1.00  0.00    -0.389 OA
ATOM     24  H1  UNL     1      -0.955  -9.113 -27.125  1.00  0.00     0.210 HD
ENDBRANCH   1  23
BRANCH   8  25
HETATM   25  C14 UNL     1       4.642  -8.028 -28.576  1.00  0.00     0.198 C 
BRANCH  25  26
HETATM   26  O4  UNL     1       4.918  -7.685 -29.892  1.00  0.00    -0.397 OA
ATOM     27  H4  UNL     1       4.191  -7.214 -30.281  1.00  0.00     0.209 HD
ENDBRANCH  25  26
ENDBRANCH   8  25
BRANCH   3  28
HETATM   28  C7  UNL     1      -1.258  -4.961 -27.869  1.00  0.00     0.118 C 
BRANCH  28  29
HETATM   29  C8  UNL     1      -2.444  -5.302 -27.079  1.00  0.00     0.172 C 
HETATM   30  O2  UNL     1      -3.135  -6.327 -27.296  1.00  0.00    -0.648 OA
HETATM   31  O3  UNL     1      -2.839  -4.472 -26.041  1.00  0.00    -0.648 OA
ENDBRANCH  28  29
ENDBRANCH   3  28
TORSDOF 11
ENDMDL
MODEL 3
REMARK VINA RESULT: -6.855269615      1.955      5.251
REMARK  11 active torsions:
REMARK  status: ('A' for Active; 'I' for Inactive)
REMARK    1  A    between atoms: C2_2  and  C3_3 
REMARK    2  A    between atoms: C3_3  and  C4_4 
REMARK    3  A    between atoms: C4_4  and  O1_5 
REMARK    4  A    between atoms: C6_8  and  C7_9 
REMARK    5  A    between atoms: C7_9  and  C8_10 
REMARK    6  A    between atoms: C13_17  and  C14_18 
REMARK    7  A    between atoms: C14_18  and  O4_19 
REMARK    8  A    between atoms: C17_23  and  O5_24 
REMARK    9  A    between atoms: C17_23  and  C18_26 
REMARK   10  A    between atoms: C18_26  and  C19_27 
REMARK   11  A    between atoms: C19_27  and  O7_29 
ROOT
HETATM    1  C4  UNL     1       0.595  -8.013 -26.447  1.00  0.00     0.072 C 
HETATM    2  C5  UNL     1       0.472  -6.849 -27.385  1.00  0.00     0.030 C 
HETATM    3  C6  UNL     1      -0.710  -6.930 -28.297  1.00  0.00     0.003 C 
HETATM    4  C9  UNL     1      -0.197  -6.842 -29.691  1.00  0.00     0.006 C 
HETATM    5  C10 UNL     1       1.259  -6.468 -29.654  1.00  0.00     0.006 C 
HETATM    6  C11 UNL     1       1.713  -6.814 -28.248  1.00  0.00     0.002 C 
HETATM    7  C12 UNL     1       2.204  -8.187 -28.238  1.00  0.00     0.031 C 
HETATM    8  C13 UNL     1       3.648  -8.422 -28.277  1.00  0.00    -0.055 C 
HETATM    9  C15 UNL     1       3.989  -9.695 -27.966  1.00  0.00    -0.018 C 
HETATM   10  C16 UNL     1       2.993 -10.726 -27.626  1.00  0.00     0.066 C 
HETATM   11  C17 UNL     1       1.686 -10.205 -27.085  1.00  0.00     0.077 C 
HETATM   12  C21 UNL     1       1.797  -8.748 -26.870  1.00  0.00     0.064 C 
ENDROOT
BRANCH  11  13
HETATM   13  O5  UNL     1       0.708 -10.489 -28.069  1.00  0.00    -0.389 OA
ATOM     14  H5  UNL     1       0.341  -9.652 -28.329  1.00  0.00     0.210 HD
ENDBRANCH  11  13
BRANCH  11  15
HETATM   15  C18 UNL     1       1.348 -10.995 -25.846  1.00  0.00     0.149 C 
BRANCH  15  16
HETATM   16  C19 UNL     1       0.204 -11.916 -26.074  1.00  0.00     0.261 C 
HETATM   17  O6  UNL     1      -0.951 -11.420 -26.145  1.00  0.00    -0.265 OA
BRANCH  16  18
HETATM   18  O7  UNL     1       0.317 -13.278 -26.212  1.00  0.00    -0.326 OA
HETATM   19  C20 UNL     1       1.600 -13.905 -26.281  1.00  0.00     0.213 C 
ENDBRANCH  16  18
ENDBRANCH  15  16
ENDBRANCH  11  15
BRANCH   1  20
HETATM   20  C3  UNL     1       0.807  -7.551 -25.003  1.00  0.00     0.065 C 
BRANCH  20  21
HETATM   21  C2  UNL     1      -0.315  -7.852 -24.110  1.00  0.00    -0.034 C 
HETATM   22  C1  UNL     1      -1.447  -7.178 -24.180  1.00  0.00     0.007 C 
ENDBRANCH  20  21
ENDBRANCH   1  20
BRANCH   1  23
HETATM   23  O1  UNL     1      -0.596  -8.709 -26.473  1.00  0.00    -0.389 OA
ATOM     24  H1  UNL     1      -0.959  -8.668 -25.596  1.00  0.00     0.210 HD
ENDBRANCH   1  23
BRANCH   8  25
HETATM   25  C14 UNL     1       4.724  -7.487 -28.583  1.00  0.00     0.198 C 
BRANCH  25  26
HETATM   26  O4  UNL     1       5.289  -7.766 -29.819  1.00  0.00    -0.397 OA
ATOM     27  H4  UNL     1       5.685  -6.989 -30.195  1.00  0.00     0.209 HD
ENDBRANCH  25  26
ENDBRANCH   8  25
BRANCH   3  28
HETATM   28  C7  UNL     1      -1.736  -5.871 -27.970  1.00  0.00     0.118 C 
BRANCH  28  29
HETATM   29  C8  UNL     1      -1.137  -4.625 -27.483  1.00  0.00     0.172 C 
HETATM   30  O2  UNL     1      -1.144  -4.295 -26.272  1.00  0.00    -0.648 OA
HETATM   31  O3  UNL     1      -0.531  -3.759 -28.379  1.00  0.00    -0.648 OA
ENDBRANCH  28  29
ENDBRANCH   3  28
TORSDOF 11
ENDMDL
MODEL 4
REMARK VINA RESULT: -6.745418897      1.935      5.487
REMARK  11 active torsions:
REMARK  status: ('A' for Active; 'I' for Inactive)
REMARK    1  A    between atoms: C2_2  and  C3_3 
REMARK    2  A    between atoms: C3_3  and  C4_4 
REMARK    3  A    between atoms: C4_4  and  O1_5 
REMARK    4  A    between atoms: C6_8  and  C7_9 
REMARK    5  A    between atoms: C7_9  and  C8_10 
REMARK    6  A    between atoms: C13_17  and  C14_18 
REMARK    7  A    between atoms: C14_18  and  O4_19 
REMARK    8  A    between atoms: C17_23  and  O5_24 
REMARK    9  A    between atoms: C17_23  and  C18_26 
REMARK   10  A    between atoms: C18_26  and  C19_27 
REMARK   11  A    between atoms: C19_27  and  O7_29 
ROOT
HETATM    1  C4  UNL     1      -0.457  -7.839 -26.241  1.00  0.00     0.072 C 
HETATM    2  C5  UNL     1      -0.860  -6.462 -26.678  1.00  0.00     0.030 C 
HETATM    3  C6  UNL     1      -2.227  -6.395 -27.282  1.00  0.00     0.003 C 
HETATM    4  C9  UNL     1      -2.081  -5.806 -28.639  1.00  0.00     0.006 C 
HETATM    5  C10 UNL     1      -0.679  -5.284 -28.798  1.00  0.00     0.006 C 
HETATM    6  C11 UNL     1       0.124  -5.999 -27.728  1.00  0.00     0.002 C 
HETATM    7  C12 UNL     1       0.663  -7.232 -28.292  1.00  0.00     0.031 C 
HETATM    8  C13 UNL     1       2.061  -7.261 -28.723  1.00  0.00    -0.055 C 
HETATM    9  C15 UNL     1       2.525  -8.513 -28.944  1.00  0.00    -0.018 C 
HETATM   10  C16 UNL     1       1.691  -9.715 -28.764  1.00  0.00     0.066 C 
HETATM   11  C17 UNL     1       0.537  -9.560 -27.806  1.00  0.00     0.077 C 
HETATM   12  C21 UNL     1       0.633  -8.245 -27.140  1.00  0.00     0.064 C 
ENDROOT
BRANCH  11  13
HETATM   13  O5  UNL     1      -0.641  -9.636 -28.589  1.00  0.00    -0.389 OA
ATOM     14  H5  UNL     1      -1.351  -9.817 -27.984  1.00  0.00     0.210 HD
ENDBRANCH  11  13
BRANCH  11  15
HETATM   15  C18 UNL     1       0.553 -10.739 -26.866  1.00  0.00     0.149 C 
BRANCH  15  16
HETATM   16  C19 UNL     1       1.922 -11.034 -26.372  1.00  0.00     0.261 C 
HETATM   17  O6  UNL     1       2.390 -10.309 -25.455  1.00  0.00    -0.265 OA
BRANCH  16  18
HETATM   18  O7  UNL     1       2.720 -12.046 -26.848  1.00  0.00    -0.326 OA
HETATM   19  C20 UNL     1       2.263 -13.400 -26.853  1.00  0.00     0.213 C 
ENDBRANCH  16  18
ENDBRANCH  15  16
ENDBRANCH  11  15
BRANCH   1  20
HETATM   20  C3  UNL     1       0.086  -7.837 -24.809  1.00  0.00     0.065 C 
BRANCH  20  21
HETATM   21  C2  UNL     1      -0.746  -8.576 -23.856  1.00  0.00    -0.034 C 
HETATM   22  C1  UNL     1      -0.385  -9.764 -23.409  1.00  0.00     0.007 C 
ENDBRANCH  20  21
ENDBRANCH   1  20
BRANCH   1  23
HETATM   23  O1  UNL     1      -1.585  -8.633 -26.240  1.00  0.00    -0.389 OA
ATOM     24  H1  UNL     1      -2.334  -8.048 -26.268  1.00  0.00     0.210 HD
ENDBRANCH   1  23
BRANCH   8  25
HETATM   25  C14 UNL     1       2.985  -6.151 -28.922  1.00  0.00     0.198 C 
BRANCH  25  26
HETATM   26  O4  UNL     1       2.695  -5.466 -30.093  1.00  0.00    -0.397 OA
ATOM     27  H4  UNL     1       3.424  -5.508 -30.701  1.00  0.00     0.209 HD
ENDBRANCH  25  26
ENDBRANCH   8  25
BRANCH   3  28
HETATM   28  C7  UNL     1      -3.186  -5.632 -26.399  1.00  0.00     0.118 C 
BRANCH  28  29
HETATM   29  C8  UNL     1      -2.667  -4.324 -25.986  1.00  0.00     0.172 C 
HETATM   30  O2  UNL     1      -1.922  -3.627 -26.715  1.00  0.00    -0.648 OA
HETATM   31  O3  UNL     1      -3.002  -3.817 -24.740  1.00  0.00    -0.648 OA
ENDBRANCH  28  29
ENDBRANCH   3  28
TORSDOF 11
ENDMDL
MODEL 5
REMARK VINA RESULT: -6.731872866      1.834      5.317
REMARK  11 active torsions:
REMARK  status: ('A' for Active; 'I' for Inactive)
REMARK    1  A    between atoms: C2_2  and  C3_3 
REMARK    2  A    between atoms: C3_3  and  C4_4 
REMARK    3  A    between atoms: C4_4  and  O1_5 
REMARK    4  A    between atoms: C6_8  and  C7_9 
REMARK    5  A    between atoms: C7_9  and  C8_10 
REMARK    6  A    between atoms: C13_17  and  C14_18 
REMARK    7  A    between atoms: C14_18  and  O4_19 
REMARK    8  A    between atoms: C17_23  and  O5_24 
REMARK    9  A    between atoms: C17_23  and  C18_26 
REMARK   10  A    between atoms: C18_26  and  C19_27 
REMARK   11  A    between atoms: C19_27  and  O7_29 
ROOT
HETATM    1  C4  UNL     1       0.530  -7.814 -26.485  1.00  0.00     0.072 C 
HETATM    2  C5  UNL     1       0.475  -6.652 -27.432  1.00  0.00     0.030 C 
HETATM    3  C6  UNL     1      -0.700  -6.680 -28.355  1.00  0.00     0.003 C 
HETATM    4  C9  UNL     1      -0.171  -6.628 -29.744  1.00  0.00     0.006 C 
HETATM    5  C10 UNL     1       1.302  -6.327 -29.696  1.00  0.00     0.006 C 
HETATM    6  C11 UNL     1       1.724  -6.685 -28.283  1.00  0.00     0.002 C 
HETATM    7  C12 UNL     1       2.145  -8.082 -28.259  1.00  0.00     0.031 C 
HETATM    8  C13 UNL     1       3.576  -8.389 -28.281  1.00  0.00    -0.055 C 
HETATM    9  C15 UNL     1       3.850  -9.675 -27.958  1.00  0.00    -0.018 C 
HETATM   10  C16 UNL     1       2.800 -10.652 -27.621  1.00  0.00     0.066 C 
HETATM   11  C17 UNL     1       1.515 -10.062 -27.097  1.00  0.00     0.077 C 
HETATM   12  C21 UNL     1       1.697  -8.611 -26.891  1.00  0.00     0.064 C 
ENDROOT
BRANCH  11  13
HETATM   13  O5  UNL     1       0.533 -10.304 -28.089  1.00  0.00    -0.389 OA
ATOM     14  H5  UNL     1       0.105  -9.471 -28.247  1.00  0.00     0.210 HD
ENDBRANCH  11  13
BRANCH  11  15
HETATM   15  C18 UNL     1       1.126 -10.825 -25.856  1.00  0.00     0.149 C 
BRANCH  15  16
HETATM   16  C19 UNL     1       0.019 -11.780 -26.120  1.00  0.00     0.261 C 
HETATM   17  O6  UNL     1      -1.145 -11.318 -26.246  1.00  0.00    -0.265 OA
BRANCH  16  18
HETATM   18  O7  UNL     1       0.176 -13.141 -26.235  1.00  0.00    -0.326 OA
HETATM   19  C20 UNL     1       1.398 -13.774 -25.850  1.00  0.00     0.213 C 
ENDBRANCH  16  18
ENDBRANCH  15  16
ENDBRANCH  11  15
BRANCH   1  20
HETATM   20  C3  UNL     1       0.752  -7.352 -25.042  1.00  0.00     0.065 C 
BRANCH  20  21
HETATM   21  C2  UNL     1      -0.199  -7.920 -24.082  1.00  0.00    -0.034 C 
HETATM   22  C1  UNL     1      -1.372  -7.357 -23.865  1.00  0.00     0.007 C 
ENDBRANCH  20  21
ENDBRANCH   1  20
BRANCH   1  23
HETATM   23  O1  UNL     1      -0.694  -8.448 -26.518  1.00  0.00    -0.389 OA
ATOM     24  H1  UNL     1      -0.664  -9.067 -27.238  1.00  0.00     0.210 HD
ENDBRANCH   1  23
BRANCH   8  25
HETATM   25  C14 UNL     1       4.701  -7.512 -28.583  1.00  0.00     0.198 C 
BRANCH  25  26
HETATM   26  O4  UNL     1       5.263  -7.827 -29.812  1.00  0.00    -0.397 OA
ATOM     27  H4  UNL     1       6.026  -7.289 -29.985  1.00  0.00     0.209 HD
ENDBRANCH  25  26
ENDBRANCH   8  25
BRANCH   3  28
HETATM   28  C7  UNL     1      -1.675  -5.568 -28.046  1.00  0.00     0.118 C 
BRANCH  28  29
HETATM   29  C8  UNL     1      -2.598  -5.903 -26.957  1.00  0.00     0.172 C 
HETATM   30  O2  UNL     1      -3.119  -7.037 -26.831  1.00  0.00    -0.648 OA
HETATM   31  O3  UNL     1      -2.922  -4.940 -26.013  1.00  0.00    -0.648 OA
ENDBRANCH  28  29
ENDBRANCH   3  28
TORSDOF 11
ENDMDL
