MODEL 1
REMARK VINA RESULT: -8.374710496      0.000      0.000
REMARK  16 active torsions:
REMARK  status: ('A' for Active; 'I' for Inactive)
REMARK    1  A    between atoms: C2_2  and  C4_4 
REMARK    2  A    between atoms: C11_11  and  O1_12 
REMARK    3  A    between atoms: C11_11  and  C12_14 
REMARK    4  A    between atoms: C12_14  and  C13_15 
REMARK    5  A    between atoms: C13_15  and  C14_16 
REMARK    6  A    between atoms: C14_16  and  C15_17 
REMARK    7  A    between atoms: C15_17  and  C16_18 
REMARK    8  A    between atoms: C16_18  and  C17_19 
REMARK    9  A    between atoms: C17_19  and  C18_20 
REMARK   10  A    between atoms: C18_20  and  C19_21 
REMARK   11  A    between atoms: C19_21  and  O2_22 
REMARK   12  A    between atoms: C19_21  and  C20_24 
REMARK   13  A    between atoms: C21_26  and  C22_27 
REMARK   14  A    between atoms: C22_27  and  O4_28 
REMARK   15  A    between atoms: C23_30  and  O5_31 
REMARK   16  A    between atoms: C24_33  and  O6_34 
ROOT
HETATM    1  C15 UNL     1      13.254  39.552  -9.415  1.00  0.00     0.000 C 
ENDROOT
BRANCH   1   2
HETATM    2  C14 UNL     1      13.036  38.050  -9.137  1.00  0.00     0.000 C 
BRANCH   2   3
HETATM    3  C13 UNL     1      13.137  37.339 -10.481  1.00  0.00     0.003 C 
BRANCH   3   4
HETATM    4  C12 UNL     1      14.564  36.906 -10.639  1.00  0.00     0.038 C 
BRANCH   4   5
HETATM    5  C11 UNL     1      14.890  36.483 -12.042  1.00  0.00     0.062 C 
HETATM    6  C10 UNL     1      16.221  36.983 -12.453  1.00  0.00     0.042 C 
HETATM    7  C9  UNL     1      16.294  38.490 -12.564  1.00  0.00     0.036 C 
HETATM    8  C7  UNL     1      14.980  39.061 -12.993  1.00  0.00    -0.085 C 
HETATM    9  C6  UNL     1      14.036  38.177 -13.684  1.00  0.00     0.021 C 
HETATM   10  C8  UNL     1      14.718  40.342 -12.734  1.00  0.00     0.014 C 
HETATM   11  C5  UNL     1      14.446  37.835 -15.087  1.00  0.00     0.018 C 
HETATM   12  C25 UNL     1      13.783  36.877 -12.994  1.00  0.00     0.029 C 
HETATM   13  C4  UNL     1      13.608  36.605 -15.368  1.00  0.00     0.014 C 
HETATM   14  C26 UNL     1      13.549  35.837 -14.068  1.00  0.00     0.017 C 
BRANCH  13  15
HETATM   15  C2  UNL     1      14.108  35.816 -16.500  1.00  0.00    -0.089 C 
HETATM   16  C1  UNL     1      13.330  35.635 -17.554  1.00  0.00     0.014 C 
HETATM   17  C3  UNL     1      15.463  35.196 -16.535  1.00  0.00     0.043 C 
ENDBRANCH  13  15
BRANCH   5  18
HETATM   18  O1  UNL     1      14.941  35.080 -12.041  1.00  0.00    -0.389 OA
ATOM     19  H1  UNL     1      15.677  34.815 -12.582  1.00  0.00     0.210 HD
ENDBRANCH   5  18
ENDBRANCH   4   5
ENDBRANCH   3   4
ENDBRANCH   2   3
ENDBRANCH   1   2
BRANCH   1  20
HETATM   20  C16 UNL     1      12.229  40.305  -8.656  1.00  0.00     0.000 C 
BRANCH  20  21
HETATM   21  C17 UNL     1      12.352  40.297  -7.194  1.00  0.00     0.002 C 
BRANCH  21  22
HETATM   22  C18 UNL     1      11.304  39.683  -6.397  1.00  0.00     0.034 C 
BRANCH  22  23
HETATM   23  C19 UNL     1      11.483  38.549  -5.477  1.00  0.00     0.149 C 
BRANCH  23  24
HETATM   24  O2  UNL     1      11.593  37.295  -6.068  1.00  0.00    -0.393 OA
ATOM     25  H2  UNL     1      11.156  36.581  -5.618  1.00  0.00     0.210 HD
ENDBRANCH  23  24
BRANCH  23  26
HETATM   26  C20 UNL     1      10.176  38.531  -4.617  1.00  0.00     0.182 C 
HETATM   27  O3  UNL     1       9.550  39.749  -4.705  1.00  0.00    -0.371 OA
HETATM   28  C21 UNL     1       8.603  39.706  -3.708  1.00  0.00     0.177 C 
HETATM   29  C23 UNL     1       9.189  38.976  -2.543  1.00  0.00     0.180 C 
HETATM   30  C24 UNL     1      10.487  38.410  -3.151  1.00  0.00     0.180 C 
BRANCH  28  31
HETATM   31  C22 UNL     1       8.190  41.089  -3.243  1.00  0.00     0.198 C 
BRANCH  31  32
HETATM   32  O4  UNL     1       9.031  42.037  -3.774  1.00  0.00    -0.398 OA
ATOM     33  H4  UNL     1       8.527  42.753  -4.142  1.00  0.00     0.209 HD
ENDBRANCH  31  32
ENDBRANCH  28  31
BRANCH  29  34
HETATM   34  O5  UNL     1       9.441  39.770  -1.451  1.00  0.00    -0.390 OA
ATOM     35  H5  UNL     1      10.282  40.210  -1.475  1.00  0.00     0.210 HD
ENDBRANCH  29  34
BRANCH  30  36
HETATM   36  O6  UNL     1      11.483  39.268  -2.762  1.00  0.00    -0.390 OA
ATOM     37  H6  UNL     1      11.836  39.042  -1.909  1.00  0.00     0.210 HD
ENDBRANCH  30  36
ENDBRANCH  23  26
ENDBRANCH  22  23
ENDBRANCH  21  22
ENDBRANCH  20  21
ENDBRANCH   1  20
TORSDOF 16
ENDMDL
MODEL 2
REMARK VINA RESULT: -8.266318952      1.974      2.977
REMARK  16 active torsions:
REMARK  status: ('A' for Active; 'I' for Inactive)
REMARK    1  A    between atoms: C2_2  and  C4_4 
REMARK    2  A    between atoms: C11_11  and  O1_12 
REMARK    3  A    between atoms: C11_11  and  C12_14 
REMARK    4  A    between atoms: C12_14  and  C13_15 
REMARK    5  A    between atoms: C13_15  and  C14_16 
REMARK    6  A    between atoms: C14_16  and  C15_17 
REMARK    7  A    between atoms: C15_17  and  C16_18 
REMARK    8  A    between atoms: C16_18  and  C17_19 
REMARK    9  A    between atoms: C17_19  and  C18_20 
REMARK   10  A    between atoms: C18_20  and  C19_21 
REMARK   11  A    between atoms: C19_21  and  O2_22 
REMARK   12  A    between atoms: C19_21  and  C20_24 
REMARK   13  A    between atoms: C21_26  and  C22_27 
REMARK   14  A    between atoms: C22_27  and  O4_28 
REMARK   15  A    between atoms: C23_30  and  O5_31 
REMARK   16  A    between atoms: C24_33  and  O6_34 
ROOT
HETATM    1  C15 UNL     1      13.172  41.926  -7.255  1.00  0.00     0.000 C 
ENDROOT
BRANCH   1   2
HETATM    2  C14 UNL     1      14.216  42.633  -8.145  1.00  0.00     0.000 C 
BRANCH   2   3
HETATM    3  C13 UNL     1      13.939  42.191  -9.577  1.00  0.00     0.003 C 
BRANCH   3   4
HETATM    4  C12 UNL     1      15.266  41.888 -10.204  1.00  0.00     0.038 C 
BRANCH   4   5
HETATM    5  C11 UNL     1      15.394  40.453 -10.630  1.00  0.00     0.062 C 
HETATM    6  C10 UNL     1      16.485  40.285 -11.615  1.00  0.00     0.042 C 
HETATM    7  C9  UNL     1      16.219  40.973 -12.935  1.00  0.00     0.036 C 
HETATM    8  C7  UNL     1      14.757  40.984 -13.251  1.00  0.00    -0.085 C 
HETATM    9  C6  UNL     1      13.902  39.991 -12.593  1.00  0.00     0.021 C 
HETATM   10  C8  UNL     1      14.290  41.889 -14.112  1.00  0.00     0.014 C 
HETATM   11  C5  UNL     1      14.092  38.595 -13.109  1.00  0.00     0.018 C 
HETATM   12  C25 UNL     1      14.065  39.915 -11.111  1.00  0.00     0.029 C 
HETATM   13  C4  UNL     1      13.491  37.764 -11.995  1.00  0.00     0.014 C 
HETATM   14  C26 UNL     1      13.848  38.472 -10.709  1.00  0.00     0.017 C 
BRANCH  13  15
HETATM   15  C2  UNL     1      13.913  36.359 -12.034  1.00  0.00    -0.089 C 
HETATM   16  C1  UNL     1      13.236  35.502 -12.779  1.00  0.00     0.014 C 
HETATM   17  C3  UNL     1      15.080  35.830 -11.272  1.00  0.00     0.043 C 
ENDBRANCH  13  15
BRANCH   5  18
HETATM   18  O1  UNL     1      15.735  39.719  -9.482  1.00  0.00    -0.389 OA
ATOM     19  H1  UNL     1      16.381  40.220  -8.998  1.00  0.00     0.210 HD
ENDBRANCH   5  18
ENDBRANCH   4   5
ENDBRANCH   3   4
ENDBRANCH   2   3
ENDBRANCH   1   2
BRANCH   1  20
HETATM   20  C16 UNL     1      12.398  41.003  -8.115  1.00  0.00     0.000 C 
BRANCH  20  21
HETATM   21  C17 UNL     1      12.215  39.634  -7.618  1.00  0.00     0.002 C 
BRANCH  21  22
HETATM   22  C18 UNL     1      11.290  39.394  -6.524  1.00  0.00     0.034 C 
BRANCH  22  23
HETATM   23  C19 UNL     1      11.515  38.470  -5.401  1.00  0.00     0.149 C 
BRANCH  23  24
HETATM   24  O2  UNL     1      11.690  37.132  -5.736  1.00  0.00    -0.393 OA
ATOM     25  H2  UNL     1      11.003  36.539  -5.457  1.00  0.00     0.210 HD
ENDBRANCH  23  24
BRANCH  23  26
HETATM   26  C20 UNL     1      10.204  38.558  -4.553  1.00  0.00     0.182 C 
HETATM   27  O3  UNL     1       9.656  39.810  -4.677  1.00  0.00    -0.371 OA
HETATM   28  C21 UNL     1       8.701  39.852  -3.689  1.00  0.00     0.177 C 
HETATM   29  C23 UNL     1       9.232  39.119  -2.500  1.00  0.00     0.180 C 
HETATM   30  C24 UNL     1      10.495  38.456  -3.081  1.00  0.00     0.180 C 
BRANCH  28  31
HETATM   31  C22 UNL     1       8.372  41.271  -3.264  1.00  0.00     0.198 C 
BRANCH  31  32
HETATM   32  O4  UNL     1       9.004  42.170  -4.089  1.00  0.00    -0.398 OA
ATOM     33  H4  UNL     1       8.655  43.042  -3.951  1.00  0.00     0.209 HD
ENDBRANCH  31  32
ENDBRANCH  28  31
BRANCH  29  34
HETATM   34  O5  UNL     1       9.525  39.924  -1.427  1.00  0.00    -0.390 OA
ATOM     35  H5  UNL     1       9.221  39.586  -0.593  1.00  0.00     0.210 HD
ENDBRANCH  29  34
BRANCH  30  36
HETATM   36  O6  UNL     1      11.541  39.260  -2.705  1.00  0.00    -0.390 OA
ATOM     37  H6  UNL     1      11.269  39.941  -2.102  1.00  0.00     0.210 HD
ENDBRANCH  30  36
ENDBRANCH  23  26
ENDBRANCH  22  23
ENDBRANCH  21  22
ENDBRANCH  20  21
ENDBRANCH   1  20
TORSDOF 16
ENDMDL
MODEL 3
REMARK VINA RESULT: -7.902234893      1.472      2.347
REMARK  16 active torsions:
REMARK  status: ('A' for Active; 'I' for Inactive)
REMARK    1  A    between atoms: C2_2  and  C4_4 
REMARK    2  A    between atoms: C11_11  and  O1_12 
REMARK    3  A    between atoms: C11_11  and  C12_14 
REMARK    4  A    between atoms: C12_14  and  C13_15 
REMARK    5  A    between atoms: C13_15  and  C14_16 
REMARK    6  A    between atoms: C14_16  and  C15_17 
REMARK    7  A    between atoms: C15_17  and  C16_18 
REMARK    8  A    between atoms: C16_18  and  C17_19 
REMARK    9  A    between atoms: C17_19  and  C18_20 
REMARK   10  A    between atoms: C18_20  and  C19_21 
REMARK   11  A    between atoms: C19_21  and  O2_22 
REMARK   12  A    between atoms: C19_21  and  C20_24 
REMARK   13  A    between atoms: C21_26  and  C22_27 
REMARK   14  A    between atoms: C22_27  and  O4_28 
REMARK   15  A    between atoms: C23_30  and  O5_31 
REMARK   16  A    between atoms: C24_33  and  O6_34 
ROOT
HETATM    1  C15 UNL     1      12.824  38.352  -8.838  1.00  0.00     0.000 C 
ENDROOT
BRANCH   1   2
HETATM    2  C14 UNL     1      14.297  38.085  -9.213  1.00  0.00     0.000 C 
BRANCH   2   3
HETATM    3  C13 UNL     1      14.336  36.714  -9.878  1.00  0.00     0.003 C 
BRANCH   3   4
HETATM    4  C12 UNL     1      13.523  36.815 -11.133  1.00  0.00     0.038 C 
BRANCH   4   5
HETATM    5  C11 UNL     1      14.221  36.230 -12.327  1.00  0.00     0.062 C 
HETATM    6  C10 UNL     1      15.639  36.652 -12.374  1.00  0.00     0.042 C 
HETATM    7  C9  UNL     1      15.822  38.134 -12.609  1.00  0.00     0.036 C 
HETATM    8  C7  UNL     1      14.722  38.682 -13.463  1.00  0.00    -0.085 C 
HETATM    9  C6  UNL     1      13.975  37.747 -14.309  1.00  0.00     0.021 C 
HETATM   10  C8  UNL     1      14.466  39.990 -13.423  1.00  0.00     0.014 C 
HETATM   11  C5  UNL     1      14.757  37.241 -15.486  1.00  0.00     0.018 C 
HETATM   12  C25 UNL     1      13.462  36.539 -13.598  1.00  0.00     0.029 C 
HETATM   13  C4  UNL     1      13.973  36.006 -15.877  1.00  0.00     0.014 C 
HETATM   14  C26 UNL     1      13.496  35.390 -14.582  1.00  0.00     0.017 C 
BRANCH  13  15
HETATM   15  C2  UNL     1      14.737  35.085 -16.725  1.00  0.00    -0.089 C 
HETATM   16  C1  UNL     1      16.058  35.165 -16.739  1.00  0.00     0.014 C 
HETATM   17  C3  UNL     1      14.106  34.045 -17.587  1.00  0.00     0.043 C 
ENDBRANCH  13  15
BRANCH   5  18
HETATM   18  O1  UNL     1      14.194  34.835 -12.169  1.00  0.00    -0.389 OA
ATOM     19  H1  UNL     1      13.356  34.602 -11.785  1.00  0.00     0.210 HD
ENDBRANCH   5  18
ENDBRANCH   4   5
ENDBRANCH   3   4
ENDBRANCH   2   3
ENDBRANCH   1   2
BRANCH   1  20
HETATM   20  C16 UNL     1      12.772  38.630  -7.385  1.00  0.00     0.000 C 
BRANCH  20  21
HETATM   21  C17 UNL     1      11.452  38.926  -6.816  1.00  0.00     0.002 C 
BRANCH  21  22
HETATM   22  C18 UNL     1      11.055  38.286  -5.574  1.00  0.00     0.034 C 
BRANCH  22  23
HETATM   23  C19 UNL     1      10.040  38.794  -4.638  1.00  0.00     0.149 C 
BRANCH  23  24
HETATM   24  O2  UNL     1       9.909  40.177  -4.569  1.00  0.00    -0.393 OA
ATOM     25  H2  UNL     1       9.493  40.594  -5.315  1.00  0.00     0.210 HD
ENDBRANCH  23  24
BRANCH  23  26
HETATM   26  C20 UNL     1      10.529  38.315  -3.231  1.00  0.00     0.182 C 
HETATM   27  O3  UNL     1       9.989  37.086  -2.948  1.00  0.00    -0.371 OA
HETATM   28  C21 UNL     1      10.251  36.910  -1.609  1.00  0.00     0.177 C 
HETATM   29  C23 UNL     1      10.106  38.235  -0.932  1.00  0.00     0.180 C 
HETATM   30  C24 UNL     1       9.987  39.189  -2.135  1.00  0.00     0.180 C 
BRANCH  28  31
HETATM   31  C22 UNL     1       9.290  35.935  -0.956  1.00  0.00     0.198 C 
BRANCH  31  32
HETATM   32  O4  UNL     1       8.186  35.754  -1.754  1.00  0.00    -0.398 OA
ATOM     33  H4  UNL     1       7.880  34.856  -1.689  1.00  0.00     0.209 HD
ENDBRANCH  31  32
ENDBRANCH  28  31
BRANCH  29  34
HETATM   34  O5  UNL     1       9.019  38.325  -0.098  1.00  0.00    -0.390 OA
ATOM     35  H5  UNL     1       8.407  37.603  -0.177  1.00  0.00     0.210 HD
ENDBRANCH  29  34
BRANCH  30  36
HETATM   36  O6  UNL     1       8.645  39.431  -2.284  1.00  0.00    -0.390 OA
ATOM     37  H6  UNL     1       8.474  40.300  -2.628  1.00  0.00     0.210 HD
ENDBRANCH  30  36
ENDBRANCH  23  26
ENDBRANCH  22  23
ENDBRANCH  21  22
ENDBRANCH  20  21
ENDBRANCH   1  20
TORSDOF 16
ENDMDL
MODEL 4
REMARK VINA RESULT: -7.798309882      3.216      6.111
REMARK  16 active torsions:
REMARK  status: ('A' for Active; 'I' for Inactive)
REMARK    1  A    between atoms: C2_2  and  C4_4 
REMARK    2  A    between atoms: C11_11  and  O1_12 
REMARK    3  A    between atoms: C11_11  and  C12_14 
REMARK    4  A    between atoms: C12_14  and  C13_15 
REMARK    5  A    between atoms: C13_15  and  C14_16 
REMARK    6  A    between atoms: C14_16  and  C15_17 
REMARK    7  A    between atoms: C15_17  and  C16_18 
REMARK    8  A    between atoms: C16_18  and  C17_19 
REMARK    9  A    between atoms: C17_19  and  C18_20 
REMARK   10  A    between atoms: C18_20  and  C19_21 
REMARK   11  A    between atoms: C19_21  and  O2_22 
REMARK   12  A    between atoms: C19_21  and  C20_24 
REMARK   13  A    between atoms: C21_26  and  C22_27 
REMARK   14  A    between atoms: C22_27  and  O4_28 
REMARK   15  A    between atoms: C23_30  and  O5_31 
REMARK   16  A    between atoms: C24_33  and  O6_34 
ROOT
HETATM    1  C15 UNL     1      13.257  36.865 -11.184  1.00  0.00     0.000 C 
ENDROOT
BRANCH   1   2
HETATM    2  C14 UNL     1      13.999  36.948 -12.534  1.00  0.00     0.000 C 
BRANCH   2   3
HETATM    3  C13 UNL     1      13.957  38.409 -12.966  1.00  0.00     0.003 C 
BRANCH   3   4
HETATM    4  C12 UNL     1      15.236  39.037 -12.502  1.00  0.00     0.038 C 
BRANCH   4   5
HETATM    5  C11 UNL     1      15.031  40.400 -11.905  1.00  0.00     0.062 C 
HETATM    6  C10 UNL     1      15.210  41.460 -12.922  1.00  0.00     0.042 C 
HETATM    7  C9  UNL     1      16.625  41.565 -13.443  1.00  0.00     0.036 C 
HETATM    8  C7  UNL     1      17.617  41.200 -12.384  1.00  0.00    -0.085 C 
HETATM    9  C6  UNL     1      17.191  41.281 -10.984  1.00  0.00     0.021 C 
HETATM   10  C8  UNL     1      18.840  40.817 -12.751  1.00  0.00     0.014 C 
HETATM   11  C5  UNL     1      17.039  42.687 -10.480  1.00  0.00     0.018 C 
HETATM   12  C25 UNL     1      15.903  40.588 -10.683  1.00  0.00     0.029 C 
HETATM   13  C4  UNL     1      16.176  42.488  -9.251  1.00  0.00     0.014 C 
HETATM   14  C26 UNL     1      15.210  41.380  -9.597  1.00  0.00     0.017 C 
BRANCH  13  15
HETATM   15  C2  UNL     1      15.525  43.723  -8.801  1.00  0.00    -0.089 C 
HETATM   16  C1  UNL     1      15.208  43.858  -7.524  1.00  0.00     0.014 C 
HETATM   17  C3  UNL     1      15.193  44.857  -9.711  1.00  0.00     0.043 C 
ENDBRANCH  13  15
BRANCH   5  18
HETATM   18  O1  UNL     1      13.699  40.451 -11.461  1.00  0.00    -0.389 OA
ATOM     19  H1  UNL     1      13.472  39.592 -11.125  1.00  0.00     0.210 HD
ENDBRANCH   5  18
ENDBRANCH   4   5
ENDBRANCH   3   4
ENDBRANCH   2   3
ENDBRANCH   1   2
BRANCH   1  20
HETATM   20  C16 UNL     1      14.273  36.696 -10.121  1.00  0.00     0.000 C 
BRANCH  20  21
HETATM   21  C17 UNL     1      14.222  37.643  -9.001  1.00  0.00     0.002 C 
BRANCH  21  22
HETATM   22  C18 UNL     1      13.016  38.425  -8.788  1.00  0.00     0.034 C 
BRANCH  22  23
HETATM   23  C19 UNL     1      12.478  38.826  -7.479  1.00  0.00     0.149 C 
BRANCH  23  24
HETATM   24  O2  UNL     1      11.724  37.869  -6.809  1.00  0.00    -0.393 OA
ATOM     25  H2  UNL     1      11.989  36.965  -6.935  1.00  0.00     0.210 HD
ENDBRANCH  23  24
BRANCH  23  26
HETATM   26  C20 UNL     1      11.516  40.018  -7.799  1.00  0.00     0.182 C 
HETATM   27  O3  UNL     1      11.962  40.684  -8.913  1.00  0.00    -0.371 OA
HETATM   28  C21 UNL     1      11.223  41.844  -8.921  1.00  0.00     0.177 C 
HETATM   29  C23 UNL     1      11.048  42.291  -7.506  1.00  0.00     0.180 C 
HETATM   30  C24 UNL     1      11.570  41.070  -6.726  1.00  0.00     0.180 C 
BRANCH  28  31
HETATM   31  C22 UNL     1      11.909  42.959  -9.689  1.00  0.00     0.198 C 
BRANCH  31  32
HETATM   32  O4  UNL     1      11.995  42.632 -11.021  1.00  0.00    -0.398 OA
ATOM     33  H4  UNL     1      11.130  42.452 -11.370  1.00  0.00     0.209 HD
ENDBRANCH  31  32
ENDBRANCH  28  31
BRANCH  29  34
HETATM   34  O5  UNL     1      11.737  43.435  -7.186  1.00  0.00    -0.390 OA
ATOM     35  H5  UNL     1      12.609  43.280  -6.841  1.00  0.00     0.210 HD
ENDBRANCH  29  34
BRANCH  30  36
HETATM   36  O6  UNL     1      12.859  41.380  -6.372  1.00  0.00    -0.390 OA
ATOM     37  H6  UNL     1      13.218  42.078  -6.907  1.00  0.00     0.210 HD
ENDBRANCH  30  36
ENDBRANCH  23  26
ENDBRANCH  22  23
ENDBRANCH  21  22
ENDBRANCH  20  21
ENDBRANCH   1  20
TORSDOF 16
ENDMDL
MODEL 5
REMARK VINA RESULT: -7.720295787      3.381      9.670
REMARK  16 active torsions:
REMARK  status: ('A' for Active; 'I' for Inactive)
REMARK    1  A    between atoms: C2_2  and  C4_4 
REMARK    2  A    between atoms: C11_11  and  O1_12 
REMARK    3  A    between atoms: C11_11  and  C12_14 
REMARK    4  A    between atoms: C12_14  and  C13_15 
REMARK    5  A    between atoms: C13_15  and  C14_16 
REMARK    6  A    between atoms: C14_16  and  C15_17 
REMARK    7  A    between atoms: C15_17  and  C16_18 
REMARK    8  A    between atoms: C16_18  and  C17_19 
REMARK    9  A    between atoms: C17_19  and  C18_20 
REMARK   10  A    between atoms: C18_20  and  C19_21 
REMARK   11  A    between atoms: C19_21  and  O2_22 
REMARK   12  A    between atoms: C19_21  and  C20_24 
REMARK   13  A    between atoms: C21_26  and  C22_27 
REMARK   14  A    between atoms: C22_27  and  O4_28 
REMARK   15  A    between atoms: C23_30  and  O5_31 
REMARK   16  A    between atoms: C24_33  and  O6_34 
ROOT
HETATM    1  C15 UNL     1      13.160  38.109  -7.629  1.00  0.00     0.000 C 
ENDROOT
BRANCH   1   2
HETATM    2  C14 UNL     1      11.935  38.979  -7.983  1.00  0.00     0.000 C 
BRANCH   2   3
HETATM    3  C13 UNL     1      12.164  40.339  -7.334  1.00  0.00     0.003 C 
BRANCH   3   4
HETATM    4  C12 UNL     1      11.612  41.368  -8.274  1.00  0.00     0.038 C 
BRANCH   4   5
HETATM    5  C11 UNL     1      12.517  42.557  -8.431  1.00  0.00     0.062 C 
HETATM    6  C10 UNL     1      12.256  43.259  -9.707  1.00  0.00     0.042 C 
HETATM    7  C9  UNL     1      12.609  42.444 -10.930  1.00  0.00     0.036 C 
HETATM    8  C7  UNL     1      13.769  41.539 -10.656  1.00  0.00    -0.085 C 
HETATM    9  C6  UNL     1      14.660  41.878  -9.544  1.00  0.00     0.021 C 
HETATM   10  C8  UNL     1      13.946  40.467 -11.430  1.00  0.00     0.014 C 
HETATM   11  C5  UNL     1      15.537  43.066  -9.813  1.00  0.00     0.018 C 
HETATM   12  C25 UNL     1      13.965  42.157  -8.252  1.00  0.00     0.029 C 
HETATM   13  C4  UNL     1      15.966  43.464  -8.417  1.00  0.00     0.014 C 
HETATM   14  C26 UNL     1      14.769  43.215  -7.528  1.00  0.00     0.017 C 
BRANCH  13  15
HETATM   15  C2  UNL     1      16.482  44.835  -8.343  1.00  0.00    -0.089 C 
HETATM   16  C1  UNL     1      17.789  45.030  -8.286  1.00  0.00     0.014 C 
HETATM   17  C3  UNL     1      15.609  46.043  -8.330  1.00  0.00     0.043 C 
ENDBRANCH  13  15
BRANCH   5  18
HETATM   18  O1  UNL     1      12.210  43.441  -7.384  1.00  0.00    -0.389 OA
ATOM     19  H1  UNL     1      12.514  43.047  -6.573  1.00  0.00     0.210 HD
ENDBRANCH   5  18
ENDBRANCH   4   5
ENDBRANCH   3   4
ENDBRANCH   2   3
ENDBRANCH   1   2
BRANCH   1  20
HETATM   20  C16 UNL     1      13.908  37.854  -8.881  1.00  0.00     0.000 C 
BRANCH  20  21
HETATM   21  C17 UNL     1      13.138  37.333 -10.017  1.00  0.00     0.002 C 
BRANCH  21  22
HETATM   22  C18 UNL     1      13.838  36.677 -11.108  1.00  0.00     0.034 C 
BRANCH  22  23
HETATM   23  C19 UNL     1      13.245  35.710 -12.044  1.00  0.00     0.149 C 
BRANCH  23  24
HETATM   24  O2  UNL     1      13.859  34.464 -12.105  1.00  0.00    -0.393 OA
ATOM     25  H2  UNL     1      13.286  33.724 -12.269  1.00  0.00     0.210 HD
ENDBRANCH  23  24
BRANCH  23  26
HETATM   26  C20 UNL     1      13.418  36.370 -13.452  1.00  0.00     0.182 C 
HETATM   27  O3  UNL     1      13.274  35.418 -14.429  1.00  0.00    -0.371 OA
HETATM   28  C21 UNL     1      13.722  36.045 -15.569  1.00  0.00     0.177 C 
HETATM   29  C23 UNL     1      14.881  36.912 -15.195  1.00  0.00     0.180 C 
HETATM   30  C24 UNL     1      14.824  36.863 -13.657  1.00  0.00     0.180 C 
BRANCH  28  31
HETATM   31  C22 UNL     1      14.187  35.059 -16.624  1.00  0.00     0.198 C 
BRANCH  31  32
HETATM   32  O4  UNL     1      13.414  33.924 -16.584  1.00  0.00    -0.398 OA
ATOM     33  H4  UNL     1      12.537  34.115 -16.896  1.00  0.00     0.209 HD
ENDBRANCH  31  32
ENDBRANCH  28  31
BRANCH  29  34
HETATM   34  O5  UNL     1      16.090  36.474 -15.676  1.00  0.00    -0.390 OA
ATOM     35  H5  UNL     1      16.821  36.629 -15.091  1.00  0.00     0.210 HD
ENDBRANCH  29  34
BRANCH  30  36
HETATM   36  O6  UNL     1      15.757  35.930 -13.281  1.00  0.00    -0.390 OA
ATOM     37  H6  UNL     1      16.622  36.135 -13.617  1.00  0.00     0.210 HD
ENDBRANCH  30  36
ENDBRANCH  23  26
ENDBRANCH  22  23
ENDBRANCH  21  22
ENDBRANCH  20  21
ENDBRANCH   1  20
TORSDOF 16
ENDMDL
