MODEL 1
REMARK VINA RESULT: -11.012858586      0.000      0.000
REMARK  10 active torsions:
REMARK  status: ('A' for Active; 'I' for Inactive)
REMARK    1  A    between atoms: N1_2  and  C3_4 
REMARK    2  A    between atoms: C3_4  and  C4_5 
REMARK    3  A    between atoms: C7_8  and  C8_9 
REMARK    4  A    between atoms: C8_9  and  C9_10 
REMARK    5  A    between atoms: C11_16  and  C12_17 
REMARK    6  A    between atoms: C12_17  and  C13_18 
REMARK    7  A    between atoms: C17_22  and  C18_23 
REMARK    8  A    between atoms: N4_26  and  C21_27 
REMARK    9  A    between atoms: C21_27  and  C22_28 
REMARK   10  A    between atoms: C25_31  and  C26_32 
ROOT
HETATM    1  C13 UNL     1      15.284  35.363  24.071  1.00  0.00     0.028 A 
HETATM    2  C14 UNL     1      14.630  36.357  23.500  1.00  0.00     0.003 A 
HETATM    3  C15 UNL     1      13.757  37.290  24.041  1.00  0.00     0.015 A 
HETATM    4  C16 UNL     1      13.164  38.290  23.274  1.00  0.00     0.015 A 
HETATM    5  C17 UNL     1      13.451  38.359  21.933  1.00  0.00    -0.006 A 
HETATM    6  C34 UNL     1      14.316  37.436  21.386  1.00  0.00     0.044 A 
HETATM    7  C35 UNL     1      14.913  36.433  22.153  1.00  0.00     0.046 A 
HETATM    8  N6  UNL     1      15.749  35.492  21.843  1.00  0.00    -0.322 N 
ATOM      9  H6  UNL     1      16.127  35.318  20.912  1.00  0.00     0.169 HD
HETATM   10  C36 UNL     1      16.055  34.741  23.009  1.00  0.00     0.253 A 
HETATM   11  O1  UNL     1      16.803  33.763  23.163  1.00  0.00    -0.268 OA
ENDROOT
BRANCH   1  12
HETATM   12  C12 UNL     1      15.251  34.967  25.509  1.00  0.00     0.104 C 
BRANCH  12  13
HETATM   13  C11 UNL     1      15.239  33.479  25.595  1.00  0.00     0.037 A 
HETATM   14  C9  UNL     1      14.220  32.662  25.201  1.00  0.00     0.037 A 
HETATM   15  N2  UNL     1      14.639  31.387  25.499  1.00  0.00    -0.354 N 
HETATM   16  C10 UNL     1      15.856  31.422  26.047  1.00  0.00     0.180 A 
ATOM     17  H2  UNL     1      14.099  30.539  25.327  1.00  0.00     0.166 HD
HETATM   18  N3  UNL     1      16.233  32.699  26.112  1.00  0.00    -0.354 N 
ATOM     19  H3  UNL     1      17.119  33.038  26.486  1.00  0.00     0.166 HD
BRANCH  14  20
HETATM   20  C8  UNL     1      12.928  32.980  24.561  1.00  0.00     0.097 C 
BRANCH  20  21
HETATM   21  C7  UNL     1      12.696  32.257  23.292  1.00  0.00    -0.052 A 
HETATM   22  C6  UNL     1      11.989  31.092  23.142  1.00  0.00     0.008 A 
HETATM   23  C5  UNL     1      11.819  30.464  21.927  1.00  0.00     0.009 A 
HETATM   24  C4  UNL     1      12.356  30.975  20.766  1.00  0.00    -0.030 A 
HETATM   25  C38 UNL     1      13.081  32.163  20.900  1.00  0.00     0.009 A 
HETATM   26  C37 UNL     1      13.251  32.790  22.113  1.00  0.00     0.008 A 
BRANCH  24  27
HETATM   27  C3  UNL     1      12.209  30.338  19.447  1.00  0.00     0.309 C 
BRANCH  27  28
HETATM   28  N1  UNL     1      11.727  31.289  18.476  1.00  0.00     0.084 N 
HETATM   29  C1  UNL     1      10.331  31.611  18.671  1.00  0.00     0.309 C 
HETATM   30  C2  UNL     1      12.025  30.901  17.123  1.00  0.00     0.309 C 
ENDBRANCH  27  28
ENDBRANCH  24  27
ENDBRANCH  20  21
ENDBRANCH  14  20
ENDBRANCH  12  13
ENDBRANCH   1  12
BRANCH   5  31
HETATM   31  C18 UNL     1      12.850  39.419  21.104  1.00  0.00     0.059 A 
HETATM   32  C19 UNL     1      13.091  39.701  19.777  1.00  0.00     0.050 A 
HETATM   33  C20 UNL     1      12.270  40.774  19.457  1.00  0.00     0.113 A 
HETATM   34  N4  UNL     1      11.567  41.128  20.534  1.00  0.00    -0.299 N 
HETATM   35  N5  UNL     1      11.919  40.317  21.506  1.00  0.00    -0.298 N 
ATOM     36  H5  UNL     1      11.537  40.359  22.451  1.00  0.00     0.187 HD
BRANCH  34  37
HETATM   37  C21 UNL     1      10.588  42.222  20.588  1.00  0.00     0.186 C 
BRANCH  37  38
HETATM   38  C22 UNL     1      11.054  43.337  19.706  1.00  0.00    -0.038 A 
HETATM   39  C23 UNL     1      12.217  44.016  19.994  1.00  0.00     0.010 A 
HETATM   40  C24 UNL     1      12.666  45.061  19.179  1.00  0.00     0.013 A 
HETATM   41  C25 UNL     1      11.942  45.422  18.070  1.00  0.00    -0.026 A 
HETATM   42  C32 UNL     1      10.782  44.737  17.793  1.00  0.00     0.013 A 
HETATM   43  C33 UNL     1      10.320  43.704  18.583  1.00  0.00     0.010 A 
BRANCH  41  44
HETATM   44  C26 UNL     1      12.380  46.489  17.202  1.00  0.00    -0.026 A 
HETATM   45  C27 UNL     1      12.855  47.661  17.746  1.00  0.00     0.012 A 
HETATM   46  C28 UNL     1      13.260  48.673  16.916  1.00  0.00     0.001 A 
HETATM   47  C29 UNL     1      13.207  48.553  15.555  1.00  0.00     0.000 A 
HETATM   48  C30 UNL     1      12.733  47.380  14.963  1.00  0.00     0.001 A 
HETATM   49  C31 UNL     1      12.330  46.375  15.821  1.00  0.00     0.012 A 
ENDBRANCH  41  44
ENDBRANCH  37  38
ENDBRANCH  34  37
ENDBRANCH   5  31
TORSDOF 10
ENDMDL
MODEL 2
REMARK VINA RESULT: -10.622394557      2.243      4.141
REMARK  10 active torsions:
REMARK  status: ('A' for Active; 'I' for Inactive)
REMARK    1  A    between atoms: N1_2  and  C3_4 
REMARK    2  A    between atoms: C3_4  and  C4_5 
REMARK    3  A    between atoms: C7_8  and  C8_9 
REMARK    4  A    between atoms: C8_9  and  C9_10 
REMARK    5  A    between atoms: C11_16  and  C12_17 
REMARK    6  A    between atoms: C12_17  and  C13_18 
REMARK    7  A    between atoms: C17_22  and  C18_23 
REMARK    8  A    between atoms: N4_26  and  C21_27 
REMARK    9  A    between atoms: C21_27  and  C22_28 
REMARK   10  A    between atoms: C25_31  and  C26_32 
ROOT
HETATM    1  C13 UNL     1      13.409  34.563  21.410  1.00  0.00     0.028 A 
HETATM    2  C14 UNL     1      12.815  35.694  21.083  1.00  0.00     0.003 A 
HETATM    3  C15 UNL     1      11.522  35.939  20.644  1.00  0.00     0.015 A 
HETATM    4  C16 UNL     1      11.061  37.221  20.354  1.00  0.00     0.015 A 
HETATM    5  C17 UNL     1      11.916  38.286  20.508  1.00  0.00    -0.006 A 
HETATM    6  C34 UNL     1      13.203  38.052  20.943  1.00  0.00     0.044 A 
HETATM    7  C35 UNL     1      13.666  36.768  21.234  1.00  0.00     0.046 A 
HETATM    8  N6  UNL     1      14.814  36.340  21.659  1.00  0.00    -0.322 N 
ATOM      9  H6  UNL     1      15.628  36.923  21.856  1.00  0.00     0.169 HD
HETATM   10  C36 UNL     1      14.757  34.929  21.807  1.00  0.00     0.253 A 
HETATM   11  O1  UNL     1      15.624  34.124  22.185  1.00  0.00    -0.268 OA
ENDROOT
BRANCH   1  12
HETATM   12  C12 UNL     1      12.818  33.193  21.392  1.00  0.00     0.104 C 
BRANCH  12  13
HETATM   13  C11 UNL     1      13.080  32.577  20.059  1.00  0.00     0.037 A 
HETATM   14  C9  UNL     1      12.237  31.748  19.380  1.00  0.00     0.037 A 
HETATM   15  N2  UNL     1      12.908  31.408  18.230  1.00  0.00    -0.354 N 
HETATM   16  C10 UNL     1      14.104  32.002  18.205  1.00  0.00     0.180 A 
ATOM     17  H2  UNL     1      12.545  30.792  17.502  1.00  0.00     0.166 HD
HETATM   18  N3  UNL     1      14.220  32.720  19.322  1.00  0.00    -0.354 N 
ATOM     19  H3  UNL     1      15.029  33.285  19.582  1.00  0.00     0.166 HD
BRANCH  14  20
HETATM   20  C8  UNL     1      10.876  31.283  19.712  1.00  0.00     0.097 C 
BRANCH  20  21
HETATM   21  C7  UNL     1      10.694  30.931  21.136  1.00  0.00    -0.052 A 
HETATM   22  C6  UNL     1      11.494  30.094  21.871  1.00  0.00     0.008 A 
HETATM   23  C5  UNL     1      11.261  29.800  23.197  1.00  0.00     0.009 A 
HETATM   24  C4  UNL     1      10.193  30.339  23.881  1.00  0.00    -0.030 A 
HETATM   25  C38 UNL     1       9.367  31.194  23.148  1.00  0.00     0.009 A 
HETATM   26  C37 UNL     1       9.599  31.488  21.824  1.00  0.00     0.008 A 
BRANCH  24  27
HETATM   27  C3  UNL     1       9.899  30.049  25.295  1.00  0.00     0.309 C 
BRANCH  27  28
HETATM   28  N1  UNL     1       9.372  31.220  25.952  1.00  0.00     0.084 N 
HETATM   29  C1  UNL     1      10.406  31.995  26.601  1.00  0.00     0.309 C 
HETATM   30  C2  UNL     1       8.271  30.918  26.828  1.00  0.00     0.309 C 
ENDBRANCH  27  28
ENDBRANCH  24  27
ENDBRANCH  20  21
ENDBRANCH  14  20
ENDBRANCH  12  13
ENDBRANCH   1  12
BRANCH   5  31
HETATM   31  C18 UNL     1      11.447  39.654  20.226  1.00  0.00     0.059 A 
HETATM   32  C19 UNL     1      10.772  40.111  19.115  1.00  0.00     0.050 A 
HETATM   33  C20 UNL     1      10.542  41.462  19.335  1.00  0.00     0.113 A 
HETATM   34  N4  UNL     1      11.051  41.810  20.518  1.00  0.00    -0.299 N 
HETATM   35  N5  UNL     1      11.586  40.730  21.038  1.00  0.00    -0.298 N 
ATOM     36  H5  UNL     1      12.050  40.703  21.946  1.00  0.00     0.187 HD
BRANCH  34  37
HETATM   37  C21 UNL     1      11.002  43.158  21.101  1.00  0.00     0.186 C 
BRANCH  37  38
HETATM   38  C22 UNL     1      11.365  44.157  20.049  1.00  0.00    -0.038 A 
HETATM   39  C23 UNL     1      10.396  44.946  19.469  1.00  0.00     0.010 A 
HETATM   40  C24 UNL     1      10.721  45.885  18.483  1.00  0.00     0.013 A 
HETATM   41  C25 UNL     1      12.026  46.030  18.081  1.00  0.00    -0.026 A 
HETATM   42  C32 UNL     1      12.985  45.237  18.667  1.00  0.00     0.013 A 
HETATM   43  C33 UNL     1      12.687  44.304  19.640  1.00  0.00     0.010 A 
BRANCH  41  44
HETATM   44  C26 UNL     1      12.398  46.995  17.074  1.00  0.00    -0.026 A 
HETATM   45  C27 UNL     1      12.380  46.638  15.746  1.00  0.00     0.012 A 
HETATM   46  C28 UNL     1      12.743  47.556  14.796  1.00  0.00     0.001 A 
HETATM   47  C29 UNL     1      13.126  48.825  15.130  1.00  0.00     0.000 A 
HETATM   48  C30 UNL     1      13.157  49.228  16.467  1.00  0.00     0.001 A 
HETATM   49  C31 UNL     1      12.786  48.285  17.405  1.00  0.00     0.012 A 
ENDBRANCH  41  44
ENDBRANCH  37  38
ENDBRANCH  34  37
ENDBRANCH   5  31
TORSDOF 10
ENDMDL
MODEL 3
REMARK VINA RESULT: -10.583353417      2.298      5.212
REMARK  10 active torsions:
REMARK  status: ('A' for Active; 'I' for Inactive)
REMARK    1  A    between atoms: N1_2  and  C3_4 
REMARK    2  A    between atoms: C3_4  and  C4_5 
REMARK    3  A    between atoms: C7_8  and  C8_9 
REMARK    4  A    between atoms: C8_9  and  C9_10 
REMARK    5  A    between atoms: C11_16  and  C12_17 
REMARK    6  A    between atoms: C12_17  and  C13_18 
REMARK    7  A    between atoms: C17_22  and  C18_23 
REMARK    8  A    between atoms: N4_26  and  C21_27 
REMARK    9  A    between atoms: C21_27  and  C22_28 
REMARK   10  A    between atoms: C25_31  and  C26_32 
ROOT
HETATM    1  C13 UNL     1      12.241  34.491  19.966  1.00  0.00     0.028 A 
HETATM    2  C14 UNL     1      12.109  35.803  19.988  1.00  0.00     0.003 A 
HETATM    3  C15 UNL     1      13.020  36.795  20.321  1.00  0.00     0.015 A 
HETATM    4  C16 UNL     1      12.701  38.150  20.273  1.00  0.00     0.015 A 
HETATM    5  C17 UNL     1      11.438  38.522  19.881  1.00  0.00    -0.006 A 
HETATM    6  C34 UNL     1      10.526  37.543  19.548  1.00  0.00     0.044 A 
HETATM    7  C35 UNL     1      10.844  36.185  19.596  1.00  0.00     0.046 A 
HETATM    8  N6  UNL     1      10.151  35.125  19.317  1.00  0.00    -0.322 N 
ATOM      9  H6  UNL     1       9.181  35.119  19.001  1.00  0.00     0.169 HD
HETATM   10  C36 UNL     1      10.958  33.976  19.523  1.00  0.00     0.253 A 
HETATM   11  O1  UNL     1      10.694  32.771  19.377  1.00  0.00    -0.268 OA
ENDROOT
BRANCH   1  12
HETATM   12  C12 UNL     1      13.458  33.698  20.310  1.00  0.00     0.104 C 
BRANCH  12  13
HETATM   13  C11 UNL     1      13.265  33.087  21.656  1.00  0.00     0.037 A 
HETATM   14  C9  UNL     1      13.950  33.413  22.789  1.00  0.00     0.037 A 
HETATM   15  N2  UNL     1      13.463  32.575  23.764  1.00  0.00    -0.354 N 
HETATM   16  C10 UNL     1      12.524  31.775  23.251  1.00  0.00     0.180 A 
ATOM     17  H2  UNL     1      13.773  32.565  24.735  1.00  0.00     0.166 HD
HETATM   18  N3  UNL     1      12.395  32.079  21.960  1.00  0.00    -0.354 N 
ATOM     19  H3  UNL     1      11.752  31.633  21.306  1.00  0.00     0.166 HD
BRANCH  14  20
HETATM   20  C8  UNL     1      14.982  34.442  23.024  1.00  0.00     0.097 C 
BRANCH  20  21
HETATM   21  C7  UNL     1      14.433  35.777  23.341  1.00  0.00    -0.052 A 
HETATM   22  C6  UNL     1      13.182  36.042  23.838  1.00  0.00     0.008 A 
HETATM   23  C5  UNL     1      12.730  37.316  24.103  1.00  0.00     0.009 A 
HETATM   24  C4  UNL     1      13.518  38.424  23.884  1.00  0.00    -0.030 A 
HETATM   25  C38 UNL     1      14.796  38.174  23.378  1.00  0.00     0.009 A 
HETATM   26  C37 UNL     1      15.249  36.902  23.113  1.00  0.00     0.008 A 
BRANCH  24  27
HETATM   27  C3  UNL     1      13.077  39.805  24.145  1.00  0.00     0.309 C 
BRANCH  27  28
HETATM   28  N1  UNL     1      13.011  40.056  25.563  1.00  0.00     0.084 N 
HETATM   29  C1  UNL     1      11.768  40.686  25.950  1.00  0.00     0.309 C 
HETATM   30  C2  UNL     1      14.166  40.755  26.058  1.00  0.00     0.309 C 
ENDBRANCH  27  28
ENDBRANCH  24  27
ENDBRANCH  20  21
ENDBRANCH  14  20
ENDBRANCH  12  13
ENDBRANCH   1  12
BRANCH   5  31
HETATM   31  C18 UNL     1      11.081  39.950  19.803  1.00  0.00     0.059 A 
HETATM   32  C19 UNL     1      10.260  40.573  18.889  1.00  0.00     0.050 A 
HETATM   33  C20 UNL     1      10.230  41.913  19.251  1.00  0.00     0.113 A 
HETATM   34  N4  UNL     1      10.995  42.096  20.328  1.00  0.00    -0.299 N 
HETATM   35  N5  UNL     1      11.495  40.924  20.648  1.00  0.00    -0.298 N 
ATOM     36  H5  UNL     1      12.120  40.767  21.438  1.00  0.00     0.187 HD
BRANCH  34  37
HETATM   37  C21 UNL     1      11.211  43.380  21.009  1.00  0.00     0.186 C 
BRANCH  37  38
HETATM   38  C22 UNL     1      11.549  44.420  19.988  1.00  0.00    -0.038 A 
HETATM   39  C23 UNL     1      12.823  44.506  19.472  1.00  0.00     0.010 A 
HETATM   40  C24 UNL     1      13.155  45.474  18.517  1.00  0.00     0.013 A 
HETATM   41  C25 UNL     1      12.199  46.358  18.080  1.00  0.00    -0.026 A 
HETATM   42  C32 UNL     1      10.931  46.264  18.603  1.00  0.00     0.013 A 
HETATM   43  C33 UNL     1      10.582  45.318  19.546  1.00  0.00     0.010 A 
BRANCH  41  44
HETATM   44  C26 UNL     1      12.504  47.363  17.089  1.00  0.00    -0.026 A 
HETATM   45  C27 UNL     1      12.454  47.040  15.752  1.00  0.00     0.012 A 
HETATM   46  C28 UNL     1      12.753  47.996  14.818  1.00  0.00     0.001 A 
HETATM   47  C29 UNL     1      13.102  49.269  15.175  1.00  0.00     0.000 A 
HETATM   48  C30 UNL     1      13.163  49.637  16.521  1.00  0.00     0.001 A 
HETATM   49  C31 UNL     1      12.857  48.656  17.444  1.00  0.00     0.012 A 
ENDBRANCH  41  44
ENDBRANCH  37  38
ENDBRANCH  34  37
ENDBRANCH   5  31
TORSDOF 10
ENDMDL
MODEL 4
REMARK VINA RESULT: -10.579343932      2.636      4.626
REMARK  10 active torsions:
REMARK  status: ('A' for Active; 'I' for Inactive)
REMARK    1  A    between atoms: N1_2  and  C3_4 
REMARK    2  A    between atoms: C3_4  and  C4_5 
REMARK    3  A    between atoms: C7_8  and  C8_9 
REMARK    4  A    between atoms: C8_9  and  C9_10 
REMARK    5  A    between atoms: C11_16  and  C12_17 
REMARK    6  A    between atoms: C12_17  and  C13_18 
REMARK    7  A    between atoms: C17_22  and  C18_23 
REMARK    8  A    between atoms: N4_26  and  C21_27 
REMARK    9  A    between atoms: C21_27  and  C22_28 
REMARK   10  A    between atoms: C25_31  and  C26_32 
ROOT
HETATM    1  C13 UNL     1      11.911  34.158  20.093  1.00  0.00     0.028 A 
HETATM    2  C14 UNL     1      11.517  35.408  19.940  1.00  0.00     0.003 A 
HETATM    3  C15 UNL     1      10.252  35.933  19.718  1.00  0.00     0.015 A 
HETATM    4  C16 UNL     1      10.021  37.301  19.593  1.00  0.00     0.015 A 
HETATM    5  C17 UNL     1      11.084  38.166  19.693  1.00  0.00    -0.006 A 
HETATM    6  C34 UNL     1      12.345  37.654  19.913  1.00  0.00     0.044 A 
HETATM    7  C35 UNL     1      12.577  36.283  20.039  1.00  0.00     0.046 A 
HETATM    8  N6  UNL     1      13.663  35.608  20.256  1.00  0.00    -0.322 N 
ATOM      9  H6  UNL     1      14.595  36.006  20.370  1.00  0.00     0.169 HD
HETATM   10  C36 UNL     1      13.346  34.225  20.310  1.00  0.00     0.253 A 
HETATM   11  O1  UNL     1      14.076  33.239  20.495  1.00  0.00    -0.268 OA
ENDROOT
BRANCH   1  12
HETATM   12  C12 UNL     1      11.062  32.932  20.065  1.00  0.00     0.104 C 
BRANCH  12  13
HETATM   13  C11 UNL     1      11.654  31.963  19.099  1.00  0.00     0.037 A 
HETATM   14  C9  UNL     1      12.225  30.765  19.415  1.00  0.00     0.037 A 
HETATM   15  N2  UNL     1      12.656  30.240  18.220  1.00  0.00    -0.354 N 
HETATM   16  C10 UNL     1      12.360  31.076  17.220  1.00  0.00     0.180 A 
ATOM     17  H2  UNL     1      13.131  29.344  18.112  1.00  0.00     0.166 HD
HETATM   18  N3  UNL     1      11.747  32.135  17.748  1.00  0.00    -0.354 N 
ATOM     19  H3  UNL     1      11.403  32.942  17.228  1.00  0.00     0.166 HD
BRANCH  14  20
HETATM   20  C8  UNL     1      12.371  30.085  20.717  1.00  0.00     0.097 C 
BRANCH  20  21
HETATM   21  C7  UNL     1      11.611  30.723  21.813  1.00  0.00    -0.052 A 
HETATM   22  C6  UNL     1      12.115  31.581  22.757  1.00  0.00     0.008 A 
HETATM   23  C5  UNL     1      11.350  32.134  23.760  1.00  0.00     0.009 A 
HETATM   24  C4  UNL     1      10.006  31.858  23.880  1.00  0.00    -0.030 A 
HETATM   25  C38 UNL     1       9.474  30.986  22.927  1.00  0.00     0.009 A 
HETATM   26  C37 UNL     1      10.237  30.433  21.925  1.00  0.00     0.008 A 
BRANCH  24  27
HETATM   27  C3  UNL     1       9.148  32.418  24.939  1.00  0.00     0.309 C 
BRANCH  27  28
HETATM   28  N1  UNL     1       9.945  32.846  26.062  1.00  0.00     0.084 N 
HETATM   29  C1  UNL     1       9.909  31.897  27.152  1.00  0.00     0.309 C 
HETATM   30  C2  UNL     1       9.637  34.187  26.483  1.00  0.00     0.309 C 
ENDBRANCH  27  28
ENDBRANCH  24  27
ENDBRANCH  20  21
ENDBRANCH  14  20
ENDBRANCH  12  13
ENDBRANCH   1  12
BRANCH   5  31
HETATM   31  C18 UNL     1      10.864  39.619  19.583  1.00  0.00     0.059 A 
HETATM   32  C19 UNL     1      10.225  40.310  18.577  1.00  0.00     0.050 A 
HETATM   33  C20 UNL     1      10.265  41.648  18.945  1.00  0.00     0.113 A 
HETATM   34  N4  UNL     1      10.896  41.766  20.114  1.00  0.00    -0.299 N 
HETATM   35  N5  UNL     1      11.248  40.556  20.484  1.00  0.00    -0.298 N 
ATOM     36  H5  UNL     1      11.749  40.346  21.347  1.00  0.00     0.187 HD
BRANCH  34  37
HETATM   37  C21 UNL     1      11.133  43.028  20.829  1.00  0.00     0.186 C 
BRANCH  37  38
HETATM   38  C22 UNL     1      11.487  44.090  19.837  1.00  0.00    -0.038 A 
HETATM   39  C23 UNL     1      12.802  44.324  19.502  1.00  0.00     0.010 A 
HETATM   40  C24 UNL     1      13.149  45.314  18.576  1.00  0.00     0.013 A 
HETATM   41  C25 UNL     1      12.167  46.070  17.985  1.00  0.00    -0.026 A 
HETATM   42  C32 UNL     1      10.857  45.828  18.327  1.00  0.00     0.013 A 
HETATM   43  C33 UNL     1      10.492  44.857  19.237  1.00  0.00     0.010 A 
BRANCH  41  44
HETATM   44  C26 UNL     1      12.487  47.094  17.018  1.00  0.00    -0.026 A 
HETATM   45  C27 UNL     1      12.840  48.352  17.447  1.00  0.00     0.012 A 
HETATM   46  C28 UNL     1      13.133  49.322  16.525  1.00  0.00     0.001 A 
HETATM   47  C29 UNL     1      13.086  49.074  15.180  1.00  0.00     0.000 A 
HETATM   48  C30 UNL     1      12.734  47.810  14.703  1.00  0.00     0.001 A 
HETATM   49  C31 UNL     1      12.443  46.850  15.654  1.00  0.00     0.012 A 
ENDBRANCH  41  44
ENDBRANCH  37  38
ENDBRANCH  34  37
ENDBRANCH   5  31
TORSDOF 10
ENDMDL
MODEL 5
REMARK VINA RESULT: -10.548985153      1.994      3.011
REMARK  10 active torsions:
REMARK  status: ('A' for Active; 'I' for Inactive)
REMARK    1  A    between atoms: N1_2  and  C3_4 
REMARK    2  A    between atoms: C3_4  and  C4_5 
REMARK    3  A    between atoms: C7_8  and  C8_9 
REMARK    4  A    between atoms: C8_9  and  C9_10 
REMARK    5  A    between atoms: C11_16  and  C12_17 
REMARK    6  A    between atoms: C12_17  and  C13_18 
REMARK    7  A    between atoms: C17_22  and  C18_23 
REMARK    8  A    between atoms: N4_26  and  C21_27 
REMARK    9  A    between atoms: C21_27  and  C22_28 
REMARK   10  A    between atoms: C25_31  and  C26_32 
ROOT
HETATM    1  C13 UNL     1      13.913  34.940  21.189  1.00  0.00     0.028 A 
HETATM    2  C14 UNL     1      13.226  36.025  20.885  1.00  0.00     0.003 A 
HETATM    3  C15 UNL     1      11.998  36.166  20.254  1.00  0.00     0.015 A 
HETATM    4  C16 UNL     1      11.413  37.410  20.027  1.00  0.00     0.015 A 
HETATM    5  C17 UNL     1      12.073  38.541  20.441  1.00  0.00    -0.006 A 
HETATM    6  C34 UNL     1      13.294  38.410  21.068  1.00  0.00     0.044 A 
HETATM    7  C35 UNL     1      13.881  37.165  21.298  1.00  0.00     0.046 A 
HETATM    8  N6  UNL     1      14.995  36.827  21.870  1.00  0.00    -0.322 N 
ATOM      9  H6  UNL     1      15.676  37.474  22.268  1.00  0.00     0.169 HD
HETATM   10  C36 UNL     1      15.114  35.412  21.854  1.00  0.00     0.253 A 
HETATM   11  O1  UNL     1      16.013  34.676  22.290  1.00  0.00    -0.268 OA
ENDROOT
BRANCH   1  12
HETATM   12  C12 UNL     1      13.532  33.523  20.920  1.00  0.00     0.104 C 
BRANCH  12  13
HETATM   13  C11 UNL     1      13.147  32.879  22.208  1.00  0.00     0.037 A 
HETATM   14  C9  UNL     1      12.414  31.738  22.345  1.00  0.00     0.037 A 
HETATM   15  N2  UNL     1      12.284  31.548  23.701  1.00  0.00    -0.354 N 
HETATM   16  C10 UNL     1      12.910  32.526  24.361  1.00  0.00     0.180 A 
ATOM     17  H2  UNL     1      11.784  30.774  24.138  1.00  0.00     0.166 HD
HETATM   18  N3  UNL     1      13.442  33.347  23.456  1.00  0.00    -0.354 N 
ATOM     19  H3  UNL     1      13.981  34.188  23.663  1.00  0.00     0.166 HD
BRANCH  14  20
HETATM   20  C8  UNL     1      11.861  30.824  21.326  1.00  0.00     0.097 C 
BRANCH  20  21
HETATM   21  C7  UNL     1      10.560  31.259  20.775  1.00  0.00    -0.052 A 
HETATM   22  C6  UNL     1       9.370  31.314  21.454  1.00  0.00     0.008 A 
HETATM   23  C5  UNL     1       8.189  31.722  20.875  1.00  0.00     0.009 A 
HETATM   24  C4  UNL     1       8.126  32.109  19.554  1.00  0.00    -0.030 A 
HETATM   25  C38 UNL     1       9.330  32.060  18.846  1.00  0.00     0.009 A 
HETATM   26  C37 UNL     1      10.510  31.652  19.424  1.00  0.00     0.008 A 
BRANCH  24  27
HETATM   27  C3  UNL     1       6.887  32.546  18.888  1.00  0.00     0.309 C 
BRANCH  27  28
HETATM   28  N1  UNL     1       7.145  32.882  17.510  1.00  0.00     0.084 N 
HETATM   29  C1  UNL     1       6.833  34.263  17.216  1.00  0.00     0.309 C 
HETATM   30  C2  UNL     1       6.527  31.965  16.590  1.00  0.00     0.309 C 
ENDBRANCH  27  28
ENDBRANCH  24  27
ENDBRANCH  20  21
ENDBRANCH  14  20
ENDBRANCH  12  13
ENDBRANCH   1  12
BRANCH   5  31
HETATM   31  C18 UNL     1      11.468  39.868  20.230  1.00  0.00     0.059 A 
HETATM   32  C19 UNL     1      10.586  40.254  19.244  1.00  0.00     0.050 A 
HETATM   33  C20 UNL     1      10.300  41.590  19.486  1.00  0.00     0.113 A 
HETATM   34  N4  UNL     1      10.973  41.997  20.564  1.00  0.00    -0.299 N 
HETATM   35  N5  UNL     1      11.663  40.967  20.997  1.00  0.00    -0.298 N 
ATOM     36  H5  UNL     1      12.273  40.992  21.814  1.00  0.00     0.187 HD
BRANCH  34  37
HETATM   37  C21 UNL     1      10.926  43.350  21.134  1.00  0.00     0.186 C 
BRANCH  37  38
HETATM   38  C22 UNL     1      11.322  44.337  20.082  1.00  0.00    -0.038 A 
HETATM   39  C23 UNL     1      12.619  44.387  19.624  1.00  0.00     0.010 A 
HETATM   40  C24 UNL     1      13.005  45.305  18.640  1.00  0.00     0.013 A 
HETATM   41  C25 UNL     1      12.079  46.173  18.115  1.00  0.00    -0.026 A 
HETATM   42  C32 UNL     1      10.786  46.113  18.580  1.00  0.00     0.013 A 
HETATM   43  C33 UNL     1      10.385  45.218  19.550  1.00  0.00     0.010 A 
BRANCH  41  44
HETATM   44  C26 UNL     1      12.440  47.126  17.092  1.00  0.00    -0.026 A 
HETATM   45  C27 UNL     1      12.790  48.408  17.446  1.00  0.00     0.012 A 
HETATM   46  C28 UNL     1      13.121  49.310  16.469  1.00  0.00     0.001 A 
HETATM   47  C29 UNL     1      13.114  48.972  15.144  1.00  0.00     0.000 A 
HETATM   48  C30 UNL     1      12.766  47.681  14.743  1.00  0.00     0.001 A 
HETATM   49  C31 UNL     1      12.436  46.790  15.746  1.00  0.00     0.012 A 
ENDBRANCH  41  44
ENDBRANCH  37  38
ENDBRANCH  34  37
ENDBRANCH   5  31
TORSDOF 10
ENDMDL
