MODEL 1
REMARK VINA RESULT: -8.783697097      0.000      0.000
REMARK  15 active torsions:
REMARK  status: ('A' for Active; 'I' for Inactive)
REMARK    1  A    between atoms: C2_2  and  C3_3 
REMARK    2  A    between atoms: C7_7  and  C8_8 
REMARK    3  A    between atoms: C8_8  and  C9_9 
REMARK    4  A    between atoms: C9_9  and  C10_10 
REMARK    5  A    between atoms: C10_10  and  N1_11 
REMARK    6  A    between atoms: C14_15  and  C15_16 
REMARK    7  A    between atoms: C15_16  and  C16_17 
REMARK    8  A    between atoms: C16_17  and  C18_19 
REMARK    9  A    between atoms: C16_17  and  C25_33 
REMARK   10  A    between atoms: C20_21  and  N2_22 
REMARK   11  A    between atoms: N2_22  and  C21_24 
REMARK   12  A    between atoms: N7_42  and  C32_43 
REMARK   13  A    between atoms: C32_43  and  C33_44 
REMARK   14  A    between atoms: C34_45  and  C35_46 
REMARK   15  A    between atoms: C35_46  and  O1_47 
ROOT
HETATM    1  C16 UNL     1      13.508  34.804  23.045  1.00  0.00     0.077 C 
HETATM    2  C17 UNL     1      12.321  35.142  23.982  1.00  0.00     0.035 C 
ENDROOT
BRANCH   1   3
HETATM    3  C15 UNL     1      14.230  36.067  22.896  1.00  0.00     0.009 C 
BRANCH   3   4
HETATM    4  C14 UNL     1      13.980  37.027  21.812  1.00  0.00    -0.023 A 
HETATM    5  C13 UNL     1      14.589  36.958  20.585  1.00  0.00     0.014 A 
HETATM    6  C12 UNL     1      14.326  37.893  19.614  1.00  0.00     0.018 A 
HETATM    7  C11 UNL     1      13.453  38.920  19.840  1.00  0.00     0.090 A 
HETATM    8  N1  UNL     1      12.852  38.994  21.045  1.00  0.00    -0.366 N 
HETATM    9  C36 UNL     1      13.092  38.101  21.998  1.00  0.00     0.101 A 
BRANCH   8  10
HETATM   10  C10 UNL     1      11.915  40.062  21.353  1.00  0.00     0.128 C 
BRANCH  10  11
HETATM   11  C9  UNL     1      11.596  40.931  20.198  1.00  0.00     0.025 C 
BRANCH  11  12
HETATM   12  C8  UNL     1      11.324  42.325  20.647  1.00  0.00     0.040 C 
BRANCH  12  13
HETATM   13  C7  UNL     1      11.380  43.357  19.614  1.00  0.00    -0.058 A 
HETATM   14  C6  UNL     1      10.350  43.622  18.728  1.00  0.00     0.007 A 
HETATM   15  C5  UNL     1      10.438  44.615  17.764  1.00  0.00     0.001 A 
HETATM   16  C4  UNL     1      11.585  45.362  17.682  1.00  0.00     0.007 A 
HETATM   17  C3  UNL     1      12.634  45.130  18.544  1.00  0.00    -0.058 A 
HETATM   18  C37 UNL     1      12.515  44.127  19.501  1.00  0.00     0.014 A 
BRANCH  17  19
HETATM   19  C2  UNL     1      13.868  45.948  18.441  1.00  0.00     0.034 C 
HETATM   20  C1  UNL     1      13.595  47.249  17.713  1.00  0.00     0.010 C 
ENDBRANCH  17  19
ENDBRANCH  12  13
ENDBRANCH  11  12
ENDBRANCH  10  11
ENDBRANCH   8  10
ENDBRANCH   3   4
ENDBRANCH   1   3
BRANCH   1  21
HETATM   21  C18 UNL     1      12.807  34.170  21.911  1.00  0.00     0.031 A 
HETATM   22  C19 UNL     1      13.579  33.545  20.908  1.00  0.00     0.056 A 
HETATM   23  C20 UNL     1      13.006  32.899  19.817  1.00  0.00     0.036 A 
HETATM   24  C23 UNL     1      11.638  32.876  19.722  1.00  0.00     0.046 A 
HETATM   25  C24 UNL     1      10.872  33.479  20.685  1.00  0.00     0.090 A 
HETATM   26  N4  UNL     1      11.502  34.079  21.702  1.00  0.00    -0.368 N 
ATOM     27  H4  UNL     1      10.904  34.521  22.401  1.00  0.00     0.165 HD
BRANCH  23  28
HETATM   28  N2  UNL     1      13.701  32.335  18.911  1.00  0.00    -0.346 N 
ATOM     29  H2  UNL     1      14.672  32.607  18.762  1.00  0.00     0.167 HD
BRANCH  28  30
HETATM   30  C21 UNL     1      13.108  31.324  18.113  1.00  0.00     0.071 C 
HETATM   31  C22 UNL     1      13.200  29.879  18.445  1.00  0.00     0.088 C 
HETATM   32  N3  UNL     1      12.460  31.653  17.058  1.00  0.00    -0.389 N 
ATOM     33  H32 UNL     1      12.397  32.645  16.830  1.00  0.00     0.157 HD
ATOM     34  H31 UNL     1      12.034  30.926  16.483  1.00  0.00     0.157 HD
ENDBRANCH  28  30
ENDBRANCH  23  28
ENDBRANCH   1  21
BRANCH   1  35
HETATM   35  C25 UNL     1      14.361  33.786  23.780  1.00  0.00     0.121 A 
HETATM   36  N5  UNL     1      15.724  33.788  23.700  1.00  0.00    -0.275 N 
HETATM   37  C26 UNL     1      16.615  34.658  23.010  1.00  0.00     0.180 C 
HETATM   38  N6  UNL     1      16.217  32.790  24.452  1.00  0.00    -0.248 N 
HETATM   39  C27 UNL     1      17.480  32.370  24.706  1.00  0.00     0.118 A 
HETATM   40  C31 UNL     1      15.208  32.160  25.007  1.00  0.00     0.131 A 
HETATM   41  C28 UNL     1      17.761  31.296  25.535  1.00  0.00     0.019 A 
HETATM   42  C29 UNL     1      16.696  30.643  26.111  1.00  0.00     0.005 A 
HETATM   43  C30 UNL     1      15.397  31.089  25.838  1.00  0.00     0.051 A 
HETATM   44  N7  UNL     1      14.045  32.782  24.590  1.00  0.00    -0.308 N 
BRANCH  44  45
HETATM   45  C32 UNL     1      12.803  32.335  25.089  1.00  0.00     0.225 C 
BRANCH  45  46
HETATM   46  C33 UNL     1      12.157  31.416  24.090  1.00  0.00    -0.084 C 
HETATM   47  C34 UNL     1      11.619  30.686  23.296  1.00  0.00    -0.079 C 
BRANCH  47  48
HETATM   48  C35 UNL     1      10.942  29.814  22.337  1.00  0.00     0.257 C 
BRANCH  48  49
HETATM   49  O1  UNL     1      10.466  28.704  23.066  1.00  0.00    -0.389 OA
ATOM     50  H1  UNL     1      10.856  27.932  22.672  1.00  0.00     0.210 HD
ENDBRANCH  48  49
ENDBRANCH  47  48
ENDBRANCH  45  46
ENDBRANCH  44  45
ENDBRANCH   1  35
TORSDOF 15
ENDMDL
MODEL 2
REMARK VINA RESULT: -8.611361087      2.522      4.732
REMARK  15 active torsions:
REMARK  status: ('A' for Active; 'I' for Inactive)
REMARK    1  A    between atoms: C2_2  and  C3_3 
REMARK    2  A    between atoms: C7_7  and  C8_8 
REMARK    3  A    between atoms: C8_8  and  C9_9 
REMARK    4  A    between atoms: C9_9  and  C10_10 
REMARK    5  A    between atoms: C10_10  and  N1_11 
REMARK    6  A    between atoms: C14_15  and  C15_16 
REMARK    7  A    between atoms: C15_16  and  C16_17 
REMARK    8  A    between atoms: C16_17  and  C18_19 
REMARK    9  A    between atoms: C16_17  and  C25_33 
REMARK   10  A    between atoms: C20_21  and  N2_22 
REMARK   11  A    between atoms: N2_22  and  C21_24 
REMARK   12  A    between atoms: N7_42  and  C32_43 
REMARK   13  A    between atoms: C32_43  and  C33_44 
REMARK   14  A    between atoms: C34_45  and  C35_46 
REMARK   15  A    between atoms: C35_46  and  O1_47 
ROOT
HETATM    1  C16 UNL     1      10.980  35.291  21.182  1.00  0.00     0.077 C 
HETATM    2  C17 UNL     1      12.279  35.814  21.844  1.00  0.00     0.035 C 
ENDROOT
BRANCH   1   3
HETATM    3  C15 UNL     1      10.530  36.394  20.333  1.00  0.00     0.009 C 
BRANCH   3   4
HETATM    4  C14 UNL     1      11.299  37.629  20.123  1.00  0.00    -0.023 A 
HETATM    5  C13 UNL     1      12.630  37.644  19.793  1.00  0.00     0.014 A 
HETATM    6  C12 UNL     1      13.300  38.830  19.621  1.00  0.00     0.018 A 
HETATM    7  C11 UNL     1      12.664  40.030  19.776  1.00  0.00     0.090 A 
HETATM    8  N1  UNL     1      11.355  40.021  20.103  1.00  0.00    -0.366 N 
HETATM    9  C36 UNL     1      10.688  38.886  20.273  1.00  0.00     0.101 A 
BRANCH   8  10
HETATM   10  C10 UNL     1      10.618  41.261  20.286  1.00  0.00     0.128 C 
BRANCH  10  11
HETATM   11  C9  UNL     1      11.476  42.467  20.336  1.00  0.00     0.025 C 
BRANCH  11  12
HETATM   12  C8  UNL     1      10.906  43.554  19.495  1.00  0.00     0.040 C 
BRANCH  12  13
HETATM   13  C7  UNL     1      11.869  44.467  18.881  1.00  0.00    -0.058 A 
HETATM   14  C6  UNL     1      13.180  44.604  19.300  1.00  0.00     0.007 A 
HETATM   15  C5  UNL     1      14.066  45.477  18.688  1.00  0.00     0.001 A 
HETATM   16  C4  UNL     1      13.631  46.234  17.631  1.00  0.00     0.007 A 
HETATM   17  C3  UNL     1      12.333  46.128  17.182  1.00  0.00    -0.058 A 
HETATM   18  C37 UNL     1      11.468  45.241  17.817  1.00  0.00     0.014 A 
BRANCH  17  19
HETATM   19  C2  UNL     1      11.879  46.954  16.036  1.00  0.00     0.034 C 
HETATM   20  C1  UNL     1      12.972  47.080  14.993  1.00  0.00     0.010 C 
ENDBRANCH  17  19
ENDBRANCH  12  13
ENDBRANCH  11  12
ENDBRANCH  10  11
ENDBRANCH   8  10
ENDBRANCH   3   4
ENDBRANCH   1   3
BRANCH   1  21
HETATM   21  C18 UNL     1      10.211  34.856  22.364  1.00  0.00     0.031 A 
HETATM   22  C19 UNL     1      10.850  34.032  23.316  1.00  0.00     0.056 A 
HETATM   23  C20 UNL     1      10.215  33.594  24.474  1.00  0.00     0.036 A 
HETATM   24  C23 UNL     1       8.917  33.983  24.687  1.00  0.00     0.046 A 
HETATM   25  C24 UNL     1       8.279  34.780  23.773  1.00  0.00     0.090 A 
HETATM   26  N4  UNL     1       8.962  35.157  22.686  1.00  0.00    -0.368 N 
ATOM     27  H4  UNL     1       8.459  35.748  22.024  1.00  0.00     0.165 HD
BRANCH  23  28
HETATM   28  N2  UNL     1      10.790  32.852  25.333  1.00  0.00    -0.346 N 
ATOM     29  H2  UNL     1      11.037  33.221  26.251  1.00  0.00     0.167 HD
BRANCH  28  30
HETATM   30  C21 UNL     1      11.084  31.505  24.998  1.00  0.00     0.071 C 
HETATM   31  C22 UNL     1      12.064  31.133  23.944  1.00  0.00     0.088 C 
HETATM   32  N3  UNL     1      10.491  30.556  25.622  1.00  0.00    -0.389 N 
ATOM     33  H32 UNL     1       9.819  30.812  26.345  1.00  0.00     0.157 HD
ATOM     34  H31 UNL     1      10.703  29.588  25.381  1.00  0.00     0.157 HD
ENDBRANCH  28  30
ENDBRANCH  23  28
ENDBRANCH   1  21
BRANCH   1  35
HETATM   35  C25 UNL     1      11.379  34.096  20.336  1.00  0.00     0.121 A 
HETATM   36  N5  UNL     1      12.685  33.806  20.059  1.00  0.00    -0.275 N 
HETATM   37  C26 UNL     1      13.887  34.451  20.463  1.00  0.00     0.180 C 
HETATM   38  N6  UNL     1      12.745  32.696  19.304  1.00  0.00    -0.248 N 
HETATM   39  C27 UNL     1      13.780  32.004  18.771  1.00  0.00     0.118 A 
HETATM   40  C31 UNL     1      11.519  32.275  19.098  1.00  0.00     0.131 A 
HETATM   41  C28 UNL     1      13.605  30.860  18.010  1.00  0.00     0.019 A 
HETATM   42  C29 UNL     1      12.317  30.428  17.801  1.00  0.00     0.005 A 
HETATM   43  C30 UNL     1      11.258  31.154  18.358  1.00  0.00     0.051 A 
HETATM   44  N7  UNL     1      10.661  33.148  19.744  1.00  0.00    -0.308 N 
BRANCH  44  45
HETATM   45  C32 UNL     1       9.274  32.893  19.730  1.00  0.00     0.225 C 
BRANCH  45  46
HETATM   46  C33 UNL     1       8.915  31.984  20.872  1.00  0.00    -0.084 C 
HETATM   47  C34 UNL     1       8.605  31.258  21.783  1.00  0.00    -0.079 C 
BRANCH  47  48
HETATM   48  C35 UNL     1       8.205  30.374  22.877  1.00  0.00     0.257 C 
BRANCH  48  49
HETATM   49  O1  UNL     1       9.164  29.341  22.932  1.00  0.00    -0.389 OA
ATOM     50  H1  UNL     1       8.829  28.691  23.540  1.00  0.00     0.210 HD
ENDBRANCH  48  49
ENDBRANCH  47  48
ENDBRANCH  45  46
ENDBRANCH  44  45
ENDBRANCH   1  35
TORSDOF 15
ENDMDL
MODEL 3
REMARK VINA RESULT: -8.560241232      2.128      5.097
REMARK  15 active torsions:
REMARK  status: ('A' for Active; 'I' for Inactive)
REMARK    1  A    between atoms: C2_2  and  C3_3 
REMARK    2  A    between atoms: C7_7  and  C8_8 
REMARK    3  A    between atoms: C8_8  and  C9_9 
REMARK    4  A    between atoms: C9_9  and  C10_10 
REMARK    5  A    between atoms: C10_10  and  N1_11 
REMARK    6  A    between atoms: C14_15  and  C15_16 
REMARK    7  A    between atoms: C15_16  and  C16_17 
REMARK    8  A    between atoms: C16_17  and  C18_19 
REMARK    9  A    between atoms: C16_17  and  C25_33 
REMARK   10  A    between atoms: C20_21  and  N2_22 
REMARK   11  A    between atoms: N2_22  and  C21_24 
REMARK   12  A    between atoms: N7_42  and  C32_43 
REMARK   13  A    between atoms: C32_43  and  C33_44 
REMARK   14  A    between atoms: C34_45  and  C35_46 
REMARK   15  A    between atoms: C35_46  and  O1_47 
ROOT
HETATM    1  C16 UNL     1      12.092  34.921  20.755  1.00  0.00     0.077 C 
HETATM    2  C17 UNL     1      13.064  34.221  19.772  1.00  0.00     0.035 C 
ENDROOT
BRANCH   1   3
HETATM    3  C15 UNL     1      11.498  36.006  19.975  1.00  0.00     0.009 C 
BRANCH   3   4
HETATM    4  C14 UNL     1      12.084  37.350  19.867  1.00  0.00    -0.023 A 
HETATM    5  C13 UNL     1      13.428  37.580  19.725  1.00  0.00     0.014 A 
HETATM    6  C12 UNL     1      13.920  38.859  19.643  1.00  0.00     0.018 A 
HETATM    7  C11 UNL     1      13.087  39.942  19.701  1.00  0.00     0.090 A 
HETATM    8  N1  UNL     1      11.764  39.721  19.842  1.00  0.00    -0.366 N 
HETATM    9  C36 UNL     1      11.267  38.493  19.923  1.00  0.00     0.101 A 
BRANCH   8  10
HETATM   10  C10 UNL     1      10.822  40.827  19.913  1.00  0.00     0.128 C 
BRANCH  10  11
HETATM   11  C9  UNL     1      11.439  42.117  20.298  1.00  0.00     0.025 C 
BRANCH  11  12
HETATM   12  C8  UNL     1      10.841  43.239  19.524  1.00  0.00     0.040 C 
BRANCH  12  13
HETATM   13  C7  UNL     1      11.780  44.211  18.968  1.00  0.00    -0.058 A 
HETATM   14  C6  UNL     1      13.076  44.380  19.420  1.00  0.00     0.007 A 
HETATM   15  C5  UNL     1      13.940  45.310  18.862  1.00  0.00     0.001 A 
HETATM   16  C4  UNL     1      13.497  46.092  17.826  1.00  0.00     0.007 A 
HETATM   17  C3  UNL     1      12.213  45.955  17.346  1.00  0.00    -0.058 A 
HETATM   18  C37 UNL     1      11.371  45.012  17.927  1.00  0.00     0.014 A 
BRANCH  17  19
HETATM   19  C2  UNL     1      11.750  46.810  16.225  1.00  0.00     0.034 C 
HETATM   20  C1  UNL     1      12.853  47.005  15.203  1.00  0.00     0.010 C 
ENDBRANCH  17  19
ENDBRANCH  12  13
ENDBRANCH  11  12
ENDBRANCH  10  11
ENDBRANCH   8  10
ENDBRANCH   3   4
ENDBRANCH   1   3
BRANCH   1  21
HETATM   21  C18 UNL     1      12.985  35.185  21.901  1.00  0.00     0.031 A 
HETATM   22  C19 UNL     1      14.362  34.912  21.757  1.00  0.00     0.056 A 
HETATM   23  C20 UNL     1      15.283  35.153  22.772  1.00  0.00     0.036 A 
HETATM   24  C23 UNL     1      14.823  35.676  23.953  1.00  0.00     0.046 A 
HETATM   25  C24 UNL     1      13.488  35.946  24.113  1.00  0.00     0.090 A 
HETATM   26  N4  UNL     1      12.670  35.684  23.087  1.00  0.00    -0.368 N 
ATOM     27  H4  UNL     1      11.683  35.893  23.237  1.00  0.00     0.165 HD
BRANCH  23  28
HETATM   28  N2  UNL     1      16.525  34.907  22.644  1.00  0.00    -0.346 N 
ATOM     29  H2  UNL     1      17.018  35.173  21.791  1.00  0.00     0.167 HD
BRANCH  28  30
HETATM   30  C21 UNL     1      17.216  34.259  23.699  1.00  0.00     0.071 C 
HETATM   31  C22 UNL     1      16.797  32.942  24.246  1.00  0.00     0.088 C 
HETATM   32  N3  UNL     1      18.246  34.818  24.215  1.00  0.00    -0.389 N 
ATOM     33  H32 UNL     1      18.533  35.722  23.840  1.00  0.00     0.157 HD
ATOM     34  H31 UNL     1      18.743  34.352  24.975  1.00  0.00     0.157 HD
ENDBRANCH  28  30
ENDBRANCH  23  28
ENDBRANCH   1  21
BRANCH   1  35
HETATM   35  C25 UNL     1      11.040  33.893  21.125  1.00  0.00     0.121 A 
HETATM   36  N5  UNL     1       9.703  34.170  21.070  1.00  0.00    -0.275 N 
HETATM   37  C26 UNL     1       9.013  35.348  20.671  1.00  0.00     0.180 C 
HETATM   38  N6  UNL     1       9.006  33.082  21.441  1.00  0.00    -0.248 N 
HETATM   39  C27 UNL     1       7.679  32.839  21.555  1.00  0.00     0.118 A 
HETATM   40  C31 UNL     1       9.861  32.127  21.725  1.00  0.00     0.131 A 
HETATM   41  C28 UNL     1       7.173  31.615  21.961  1.00  0.00     0.019 A 
HETATM   42  C29 UNL     1       8.077  30.621  22.257  1.00  0.00     0.005 A 
HETATM   43  C30 UNL     1       9.446  30.889  22.134  1.00  0.00     0.051 A 
HETATM   44  N7  UNL     1      11.134  32.631  21.527  1.00  0.00    -0.308 N 
BRANCH  44  45
HETATM   45  C32 UNL     1      12.249  31.785  21.708  1.00  0.00     0.225 C 
BRANCH  45  46
HETATM   46  C33 UNL     1      12.565  31.081  20.418  1.00  0.00    -0.084 C 
HETATM   47  C34 UNL     1      12.805  30.501  19.390  1.00  0.00    -0.079 C 
BRANCH  47  48
HETATM   48  C35 UNL     1      13.073  29.781  18.145  1.00  0.00     0.257 C 
BRANCH  48  49
HETATM   49  O1  UNL     1      12.241  30.354  17.160  1.00  0.00    -0.389 OA
ATOM     50  H1  UNL     1      12.388  29.862  16.361  1.00  0.00     0.210 HD
ENDBRANCH  48  49
ENDBRANCH  47  48
ENDBRANCH  45  46
ENDBRANCH  44  45
ENDBRANCH   1  35
TORSDOF 15
ENDMDL
MODEL 4
REMARK VINA RESULT: -8.497059927      2.313      5.201
REMARK  15 active torsions:
REMARK  status: ('A' for Active; 'I' for Inactive)
REMARK    1  A    between atoms: C2_2  and  C3_3 
REMARK    2  A    between atoms: C7_7  and  C8_8 
REMARK    3  A    between atoms: C8_8  and  C9_9 
REMARK    4  A    between atoms: C9_9  and  C10_10 
REMARK    5  A    between atoms: C10_10  and  N1_11 
REMARK    6  A    between atoms: C14_15  and  C15_16 
REMARK    7  A    between atoms: C15_16  and  C16_17 
REMARK    8  A    between atoms: C16_17  and  C18_19 
REMARK    9  A    between atoms: C16_17  and  C25_33 
REMARK   10  A    between atoms: C20_21  and  N2_22 
REMARK   11  A    between atoms: N2_22  and  C21_24 
REMARK   12  A    between atoms: N7_42  and  C32_43 
REMARK   13  A    between atoms: C32_43  and  C33_44 
REMARK   14  A    between atoms: C34_45  and  C35_46 
REMARK   15  A    between atoms: C35_46  and  O1_47 
ROOT
HETATM    1  C16 UNL     1      10.732  35.220  21.260  1.00  0.00     0.077 C 
HETATM    2  C17 UNL     1      11.874  35.801  22.130  1.00  0.00     0.035 C 
ENDROOT
BRANCH   1   3
HETATM    3  C15 UNL     1      10.357  36.315  20.366  1.00  0.00     0.009 C 
BRANCH   3   4
HETATM    4  C14 UNL     1      11.181  37.512  20.150  1.00  0.00    -0.023 A 
HETATM    5  C13 UNL     1      12.502  37.464  19.783  1.00  0.00     0.014 A 
HETATM    6  C12 UNL     1      13.227  38.617  19.608  1.00  0.00     0.018 A 
HETATM    7  C11 UNL     1      12.658  39.845  19.797  1.00  0.00     0.090 A 
HETATM    8  N1  UNL     1      11.360  39.898  20.160  1.00  0.00    -0.366 N 
HETATM    9  C36 UNL     1      10.640  38.796  20.334  1.00  0.00     0.101 A 
BRANCH   8  10
HETATM   10  C10 UNL     1      10.693  41.171  20.380  1.00  0.00     0.128 C 
BRANCH  10  11
HETATM   11  C9  UNL     1      11.596  42.343  20.303  1.00  0.00     0.025 C 
BRANCH  11  12
HETATM   12  C8  UNL     1      10.991  43.420  19.472  1.00  0.00     0.040 C 
BRANCH  12  13
HETATM   13  C7  UNL     1      11.923  44.381  18.886  1.00  0.00    -0.058 A 
HETATM   14  C6  UNL     1      13.237  44.532  19.292  1.00  0.00     0.007 A 
HETATM   15  C5  UNL     1      14.092  45.452  18.706  1.00  0.00     0.001 A 
HETATM   16  C4  UNL     1      13.623  46.243  17.689  1.00  0.00     0.007 A 
HETATM   17  C3  UNL     1      12.321  46.126  17.255  1.00  0.00    -0.058 A 
HETATM   18  C37 UNL     1      11.487  45.192  17.863  1.00  0.00     0.014 A 
BRANCH  17  19
HETATM   19  C2  UNL     1      11.830  46.990  16.154  1.00  0.00     0.034 C 
HETATM   20  C1  UNL     1      12.856  47.086  15.043  1.00  0.00     0.010 C 
ENDBRANCH  17  19
ENDBRANCH  12  13
ENDBRANCH  11  12
ENDBRANCH  10  11
ENDBRANCH   8  10
ENDBRANCH   3   4
ENDBRANCH   1   3
BRANCH   1  21
HETATM   21  C18 UNL     1       9.812  34.711  22.296  1.00  0.00     0.031 A 
HETATM   22  C19 UNL     1      10.310  33.793  23.246  1.00  0.00     0.056 A 
HETATM   23  C20 UNL     1       9.525  33.280  24.274  1.00  0.00     0.036 A 
HETATM   24  C23 UNL     1       8.219  33.689  24.358  1.00  0.00     0.046 A 
HETATM   25  C24 UNL     1       7.716  34.578  23.444  1.00  0.00     0.090 A 
HETATM   26  N4  UNL     1       8.538  35.022  22.486  1.00  0.00    -0.368 N 
ATOM     27  H4  UNL     1       8.134  35.681  21.820  1.00  0.00     0.165 HD
BRANCH  23  28
HETATM   28  N2  UNL     1       9.973  32.452  25.131  1.00  0.00    -0.346 N 
ATOM     29  H2  UNL     1      10.164  31.486  24.864  1.00  0.00     0.167 HD
BRANCH  28  30
HETATM   30  C21 UNL     1      10.204  32.889  26.460  1.00  0.00     0.071 C 
HETATM   31  C22 UNL     1      11.083  34.042  26.787  1.00  0.00     0.088 C 
HETATM   32  N3  UNL     1       9.639  32.276  27.433  1.00  0.00    -0.389 N 
ATOM     33  H32 UNL     1       9.037  31.484  27.208  1.00  0.00     0.157 HD
ATOM     34  H31 UNL     1       9.806  32.589  28.389  1.00  0.00     0.157 HD
ENDBRANCH  28  30
ENDBRANCH  23  28
ENDBRANCH   1  21
BRANCH   1  35
HETATM   35  C25 UNL     1      11.333  34.071  20.472  1.00  0.00     0.121 A 
HETATM   36  N5  UNL     1      10.596  33.326  19.596  1.00  0.00    -0.275 N 
HETATM   37  C26 UNL     1       9.231  33.430  19.206  1.00  0.00     0.180 C 
HETATM   38  N6  UNL     1      11.379  32.390  19.035  1.00  0.00    -0.248 N 
HETATM   39  C27 UNL     1      11.139  31.419  18.122  1.00  0.00     0.118 A 
HETATM   40  C31 UNL     1      12.589  32.521  19.528  1.00  0.00     0.131 A 
HETATM   41  C28 UNL     1      12.120  30.548  17.677  1.00  0.00     0.019 A 
HETATM   42  C29 UNL     1      13.383  30.695  18.200  1.00  0.00     0.005 A 
HETATM   43  C30 UNL     1      13.616  31.703  19.143  1.00  0.00     0.051 A 
HETATM   44  N7  UNL     1      12.564  33.574  20.426  1.00  0.00    -0.308 N 
BRANCH  44  45
HETATM   45  C32 UNL     1      13.759  33.969  21.063  1.00  0.00     0.225 C 
BRANCH  45  46
HETATM   46  C33 UNL     1      13.824  33.365  22.438  1.00  0.00    -0.084 C 
HETATM   47  C34 UNL     1      13.865  32.899  23.549  1.00  0.00    -0.079 C 
BRANCH  47  48
HETATM   48  C35 UNL     1      13.896  32.351  24.904  1.00  0.00     0.257 C 
BRANCH  48  49
HETATM   49  O1  UNL     1      12.972  31.285  24.930  1.00  0.00    -0.389 OA
ATOM     50  H1  UNL     1      13.114  30.822  25.747  1.00  0.00     0.210 HD
ENDBRANCH  48  49
ENDBRANCH  47  48
ENDBRANCH  45  46
ENDBRANCH  44  45
ENDBRANCH   1  35
TORSDOF 15
ENDMDL
MODEL 5
REMARK VINA RESULT: -8.368459793      1.123      1.537
REMARK  15 active torsions:
REMARK  status: ('A' for Active; 'I' for Inactive)
REMARK    1  A    between atoms: C2_2  and  C3_3 
REMARK    2  A    between atoms: C7_7  and  C8_8 
REMARK    3  A    between atoms: C8_8  and  C9_9 
REMARK    4  A    between atoms: C9_9  and  C10_10 
REMARK    5  A    between atoms: C10_10  and  N1_11 
REMARK    6  A    between atoms: C14_15  and  C15_16 
REMARK    7  A    between atoms: C15_16  and  C16_17 
REMARK    8  A    between atoms: C16_17  and  C18_19 
REMARK    9  A    between atoms: C16_17  and  C25_33 
REMARK   10  A    between atoms: C20_21  and  N2_22 
REMARK   11  A    between atoms: N2_22  and  C21_24 
REMARK   12  A    between atoms: N7_42  and  C32_43 
REMARK   13  A    between atoms: C32_43  and  C33_44 
REMARK   14  A    between atoms: C34_45  and  C35_46 
REMARK   15  A    between atoms: C35_46  and  O1_47 
ROOT
HETATM    1  C16 UNL     1      12.682  35.728  22.951  1.00  0.00     0.077 C 
HETATM    2  C17 UNL     1      11.518  36.039  23.925  1.00  0.00     0.035 C 
ENDROOT
BRANCH   1   3
HETATM    3  C15 UNL     1      13.420  36.986  22.846  1.00  0.00     0.009 C 
BRANCH   3   4
HETATM    4  C14 UNL     1      13.310  37.904  21.703  1.00  0.00    -0.023 A 
HETATM    5  C13 UNL     1      13.994  37.732  20.527  1.00  0.00     0.014 A 
HETATM    6  C12 UNL     1      13.863  38.630  19.497  1.00  0.00     0.018 A 
HETATM    7  C11 UNL     1      13.050  39.723  19.612  1.00  0.00     0.090 A 
HETATM    8  N1  UNL     1      12.376  39.899  20.767  1.00  0.00    -0.366 N 
HETATM    9  C36 UNL     1      12.489  39.042  21.775  1.00  0.00     0.101 A 
BRANCH   8  10
HETATM   10  C10 UNL     1      11.497  41.041  20.957  1.00  0.00     0.128 C 
BRANCH  10  11
HETATM   11  C9  UNL     1      11.312  41.865  19.742  1.00  0.00     0.025 C 
BRANCH  11  12
HETATM   12  C8  UNL     1      11.213  43.308  20.094  1.00  0.00     0.040 C 
BRANCH  12  13
HETATM   13  C7  UNL     1      12.040  44.222  19.309  1.00  0.00    -0.058 A 
HETATM   14  C6  UNL     1      13.375  44.477  19.570  1.00  0.00     0.007 A 
HETATM   15  C5  UNL     1      14.128  45.347  18.798  1.00  0.00     0.001 A 
HETATM   16  C4  UNL     1      13.534  45.980  17.737  1.00  0.00     0.007 A 
HETATM   17  C3  UNL     1      12.207  45.755  17.443  1.00  0.00    -0.058 A 
HETATM   18  C37 UNL     1      11.477  44.875  18.237  1.00  0.00     0.014 A 
BRANCH  17  19
HETATM   19  C2  UNL     1      11.579  46.450  16.291  1.00  0.00     0.034 C 
HETATM   20  C1  UNL     1      12.633  47.014  15.360  1.00  0.00     0.010 C 
ENDBRANCH  17  19
ENDBRANCH  12  13
ENDBRANCH  11  12
ENDBRANCH  10  11
ENDBRANCH   8  10
ENDBRANCH   3   4
ENDBRANCH   1   3
BRANCH   1  21
HETATM   21  C18 UNL     1      11.950  35.157  21.803  1.00  0.00     0.031 A 
HETATM   22  C19 UNL     1      12.653  34.324  20.905  1.00  0.00     0.056 A 
HETATM   23  C20 UNL     1      12.042  33.720  19.811  1.00  0.00     0.036 A 
HETATM   24  C23 UNL     1      10.706  33.950  19.606  1.00  0.00     0.046 A 
HETATM   25  C24 UNL     1      10.007  34.758  20.465  1.00  0.00     0.090 A 
HETATM   26  N4  UNL     1      10.671  35.300  21.492  1.00  0.00    -0.368 N 
ATOM     27  H4  UNL     1      10.124  35.898  22.113  1.00  0.00     0.165 HD
BRANCH  23  28
HETATM   28  N2  UNL     1      12.674  32.968  19.001  1.00  0.00    -0.346 N 
ATOM     29  H2  UNL     1      13.514  33.307  18.531  1.00  0.00     0.167 HD
BRANCH  28  30
HETATM   30  C21 UNL     1      12.196  31.655  18.758  1.00  0.00     0.071 C 
HETATM   31  C22 UNL     1      12.466  30.518  19.676  1.00  0.00     0.088 C 
HETATM   32  N3  UNL     1      11.500  31.421  17.708  1.00  0.00    -0.389 N 
ATOM     33  H32 UNL     1      11.315  32.202  17.079  1.00  0.00     0.157 HD
ATOM     34  H31 UNL     1      11.156  30.477  17.534  1.00  0.00     0.157 HD
ENDBRANCH  28  30
ENDBRANCH  23  28
ENDBRANCH   1  21
BRANCH   1  35
HETATM   35  C25 UNL     1      13.533  34.666  23.622  1.00  0.00     0.121 A 
HETATM   36  N5  UNL     1      14.893  34.641  23.500  1.00  0.00    -0.275 N 
HETATM   37  C26 UNL     1      15.782  35.517  22.816  1.00  0.00     0.180 C 
HETATM   38  N6  UNL     1      15.386  33.606  24.201  1.00  0.00    -0.248 N 
HETATM   39  C27 UNL     1      16.646  33.150  24.401  1.00  0.00     0.118 A 
HETATM   40  C31 UNL     1      14.379  32.978  24.763  1.00  0.00     0.131 A 
HETATM   41  C28 UNL     1      16.926  32.040  25.181  1.00  0.00     0.019 A 
HETATM   42  C29 UNL     1      15.865  31.390  25.765  1.00  0.00     0.005 A 
HETATM   43  C30 UNL     1      14.569  31.873  25.548  1.00  0.00     0.051 A 
HETATM   44  N7  UNL     1      13.218  33.639  24.404  1.00  0.00    -0.308 N 
BRANCH  44  45
HETATM   45  C32 UNL     1      11.983  33.201  24.924  1.00  0.00     0.225 C 
BRANCH  45  46
HETATM   46  C33 UNL     1      11.314  32.285  23.936  1.00  0.00    -0.084 C 
HETATM   47  C34 UNL     1      10.766  31.543  23.162  1.00  0.00    -0.079 C 
BRANCH  47  48
HETATM   48  C35 UNL     1      10.079  30.640  22.239  1.00  0.00     0.257 C 
BRANCH  48  49
HETATM   49  O1  UNL     1      10.509  29.334  22.555  1.00  0.00    -0.389 OA
ATOM     50  H1  UNL     1      10.890  28.974  21.763  1.00  0.00     0.210 HD
ENDBRANCH  48  49
ENDBRANCH  47  48
ENDBRANCH  45  46
ENDBRANCH  44  45
ENDBRANCH   1  35
TORSDOF 15
ENDMDL
