MODEL 1
REMARK VINA RESULT: -10.271557602      0.000      0.000
REMARK  10 active torsions:
REMARK  status: ('A' for Active; 'I' for Inactive)
REMARK    1  A    between atoms: C2_3  and  C3_4 
REMARK    2  A    between atoms: C3_4  and  C4_5 
REMARK    3  A    between atoms: C4_5  and  C5_6 
REMARK    4  A    between atoms: C5_6  and  N2_7 
REMARK    5  A    between atoms: C9_11  and  C10_12 
REMARK       I    between atoms: N3_20  and  C18_22 
REMARK    6  A    between atoms: C18_22  and  C19_24 
REMARK    7  A    between atoms: C19_24  and  C20_25 
REMARK    8  A    between atoms: C20_25  and  C21_26 
REMARK    9  A    between atoms: C21_26  and  N4_27 
REMARK   10  A    between atoms: C29_40  and  C30_41 
ROOT
HETATM    1  N2  UNL     1       9.122  41.196  22.381  1.00  0.00    -0.366 N 
HETATM    2  C6  UNL     1       9.841  41.695  23.398  1.00  0.00     0.090 A 
HETATM    3  C7  UNL     1      10.998  41.085  23.847  1.00  0.00     0.018 A 
HETATM    4  C8  UNL     1      11.439  39.933  23.246  1.00  0.00     0.015 A 
HETATM    5  C9  UNL     1      10.699  39.431  22.210  1.00  0.00    -0.010 A 
HETATM    6  C23 UNL     1       9.553  40.065  21.790  1.00  0.00     0.102 A 
ENDROOT
BRANCH   5   7
HETATM    7  C10 UNL     1      11.073  38.216  21.496  1.00  0.00    -0.024 A 
HETATM    8  C11 UNL     1      10.516  38.005  20.252  1.00  0.00     0.014 A 
HETATM    9  C12 UNL     1      10.863  36.861  19.568  1.00  0.00     0.031 A 
HETATM   10  C13 UNL     1      11.748  35.920  20.083  1.00  0.00     0.040 A 
HETATM   11  C14 UNL     1      12.300  36.135  21.323  1.00  0.00    -0.024 A 
HETATM   12  N7  UNL     1      12.235  34.697  19.564  1.00  0.00    -0.345 N 
HETATM   13  C15 UNL     1      11.946  37.296  22.014  1.00  0.00     0.022 A 
HETATM   14  C16 UNL     1      13.204  35.015  21.663  1.00  0.00     0.117 A 
HETATM   15  C17 UNL     1      13.125  34.111  20.499  1.00  0.00     0.088 A 
HETATM   16  N3  UNL     1      13.766  32.971  20.357  1.00  0.00    -0.316 N 
HETATM   17  C18 UNL     1      13.610  32.185  19.189  1.00  0.00     0.223 C 
ATOM     18  H3  UNL     1      14.385  32.648  21.101  1.00  0.00     0.170 HD
HETATM   19  O1  UNL     1      14.443  32.267  18.258  1.00  0.00    -0.273 OA
ATOM     20  H7  UNL     1      11.985  34.299  18.658  1.00  0.00     0.167 HD
BRANCH  17  21
HETATM   21  C19 UNL     1      12.449  31.274  19.093  1.00  0.00     0.105 C 
BRANCH  21  22
HETATM   22  C20 UNL     1      12.590  30.085  20.023  1.00  0.00     0.029 C 
BRANCH  22  23
HETATM   23  C21 UNL     1      11.853  30.353  21.321  1.00  0.00     0.122 C 
BRANCH  23  24
HETATM   24  N4  UNL     1      10.728  31.220  21.120  1.00  0.00    -0.367 N 
HETATM   25  C22 UNL     1      10.101  31.829  22.047  1.00  0.00     0.196 C 
HETATM   26  N5  UNL     1       9.005  32.661  21.723  1.00  0.00    -0.067 NA
HETATM   27  N6  UNL     1      10.496  31.677  23.390  1.00  0.00    -0.067 NA
ATOM     28  H4  UNL     1      10.406  31.360  20.162  1.00  0.00     0.161 HD
ENDBRANCH  23  24
ENDBRANCH  22  23
ENDBRANCH  21  22
ENDBRANCH  17  21
ENDBRANCH   5   7
BRANCH   1  29
HETATM   29  C5  UNL     1       7.935  41.853  21.944  1.00  0.00     0.128 C 
BRANCH  29  30
HETATM   30  C4  UNL     1       8.247  43.093  21.176  1.00  0.00     0.026 C 
BRANCH  30  31
HETATM   31  C3  UNL     1       8.577  42.853  19.724  1.00  0.00     0.059 C 
BRANCH  31  32
HETATM   32  C2  UNL     1       9.929  43.442  19.500  1.00  0.00     0.011 A 
HETATM   33  N1  UNL     1      10.117  44.578  18.792  1.00  0.00    -0.354 N 
HETATM   34  C1  UNL     1       8.996  45.282  18.216  1.00  0.00     0.156 C 
HETATM   35  C36 UNL     1      11.335  45.127  18.580  1.00  0.00     0.045 A 
HETATM   36  C26 UNL     1      12.425  44.481  19.119  1.00  0.00    -0.009 A 
HETATM   37  C35 UNL     1      11.496  46.291  17.852  1.00  0.00     0.042 A 
HETATM   38  C25 UNL     1      12.266  43.311  19.850  1.00  0.00     0.015 A 
HETATM   39  C27 UNL     1      13.671  45.037  18.903  1.00  0.00     0.014 A 
HETATM   40  C24 UNL     1      11.009  42.777  20.049  1.00  0.00     0.026 A 
HETATM   41  C28 UNL     1      13.830  46.202  18.176  1.00  0.00     0.013 A 
HETATM   42  C29 UNL     1      12.734  46.859  17.631  1.00  0.00    -0.024 A 
BRANCH  42  43
HETATM   43  C30 UNL     1      12.900  48.088  16.866  1.00  0.00    -0.023 A 
HETATM   44  C31 UNL     1      12.556  48.232  15.538  1.00  0.00     0.029 A 
HETATM   45  C32 UNL     1      12.729  49.421  14.846  1.00  0.00     0.088 A 
HETATM   46  N8  UNL     1      13.256  50.472  15.513  1.00  0.00    -0.375 N 
HETATM   47  C33 UNL     1      13.597  50.349  16.807  1.00  0.00     0.088 A 
ATOM     48  H8  UNL     1      13.396  51.362  15.032  1.00  0.00     0.164 HD
HETATM   49  C34 UNL     1      13.436  49.179  17.518  1.00  0.00     0.029 A 
ENDBRANCH  42  43
ENDBRANCH  31  32
ENDBRANCH  30  31
ENDBRANCH  29  30
ENDBRANCH   1  29
TORSDOF 10
ENDMDL
MODEL 2
REMARK VINA RESULT: -10.046288231      2.138      3.633
REMARK  10 active torsions:
REMARK  status: ('A' for Active; 'I' for Inactive)
REMARK    1  A    between atoms: C2_3  and  C3_4 
REMARK    2  A    between atoms: C3_4  and  C4_5 
REMARK    3  A    between atoms: C4_5  and  C5_6 
REMARK    4  A    between atoms: C5_6  and  N2_7 
REMARK    5  A    between atoms: C9_11  and  C10_12 
REMARK       I    between atoms: N3_20  and  C18_22 
REMARK    6  A    between atoms: C18_22  and  C19_24 
REMARK    7  A    between atoms: C19_24  and  C20_25 
REMARK    8  A    between atoms: C20_25  and  C21_26 
REMARK    9  A    between atoms: C21_26  and  N4_27 
REMARK   10  A    between atoms: C29_40  and  C30_41 
ROOT
HETATM    1  N2  UNL     1       7.205  43.402  19.250  1.00  0.00    -0.366 N 
HETATM    2  C6  UNL     1       7.174  44.039  18.069  1.00  0.00     0.090 A 
HETATM    3  C7  UNL     1       7.976  43.657  17.009  1.00  0.00     0.018 A 
HETATM    4  C8  UNL     1       8.836  42.597  17.151  1.00  0.00     0.015 A 
HETATM    5  C9  UNL     1       8.861  41.954  18.359  1.00  0.00    -0.010 A 
HETATM    6  C23 UNL     1       8.048  42.362  19.392  1.00  0.00     0.102 A 
ENDROOT
BRANCH   5   7
HETATM    7  C10 UNL     1       9.732  40.815  18.623  1.00  0.00    -0.024 A 
HETATM    8  C11 UNL     1       9.633  39.723  17.786  1.00  0.00     0.014 A 
HETATM    9  C12 UNL     1      10.452  38.641  18.026  1.00  0.00     0.031 A 
HETATM   10  C13 UNL     1      11.368  38.613  19.072  1.00  0.00     0.040 A 
HETATM   11  C14 UNL     1      11.462  39.704  19.902  1.00  0.00    -0.024 A 
HETATM   12  N7  UNL     1      12.290  37.626  19.495  1.00  0.00    -0.345 N 
HETATM   13  C15 UNL     1      10.630  40.799  19.657  1.00  0.00     0.022 A 
HETATM   14  C16 UNL     1      12.493  39.453  20.933  1.00  0.00     0.117 A 
HETATM   15  C17 UNL     1      12.995  38.099  20.631  1.00  0.00     0.088 A 
HETATM   16  N3  UNL     1      13.927  37.451  21.294  1.00  0.00    -0.316 N 
HETATM   17  C18 UNL     1      14.328  36.148  20.908  1.00  0.00     0.223 C 
ATOM     18  H3  UNL     1      14.369  37.893  22.100  1.00  0.00     0.170 HD
HETATM   19  O1  UNL     1      15.341  35.986  20.190  1.00  0.00    -0.273 OA
ATOM     20  H7  UNL     1      12.425  36.718  19.052  1.00  0.00     0.167 HD
BRANCH  17  21
HETATM   21  C19 UNL     1      13.529  34.992  21.367  1.00  0.00     0.105 C 
BRANCH  21  22
HETATM   22  C20 UNL     1      13.061  34.136  20.205  1.00  0.00     0.029 C 
BRANCH  22  23
HETATM   23  C21 UNL     1      13.081  32.672  20.599  1.00  0.00     0.122 C 
BRANCH  23  24
HETATM   24  N4  UNL     1      13.252  31.821  19.457  1.00  0.00    -0.367 N 
HETATM   25  C22 UNL     1      12.916  30.593  19.405  1.00  0.00     0.196 C 
HETATM   26  N5  UNL     1      13.135  29.856  18.219  1.00  0.00    -0.067 NA
HETATM   27  N6  UNL     1      12.327  29.970  20.522  1.00  0.00    -0.067 NA
ATOM     28  H4  UNL     1      13.675  32.229  18.624  1.00  0.00     0.161 HD
ENDBRANCH  23  24
ENDBRANCH  22  23
ENDBRANCH  21  22
ENDBRANCH  17  21
ENDBRANCH   5   7
BRANCH   1  29
HETATM   29  C5  UNL     1       6.362  43.822  20.320  1.00  0.00     0.128 C 
BRANCH  29  30
HETATM   30  C4  UNL     1       7.060  43.732  21.635  1.00  0.00     0.026 C 
BRANCH  30  31
HETATM   31  C3  UNL     1       7.809  44.983  22.024  1.00  0.00     0.059 C 
BRANCH  31  32
HETATM   32  C2  UNL     1       9.135  44.904  21.345  1.00  0.00     0.011 A 
HETATM   33  N1  UNL     1       9.485  45.737  20.339  1.00  0.00    -0.354 N 
HETATM   34  C1  UNL     1       8.574  46.757  19.875  1.00  0.00     0.156 C 
HETATM   35  C36 UNL     1      10.683  45.681  19.712  1.00  0.00     0.045 A 
HETATM   36  C26 UNL     1      11.575  44.720  20.133  1.00  0.00    -0.009 A 
HETATM   37  C35 UNL     1      11.013  46.547  18.688  1.00  0.00     0.042 A 
HETATM   38  C25 UNL     1      11.245  43.848  21.162  1.00  0.00     0.015 A 
HETATM   39  C27 UNL     1      12.799  44.658  19.495  1.00  0.00     0.014 A 
HETATM   40  C24 UNL     1      10.014  43.932  21.781  1.00  0.00     0.026 A 
HETATM   41  C28 UNL     1      13.127  45.526  18.471  1.00  0.00     0.013 A 
HETATM   42  C29 UNL     1      12.232  46.498  18.043  1.00  0.00    -0.024 A 
BRANCH  42  43
HETATM   43  C30 UNL     1      12.578  47.416  16.965  1.00  0.00    -0.023 A 
HETATM   44  C31 UNL     1      12.914  48.740  17.146  1.00  0.00     0.029 A 
HETATM   45  C32 UNL     1      13.238  49.580  16.091  1.00  0.00     0.088 A 
HETATM   46  N8  UNL     1      13.221  49.066  14.841  1.00  0.00    -0.375 N 
HETATM   47  C33 UNL     1      12.896  47.776  14.647  1.00  0.00     0.088 A 
ATOM     48  H8  UNL     1      13.455  49.657  14.044  1.00  0.00     0.164 HD
HETATM   49  C34 UNL     1      12.569  46.920  15.677  1.00  0.00     0.029 A 
ENDBRANCH  42  43
ENDBRANCH  31  32
ENDBRANCH  30  31
ENDBRANCH  29  30
ENDBRANCH   1  29
TORSDOF 10
ENDMDL
MODEL 3
REMARK VINA RESULT: -9.852406442      3.208      4.391
REMARK  10 active torsions:
REMARK  status: ('A' for Active; 'I' for Inactive)
REMARK    1  A    between atoms: C2_3  and  C3_4 
REMARK    2  A    between atoms: C3_4  and  C4_5 
REMARK    3  A    between atoms: C4_5  and  C5_6 
REMARK    4  A    between atoms: C5_6  and  N2_7 
REMARK    5  A    between atoms: C9_11  and  C10_12 
REMARK       I    between atoms: N3_20  and  C18_22 
REMARK    6  A    between atoms: C18_22  and  C19_24 
REMARK    7  A    between atoms: C19_24  and  C20_25 
REMARK    8  A    between atoms: C20_25  and  C21_26 
REMARK    9  A    between atoms: C21_26  and  N4_27 
REMARK   10  A    between atoms: C29_40  and  C30_41 
ROOT
HETATM    1  N2  UNL     1       9.031  39.877  19.710  1.00  0.00    -0.366 N 
HETATM    2  C6  UNL     1       8.780  39.450  18.462  1.00  0.00     0.090 A 
HETATM    3  C7  UNL     1       9.696  38.702  17.746  1.00  0.00     0.018 A 
HETATM    4  C8  UNL     1      10.904  38.378  18.311  1.00  0.00     0.015 A 
HETATM    5  C9  UNL     1      11.151  38.818  19.583  1.00  0.00    -0.010 A 
HETATM    6  C23 UNL     1      10.215  39.560  20.266  1.00  0.00     0.102 A 
ENDROOT
BRANCH   5   7
HETATM    7  C10 UNL     1      12.397  38.531  20.284  1.00  0.00    -0.024 A 
HETATM    8  C11 UNL     1      13.363  37.815  19.609  1.00  0.00     0.014 A 
HETATM    9  C12 UNL     1      14.545  37.539  20.262  1.00  0.00     0.031 A 
HETATM   10  C13 UNL     1      14.795  37.956  21.565  1.00  0.00     0.040 A 
HETATM   11  C14 UNL     1      13.829  38.670  22.232  1.00  0.00    -0.024 A 
HETATM   12  N7  UNL     1      15.916  37.787  22.412  1.00  0.00    -0.345 N 
HETATM   13  C15 UNL     1      12.631  38.947  21.568  1.00  0.00     0.022 A 
HETATM   14  C16 UNL     1      14.310  39.005  23.590  1.00  0.00     0.117 A 
HETATM   15  C17 UNL     1      15.660  38.410  23.660  1.00  0.00     0.088 A 
HETATM   16  N3  UNL     1      16.474  38.453  24.691  1.00  0.00    -0.316 N 
HETATM   17  C18 UNL     1      17.751  37.842  24.641  1.00  0.00     0.223 C 
ATOM     18  H3  UNL     1      16.181  38.934  25.542  1.00  0.00     0.170 HD
HETATM   19  O1  UNL     1      18.765  38.524  24.367  1.00  0.00    -0.273 OA
ATOM     20  H7  UNL     1      16.774  37.294  22.164  1.00  0.00     0.167 HD
BRANCH  17  21
HETATM   21  C19 UNL     1      17.860  36.394  24.915  1.00  0.00     0.105 C 
BRANCH  21  22
HETATM   22  C20 UNL     1      16.798  35.926  25.891  1.00  0.00     0.029 C 
BRANCH  22  23
HETATM   23  C21 UNL     1      16.181  34.629  25.404  1.00  0.00     0.122 C 
BRANCH  23  24
HETATM   24  N4  UNL     1      14.896  34.849  24.805  1.00  0.00    -0.367 N 
HETATM   25  C22 UNL     1      14.657  34.813  23.554  1.00  0.00     0.196 C 
HETATM   26  N5  UNL     1      13.345  35.046  23.084  1.00  0.00    -0.067 NA
HETATM   27  N6  UNL     1      15.694  34.542  22.641  1.00  0.00    -0.067 NA
ATOM     28  H4  UNL     1      14.114  35.049  25.429  1.00  0.00     0.161 HD
ENDBRANCH  23  24
ENDBRANCH  22  23
ENDBRANCH  21  22
ENDBRANCH  17  21
ENDBRANCH   5   7
BRANCH   1  29
HETATM   29  C5  UNL     1       8.061  40.644  20.419  1.00  0.00     0.128 C 
BRANCH  29  30
HETATM   30  C4  UNL     1       8.654  41.891  20.983  1.00  0.00     0.026 C 
BRANCH  30  31
HETATM   31  C3  UNL     1       8.454  43.113  20.123  1.00  0.00     0.059 C 
BRANCH  31  32
HETATM   32  C2  UNL     1       9.817  43.621  19.794  1.00  0.00     0.011 A 
HETATM   33  N1  UNL     1      10.017  44.743  19.066  1.00  0.00    -0.354 N 
HETATM   34  C1  UNL     1       8.899  45.510  18.571  1.00  0.00     0.156 C 
HETATM   35  C36 UNL     1      11.246  45.218  18.759  1.00  0.00     0.045 A 
HETATM   36  C26 UNL     1      12.334  44.510  19.218  1.00  0.00    -0.009 A 
HETATM   37  C35 UNL     1      11.420  46.369  18.014  1.00  0.00     0.042 A 
HETATM   38  C25 UNL     1      12.162  43.353  19.967  1.00  0.00     0.015 A 
HETATM   39  C27 UNL     1      13.591  44.992  18.906  1.00  0.00     0.014 A 
HETATM   40  C24 UNL     1      10.895  42.895  20.263  1.00  0.00     0.026 A 
HETATM   41  C28 UNL     1      13.762  46.144  18.161  1.00  0.00     0.013 A 
HETATM   42  C29 UNL     1      12.669  46.863  17.696  1.00  0.00    -0.024 A 
BRANCH  42  43
HETATM   43  C30 UNL     1      12.847  48.078  16.913  1.00  0.00    -0.023 A 
HETATM   44  C31 UNL     1      12.453  48.225  15.600  1.00  0.00     0.029 A 
HETATM   45  C32 UNL     1      12.641  49.401  14.890  1.00  0.00     0.088 A 
HETATM   46  N8  UNL     1      13.236  50.437  15.523  1.00  0.00    -0.375 N 
HETATM   47  C33 UNL     1      13.627  50.311  16.802  1.00  0.00     0.088 A 
ATOM     48  H8  UNL     1      13.388  51.316  15.028  1.00  0.00     0.164 HD
HETATM   49  C34 UNL     1      13.452  49.154  17.531  1.00  0.00     0.029 A 
ENDBRANCH  42  43
ENDBRANCH  31  32
ENDBRANCH  30  31
ENDBRANCH  29  30
ENDBRANCH   1  29
TORSDOF 10
ENDMDL
MODEL 4
REMARK VINA RESULT: -9.639216785      1.716      2.394
REMARK  10 active torsions:
REMARK  status: ('A' for Active; 'I' for Inactive)
REMARK    1  A    between atoms: C2_3  and  C3_4 
REMARK    2  A    between atoms: C3_4  and  C4_5 
REMARK    3  A    between atoms: C4_5  and  C5_6 
REMARK    4  A    between atoms: C5_6  and  N2_7 
REMARK    5  A    between atoms: C9_11  and  C10_12 
REMARK       I    between atoms: N3_20  and  C18_22 
REMARK    6  A    between atoms: C18_22  and  C19_24 
REMARK    7  A    between atoms: C19_24  and  C20_25 
REMARK    8  A    between atoms: C20_25  and  C21_26 
REMARK    9  A    between atoms: C21_26  and  N4_27 
REMARK   10  A    between atoms: C29_40  and  C30_41 
ROOT
HETATM    1  N2  UNL     1       8.075  41.805  19.607  1.00  0.00    -0.366 N 
HETATM    2  C6  UNL     1       8.243  42.500  18.471  1.00  0.00     0.090 A 
HETATM    3  C7  UNL     1       8.944  41.988  17.395  1.00  0.00     0.018 A 
HETATM    4  C8  UNL     1       9.493  40.733  17.473  1.00  0.00     0.015 A 
HETATM    5  C9  UNL     1       9.318  40.031  18.635  1.00  0.00    -0.010 A 
HETATM    6  C23 UNL     1       8.613  40.573  19.686  1.00  0.00     0.102 A 
ENDROOT
BRANCH   5   7
HETATM    7  C10 UNL     1       9.853  38.689  18.830  1.00  0.00    -0.024 A 
HETATM    8  C11 UNL     1       9.072  37.623  18.437  1.00  0.00     0.014 A 
HETATM    9  C12 UNL     1       9.569  36.350  18.616  1.00  0.00     0.031 A 
HETATM   10  C13 UNL     1      10.820  36.106  19.172  1.00  0.00     0.040 A 
HETATM   11  C14 UNL     1      11.594  37.173  19.561  1.00  0.00    -0.024 A 
HETATM   12  N7  UNL     1      11.516  34.904  19.444  1.00  0.00    -0.345 N 
HETATM   13  C15 UNL     1      11.088  38.462  19.380  1.00  0.00     0.022 A 
HETATM   14  C16 UNL     1      12.872  36.679  20.119  1.00  0.00     0.117 A 
HETATM   15  C17 UNL     1      12.772  35.209  20.025  1.00  0.00     0.088 A 
HETATM   16  N3  UNL     1      13.684  34.344  20.410  1.00  0.00    -0.316 N 
HETATM   17  C18 UNL     1      13.474  32.950  20.270  1.00  0.00     0.223 C 
ATOM     18  H3  UNL     1      14.556  34.682  20.817  1.00  0.00     0.170 HD
HETATM   19  O1  UNL     1      13.940  32.339  19.281  1.00  0.00    -0.273 OA
ATOM     20  H7  UNL     1      11.167  33.965  19.251  1.00  0.00     0.167 HD
BRANCH  17  21
HETATM   21  C19 UNL     1      12.699  32.238  21.308  1.00  0.00     0.105 C 
BRANCH  21  22
HETATM   22  C20 UNL     1      12.270  30.860  20.842  1.00  0.00     0.029 C 
BRANCH  22  23
HETATM   23  C21 UNL     1      11.653  30.092  21.995  1.00  0.00     0.122 C 
BRANCH  23  24
HETATM   24  N4  UNL     1      11.446  30.934  23.138  1.00  0.00    -0.367 N 
HETATM   25  C22 UNL     1      11.151  30.519  24.307  1.00  0.00     0.196 C 
HETATM   26  N5  UNL     1      10.972  31.449  25.356  1.00  0.00    -0.067 NA
HETATM   27  N6  UNL     1      11.003  29.141  24.554  1.00  0.00    -0.067 NA
ATOM     28  H4  UNL     1      11.543  31.940  23.006  1.00  0.00     0.161 HD
ENDBRANCH  23  24
ENDBRANCH  22  23
ENDBRANCH  21  22
ENDBRANCH  17  21
ENDBRANCH   5   7
BRANCH   1  29
HETATM   29  C5  UNL     1       7.344  42.364  20.695  1.00  0.00     0.128 C 
BRANCH  29  30
HETATM   30  C4  UNL     1       8.252  42.860  21.768  1.00  0.00     0.026 C 
BRANCH  30  31
HETATM   31  C3  UNL     1       8.531  44.341  21.705  1.00  0.00     0.059 C 
BRANCH  31  32
HETATM   32  C2  UNL     1       9.800  44.495  20.936  1.00  0.00     0.011 A 
HETATM   33  N1  UNL     1      10.021  45.537  20.103  1.00  0.00    -0.354 N 
HETATM   34  C1  UNL     1       9.021  46.563  19.924  1.00  0.00     0.156 C 
HETATM   35  C36 UNL     1      11.165  45.693  19.398  1.00  0.00     0.045 A 
HETATM   36  C26 UNL     1      12.140  44.732  19.549  1.00  0.00    -0.009 A 
HETATM   37  C35 UNL     1      11.363  46.770  18.555  1.00  0.00     0.042 A 
HETATM   38  C25 UNL     1      11.943  43.649  20.395  1.00  0.00     0.015 A 
HETATM   39  C27 UNL     1      13.310  44.888  18.830  1.00  0.00     0.014 A 
HETATM   40  C24 UNL     1      10.764  43.519  21.101  1.00  0.00     0.026 A 
HETATM   41  C28 UNL     1      13.506  45.966  17.988  1.00  0.00     0.013 A 
HETATM   42  C29 UNL     1      12.527  46.939  17.832  1.00  0.00    -0.024 A 
BRANCH  42  43
HETATM   43  C30 UNL     1      12.733  48.077  16.947  1.00  0.00    -0.023 A 
HETATM   44  C31 UNL     1      12.356  48.112  15.621  1.00  0.00     0.029 A 
HETATM   45  C32 UNL     1      12.570  49.217  14.812  1.00  0.00     0.088 A 
HETATM   46  N8  UNL     1      13.173  50.297  15.358  1.00  0.00    -0.375 N 
HETATM   47  C33 UNL     1      13.547  50.279  16.649  1.00  0.00     0.088 A 
ATOM     48  H8  UNL     1      13.345  51.127  14.790  1.00  0.00     0.164 HD
HETATM   49  C34 UNL     1      13.347  49.194  17.475  1.00  0.00     0.029 A 
ENDBRANCH  42  43
ENDBRANCH  31  32
ENDBRANCH  30  31
ENDBRANCH  29  30
ENDBRANCH   1  29
TORSDOF 10
ENDMDL
MODEL 5
REMARK VINA RESULT: -9.549475408      1.527      2.465
REMARK  10 active torsions:
REMARK  status: ('A' for Active; 'I' for Inactive)
REMARK    1  A    between atoms: C2_3  and  C3_4 
REMARK    2  A    between atoms: C3_4  and  C4_5 
REMARK    3  A    between atoms: C4_5  and  C5_6 
REMARK    4  A    between atoms: C5_6  and  N2_7 
REMARK    5  A    between atoms: C9_11  and  C10_12 
REMARK       I    between atoms: N3_20  and  C18_22 
REMARK    6  A    between atoms: C18_22  and  C19_24 
REMARK    7  A    between atoms: C19_24  and  C20_25 
REMARK    8  A    between atoms: C20_25  and  C21_26 
REMARK    9  A    between atoms: C21_26  and  N4_27 
REMARK   10  A    between atoms: C29_40  and  C30_41 
ROOT
HETATM    1  N2  UNL     1       8.670  40.585  22.217  1.00  0.00    -0.366 N 
HETATM    2  C6  UNL     1       9.346  41.430  23.012  1.00  0.00     0.090 A 
HETATM    3  C7  UNL     1      10.376  41.001  23.829  1.00  0.00     0.018 A 
HETATM    4  C8  UNL     1      10.730  39.676  23.843  1.00  0.00     0.015 A 
HETATM    5  C9  UNL     1      10.035  38.822  23.030  1.00  0.00    -0.010 A 
HETATM    6  C23 UNL     1       9.016  39.284  22.229  1.00  0.00     0.102 A 
ENDROOT
BRANCH   5   7
HETATM    7  C10 UNL     1      10.326  37.395  22.960  1.00  0.00    -0.024 A 
HETATM    8  C11 UNL     1      11.313  36.899  23.787  1.00  0.00     0.014 A 
HETATM    9  C12 UNL     1      11.595  35.552  23.730  1.00  0.00     0.031 A 
HETATM   10  C13 UNL     1      10.924  34.682  22.877  1.00  0.00     0.040 A 
HETATM   11  C14 UNL     1       9.942  35.182  22.056  1.00  0.00    -0.024 A 
HETATM   12  N7  UNL     1      11.049  33.290  22.657  1.00  0.00    -0.345 N 
HETATM   13  C15 UNL     1       9.658  36.548  22.116  1.00  0.00     0.022 A 
HETATM   14  C16 UNL     1       9.370  34.085  21.245  1.00  0.00     0.117 A 
HETATM   15  C17 UNL     1      10.120  32.885  21.666  1.00  0.00     0.088 A 
HETATM   16  N3  UNL     1       9.954  31.665  21.205  1.00  0.00    -0.316 N 
HETATM   17  C18 UNL     1      10.737  30.588  21.688  1.00  0.00     0.223 C 
ATOM     18  H3  UNL     1       9.249  31.491  20.488  1.00  0.00     0.170 HD
HETATM   19  O1  UNL     1      10.294  29.839  22.588  1.00  0.00    -0.273 OA
ATOM     20  H7  UNL     1      11.706  32.674  23.137  1.00  0.00     0.167 HD
BRANCH  17  21
HETATM   21  C19 UNL     1      12.081  30.370  21.111  1.00  0.00     0.105 C 
BRANCH  21  22
HETATM   22  C20 UNL     1      12.085  30.566  19.607  1.00  0.00     0.029 C 
BRANCH  22  23
HETATM   23  C21 UNL     1      13.203  31.511  19.211  1.00  0.00     0.122 C 
BRANCH  23  24
HETATM   24  N4  UNL     1      12.735  32.862  19.097  1.00  0.00    -0.367 N 
HETATM   25  C22 UNL     1      13.031  33.808  19.898  1.00  0.00     0.196 C 
HETATM   26  N5  UNL     1      12.507  35.102  19.679  1.00  0.00    -0.067 NA
HETATM   27  N6  UNL     1      13.877  33.568  20.997  1.00  0.00    -0.067 NA
ATOM     28  H4  UNL     1      12.118  33.083  18.315  1.00  0.00     0.161 HD
ENDBRANCH  23  24
ENDBRANCH  22  23
ENDBRANCH  21  22
ENDBRANCH  17  21
ENDBRANCH   5   7
BRANCH   1  29
HETATM   29  C5  UNL     1       7.616  41.063  21.386  1.00  0.00     0.128 C 
BRANCH  29  30
HETATM   30  C4  UNL     1       7.989  42.337  20.707  1.00  0.00     0.026 C 
BRANCH  30  31
HETATM   31  C3  UNL     1       8.511  42.158  19.303  1.00  0.00     0.059 C 
BRANCH  31  32
HETATM   32  C2  UNL     1       9.832  42.850  19.257  1.00  0.00     0.011 A 
HETATM   33  N1  UNL     1      10.039  43.968  18.524  1.00  0.00    -0.354 N 
HETATM   34  C1  UNL     1       8.971  44.548  17.745  1.00  0.00     0.156 C 
HETATM   35  C36 UNL     1      11.230  44.609  18.471  1.00  0.00     0.045 A 
HETATM   36  C26 UNL     1      12.269  44.082  19.205  1.00  0.00    -0.009 A 
HETATM   37  C35 UNL     1      11.412  45.751  17.714  1.00  0.00     0.042 A 
HETATM   38  C25 UNL     1      12.088  42.934  19.967  1.00  0.00     0.015 A 
HETATM   39  C27 UNL     1      13.486  44.733  19.153  1.00  0.00     0.014 A 
HETATM   40  C24 UNL     1      10.861  42.304  20.000  1.00  0.00     0.026 A 
HETATM   41  C28 UNL     1      13.666  45.875  18.395  1.00  0.00     0.013 A 
HETATM   42  C29 UNL     1      12.622  46.412  17.654  1.00  0.00    -0.024 A 
BRANCH  42  43
HETATM   43  C30 UNL     1      12.809  47.618  16.857  1.00  0.00    -0.023 A 
HETATM   44  C31 UNL     1      12.608  47.691  15.495  1.00  0.00     0.029 A 
HETATM   45  C32 UNL     1      12.796  48.859  14.773  1.00  0.00     0.088 A 
HETATM   46  N8  UNL     1      13.194  49.963  15.445  1.00  0.00    -0.375 N 
HETATM   47  C33 UNL     1      13.395  49.909  16.772  1.00  0.00     0.088 A 
ATOM     48  H8  UNL     1      13.342  50.839  14.943  1.00  0.00     0.164 HD
HETATM   49  C34 UNL     1      13.216  48.761  17.513  1.00  0.00     0.029 A 
ENDBRANCH  42  43
ENDBRANCH  31  32
ENDBRANCH  30  31
ENDBRANCH  29  30
ENDBRANCH   1  29
TORSDOF 10
ENDMDL
