MODEL 1
REMARK VINA RESULT: -8.207819559      0.000      0.000
REMARK  11 active torsions:
REMARK  status: ('A' for Active; 'I' for Inactive)
REMARK    1  A    between atoms: C13_15  and  C14_16 
REMARK    2  A    between atoms: C15_17  and  C16_18 
REMARK    3  A    between atoms: C16_18  and  C17_19 
REMARK    4  A    between atoms: C17_19  and  C18_20 
REMARK    5  A    between atoms: C18_20  and  C19_21 
REMARK    6  A    between atoms: C19_21  and  N2_22 
REMARK    7  A    between atoms: N2_22  and  N3_24 
REMARK    8  A    between atoms: N5_30  and  C21_31 
REMARK    9  A    between atoms: C21_31  and  C22_32 
REMARK   10  A    between atoms: C22_32  and  C23_33 
REMARK   11  A    between atoms: C26_38  and  O4_39 
ROOT
HETATM    1  C1  UNL     1       6.024  53.742  20.310  1.00  0.00     0.153 C 
HETATM    2  N1  UNL     1       5.951  52.433  20.930  1.00  0.00    -0.347 N 
HETATM    3  C2  UNL     1       4.784  51.877  21.522  1.00  0.00     0.228 C 
HETATM    4  O1  UNL     1       3.694  52.526  21.683  1.00  0.00    -0.273 OA
HETATM    5  C3  UNL     1       5.121  50.508  21.863  1.00  0.00     0.041 C 
HETATM    6  C4  UNL     1       4.410  49.969  23.065  1.00  0.00     0.025 C 
HETATM    7  C5  UNL     1       6.601  50.638  22.262  1.00  0.00     0.049 C 
HETATM    8  C6  UNL     1       7.018  51.431  21.077  1.00  0.00     0.117 C 
HETATM    9  C7  UNL     1       7.127  50.571  19.795  1.00  0.00    -0.052 C 
HETATM   10  C8  UNL     1       8.468  50.053  19.624  1.00  0.00    -0.020 C 
HETATM   11  C9  UNL     1       8.895  48.656  19.617  1.00  0.00     0.042 C 
HETATM   12  C10 UNL     1       8.539  47.790  18.394  1.00  0.00    -0.005 C 
HETATM   13  C11 UNL     1       9.413  48.325  17.354  1.00  0.00     0.021 C 
HETATM   14  C12 UNL     1       8.496  46.422  18.816  1.00  0.00    -0.027 A 
HETATM   15  C13 UNL     1       9.566  45.643  18.569  1.00  0.00    -0.013 A 
HETATM   16  C20 UNL     1       9.604  44.243  18.850  1.00  0.00     0.102 A 
HETATM   17  N5  UNL     1       8.544  43.645  19.389  1.00  0.00    -0.364 N 
HETATM   18  C24 UNL     1       7.483  44.387  19.647  1.00  0.00     0.100 A 
HETATM   19  C25 UNL     1       7.390  45.766  19.389  1.00  0.00    -0.006 A 
HETATM   20  C26 UNL     1       6.046  46.103  19.844  1.00  0.00     0.153 C 
HETATM   21  C27 UNL     1       5.338  47.277  19.241  1.00  0.00     0.043 C 
HETATM   22  C28 UNL     1       6.366  48.356  19.112  1.00  0.00     0.010 C 
HETATM   23  C29 UNL     1       5.915  49.744  19.538  1.00  0.00    -0.013 C 
HETATM   24  C30 UNL     1       4.905  50.360  18.596  1.00  0.00     0.020 C 
HETATM   25  C31 UNL     1       5.075  49.488  20.800  1.00  0.00     0.033 C 
HETATM   26  C32 UNL     1       7.110  48.153  17.887  1.00  0.00    -0.031 C 
HETATM   27  C33 UNL     1       7.056  49.270  16.888  1.00  0.00     0.016 C 
HETATM   28  C34 UNL     1       6.725  47.035  16.941  1.00  0.00     0.016 C 
ENDROOT
BRANCH  15  29
HETATM   29  C14 UNL     1      10.834  46.159  18.195  1.00  0.00     0.009 C 
HETATM   30  C15 UNL     1      11.913  45.363  18.039  1.00  0.00    -0.026 C 
BRANCH  30  31
HETATM   31  C16 UNL     1      13.249  45.895  17.649  1.00  0.00     0.027 C 
BRANCH  31  32
HETATM   32  C17 UNL     1      13.179  47.200  16.938  1.00  0.00     0.005 C 
BRANCH  32  33
HETATM   33  C18 UNL     1      12.784  46.969  15.501  1.00  0.00     0.021 C 
BRANCH  33  34
HETATM   34  C19 UNL     1      12.793  48.211  14.677  1.00  0.00     0.141 C 
BRANCH  34  35
HETATM   35  N2  UNL     1      12.451  49.341  15.531  1.00  0.00    -0.323 N 
ATOM     36  H2  UNL     1      11.526  49.377  15.958  1.00  0.00     0.181 HD
BRANCH  35  37
HETATM   37  N3  UNL     1      13.354  50.372  15.780  1.00  0.00    -0.254 N 
HETATM   38  N4  UNL     1      13.540  50.742  16.975  1.00  0.00    -0.331 N 
ATOM     39  H42 UNL     1      13.031  50.283  17.731  1.00  0.00     0.178 HD
ATOM     40  H41 UNL     1      14.201  51.497  17.157  1.00  0.00     0.178 HD
ATOM     41  H3  UNL     1      13.855  50.821  15.013  1.00  0.00     0.207 HD
ENDBRANCH  35  37
ENDBRANCH  34  35
ENDBRANCH  33  34
ENDBRANCH  32  33
ENDBRANCH  31  32
ENDBRANCH  30  31
ENDBRANCH  15  29
BRANCH  17  42
HETATM   42  C21 UNL     1       8.599  42.223  19.666  1.00  0.00     0.138 C 
BRANCH  42  43
HETATM   43  C22 UNL     1       9.840  41.681  18.963  1.00  0.00     0.133 C 
BRANCH  43  44
HETATM   44  C23 UNL     1       9.465  40.915  17.748  1.00  0.00     0.174 C 
HETATM   45  O2  UNL     1       8.272  40.806  17.380  1.00  0.00    -0.648 OA
HETATM   46  O3  UNL     1      10.442  40.295  16.988  1.00  0.00    -0.648 OA
ENDBRANCH  43  44
ENDBRANCH  42  43
ENDBRANCH  17  42
BRANCH  20  47
HETATM   47  O4  UNL     1       5.186  44.989  19.939  1.00  0.00    -0.391 OA
ATOM     48  H4  UNL     1       5.141  44.617  20.812  1.00  0.00     0.210 HD
ENDBRANCH  20  47
TORSDOF 11
ENDMDL
MODEL 2
REMARK VINA RESULT: -8.151400392     12.792     16.470
REMARK  11 active torsions:
REMARK  status: ('A' for Active; 'I' for Inactive)
REMARK    1  A    between atoms: C13_15  and  C14_16 
REMARK    2  A    between atoms: C15_17  and  C16_18 
REMARK    3  A    between atoms: C16_18  and  C17_19 
REMARK    4  A    between atoms: C17_19  and  C18_20 
REMARK    5  A    between atoms: C18_20  and  C19_21 
REMARK    6  A    between atoms: C19_21  and  N2_22 
REMARK    7  A    between atoms: N2_22  and  N3_24 
REMARK    8  A    between atoms: N5_30  and  C21_31 
REMARK    9  A    between atoms: C21_31  and  C22_32 
REMARK   10  A    between atoms: C22_32  and  C23_33 
REMARK   11  A    between atoms: C26_38  and  O4_39 
ROOT
HETATM    1  C1  UNL     1       5.666  29.411  25.006  1.00  0.00     0.153 C 
HETATM    2  N1  UNL     1       6.169  30.761  24.846  1.00  0.00    -0.347 N 
HETATM    3  C2  UNL     1       6.013  31.806  25.798  1.00  0.00     0.228 C 
HETATM    4  O1  UNL     1       5.301  31.701  26.854  1.00  0.00    -0.273 OA
HETATM    5  C3  UNL     1       6.802  32.919  25.304  1.00  0.00     0.041 C 
HETATM    6  C4  UNL     1       6.273  34.272  25.668  1.00  0.00     0.025 C 
HETATM    7  C5  UNL     1       6.620  32.783  23.782  1.00  0.00     0.049 C 
HETATM    8  C6  UNL     1       6.920  31.329  23.714  1.00  0.00     0.117 C 
HETATM    9  C7  UNL     1       8.430  31.025  23.866  1.00  0.00    -0.052 C 
HETATM   10  C8  UNL     1       9.086  30.978  22.577  1.00  0.00    -0.020 C 
HETATM   11  C9  UNL     1      10.145  31.853  22.078  1.00  0.00     0.042 C 
HETATM   12  C10 UNL     1      11.560  31.694  22.667  1.00  0.00    -0.005 C 
HETATM   13  C11 UNL     1      12.002  30.420  22.105  1.00  0.00     0.021 C 
HETATM   14  C12 UNL     1      12.245  32.943  22.521  1.00  0.00    -0.027 A 
HETATM   15  C13 UNL     1      13.107  33.085  21.496  1.00  0.00    -0.013 A 
HETATM   16  C20 UNL     1      13.920  34.243  21.305  1.00  0.00     0.102 A 
HETATM   17  N5  UNL     1      13.846  35.257  22.163  1.00  0.00    -0.364 N 
HETATM   18  C24 UNL     1      13.003  35.147  23.175  1.00  0.00     0.100 A 
HETATM   19  C25 UNL     1      12.181  34.031  23.412  1.00  0.00    -0.006 A 
HETATM   20  C26 UNL     1      11.458  34.399  24.624  1.00  0.00     0.153 C 
HETATM   21  C27 UNL     1      10.943  33.322  25.529  1.00  0.00     0.043 C 
HETATM   22  C28 UNL     1      10.389  32.262  24.631  1.00  0.00     0.010 C 
HETATM   23  C29 UNL     1       9.045  31.686  25.051  1.00  0.00    -0.013 C 
HETATM   24  C30 UNL     1       9.124  30.830  26.296  1.00  0.00     0.020 C 
HETATM   25  C31 UNL     1       8.256  32.910  25.543  1.00  0.00     0.033 C 
HETATM   26  C32 UNL     1      11.469  31.402  24.195  1.00  0.00    -0.031 C 
HETATM   27  C33 UNL     1      11.348  29.952  24.558  1.00  0.00     0.016 C 
HETATM   28  C34 UNL     1      12.870  31.614  24.728  1.00  0.00     0.016 C 
ENDROOT
BRANCH  15  29
HETATM   29  C14 UNL     1      13.154  32.196  20.391  1.00  0.00     0.009 C 
HETATM   30  C15 UNL     1      13.755  32.529  19.230  1.00  0.00    -0.026 C 
BRANCH  30  31
HETATM   31  C16 UNL     1      13.807  31.605  18.063  1.00  0.00     0.027 C 
BRANCH  31  32
HETATM   32  C17 UNL     1      12.840  30.478  18.160  1.00  0.00     0.005 C 
BRANCH  32  33
HETATM   33  C18 UNL     1      11.493  30.927  17.654  1.00  0.00     0.021 C 
BRANCH  33  34
HETATM   34  C19 UNL     1      10.500  31.160  18.742  1.00  0.00     0.141 C 
BRANCH  34  35
HETATM   35  N2  UNL     1       9.779  32.394  18.461  1.00  0.00    -0.323 N 
ATOM     36  H2  UNL     1       8.880  32.345  17.983  1.00  0.00     0.181 HD
BRANCH  35  37
HETATM   37  N3  UNL     1      10.285  33.639  18.827  1.00  0.00    -0.254 N 
HETATM   38  N4  UNL     1       9.673  34.680  18.448  1.00  0.00    -0.331 N 
ATOM     39  H42 UNL     1       8.827  34.591  17.885  1.00  0.00     0.178 HD
ATOM     40  H41 UNL     1      10.043  35.591  18.716  1.00  0.00     0.178 HD
ATOM     41  H3  UNL     1      11.132  33.711  19.391  1.00  0.00     0.207 HD
ENDBRANCH  35  37
ENDBRANCH  34  35
ENDBRANCH  33  34
ENDBRANCH  32  33
ENDBRANCH  31  32
ENDBRANCH  30  31
ENDBRANCH  15  29
BRANCH  17  42
HETATM   42  C21 UNL     1      14.680  36.424  21.956  1.00  0.00     0.138 C 
BRANCH  42  43
HETATM   43  C22 UNL     1      14.996  36.483  20.464  1.00  0.00     0.133 C 
BRANCH  43  44
HETATM   44  C23 UNL     1      14.188  37.533  19.796  1.00  0.00     0.174 C 
HETATM   45  O2  UNL     1      14.710  38.577  19.340  1.00  0.00    -0.648 OA
HETATM   46  O3  UNL     1      12.819  37.377  19.662  1.00  0.00    -0.648 OA
ENDBRANCH  43  44
ENDBRANCH  42  43
ENDBRANCH  17  42
BRANCH  20  47
HETATM   47  O4  UNL     1      12.082  35.424  25.365  1.00  0.00    -0.391 OA
ATOM     48  H4  UNL     1      11.472  36.052  25.734  1.00  0.00     0.210 HD
ENDBRANCH  20  47
TORSDOF 11
ENDMDL
MODEL 3
REMARK VINA RESULT: -7.813444965      2.128      2.622
REMARK  11 active torsions:
REMARK  status: ('A' for Active; 'I' for Inactive)
REMARK    1  A    between atoms: C13_15  and  C14_16 
REMARK    2  A    between atoms: C15_17  and  C16_18 
REMARK    3  A    between atoms: C16_18  and  C17_19 
REMARK    4  A    between atoms: C17_19  and  C18_20 
REMARK    5  A    between atoms: C18_20  and  C19_21 
REMARK    6  A    between atoms: C19_21  and  N2_22 
REMARK    7  A    between atoms: N2_22  and  N3_24 
REMARK    8  A    between atoms: N5_30  and  C21_31 
REMARK    9  A    between atoms: C21_31  and  C22_32 
REMARK   10  A    between atoms: C22_32  and  C23_33 
REMARK   11  A    between atoms: C26_38  and  O4_39 
ROOT
HETATM    1  C1  UNL     1       6.031  53.718  21.291  1.00  0.00     0.153 C 
HETATM    2  N1  UNL     1       5.909  52.325  21.676  1.00  0.00    -0.347 N 
HETATM    3  C2  UNL     1       4.730  51.725  22.198  1.00  0.00     0.228 C 
HETATM    4  O1  UNL     1       3.676  52.382  22.501  1.00  0.00    -0.273 OA
HETATM    5  C3  UNL     1       5.009  50.304  22.286  1.00  0.00     0.041 C 
HETATM    6  C4  UNL     1       4.300  49.594  23.397  1.00  0.00     0.025 C 
HETATM    7  C5  UNL     1       6.502  50.299  22.658  1.00  0.00     0.049 C 
HETATM    8  C6  UNL     1       6.931  51.268  21.616  1.00  0.00     0.117 C 
HETATM    9  C7  UNL     1       6.971  50.641  20.202  1.00  0.00    -0.052 C 
HETATM   10  C8  UNL     1       8.282  50.104  19.905  1.00  0.00    -0.020 C 
HETATM   11  C9  UNL     1       8.643  48.712  19.644  1.00  0.00     0.042 C 
HETATM   12  C10 UNL     1       8.219  48.089  18.300  1.00  0.00    -0.005 C 
HETATM   13  C11 UNL     1       9.095  48.759  17.342  1.00  0.00     0.021 C 
HETATM   14  C12 UNL     1       8.120  46.672  18.479  1.00  0.00    -0.027 A 
HETATM   15  C13 UNL     1       9.147  45.902  18.070  1.00  0.00    -0.013 A 
HETATM   16  C20 UNL     1       9.124  44.475  18.103  1.00  0.00     0.102 A 
HETATM   17  N5  UNL     1       8.050  43.837  18.561  1.00  0.00    -0.364 N 
HETATM   18  C24 UNL     1       7.031  44.568  18.975  1.00  0.00     0.100 A 
HETATM   19  C25 UNL     1       6.998  45.973  18.962  1.00  0.00    -0.006 A 
HETATM   20  C26 UNL     1       5.681  46.284  19.508  1.00  0.00     0.153 C 
HETATM   21  C27 UNL     1       5.017  47.574  19.139  1.00  0.00     0.043 C 
HETATM   22  C28 UNL     1       6.092  48.613  19.169  1.00  0.00     0.010 C 
HETATM   23  C29 UNL     1       5.716  49.924  19.842  1.00  0.00    -0.013 C 
HETATM   24  C30 UNL     1       4.716  50.738  19.051  1.00  0.00     0.020 C 
HETATM   25  C31 UNL     1       4.892  49.488  21.064  1.00  0.00     0.033 C 
HETATM   26  C32 UNL     1       6.799  48.596  17.905  1.00  0.00    -0.031 C 
HETATM   27  C33 UNL     1       6.776  49.871  17.117  1.00  0.00     0.016 C 
HETATM   28  C34 UNL     1       6.341  47.677  16.792  1.00  0.00     0.016 C 
ENDROOT
BRANCH  15  29
HETATM   29  C14 UNL     1      10.430  46.421  17.754  1.00  0.00     0.009 C 
HETATM   30  C15 UNL     1      11.285  45.767  16.940  1.00  0.00    -0.026 C 
BRANCH  30  31
HETATM   31  C16 UNL     1      12.635  46.301  16.605  1.00  0.00     0.027 C 
BRANCH  31  32
HETATM   32  C17 UNL     1      13.417  46.722  17.799  1.00  0.00     0.005 C 
BRANCH  32  33
HETATM   33  C18 UNL     1      14.003  45.506  18.471  1.00  0.00     0.021 C 
BRANCH  33  34
HETATM   34  C19 UNL     1      13.148  44.965  19.566  1.00  0.00     0.141 C 
BRANCH  34  35
HETATM   35  N2  UNL     1      12.781  43.594  19.238  1.00  0.00    -0.323 N 
ATOM     36  H2  UNL     1      13.274  43.116  18.485  1.00  0.00     0.181 HD
BRANCH  35  37
HETATM   37  N3  UNL     1      11.774  42.919  19.924  1.00  0.00    -0.254 N 
HETATM   38  N4  UNL     1      11.842  41.659  20.020  1.00  0.00    -0.331 N 
ATOM     39  H42 UNL     1      12.626  41.162  19.598  1.00  0.00     0.178 HD
ATOM     40  H41 UNL     1      11.104  41.165  20.523  1.00  0.00     0.178 HD
ATOM     41  H3  UNL     1      10.996  43.431  20.341  1.00  0.00     0.207 HD
ENDBRANCH  35  37
ENDBRANCH  34  35
ENDBRANCH  33  34
ENDBRANCH  32  33
ENDBRANCH  31  32
ENDBRANCH  30  31
ENDBRANCH  15  29
BRANCH  17  42
HETATM   42  C21 UNL     1       8.043  42.388  18.586  1.00  0.00     0.138 C 
BRANCH  42  43
HETATM   43  C22 UNL     1       8.864  41.919  17.388  1.00  0.00     0.133 C 
BRANCH  43  44
HETATM   44  C23 UNL     1       9.627  40.690  17.721  1.00  0.00     0.174 C 
HETATM   45  O2  UNL     1      10.503  40.230  16.953  1.00  0.00    -0.648 OA
HETATM   46  O3  UNL     1       9.379  40.018  18.905  1.00  0.00    -0.648 OA
ENDBRANCH  43  44
ENDBRANCH  42  43
ENDBRANCH  17  42
BRANCH  20  47
HETATM   47  O4  UNL     1       4.772  45.208  19.434  1.00  0.00    -0.391 OA
ATOM     48  H4  UNL     1       4.286  45.177  18.618  1.00  0.00     0.210 HD
ENDBRANCH  20  47
TORSDOF 11
ENDMDL
MODEL 4
REMARK VINA RESULT: -7.515770567      3.442      7.969
REMARK  11 active torsions:
REMARK  status: ('A' for Active; 'I' for Inactive)
REMARK    1  A    between atoms: C13_15  and  C14_16 
REMARK    2  A    between atoms: C15_17  and  C16_18 
REMARK    3  A    between atoms: C16_18  and  C17_19 
REMARK    4  A    between atoms: C17_19  and  C18_20 
REMARK    5  A    between atoms: C18_20  and  C19_21 
REMARK    6  A    between atoms: C19_21  and  N2_22 
REMARK    7  A    between atoms: N2_22  and  N3_24 
REMARK    8  A    between atoms: N5_30  and  C21_31 
REMARK    9  A    between atoms: C21_31  and  C22_32 
REMARK   10  A    between atoms: C22_32  and  C23_33 
REMARK   11  A    between atoms: C26_38  and  O4_39 
ROOT
HETATM    1  C1  UNL     1       6.249  40.413  23.339  1.00  0.00     0.153 C 
HETATM    2  N1  UNL     1       7.464  41.204  23.322  1.00  0.00    -0.347 N 
HETATM    3  C2  UNL     1       8.755  40.721  23.671  1.00  0.00     0.228 C 
HETATM    4  O1  UNL     1       8.967  39.559  24.161  1.00  0.00    -0.273 OA
HETATM    5  C3  UNL     1       9.683  41.791  23.356  1.00  0.00     0.041 C 
HETATM    6  C4  UNL     1      10.893  41.850  24.235  1.00  0.00     0.025 C 
HETATM    7  C5  UNL     1       8.848  43.039  23.691  1.00  0.00     0.049 C 
HETATM    8  C6  UNL     1       7.627  42.620  22.955  1.00  0.00     0.117 C 
HETATM    9  C7  UNL     1       7.780  42.762  21.421  1.00  0.00    -0.052 C 
HETATM   10  C8  UNL     1       7.320  44.057  20.967  1.00  0.00    -0.020 C 
HETATM   11  C9  UNL     1       8.101  45.111  20.323  1.00  0.00     0.042 C 
HETATM   12  C10 UNL     1       8.550  44.897  18.865  1.00  0.00    -0.005 C 
HETATM   13  C11 UNL     1       7.300  45.021  18.120  1.00  0.00     0.021 C 
HETATM   14  C12 UNL     1       9.726  45.683  18.643  1.00  0.00    -0.027 A 
HETATM   15  C13 UNL     1       9.594  46.871  18.020  1.00  0.00    -0.013 A 
HETATM   16  C20 UNL     1      10.700  47.696  17.654  1.00  0.00     0.102 A 
HETATM   17  N5  UNL     1      11.942  47.305  17.931  1.00  0.00    -0.364 N 
HETATM   18  C24 UNL     1      12.100  46.148  18.547  1.00  0.00     0.100 A 
HETATM   19  C25 UNL     1      11.049  45.295  18.928  1.00  0.00    -0.006 A 
HETATM   20  C26 UNL     1      11.738  44.174  19.557  1.00  0.00     0.153 C 
HETATM   21  C27 UNL     1      11.086  42.825  19.572  1.00  0.00     0.043 C 
HETATM   22  C28 UNL     1       9.642  43.069  19.875  1.00  0.00     0.010 C 
HETATM   23  C29 UNL     1       9.020  42.126  20.893  1.00  0.00    -0.013 C 
HETATM   24  C30 UNL     1       8.847  40.716  20.374  1.00  0.00     0.020 C 
HETATM   25  C31 UNL     1      10.116  41.955  21.957  1.00  0.00     0.033 C 
HETATM   26  C32 UNL     1       8.954  43.407  18.647  1.00  0.00    -0.031 C 
HETATM   27  C33 UNL     1       7.831  42.498  18.247  1.00  0.00     0.016 C 
HETATM   28  C34 UNL     1       9.697  43.381  17.328  1.00  0.00     0.016 C 
ENDROOT
BRANCH  15  29
HETATM   29  C14 UNL     1       8.345  47.521  17.844  1.00  0.00     0.009 C 
HETATM   30  C15 UNL     1       8.156  48.812  18.189  1.00  0.00    -0.026 C 
BRANCH  30  31
HETATM   31  C16 UNL     1       6.848  49.503  18.010  1.00  0.00     0.027 C 
BRANCH  31  32
HETATM   32  C17 UNL     1       6.664  50.663  18.925  1.00  0.00     0.005 C 
BRANCH  32  33
HETATM   33  C18 UNL     1       7.321  50.367  20.249  1.00  0.00     0.021 C 
BRANCH  33  34
HETATM   34  C19 UNL     1       7.485  51.572  21.111  1.00  0.00     0.141 C 
BRANCH  34  35
HETATM   35  N2  UNL     1       8.185  52.598  20.351  1.00  0.00    -0.323 N 
ATOM     36  H2  UNL     1       9.017  52.341  19.820  1.00  0.00     0.181 HD
BRANCH  35  37
HETATM   37  N3  UNL     1       7.749  53.921  20.328  1.00  0.00    -0.254 N 
HETATM   38  N4  UNL     1       6.505  54.152  20.292  1.00  0.00    -0.331 N 
ATOM     39  H42 UNL     1       5.847  53.372  20.281  1.00  0.00     0.178 HD
ATOM     40  H41 UNL     1       6.187  55.120  20.275  1.00  0.00     0.178 HD
ATOM     41  H3  UNL     1       8.420  54.690  20.339  1.00  0.00     0.207 HD
ENDBRANCH  35  37
ENDBRANCH  34  35
ENDBRANCH  33  34
ENDBRANCH  32  33
ENDBRANCH  31  32
ENDBRANCH  30  31
ENDBRANCH  15  29
BRANCH  17  42
HETATM   42  C21 UNL     1      13.053  48.155  17.550  1.00  0.00     0.138 C 
BRANCH  42  43
HETATM   43  C22 UNL     1      12.478  49.540  17.271  1.00  0.00     0.133 C 
BRANCH  43  44
HETATM   44  C23 UNL     1      12.732  49.942  15.865  1.00  0.00     0.174 C 
HETATM   45  O2  UNL     1      12.057  49.482  14.915  1.00  0.00    -0.648 OA
HETATM   46  O3  UNL     1      13.737  50.848  15.573  1.00  0.00    -0.648 OA
ENDBRANCH  43  44
ENDBRANCH  42  43
ENDBRANCH  17  42
BRANCH  20  47
HETATM   47  O4  UNL     1      13.098  44.074  19.198  1.00  0.00    -0.391 OA
ATOM     48  H4  UNL     1      13.628  44.798  19.511  1.00  0.00     0.210 HD
ENDBRANCH  20  47
TORSDOF 11
ENDMDL
MODEL 5
REMARK VINA RESULT: -7.448055967      2.133      2.719
REMARK  11 active torsions:
REMARK  status: ('A' for Active; 'I' for Inactive)
REMARK    1  A    between atoms: C13_15  and  C14_16 
REMARK    2  A    between atoms: C15_17  and  C16_18 
REMARK    3  A    between atoms: C16_18  and  C17_19 
REMARK    4  A    between atoms: C17_19  and  C18_20 
REMARK    5  A    between atoms: C18_20  and  C19_21 
REMARK    6  A    between atoms: C19_21  and  N2_22 
REMARK    7  A    between atoms: N2_22  and  N3_24 
REMARK    8  A    between atoms: N5_30  and  C21_31 
REMARK    9  A    between atoms: C21_31  and  C22_32 
REMARK   10  A    between atoms: C22_32  and  C23_33 
REMARK   11  A    between atoms: C26_38  and  O4_39 
ROOT
HETATM    1  C1  UNL     1       2.351  52.971  19.902  1.00  0.00     0.153 C 
HETATM    2  N1  UNL     1       3.272  52.268  20.774  1.00  0.00    -0.347 N 
HETATM    3  C2  UNL     1       2.918  51.653  22.006  1.00  0.00     0.228 C 
HETATM    4  O1  UNL     1       1.763  51.759  22.544  1.00  0.00    -0.273 OA
HETATM    5  C3  UNL     1       4.099  50.938  22.452  1.00  0.00     0.041 C 
HETATM    6  C4  UNL     1       4.247  50.838  23.938  1.00  0.00     0.025 C 
HETATM    7  C5  UNL     1       5.228  51.867  21.971  1.00  0.00     0.049 C 
HETATM    8  C6  UNL     1       4.714  52.043  20.588  1.00  0.00     0.117 C 
HETATM    9  C7  UNL     1       4.953  50.796  19.703  1.00  0.00    -0.052 C 
HETATM   10  C8  UNL     1       6.211  50.890  18.993  1.00  0.00    -0.020 C 
HETATM   11  C9  UNL     1       7.377  50.018  19.115  1.00  0.00     0.042 C 
HETATM   12  C10 UNL     1       7.291  48.599  18.523  1.00  0.00    -0.005 C 
HETATM   13  C11 UNL     1       7.314  48.848  17.084  1.00  0.00     0.021 C 
HETATM   14  C12 UNL     1       8.214  47.765  19.232  1.00  0.00    -0.027 A 
HETATM   15  C13 UNL     1       9.410  47.509  18.668  1.00  0.00    -0.013 A 
HETATM   16  C20 UNL     1      10.372  46.615  19.229  1.00  0.00     0.102 A 
HETATM   17  N5  UNL     1      10.108  45.987  20.372  1.00  0.00    -0.364 N 
HETATM   18  C24 UNL     1       8.944  46.224  20.950  1.00  0.00     0.100 A 
HETATM   19  C25 UNL     1       7.961  47.091  20.442  1.00  0.00    -0.006 A 
HETATM   20  C26 UNL     1       6.892  47.003  21.430  1.00  0.00     0.153 C 
HETATM   21  C27 UNL     1       5.480  47.280  21.013  1.00  0.00     0.043 C 
HETATM   22  C28 UNL     1       5.546  48.463  20.101  1.00  0.00     0.010 C 
HETATM   23  C29 UNL     1       4.487  49.529  20.335  1.00  0.00    -0.013 C 
HETATM   24  C30 UNL     1       3.096  49.088  19.940  1.00  0.00     0.020 C 
HETATM   25  C31 UNL     1       4.384  49.616  21.866  1.00  0.00     0.033 C 
HETATM   26  C32 UNL     1       5.869  48.009  18.764  1.00  0.00    -0.031 C 
HETATM   27  C33 UNL     1       4.862  48.322  17.698  1.00  0.00     0.016 C 
HETATM   28  C34 UNL     1       5.995  46.527  18.476  1.00  0.00     0.016 C 
ENDROOT
BRANCH  15  29
HETATM   29  C14 UNL     1       9.926  48.248  17.571  1.00  0.00     0.009 C 
HETATM   30  C15 UNL     1      11.155  48.804  17.598  1.00  0.00    -0.026 C 
BRANCH  30  31
HETATM   31  C16 UNL     1      11.705  49.584  16.453  1.00  0.00     0.027 C 
BRANCH  31  32
HETATM   32  C17 UNL     1      12.991  49.042  15.934  1.00  0.00     0.005 C 
BRANCH  32  33
HETATM   33  C18 UNL     1      12.708  47.987  14.895  1.00  0.00     0.021 C 
BRANCH  33  34
HETATM   34  C19 UNL     1      12.538  46.621  15.469  1.00  0.00     0.141 C 
BRANCH  34  35
HETATM   35  N2  UNL     1      13.540  46.423  16.508  1.00  0.00    -0.323 N 
ATOM     36  H2  UNL     1      14.490  46.757  16.350  1.00  0.00     0.181 HD
BRANCH  35  37
HETATM   37  N3  UNL     1      13.235  45.791  17.711  1.00  0.00    -0.254 N 
HETATM   38  N4  UNL     1      14.180  45.499  18.502  1.00  0.00    -0.331 N 
ATOM     39  H42 UNL     1      15.141  45.730  18.247  1.00  0.00     0.178 HD
ATOM     40  H41 UNL     1      13.956  45.037  19.383  1.00  0.00     0.178 HD
ATOM     41  H3  UNL     1      12.269  45.568  17.951  1.00  0.00     0.207 HD
ENDBRANCH  35  37
ENDBRANCH  34  35
ENDBRANCH  33  34
ENDBRANCH  32  33
ENDBRANCH  31  32
ENDBRANCH  30  31
ENDBRANCH  15  29
BRANCH  17  42
HETATM   42  C21 UNL     1      11.094  45.081  20.927  1.00  0.00     0.138 C 
BRANCH  42  43
HETATM   43  C22 UNL     1      10.548  43.667  20.748  1.00  0.00     0.133 C 
BRANCH  43  44
HETATM   44  C23 UNL     1      11.348  42.916  19.749  1.00  0.00     0.174 C 
HETATM   45  O2  UNL     1      12.468  43.322  19.362  1.00  0.00    -0.648 OA
HETATM   46  O3  UNL     1      10.863  41.733  19.218  1.00  0.00    -0.648 OA
ENDBRANCH  43  44
ENDBRANCH  42  43
ENDBRANCH  17  42
BRANCH  20  47
HETATM   47  O4  UNL     1       6.963  45.848  22.237  1.00  0.00    -0.391 OA
ATOM     48  H4  UNL     1       7.291  46.015  23.112  1.00  0.00     0.210 HD
ENDBRANCH  20  47
TORSDOF 11
ENDMDL
