MODEL 1
REMARK VINA RESULT: -8.057080148      0.000      0.000
REMARK  12 active torsions:
REMARK  status: ('A' for Active; 'I' for Inactive)
REMARK    1  A    between atoms: C3_3  and  C4_4 
REMARK    2  A    between atoms: C7_7  and  N1_8 
REMARK       I    between atoms: N1_8  and  C8_10 
REMARK    3  A    between atoms: C8_10  and  C9_12 
REMARK    4  A    between atoms: C9_12  and  C10_13 
REMARK    5  A    between atoms: N2_16  and  C13_17 
REMARK    6  A    between atoms: C16_22  and  O2_23 
REMARK    7  A    between atoms: C17_25  and  C18_26 
REMARK    8  A    between atoms: C18_26  and  C19_27 
REMARK    9  A    between atoms: C20_28  and  C21_29 
REMARK   10  A    between atoms: C21_29  and  C22_30 
REMARK   11  A    between atoms: C25_33  and  C26_34 
REMARK   12  A    between atoms: C26_34  and  C27_35 
ROOT
HETATM    1  C1  UNL     1      12.788  46.630  15.552  1.00  0.00     0.097 C 
HETATM    2  C2  UNL     1      12.949  46.291  16.716  1.00  0.00    -0.183 C 
HETATM    3  C3  UNL     1      13.146  45.890  18.109  1.00  0.00     0.124 C 
ENDROOT
BRANCH   3   4
HETATM    4  C4  UNL     1      11.851  45.489  18.707  1.00  0.00     0.033 A 
HETATM    5  C5  UNL     1      11.460  44.400  19.317  1.00  0.00     0.005 A 
HETATM    6  C6  UNL     1      12.164  43.250  19.600  1.00  0.00     0.044 A 
HETATM    7  C35 UNL     1      10.143  44.507  19.704  1.00  0.00     0.046 A 
HETATM    8  C7  UNL     1      11.599  42.168  20.271  1.00  0.00     0.035 A 
HETATM    9  C33 UNL     1      10.289  42.295  20.646  1.00  0.00     0.032 A 
HETATM   10  C34 UNL     1       9.557  43.455  20.368  1.00  0.00     0.033 A 
HETATM   11  N5  UNL     1       9.659  45.659  19.354  1.00  0.00    -0.322 N 
HETATM   12  C36 UNL     1      10.674  46.381  18.699  1.00  0.00     0.254 A 
ATOM     13  H5  UNL     1       8.707  45.984  19.523  1.00  0.00     0.169 HD
HETATM   14  O3  UNL     1      10.602  47.539  18.209  1.00  0.00    -0.268 OA
BRANCH   8  15
HETATM   15  N1  UNL     1      12.323  40.998  20.525  1.00  0.00    -0.327 N 
HETATM   16  C8  UNL     1      12.318  39.781  19.849  1.00  0.00     0.226 C 
HETATM   17  O1  UNL     1      11.603  39.525  18.835  1.00  0.00    -0.273 OA
ATOM     18  H1  UNL     1      12.951  41.045  21.328  1.00  0.00     0.169 HD
BRANCH  16  19
HETATM   19  C9  UNL     1      13.205  38.636  20.301  1.00  0.00     0.142 C 
BRANCH  19  20
HETATM   20  C10 UNL     1      13.150  38.479  21.763  1.00  0.00    -0.034 A 
HETATM   21  C11 UNL     1      14.009  39.294  22.531  1.00  0.00     0.026 A 
HETATM   22  C12 UNL     1      14.057  39.137  23.892  1.00  0.00     0.093 A 
HETATM   23  N2  UNL     1      13.302  38.223  24.520  1.00  0.00    -0.343 N 
HETATM   24  C15 UNL     1      12.465  37.425  23.822  1.00  0.00     0.120 A 
HETATM   25  N3  UNL     1      11.615  36.456  24.205  1.00  0.00    -0.322 N 
HETATM   26  C32 UNL     1      12.385  37.553  22.429  1.00  0.00     0.026 A 
HETATM   27  C16 UNL     1      10.980  35.939  23.167  1.00  0.00     0.149 A 
ATOM     28  H3  UNL     1      11.478  36.159  25.171  1.00  0.00     0.169 HD
HETATM   29  C17 UNL     1      11.437  36.608  22.033  1.00  0.00     0.012 A 
BRANCH  23  30
HETATM   30  C13 UNL     1      13.375  38.079  25.964  1.00  0.00     0.125 C 
HETATM   31  C14 UNL     1      14.707  37.511  26.406  1.00  0.00     0.027 C 
ENDBRANCH  23  30
BRANCH  27  32
HETATM   32  O2  UNL     1      10.027  34.918  23.154  1.00  0.00    -0.346 OA
ATOM     33  H2  UNL     1       9.474  34.637  22.435  1.00  0.00     0.219 HD
ENDBRANCH  27  32
BRANCH  29  34
HETATM   34  C18 UNL     1      10.981  36.415  20.645  1.00  0.00     0.085 C 
BRANCH  34  35
HETATM   35  C19 UNL     1      11.099  35.009  20.152  1.00  0.00    -0.025 A 
HETATM   36  C20 UNL     1      12.329  34.416  20.064  1.00  0.00    -0.048 A 
HETATM   37  C24 UNL     1      12.357  33.106  19.559  1.00  0.00     0.033 A 
HETATM   38  C25 UNL     1      11.178  32.486  19.183  1.00  0.00     0.011 A 
HETATM   39  N4  UNL     1       9.990  33.091  19.283  1.00  0.00    -0.358 N 
HETATM   40  C29 UNL     1       8.773  32.417  18.883  1.00  0.00     0.156 C 
HETATM   41  C30 UNL     1       9.929  34.346  19.761  1.00  0.00     0.014 A 
HETATM   42  C31 UNL     1       8.619  35.065  19.881  1.00  0.00     0.069 C 
BRANCH  36  43
HETATM   43  C21 UNL     1      13.610  35.012  20.493  1.00  0.00     0.039 C 
BRANCH  43  44
HETATM   44  C22 UNL     1      14.178  34.370  21.730  1.00  0.00     0.000 C 
HETATM   45  C23 UNL     1      15.201  35.338  22.316  1.00  0.00     0.005 C 
ENDBRANCH  43  44
ENDBRANCH  36  43
BRANCH  38  46
HETATM   46  C26 UNL     1      11.225  31.101  18.637  1.00  0.00     0.057 C 
BRANCH  46  47
HETATM   47  C27 UNL     1      12.435  30.349  19.164  1.00  0.00     0.002 C 
HETATM   48  C28 UNL     1      13.257  29.788  18.030  1.00  0.00     0.005 C 
ENDBRANCH  46  47
ENDBRANCH  38  46
ENDBRANCH  34  35
ENDBRANCH  29  34
ENDBRANCH  19  20
ENDBRANCH  16  19
ENDBRANCH   8  15
ENDBRANCH   3   4
TORSDOF 12
ENDMDL
MODEL 2
REMARK VINA RESULT: -7.913476641      4.283      9.441
REMARK  12 active torsions:
REMARK  status: ('A' for Active; 'I' for Inactive)
REMARK    1  A    between atoms: C3_3  and  C4_4 
REMARK    2  A    between atoms: C7_7  and  N1_8 
REMARK       I    between atoms: N1_8  and  C8_10 
REMARK    3  A    between atoms: C8_10  and  C9_12 
REMARK    4  A    between atoms: C9_12  and  C10_13 
REMARK    5  A    between atoms: N2_16  and  C13_17 
REMARK    6  A    between atoms: C16_22  and  O2_23 
REMARK    7  A    between atoms: C17_25  and  C18_26 
REMARK    8  A    between atoms: C18_26  and  C19_27 
REMARK    9  A    between atoms: C20_28  and  C21_29 
REMARK   10  A    between atoms: C21_29  and  C22_30 
REMARK   11  A    between atoms: C25_33  and  C26_34 
REMARK   12  A    between atoms: C26_34  and  C27_35 
ROOT
HETATM    1  C1  UNL     1      18.303  29.511  24.884  1.00  0.00     0.097 C 
HETATM    2  C2  UNL     1      17.288  30.099  25.234  1.00  0.00    -0.183 C 
HETATM    3  C3  UNL     1      16.073  30.796  25.653  1.00  0.00     0.124 C 
ENDROOT
BRANCH   3   4
HETATM    4  C4  UNL     1      16.418  32.136  26.182  1.00  0.00     0.033 A 
HETATM    5  C5  UNL     1      16.491  33.315  25.619  1.00  0.00     0.005 A 
HETATM    6  C6  UNL     1      16.261  33.680  24.311  1.00  0.00     0.044 A 
HETATM    7  C35 UNL     1      16.851  34.271  26.543  1.00  0.00     0.046 A 
HETATM    8  C7  UNL     1      16.377  34.995  23.866  1.00  0.00     0.035 A 
HETATM    9  C33 UNL     1      16.736  35.929  24.799  1.00  0.00     0.032 A 
HETATM   10  C34 UNL     1      16.974  35.578  26.133  1.00  0.00     0.033 A 
HETATM   11  N5  UNL     1      17.017  33.735  27.712  1.00  0.00    -0.322 N 
HETATM   12  C36 UNL     1      16.764  32.355  27.601  1.00  0.00     0.254 A 
ATOM     13  H5  UNL     1      17.286  34.228  28.564  1.00  0.00     0.169 HD
HETATM   14  O3  UNL     1      16.819  31.486  28.511  1.00  0.00    -0.268 OA
BRANCH   8  15
HETATM   15  N1  UNL     1      16.165  35.341  22.527  1.00  0.00    -0.327 N 
HETATM   16  C8  UNL     1      15.376  36.350  21.980  1.00  0.00     0.226 C 
HETATM   17  O1  UNL     1      14.676  37.161  22.655  1.00  0.00    -0.273 OA
ATOM     18  H1  UNL     1      16.664  34.767  21.848  1.00  0.00     0.169 HD
BRANCH  16  19
HETATM   19  C9  UNL     1      15.302  36.552  20.477  1.00  0.00     0.142 C 
BRANCH  19  20
HETATM   20  C10 UNL     1      13.994  37.102  20.090  1.00  0.00    -0.034 A 
HETATM   21  C11 UNL     1      13.916  38.497  19.886  1.00  0.00     0.026 A 
HETATM   22  C12 UNL     1      12.707  39.076  19.601  1.00  0.00     0.093 A 
HETATM   23  N2  UNL     1      11.584  38.346  19.507  1.00  0.00    -0.343 N 
HETATM   24  C15 UNL     1      11.616  37.009  19.693  1.00  0.00     0.120 A 
HETATM   25  N3  UNL     1      10.654  36.070  19.648  1.00  0.00    -0.322 N 
HETATM   26  C32 UNL     1      12.832  36.377  19.986  1.00  0.00     0.026 A 
HETATM   27  C16 UNL     1      11.148  34.867  19.888  1.00  0.00     0.149 A 
ATOM     28  H3  UNL     1       9.671  36.261  19.454  1.00  0.00     0.169 HD
HETATM   29  C17 UNL     1      12.517  35.022  20.102  1.00  0.00     0.012 A 
BRANCH  23  30
HETATM   30  C13 UNL     1      10.317  38.988  19.204  1.00  0.00     0.125 C 
HETATM   31  C14 UNL     1      10.231  39.405  17.751  1.00  0.00     0.027 C 
ENDBRANCH  23  30
BRANCH  27  32
HETATM   32  O2  UNL     1      10.473  33.646  19.932  1.00  0.00    -0.346 OA
ATOM     33  H2  UNL     1      10.409  33.033  20.655  1.00  0.00     0.219 HD
ENDBRANCH  27  32
BRANCH  29  34
HETATM   34  C18 UNL     1      13.501  33.956  20.355  1.00  0.00     0.085 C 
BRANCH  34  35
HETATM   35  C19 UNL     1      12.942  32.759  21.055  1.00  0.00    -0.025 A 
HETATM   36  C20 UNL     1      12.771  31.586  20.373  1.00  0.00    -0.048 A 
HETATM   37  C24 UNL     1      12.209  30.520  21.095  1.00  0.00     0.033 A 
HETATM   38  C25 UNL     1      11.863  30.692  22.424  1.00  0.00     0.011 A 
HETATM   39  N4  UNL     1      12.044  31.853  23.064  1.00  0.00    -0.358 N 
HETATM   40  C29 UNL     1      11.674  32.003  24.455  1.00  0.00     0.156 C 
HETATM   41  C30 UNL     1      12.579  32.893  22.401  1.00  0.00     0.014 A 
HETATM   42  C31 UNL     1      12.792  34.214  23.078  1.00  0.00     0.069 C 
BRANCH  36  43
HETATM   43  C21 UNL     1      13.165  31.332  18.973  1.00  0.00     0.039 C 
BRANCH  43  44
HETATM   44  C22 UNL     1      12.502  30.118  18.380  1.00  0.00     0.000 C 
HETATM   45  C23 UNL     1      12.040  30.493  16.975  1.00  0.00     0.005 C 
ENDBRANCH  43  44
ENDBRANCH  36  43
BRANCH  38  46
HETATM   46  C26 UNL     1      11.255  29.557  23.173  1.00  0.00     0.057 C 
BRANCH  46  47
HETATM   47  C27 UNL     1       9.793  29.382  22.801  1.00  0.00     0.002 C 
HETATM   48  C28 UNL     1       8.896  29.738  23.961  1.00  0.00     0.005 C 
ENDBRANCH  46  47
ENDBRANCH  38  46
ENDBRANCH  34  35
ENDBRANCH  29  34
ENDBRANCH  19  20
ENDBRANCH  16  19
ENDBRANCH   8  15
ENDBRANCH   3   4
TORSDOF 12
ENDMDL
MODEL 3
REMARK VINA RESULT: -7.885157724      7.646     13.171
REMARK  12 active torsions:
REMARK  status: ('A' for Active; 'I' for Inactive)
REMARK    1  A    between atoms: C3_3  and  C4_4 
REMARK    2  A    between atoms: C7_7  and  N1_8 
REMARK       I    between atoms: N1_8  and  C8_10 
REMARK    3  A    between atoms: C8_10  and  C9_12 
REMARK    4  A    between atoms: C9_12  and  C10_13 
REMARK    5  A    between atoms: N2_16  and  C13_17 
REMARK    6  A    between atoms: C16_22  and  O2_23 
REMARK    7  A    between atoms: C17_25  and  C18_26 
REMARK    8  A    between atoms: C18_26  and  C19_27 
REMARK    9  A    between atoms: C20_28  and  C21_29 
REMARK   10  A    between atoms: C21_29  and  C22_30 
REMARK   11  A    between atoms: C25_33  and  C26_34 
REMARK   12  A    between atoms: C26_34  and  C27_35 
ROOT
HETATM    1  C1  UNL     1      13.523  48.754  17.384  1.00  0.00     0.097 C 
HETATM    2  C2  UNL     1      13.080  47.664  17.052  1.00  0.00    -0.183 C 
HETATM    3  C3  UNL     1      12.553  46.361  16.648  1.00  0.00     0.124 C 
ENDROOT
BRANCH   3   4
HETATM    4  C4  UNL     1      12.343  45.510  17.843  1.00  0.00     0.033 A 
HETATM    5  C5  UNL     1      11.279  44.933  18.339  1.00  0.00     0.005 A 
HETATM    6  C6  UNL     1       9.979  44.942  17.882  1.00  0.00     0.044 A 
HETATM    7  C35 UNL     1      11.596  44.230  19.481  1.00  0.00     0.046 A 
HETATM    8  C7  UNL     1       8.949  44.264  18.529  1.00  0.00     0.035 A 
HETATM    9  C33 UNL     1       9.286  43.573  19.661  1.00  0.00     0.032 A 
HETATM   10  C34 UNL     1      10.600  43.551  20.142  1.00  0.00     0.033 A 
HETATM   11  N5  UNL     1      12.862  44.338  19.744  1.00  0.00    -0.322 N 
HETATM   12  C36 UNL     1      13.449  45.145  18.751  1.00  0.00     0.254 A 
ATOM     13  H5  UNL     1      13.347  43.913  20.534  1.00  0.00     0.169 HD
HETATM   14  O3  UNL     1      14.657  45.487  18.651  1.00  0.00    -0.268 OA
BRANCH   8  15
HETATM   15  N1  UNL     1       7.631  44.309  18.064  1.00  0.00    -0.327 N 
HETATM   16  C8  UNL     1       7.044  43.662  16.979  1.00  0.00     0.226 C 
HETATM   17  O1  UNL     1       7.658  42.885  16.189  1.00  0.00    -0.273 OA
ATOM     18  H1  UNL     1       7.003  44.907  18.601  1.00  0.00     0.169 HD
BRANCH  16  19
HETATM   19  C9  UNL     1       5.573  43.852  16.660  1.00  0.00     0.142 C 
BRANCH  19  20
HETATM   20  C10 UNL     1       5.403  44.688  15.462  1.00  0.00    -0.034 A 
HETATM   21  C11 UNL     1       5.585  44.064  14.209  1.00  0.00     0.026 A 
HETATM   22  C12 UNL     1       5.516  44.810  13.062  1.00  0.00     0.093 A 
HETATM   23  N2  UNL     1       5.278  46.131  13.096  1.00  0.00    -0.343 N 
HETATM   24  C15 UNL     1       5.097  46.766  14.275  1.00  0.00     0.120 A 
HETATM   25  N3  UNL     1       4.843  48.052  14.575  1.00  0.00    -0.322 N 
HETATM   26  C32 UNL     1       5.158  46.040  15.471  1.00  0.00     0.026 A 
HETATM   27  C16 UNL     1       4.730  48.224  15.881  1.00  0.00     0.149 A 
ATOM     28  H3  UNL     1       4.749  48.797  13.885  1.00  0.00     0.169 HD
HETATM   29  C17 UNL     1       4.919  46.979  16.477  1.00  0.00     0.012 A 
BRANCH  23  30
HETATM   30  C13 UNL     1       5.213  46.896  11.864  1.00  0.00     0.125 C 
HETATM   31  C14 UNL     1       6.592  47.210  11.323  1.00  0.00     0.027 C 
ENDBRANCH  23  30
BRANCH  27  32
HETATM   32  O2  UNL     1       4.473  49.405  16.581  1.00  0.00    -0.346 OA
ATOM     33  H2  UNL     1       4.383  49.528  17.518  1.00  0.00     0.219 HD
ENDBRANCH  27  32
BRANCH  29  34
HETATM   34  C18 UNL     1       4.835  46.660  17.912  1.00  0.00     0.085 C 
BRANCH  34  35
HETATM   35  C19 UNL     1       5.245  47.779  18.814  1.00  0.00    -0.025 A 
HETATM   36  C20 UNL     1       6.557  48.161  18.876  1.00  0.00    -0.048 A 
HETATM   37  C24 UNL     1       6.865  49.198  19.772  1.00  0.00     0.033 A 
HETATM   38  C25 UNL     1       5.862  49.775  20.531  1.00  0.00     0.011 A 
HETATM   39  N4  UNL     1       4.586  49.380  20.447  1.00  0.00    -0.358 N 
HETATM   40  C29 UNL     1       3.558  50.003  21.253  1.00  0.00     0.156 C 
HETATM   41  C30 UNL     1       4.259  48.389  19.599  1.00  0.00     0.014 A 
HETATM   42  C31 UNL     1       2.843  47.911  19.480  1.00  0.00     0.069 C 
BRANCH  36  43
HETATM   43  C21 UNL     1       7.658  47.615  18.057  1.00  0.00     0.039 C 
BRANCH  43  44
HETATM   44  C22 UNL     1       8.445  48.676  17.336  1.00  0.00     0.000 C 
HETATM   45  C23 UNL     1       9.842  48.700  17.947  1.00  0.00     0.005 C 
ENDBRANCH  43  44
ENDBRANCH  36  43
BRANCH  38  46
HETATM   46  C26 UNL     1       6.205  50.864  21.487  1.00  0.00     0.057 C 
BRANCH  46  47
HETATM   47  C27 UNL     1       7.452  51.607  21.039  1.00  0.00     0.002 C 
HETATM   48  C28 UNL     1       7.090  52.899  20.349  1.00  0.00     0.005 C 
ENDBRANCH  46  47
ENDBRANCH  38  46
ENDBRANCH  34  35
ENDBRANCH  29  34
ENDBRANCH  19  20
ENDBRANCH  16  19
ENDBRANCH   8  15
ENDBRANCH   3   4
TORSDOF 12
ENDMDL
MODEL 4
REMARK VINA RESULT: -7.844168716      1.558      2.857
REMARK  12 active torsions:
REMARK  status: ('A' for Active; 'I' for Inactive)
REMARK    1  A    between atoms: C3_3  and  C4_4 
REMARK    2  A    between atoms: C7_7  and  N1_8 
REMARK       I    between atoms: N1_8  and  C8_10 
REMARK    3  A    between atoms: C8_10  and  C9_12 
REMARK    4  A    between atoms: C9_12  and  C10_13 
REMARK    5  A    between atoms: N2_16  and  C13_17 
REMARK    6  A    between atoms: C16_22  and  O2_23 
REMARK    7  A    between atoms: C17_25  and  C18_26 
REMARK    8  A    between atoms: C18_26  and  C19_27 
REMARK    9  A    between atoms: C20_28  and  C21_29 
REMARK   10  A    between atoms: C21_29  and  C22_30 
REMARK   11  A    between atoms: C25_33  and  C26_34 
REMARK   12  A    between atoms: C26_34  and  C27_35 
ROOT
HETATM    1  C1  UNL     1      13.916  45.490  18.382  1.00  0.00     0.097 C 
HETATM    2  C2  UNL     1      13.171  45.118  19.279  1.00  0.00    -0.183 C 
HETATM    3  C3  UNL     1      12.284  44.678  20.354  1.00  0.00     0.124 C 
ENDROOT
BRANCH   3   4
HETATM    4  C4  UNL     1      11.151  43.908  19.790  1.00  0.00     0.033 A 
HETATM    5  C5  UNL     1      10.959  42.627  19.606  1.00  0.00     0.005 A 
HETATM    6  C6  UNL     1      11.787  41.564  19.893  1.00  0.00     0.044 A 
HETATM    7  C35 UNL     1       9.723  42.397  19.045  1.00  0.00     0.046 A 
HETATM    8  C7  UNL     1      11.430  40.242  19.639  1.00  0.00     0.035 A 
HETATM    9  C33 UNL     1      10.198  40.036  19.081  1.00  0.00     0.032 A 
HETATM   10  C34 UNL     1       9.342  41.102  18.782  1.00  0.00     0.033 A 
HETATM   11  N5  UNL     1       9.095  43.516  18.856  1.00  0.00    -0.322 N 
HETATM   12  C36 UNL     1       9.922  44.565  19.301  1.00  0.00     0.254 A 
ATOM     13  H5  UNL     1       8.163  43.618  18.454  1.00  0.00     0.169 HD
HETATM   14  O3  UNL     1       9.675  45.799  19.287  1.00  0.00    -0.268 OA
BRANCH   8  15
HETATM   15  N1  UNL     1      12.297  39.179  19.913  1.00  0.00    -0.327 N 
HETATM   16  C8  UNL     1      13.630  38.997  19.552  1.00  0.00     0.226 C 
HETATM   17  O1  UNL     1      14.306  39.819  18.866  1.00  0.00    -0.273 OA
ATOM     18  H1  UNL     1      11.891  38.421  20.462  1.00  0.00     0.169 HD
BRANCH  16  19
HETATM   19  C9  UNL     1      14.388  37.752  19.973  1.00  0.00     0.142 C 
BRANCH  19  20
HETATM   20  C10 UNL     1      14.313  37.565  21.431  1.00  0.00    -0.034 A 
HETATM   21  C11 UNL     1      14.680  38.662  22.241  1.00  0.00     0.026 A 
HETATM   22  C12 UNL     1      14.705  38.522  23.603  1.00  0.00     0.093 A 
HETATM   23  N2  UNL     1      14.387  37.360  24.196  1.00  0.00    -0.343 N 
HETATM   24  C15 UNL     1      14.029  36.287  23.457  1.00  0.00     0.120 A 
HETATM   25  N3  UNL     1      13.666  35.039  23.799  1.00  0.00    -0.322 N 
HETATM   26  C32 UNL     1      13.990  36.388  22.060  1.00  0.00     0.026 A 
HETATM   27  C16 UNL     1      13.388  34.312  22.731  1.00  0.00     0.149 A 
ATOM     28  H3  UNL     1      13.611  34.697  24.759  1.00  0.00     0.169 HD
HETATM   29  C17 UNL     1      13.577  35.129  21.618  1.00  0.00     0.012 A 
BRANCH  23  30
HETATM   30  C13 UNL     1      14.424  37.241  25.643  1.00  0.00     0.125 C 
HETATM   31  C14 UNL     1      13.175  37.809  26.286  1.00  0.00     0.027 C 
ENDBRANCH  23  30
BRANCH  27  32
HETATM   32  O2  UNL     1      12.980  32.977  22.672  1.00  0.00    -0.346 OA
ATOM     33  H2  UNL     1      13.370  32.262  22.184  1.00  0.00     0.219 HD
ENDBRANCH  27  32
BRANCH  29  34
HETATM   34  C18 UNL     1      13.341  34.777  20.207  1.00  0.00     0.085 C 
BRANCH  34  35
HETATM   35  C19 UNL     1      12.034  34.096  19.957  1.00  0.00    -0.025 A 
HETATM   36  C20 UNL     1      12.009  32.780  19.585  1.00  0.00    -0.048 A 
HETATM   37  C24 UNL     1      10.743  32.225  19.337  1.00  0.00     0.033 A 
HETATM   38  C25 UNL     1       9.608  33.005  19.474  1.00  0.00     0.011 A 
HETATM   39  N4  UNL     1       9.665  34.290  19.840  1.00  0.00    -0.358 N 
HETATM   40  C29 UNL     1       8.461  35.081  19.976  1.00  0.00     0.156 C 
HETATM   41  C30 UNL     1      10.862  34.852  20.085  1.00  0.00     0.014 A 
HETATM   42  C31 UNL     1      10.971  36.291  20.490  1.00  0.00     0.069 C 
BRANCH  36  43
HETATM   43  C21 UNL     1      13.182  31.890  19.470  1.00  0.00     0.039 C 
BRANCH  43  44
HETATM   44  C22 UNL     1      12.819  30.430  19.450  1.00  0.00     0.000 C 
HETATM   45  C23 UNL     1      13.206  29.885  18.079  1.00  0.00     0.005 C 
ENDBRANCH  43  44
ENDBRANCH  36  43
BRANCH  38  46
HETATM   46  C26 UNL     1       8.273  32.406  19.193  1.00  0.00     0.057 C 
BRANCH  46  47
HETATM   47  C27 UNL     1       7.776  31.607  20.386  1.00  0.00     0.002 C 
HETATM   48  C28 UNL     1       6.307  31.289  20.245  1.00  0.00     0.005 C 
ENDBRANCH  46  47
ENDBRANCH  38  46
ENDBRANCH  34  35
ENDBRANCH  29  34
ENDBRANCH  19  20
ENDBRANCH  16  19
ENDBRANCH   8  15
ENDBRANCH   3   4
TORSDOF 12
ENDMDL
MODEL 5
REMARK VINA RESULT: -7.819769602      7.485     14.004
REMARK  12 active torsions:
REMARK  status: ('A' for Active; 'I' for Inactive)
REMARK    1  A    between atoms: C3_3  and  C4_4 
REMARK    2  A    between atoms: C7_7  and  N1_8 
REMARK       I    between atoms: N1_8  and  C8_10 
REMARK    3  A    between atoms: C8_10  and  C9_12 
REMARK    4  A    between atoms: C9_12  and  C10_13 
REMARK    5  A    between atoms: N2_16  and  C13_17 
REMARK    6  A    between atoms: C16_22  and  O2_23 
REMARK    7  A    between atoms: C17_25  and  C18_26 
REMARK    8  A    between atoms: C18_26  and  C19_27 
REMARK    9  A    between atoms: C20_28  and  C21_29 
REMARK   10  A    between atoms: C21_29  and  C22_30 
REMARK   11  A    between atoms: C25_33  and  C26_34 
REMARK   12  A    between atoms: C26_34  and  C27_35 
ROOT
HETATM    1  C1  UNL     1      12.794  46.971  15.026  1.00  0.00     0.097 C 
HETATM    2  C2  UNL     1      12.739  47.095  16.241  1.00  0.00    -0.183 C 
HETATM    3  C3  UNL     1      12.670  47.249  17.694  1.00  0.00     0.124 C 
ENDROOT
BRANCH   3   4
HETATM    4  C4  UNL     1      12.433  45.932  18.330  1.00  0.00     0.033 A 
HETATM    5  C5  UNL     1      11.340  45.261  18.589  1.00  0.00     0.005 A 
HETATM    6  C6  UNL     1      10.026  45.590  18.337  1.00  0.00     0.044 A 
HETATM    7  C35 UNL     1      11.640  44.062  19.196  1.00  0.00     0.046 A 
HETATM    8  C7  UNL     1       8.964  44.754  18.672  1.00  0.00     0.035 A 
HETATM    9  C33 UNL     1       9.284  43.568  19.275  1.00  0.00     0.032 A 
HETATM   10  C34 UNL     1      10.612  43.215  19.539  1.00  0.00     0.033 A 
HETATM   11  N5  UNL     1      12.922  43.934  19.341  1.00  0.00    -0.322 N 
HETATM   12  C36 UNL     1      13.541  45.085  18.817  1.00  0.00     0.254 A 
ATOM     13  H5  UNL     1      13.400  43.137  19.763  1.00  0.00     0.169 HD
HETATM   14  O3  UNL     1      14.771  45.345  18.770  1.00  0.00    -0.268 OA
BRANCH   8  15
HETATM   15  N1  UNL     1       7.635  45.119  18.432  1.00  0.00    -0.327 N 
HETATM   16  C8  UNL     1       6.522  44.321  18.177  1.00  0.00     0.226 C 
HETATM   17  O1  UNL     1       6.545  43.056  18.112  1.00  0.00    -0.273 OA
ATOM     18  H1  UNL     1       7.453  46.122  18.447  1.00  0.00     0.169 HD
BRANCH  16  19
HETATM   19  C9  UNL     1       5.155  44.940  17.953  1.00  0.00     0.142 C 
BRANCH  19  20
HETATM   20  C10 UNL     1       5.038  45.461  16.582  1.00  0.00    -0.034 A 
HETATM   21  C11 UNL     1       4.522  44.586  15.602  1.00  0.00     0.026 A 
HETATM   22  C12 UNL     1       4.463  44.990  14.294  1.00  0.00     0.093 A 
HETATM   23  N2  UNL     1       4.886  46.206  13.915  1.00  0.00    -0.343 N 
HETATM   24  C15 UNL     1       5.385  47.074  14.822  1.00  0.00     0.120 A 
HETATM   25  N3  UNL     1       5.858  48.327  14.704  1.00  0.00    -0.322 N 
HETATM   26  C32 UNL     1       5.461  46.701  16.170  1.00  0.00     0.026 A 
HETATM   27  C16 UNL     1       6.239  48.806  15.876  1.00  0.00     0.149 A 
ATOM     28  H3  UNL     1       5.916  48.841  13.825  1.00  0.00     0.169 HD
HETATM   29  C17 UNL     1       6.001  47.812  16.822  1.00  0.00     0.012 A 
BRANCH  23  30
HETATM   30  C13 UNL     1       4.812  46.606  12.520  1.00  0.00     0.125 C 
HETATM   31  C14 UNL     1       6.093  46.291  11.776  1.00  0.00     0.027 C 
ENDBRANCH  23  30
BRANCH  27  32
HETATM   32  O2  UNL     1       6.783  50.060  16.165  1.00  0.00    -0.346 OA
ATOM     33  H2  UNL     1       6.482  50.702  16.797  1.00  0.00     0.219 HD
ENDBRANCH  27  32
BRANCH  29  34
HETATM   34  C18 UNL     1       6.217  47.901  18.277  1.00  0.00     0.085 C 
BRANCH  34  35
HETATM   35  C19 UNL     1       5.849  49.222  18.871  1.00  0.00    -0.025 A 
HETATM   36  C20 UNL     1       4.545  49.636  18.863  1.00  0.00    -0.048 A 
HETATM   37  C24 UNL     1       4.289  50.904  19.410  1.00  0.00     0.033 A 
HETATM   38  C25 UNL     1       5.330  51.660  19.920  1.00  0.00     0.011 A 
HETATM   39  N4  UNL     1       6.596  51.226  19.915  1.00  0.00    -0.358 N 
HETATM   40  C29 UNL     1       7.665  52.038  20.456  1.00  0.00     0.156 C 
HETATM   41  C30 UNL     1       6.875  50.017  19.397  1.00  0.00     0.014 A 
HETATM   42  C31 UNL     1       8.280  49.497  19.364  1.00  0.00     0.069 C 
BRANCH  36  43
HETATM   43  C21 UNL     1       3.391  48.854  18.377  1.00  0.00     0.039 C 
BRANCH  43  44
HETATM   44  C22 UNL     1       2.473  49.643  17.483  1.00  0.00     0.000 C 
HETATM   45  C23 UNL     1       2.529  49.005  16.098  1.00  0.00     0.005 C 
ENDBRANCH  43  44
ENDBRANCH  36  43
BRANCH  38  46
HETATM   46  C26 UNL     1       5.045  53.008  20.485  1.00  0.00     0.057 C 
BRANCH  46  47
HETATM   47  C27 UNL     1       4.175  52.904  21.725  1.00  0.00     0.002 C 
HETATM   48  C28 UNL     1       5.012  52.611  22.947  1.00  0.00     0.005 C 
ENDBRANCH  46  47
ENDBRANCH  38  46
ENDBRANCH  34  35
ENDBRANCH  29  34
ENDBRANCH  19  20
ENDBRANCH  16  19
ENDBRANCH   8  15
ENDBRANCH   3   4
TORSDOF 12
ENDMDL
