MODEL 1
REMARK VINA RESULT: -7.310279414      0.000      0.000
REMARK  15 active torsions:
REMARK  status: ('A' for Active; 'I' for Inactive)
REMARK    1  A    between atoms: C3_3  and  N1_4 
REMARK    2  A    between atoms: N1_4  and  C4_5 
REMARK    3  A    between atoms: C7_8  and  C8_9 
REMARK    4  A    between atoms: C11_12  and  N2_13 
REMARK    5  A    between atoms: N2_13  and  C12_15 
REMARK    6  A    between atoms: C12_15  and  O1_16 
REMARK    7  A    between atoms: C12_15  and  C13_18 
REMARK    8  A    between atoms: C13_18  and  C14_19 
REMARK    9  A    between atoms: C13_18  and  N3_23 
REMARK   10  A    between atoms: C14_19  and  C15_20 
REMARK   11  A    between atoms: C22_32  and  C23_33 
REMARK   12  A    between atoms: C23_33  and  C24_34 
REMARK   13  A    between atoms: C28_41  and  C29_42 
REMARK   14  A    between atoms: C29_42  and  C30_43 
REMARK   15  A    between atoms: C37_53  and  C38_54 
ROOT
HETATM    1  C1  UNL     1      13.818  -8.537   7.142  1.00  0.00     0.014 C 
HETATM    2  C2  UNL     1      13.470  -7.915   6.167  1.00  0.00    -0.098 C 
HETATM    3  C3  UNL     1      13.084  -7.134   4.974  1.00  0.00     0.215 C 
ENDROOT
BRANCH   3   4
HETATM    4  N1  UNL     1      11.971  -7.753   4.251  1.00  0.00    -0.375 N 
HETATM    5  C6  UNL     1      11.218  -7.074   3.511  1.00  0.00     0.012 C 
HETATM    6  C7  UNL     1      10.056  -7.205   2.627  1.00  0.00     0.035 C 
HETATM    7  C11 UNL     1      11.130  -5.579   3.213  1.00  0.00     0.130 C 
HETATM    8  C10 UNL     1      10.568  -5.946   1.846  1.00  0.00     0.041 C 
BRANCH   4   9
HETATM    9  C4  UNL     1      11.809  -9.153   4.507  1.00  0.00     0.119 C 
HETATM   10  C5  UNL     1      12.617 -10.079   3.672  1.00  0.00     0.026 C 
ENDBRANCH   4   9
BRANCH   6  11
HETATM   11  C8  UNL     1       9.942  -8.388   1.727  1.00  0.00     0.006 C 
HETATM   12  C9  UNL     1       8.816  -8.300   0.729  1.00  0.00     0.006 C 
ENDBRANCH   6  11
BRANCH   7  13
HETATM   13  N2  UNL     1      10.194  -4.859   4.005  1.00  0.00    -0.363 N 
ATOM     14  H2  UNL     1       9.628  -5.440   4.624  1.00  0.00     0.162 HD
BRANCH  13  15
HETATM   15  C12 UNL     1       9.918  -3.487   4.080  1.00  0.00     0.135 C 
BRANCH  15  16
HETATM   16  O1  UNL     1      10.520  -2.919   5.091  1.00  0.00    -0.348 OA
ATOM     17  H1  UNL     1       9.937  -2.354   5.583  1.00  0.00     0.219 HD
ENDBRANCH  15  16
BRANCH  15  18
HETATM   18  C13 UNL     1       9.082  -2.644   3.220  1.00  0.00     0.163 C 
BRANCH  18  19
HETATM   19  C14 UNL     1       7.636  -2.845   3.421  1.00  0.00     0.037 C 
BRANCH  19  20
HETATM   20  C15 UNL     1       6.769  -3.171   2.252  1.00  0.00    -0.020 C 
HETATM   21  C16 UNL     1       7.206  -4.599   1.815  1.00  0.00     0.009 C 
HETATM   22  C17 UNL     1       6.879  -2.267   1.063  1.00  0.00     0.009 C 
ENDBRANCH  19  20
ENDBRANCH  18  19
BRANCH  18  23
HETATM   23  N3  UNL     1       9.504  -1.231   3.104  1.00  0.00    -0.321 N 
HETATM   24  C18 UNL     1       8.996  -0.359   4.104  1.00  0.00     0.267 C 
HETATM   25  O2  UNL     1       9.239  -0.538   5.362  1.00  0.00    -0.266 OA
HETATM   26  C19 UNL     1       8.138   0.861   3.953  1.00  0.00     0.076 C 
HETATM   27  C20 UNL     1       7.603   1.143   2.609  1.00  0.00     0.074 C 
HETATM   28  N4  UNL     1       8.623   1.997   4.699  1.00  0.00    -0.324 N 
HETATM   29  C21 UNL     1       9.893   2.602   4.627  1.00  0.00     0.244 C 
ATOM     30  H4  UNL     1       7.966   2.413   5.359  1.00  0.00     0.169 HD
HETATM   31  O3  UNL     1      10.586   2.717   5.706  1.00  0.00    -0.271 OA
HETATM   32  C22 UNL     1      10.562   3.147   3.413  1.00  0.00     0.177 C 
HETATM   33  N5  UNL     1      11.987   3.128   3.650  1.00  0.00    -0.343 N 
HETATM   34  C27 UNL     1      13.029   2.772   2.810  1.00  0.00     0.265 C 
ATOM     35  H5  UNL     1      12.271   3.424   4.584  1.00  0.00     0.163 HD
HETATM   36  O4  UNL     1      14.049   3.577   2.834  1.00  0.00    -0.266 OA
HETATM   37  C28 UNL     1      13.126   1.617   1.909  1.00  0.00     0.084 C 
HETATM   38  N6  UNL     1      12.572   0.509   1.979  1.00  0.00    -0.324 N 
HETATM   39  C36 UNL     1      11.733  -0.271   2.685  1.00  0.00     0.245 C 
ATOM     40  H6  UNL     1      12.879  -0.033   1.171  1.00  0.00     0.169 HD
HETATM   41  O5  UNL     1      11.910  -0.759   3.855  1.00  0.00    -0.271 OA
HETATM   42  C37 UNL     1      10.375  -0.682   2.111  1.00  0.00     0.184 C 
BRANCH  32  43
HETATM   43  C23 UNL     1      10.034   4.561   3.201  1.00  0.00     0.038 C 
BRANCH  43  44
HETATM   44  C24 UNL     1       9.961   4.832   1.743  1.00  0.00    -0.020 C 
HETATM   45  C25 UNL     1      11.155   5.652   1.255  1.00  0.00     0.009 C 
HETATM   46  C26 UNL     1       9.929   3.561   0.915  1.00  0.00     0.009 C 
ENDBRANCH  43  44
ENDBRANCH  32  43
BRANCH  37  47
HETATM   47  C29 UNL     1      14.097   1.843   0.767  1.00  0.00     0.101 C 
BRANCH  47  48
HETATM   48  C30 UNL     1      13.525   2.440  -0.415  1.00  0.00    -0.052 A 
HETATM   49  C31 UNL     1      13.723   3.774  -0.733  1.00  0.00     0.007 A 
HETATM   50  C32 UNL     1      13.143   4.326  -1.879  1.00  0.00     0.001 A 
HETATM   51  C33 UNL     1      12.362   3.560  -2.720  1.00  0.00     0.000 A 
HETATM   52  C34 UNL     1      12.162   2.243  -2.414  1.00  0.00     0.001 A 
HETATM   53  C35 UNL     1      12.742   1.721  -1.280  1.00  0.00     0.007 A 
ENDBRANCH  47  48
ENDBRANCH  37  47
BRANCH  42  54
HETATM   54  C38 UNL     1      10.644  -1.270   0.813  1.00  0.00     0.010 C 
HETATM   55  C39 UNL     1      10.685  -2.715   0.561  1.00  0.00     0.012 C 
HETATM   56  C40 UNL     1       9.926  -0.576  -0.348  1.00  0.00     0.012 C 
ENDBRANCH  42  54
ENDBRANCH  18  23
ENDBRANCH  15  18
ENDBRANCH  13  15
ENDBRANCH   7  13
ENDBRANCH   3   4
TORSDOF 15
ENDMDL
MODEL 2
REMARK VINA RESULT: -7.259511553      4.758     11.941
REMARK  15 active torsions:
REMARK  status: ('A' for Active; 'I' for Inactive)
REMARK    1  A    between atoms: C3_3  and  N1_4 
REMARK    2  A    between atoms: N1_4  and  C4_5 
REMARK    3  A    between atoms: C7_8  and  C8_9 
REMARK    4  A    between atoms: C11_12  and  N2_13 
REMARK    5  A    between atoms: N2_13  and  C12_15 
REMARK    6  A    between atoms: C12_15  and  O1_16 
REMARK    7  A    between atoms: C12_15  and  C13_18 
REMARK    8  A    between atoms: C13_18  and  C14_19 
REMARK    9  A    between atoms: C13_18  and  N3_23 
REMARK   10  A    between atoms: C14_19  and  C15_20 
REMARK   11  A    between atoms: C22_32  and  C23_33 
REMARK   12  A    between atoms: C23_33  and  C24_34 
REMARK   13  A    between atoms: C28_41  and  C29_42 
REMARK   14  A    between atoms: C29_42  and  C30_43 
REMARK   15  A    between atoms: C37_53  and  C38_54 
ROOT
HETATM    1  C1  UNL     1      21.114   5.614  -0.706  1.00  0.00     0.014 C 
HETATM    2  C2  UNL     1      20.311   6.245  -1.352  1.00  0.00    -0.098 C 
HETATM    3  C3  UNL     1      19.303   6.979  -2.143  1.00  0.00     0.215 C 
ENDROOT
BRANCH   3   4
HETATM    4  N1  UNL     1      19.396   8.426  -1.941  1.00  0.00    -0.375 N 
HETATM    5  C6  UNL     1      18.780   8.993  -1.005  1.00  0.00     0.012 C 
HETATM    6  C7  UNL     1      18.564  10.314  -0.409  1.00  0.00     0.035 C 
HETATM    7  C11 UNL     1      17.787   8.488   0.040  1.00  0.00     0.130 C 
HETATM    8  C10 UNL     1      18.279   9.598   0.957  1.00  0.00     0.041 C 
BRANCH   4   9
HETATM    9  C4  UNL     1      20.195   9.107  -2.915  1.00  0.00     0.119 C 
HETATM   10  C5  UNL     1      21.626   9.313  -2.574  1.00  0.00     0.026 C 
ENDBRANCH   4   9
BRANCH   6  11
HETATM   11  C8  UNL     1      19.705  11.267  -0.290  1.00  0.00     0.006 C 
HETATM   12  C9  UNL     1      19.655  12.416  -1.264  1.00  0.00     0.006 C 
ENDBRANCH   6  11
BRANCH   7  13
HETATM   13  N2  UNL     1      16.417   8.641  -0.306  1.00  0.00    -0.363 N 
ATOM     14  H2  UNL     1      16.220   9.435  -0.915  1.00  0.00     0.162 HD
BRANCH  13  15
HETATM   15  C12 UNL     1      15.291   7.884   0.047  1.00  0.00     0.135 C 
BRANCH  15  16
HETATM   16  O1  UNL     1      14.971   8.037   1.305  1.00  0.00    -0.348 OA
ATOM     17  H1  UNL     1      14.319   8.717   1.427  1.00  0.00     0.219 HD
ENDBRANCH  15  16
BRANCH  15  18
HETATM   18  C13 UNL     1      14.466   6.984  -0.765  1.00  0.00     0.163 C 
BRANCH  18  19
HETATM   19  C14 UNL     1      14.991   6.766  -2.124  1.00  0.00     0.037 C 
BRANCH  19  20
HETATM   20  C15 UNL     1      14.130   6.109  -3.149  1.00  0.00    -0.020 C 
HETATM   21  C16 UNL     1      15.112   5.279  -4.025  1.00  0.00     0.009 C 
HETATM   22  C17 UNL     1      13.353   7.016  -4.053  1.00  0.00     0.009 C 
ENDBRANCH  19  20
ENDBRANCH  18  19
BRANCH  18  23
HETATM   23  N3  UNL     1      13.985   5.765  -0.079  1.00  0.00    -0.321 N 
HETATM   24  C18 UNL     1      14.979   4.787   0.194  1.00  0.00     0.267 C 
HETATM   25  O2  UNL     1      16.009   5.041   0.935  1.00  0.00    -0.266 OA
HETATM   26  C19 UNL     1      15.063   3.364  -0.267  1.00  0.00     0.076 C 
HETATM   27  C20 UNL     1      14.072   2.923  -1.266  1.00  0.00     0.074 C 
HETATM   28  N4  UNL     1      15.355   2.434   0.798  1.00  0.00    -0.324 N 
HETATM   29  C21 UNL     1      14.644   2.242   1.999  1.00  0.00     0.244 C 
ATOM     30  H4  UNL     1      16.176   1.843   0.663  1.00  0.00     0.169 HD
HETATM   31  O3  UNL     1      15.276   2.351   3.115  1.00  0.00    -0.271 OA
HETATM   32  C22 UNL     1      13.199   1.916   2.146  1.00  0.00     0.177 C 
HETATM   33  N5  UNL     1      12.777   2.368   3.452  1.00  0.00    -0.343 N 
HETATM   34  C27 UNL     1      11.618   3.017   3.844  1.00  0.00     0.265 C 
ATOM     35  H5  UNL     1      13.439   2.179   4.206  1.00  0.00     0.163 HD
HETATM   36  O4  UNL     1      11.078   2.560   4.933  1.00  0.00    -0.266 OA
HETATM   37  C28 UNL     1      10.933   4.141   3.193  1.00  0.00     0.084 C 
HETATM   38  N6  UNL     1      11.390   5.029   2.458  1.00  0.00    -0.324 N 
HETATM   39  C36 UNL     1      12.493   5.523   1.866  1.00  0.00     0.245 C 
ATOM     40  H6  UNL     1      10.611   5.632   2.193  1.00  0.00     0.169 HD
HETATM   41  O5  UNL     1      13.517   6.050   2.426  1.00  0.00    -0.271 OA
HETATM   42  C37 UNL     1      12.644   5.499   0.343  1.00  0.00     0.184 C 
BRANCH  32  43
HETATM   43  C23 UNL     1      13.056   0.407   1.987  1.00  0.00     0.038 C 
BRANCH  43  44
HETATM   44  C24 UNL     1      11.697   0.106   1.469  1.00  0.00    -0.020 C 
HETATM   45  C25 UNL     1      11.562   0.452  -0.014  1.00  0.00     0.009 C 
HETATM   46  C26 UNL     1      11.329  -1.359   1.615  1.00  0.00     0.009 C 
ENDBRANCH  43  44
ENDBRANCH  32  43
BRANCH  37  47
HETATM   47  C29 UNL     1       9.459   4.211   3.542  1.00  0.00     0.101 C 
BRANCH  47  48
HETATM   48  C30 UNL     1       8.662   5.043   2.672  1.00  0.00    -0.052 A 
HETATM   49  C31 UNL     1       8.346   4.660   1.379  1.00  0.00     0.007 A 
HETATM   50  C32 UNL     1       7.583   5.495   0.557  1.00  0.00     0.001 A 
HETATM   51  C33 UNL     1       7.127   6.715   1.010  1.00  0.00     0.000 A 
HETATM   52  C34 UNL     1       7.434   7.100   2.285  1.00  0.00     0.001 A 
HETATM   53  C35 UNL     1       8.187   6.263   3.077  1.00  0.00     0.007 A 
ENDBRANCH  47  48
ENDBRANCH  37  47
BRANCH  42  54
HETATM   54  C38 UNL     1      11.455   6.131  -0.193  1.00  0.00     0.010 C 
HETATM   55  C39 UNL     1      11.228   7.581  -0.196  1.00  0.00     0.012 C 
HETATM   56  C40 UNL     1      10.983   5.545  -1.527  1.00  0.00     0.012 C 
ENDBRANCH  42  54
ENDBRANCH  18  23
ENDBRANCH  15  18
ENDBRANCH  13  15
ENDBRANCH   7  13
ENDBRANCH   3   4
TORSDOF 15
ENDMDL
MODEL 3
REMARK VINA RESULT: -7.068184975      5.721     11.242
REMARK  15 active torsions:
REMARK  status: ('A' for Active; 'I' for Inactive)
REMARK    1  A    between atoms: C3_3  and  N1_4 
REMARK    2  A    between atoms: N1_4  and  C4_5 
REMARK    3  A    between atoms: C7_8  and  C8_9 
REMARK    4  A    between atoms: C11_12  and  N2_13 
REMARK    5  A    between atoms: N2_13  and  C12_15 
REMARK    6  A    between atoms: C12_15  and  O1_16 
REMARK    7  A    between atoms: C12_15  and  C13_18 
REMARK    8  A    between atoms: C13_18  and  C14_19 
REMARK    9  A    between atoms: C13_18  and  N3_23 
REMARK   10  A    between atoms: C14_19  and  C15_20 
REMARK   11  A    between atoms: C22_32  and  C23_33 
REMARK   12  A    between atoms: C23_33  and  C24_34 
REMARK   13  A    between atoms: C28_41  and  C29_42 
REMARK   14  A    between atoms: C29_42  and  C30_43 
REMARK   15  A    between atoms: C37_53  and  C38_54 
ROOT
HETATM    1  C1  UNL     1      15.550   8.721   1.758  1.00  0.00     0.014 C 
HETATM    2  C2  UNL     1      16.173   8.723   0.722  1.00  0.00    -0.098 C 
HETATM    3  C3  UNL     1      16.900   8.750  -0.562  1.00  0.00     0.215 C 
ENDROOT
BRANCH   3   4
HETATM    4  N1  UNL     1      18.332   8.497  -0.385  1.00  0.00    -0.375 N 
HETATM    5  C6  UNL     1      18.908   7.563  -0.996  1.00  0.00     0.012 C 
HETATM    6  C7  UNL     1      20.225   6.942  -1.163  1.00  0.00     0.035 C 
HETATM    7  C11 UNL     1      18.399   6.459  -1.921  1.00  0.00     0.130 C 
HETATM    8  C10 UNL     1      19.768   6.469  -2.586  1.00  0.00     0.041 C 
BRANCH   4   9
HETATM    9  C4  UNL     1      18.971   9.364   0.559  1.00  0.00     0.119 C 
HETATM   10  C5  UNL     1      19.378  10.703   0.061  1.00  0.00     0.026 C 
ENDBRANCH   4   9
BRANCH   6  11
HETATM   11  C8  UNL     1      21.441   7.800  -1.245  1.00  0.00     0.006 C 
HETATM   12  C9  UNL     1      21.446   8.757  -2.409  1.00  0.00     0.006 C 
ENDBRANCH   6  11
BRANCH   7  13
HETATM   13  N2  UNL     1      18.118   5.220  -1.284  1.00  0.00    -0.363 N 
ATOM     14  H2  UNL     1      18.316   5.203  -0.284  1.00  0.00     0.162 HD
BRANCH  13  15
HETATM   15  C12 UNL     1      17.614   4.017  -1.798  1.00  0.00     0.135 C 
BRANCH  15  16
HETATM   16  O1  UNL     1      18.511   3.067  -1.795  1.00  0.00    -0.348 OA
ATOM     17  H1  UNL     1      18.127   2.214  -1.633  1.00  0.00     0.219 HD
ENDBRANCH  15  16
BRANCH  15  18
HETATM   18  C13 UNL     1      16.280   3.698  -2.318  1.00  0.00     0.163 C 
BRANCH  18  19
HETATM   19  C14 UNL     1      16.271   2.577  -3.276  1.00  0.00     0.037 C 
BRANCH  19  20
HETATM   20  C15 UNL     1      15.063   2.338  -4.116  1.00  0.00    -0.020 C 
HETATM   21  C16 UNL     1      14.989   0.793  -4.281  1.00  0.00     0.009 C 
HETATM   22  C17 UNL     1      15.065   2.951  -5.483  1.00  0.00     0.009 C 
ENDBRANCH  19  20
ENDBRANCH  18  19
BRANCH  18  23
HETATM   23  N3  UNL     1      15.193   3.670  -1.316  1.00  0.00    -0.321 N 
HETATM   24  C18 UNL     1      15.168   2.525  -0.475  1.00  0.00     0.267 C 
HETATM   25  O2  UNL     1      16.160   2.215   0.296  1.00  0.00    -0.266 OA
HETATM   26  C19 UNL     1      14.089   1.501  -0.299  1.00  0.00     0.076 C 
HETATM   27  C20 UNL     1      12.938   1.573  -1.217  1.00  0.00     0.074 C 
HETATM   28  N4  UNL     1      13.786   1.221   1.085  1.00  0.00    -0.324 N 
HETATM   29  C21 UNL     1      13.401   2.132   2.088  1.00  0.00     0.244 C 
ATOM     30  H4  UNL     1      13.860   0.244   1.370  1.00  0.00     0.169 HD
HETATM   31  O3  UNL     1      14.095   2.189   3.171  1.00  0.00    -0.271 OA
HETATM   32  C22 UNL     1      12.248   3.073   2.053  1.00  0.00     0.177 C 
HETATM   33  N5  UNL     1      12.544   4.165   2.951  1.00  0.00    -0.343 N 
HETATM   34  C27 UNL     1      12.341   5.527   2.802  1.00  0.00     0.265 C 
ATOM     35  H5  UNL     1      12.972   3.890   3.835  1.00  0.00     0.163 HD
HETATM   36  O4  UNL     1      11.849   6.123   3.847  1.00  0.00    -0.266 OA
HETATM   37  C28 UNL     1      12.605   6.369   1.629  1.00  0.00     0.084 C 
HETATM   38  N6  UNL     1      13.424   6.215   0.710  1.00  0.00    -0.324 N 
HETATM   39  C36 UNL     1      14.398   5.432   0.211  1.00  0.00     0.245 C 
ATOM     40  H6  UNL     1      13.314   7.003   0.072  1.00  0.00     0.169 HD
HETATM   41  O5  UNL     1      15.555   5.201   0.710  1.00  0.00    -0.271 OA
HETATM   42  C37 UNL     1      14.201   4.680  -1.108  1.00  0.00     0.184 C 
BRANCH  32  43
HETATM   43  C23 UNL     1      11.012   2.292   2.487  1.00  0.00     0.038 C 
BRANCH  43  44
HETATM   44  C24 UNL     1       9.959   2.448   1.452  1.00  0.00    -0.020 C 
HETATM   45  C25 UNL     1      10.289   3.566   0.465  1.00  0.00     0.009 C 
HETATM   46  C26 UNL     1       9.753   1.185   0.636  1.00  0.00     0.009 C 
ENDBRANCH  43  44
ENDBRANCH  32  43
BRANCH  37  47
HETATM   47  C29 UNL     1      11.762   7.630   1.610  1.00  0.00     0.101 C 
BRANCH  47  48
HETATM   48  C30 UNL     1      10.639   7.603   0.704  1.00  0.00    -0.052 A 
HETATM   49  C31 UNL     1       9.335   7.478   1.155  1.00  0.00     0.007 A 
HETATM   50  C32 UNL     1       8.270   7.442   0.250  1.00  0.00     0.001 A 
HETATM   51  C33 UNL     1       8.489   7.528  -1.110  1.00  0.00     0.000 A 
HETATM   52  C34 UNL     1       9.773   7.652  -1.563  1.00  0.00     0.001 A 
HETATM   53  C35 UNL     1      10.806   7.685  -0.654  1.00  0.00     0.007 A 
ENDBRANCH  47  48
ENDBRANCH  37  47
BRANCH  42  54
HETATM   54  C38 UNL     1      13.797   5.673  -2.084  1.00  0.00     0.010 C 
HETATM   55  C39 UNL     1      14.711   6.649  -2.688  1.00  0.00     0.012 C 
HETATM   56  C40 UNL     1      12.848   5.138  -3.162  1.00  0.00     0.012 C 
ENDBRANCH  42  54
ENDBRANCH  18  23
ENDBRANCH  15  18
ENDBRANCH  13  15
ENDBRANCH   7  13
ENDBRANCH   3   4
TORSDOF 15
ENDMDL
MODEL 4
REMARK VINA RESULT: -7.025049909      4.222     11.101
REMARK  15 active torsions:
REMARK  status: ('A' for Active; 'I' for Inactive)
REMARK    1  A    between atoms: C3_3  and  N1_4 
REMARK    2  A    between atoms: N1_4  and  C4_5 
REMARK    3  A    between atoms: C7_8  and  C8_9 
REMARK    4  A    between atoms: C11_12  and  N2_13 
REMARK    5  A    between atoms: N2_13  and  C12_15 
REMARK    6  A    between atoms: C12_15  and  O1_16 
REMARK    7  A    between atoms: C12_15  and  C13_18 
REMARK    8  A    between atoms: C13_18  and  C14_19 
REMARK    9  A    between atoms: C13_18  and  N3_23 
REMARK   10  A    between atoms: C14_19  and  C15_20 
REMARK   11  A    between atoms: C22_32  and  C23_33 
REMARK   12  A    between atoms: C23_33  and  C24_34 
REMARK   13  A    between atoms: C28_41  and  C29_42 
REMARK   14  A    between atoms: C29_42  and  C30_43 
REMARK   15  A    between atoms: C37_53  and  C38_54 
ROOT
HETATM    1  C1  UNL     1      15.511   3.962  -3.253  1.00  0.00     0.014 C 
HETATM    2  C2  UNL     1      16.177   4.613  -2.484  1.00  0.00    -0.098 C 
HETATM    3  C3  UNL     1      17.007   5.371  -1.525  1.00  0.00     0.215 C 
ENDROOT
BRANCH   3   4
HETATM    4  N1  UNL     1      17.270   6.735  -1.989  1.00  0.00    -0.375 N 
HETATM    5  C6  UNL     1      17.175   7.716  -1.211  1.00  0.00     0.012 C 
HETATM    6  C7  UNL     1      17.331   9.173  -1.178  1.00  0.00     0.035 C 
HETATM    7  C11 UNL     1      16.727   7.847   0.243  1.00  0.00     0.130 C 
HETATM    8  C10 UNL     1      17.645   9.057   0.354  1.00  0.00     0.041 C 
BRANCH   4   9
HETATM    9  C4  UNL     1      17.588   6.832  -3.382  1.00  0.00     0.119 C 
HETATM   10  C5  UNL     1      16.619   7.569  -4.234  1.00  0.00     0.026 C 
ENDBRANCH   4   9
BRANCH   6  11
HETATM   11  C8  UNL     1      18.460   9.812  -1.913  1.00  0.00     0.006 C 
HETATM   12  C9  UNL     1      18.032  10.815  -2.953  1.00  0.00     0.006 C 
ENDBRANCH   6  11
BRANCH   7  13
HETATM   13  N2  UNL     1      15.359   8.190   0.424  1.00  0.00    -0.363 N 
ATOM     14  H2  UNL     1      15.126   9.151   0.173  1.00  0.00     0.162 HD
BRANCH  13  15
HETATM   15  C12 UNL     1      14.276   7.430   0.888  1.00  0.00     0.135 C 
BRANCH  15  16
HETATM   16  O1  UNL     1      14.180   7.458   2.191  1.00  0.00    -0.348 OA
ATOM     17  H1  UNL     1      13.596   6.785   2.521  1.00  0.00     0.219 HD
ENDBRANCH  15  16
BRANCH  15  18
HETATM   18  C13 UNL     1      13.287   6.643   0.145  1.00  0.00     0.163 C 
BRANCH  18  19
HETATM   19  C14 UNL     1      13.513   6.634  -1.312  1.00  0.00     0.037 C 
BRANCH  19  20
HETATM   20  C15 UNL     1      12.359   6.830  -2.236  1.00  0.00    -0.020 C 
HETATM   21  C16 UNL     1      12.998   7.004  -3.644  1.00  0.00     0.009 C 
HETATM   22  C17 UNL     1      11.483   8.016  -1.974  1.00  0.00     0.009 C 
ENDBRANCH  19  20
ENDBRANCH  18  19
BRANCH  18  23
HETATM   23  N3  UNL     1      12.945   5.329   0.730  1.00  0.00    -0.321 N 
HETATM   24  C18 UNL     1      13.990   4.367   0.722  1.00  0.00     0.267 C 
HETATM   25  O2  UNL     1      15.116   4.569   1.326  1.00  0.00    -0.266 OA
HETATM   26  C19 UNL     1      14.033   3.018   0.073  1.00  0.00     0.076 C 
HETATM   27  C20 UNL     1      12.911   2.664  -0.815  1.00  0.00     0.074 C 
HETATM   28  N4  UNL     1      14.506   1.974   0.951  1.00  0.00    -0.324 N 
HETATM   29  C21 UNL     1      13.994   1.604   2.210  1.00  0.00     0.244 C 
ATOM     30  H4  UNL     1      15.309   1.440   0.619  1.00  0.00     0.169 HD
HETATM   31  O3  UNL     1      14.787   1.598   3.223  1.00  0.00    -0.271 OA
HETATM   32  C22 UNL     1      12.596   1.203   2.529  1.00  0.00     0.177 C 
HETATM   33  N5  UNL     1      12.370   1.470   3.931  1.00  0.00    -0.343 N 
HETATM   34  C27 UNL     1      11.272   2.016   4.573  1.00  0.00     0.265 C 
ATOM     35  H5  UNL     1      13.144   1.216   4.545  1.00  0.00     0.163 HD
HETATM   36  O4  UNL     1      10.916   1.404   5.662  1.00  0.00    -0.266 OA
HETATM   37  C28 UNL     1      10.470   3.183   4.184  1.00  0.00     0.084 C 
HETATM   38  N6  UNL     1      10.789   4.174   3.510  1.00  0.00    -0.324 N 
HETATM   39  C36 UNL     1      11.776   4.784   2.829  1.00  0.00     0.245 C 
ATOM     40  H6  UNL     1       9.965   4.773   3.446  1.00  0.00     0.169 HD
HETATM   41  O5  UNL     1      12.862   5.279   3.293  1.00  0.00    -0.271 OA
HETATM   42  C37 UNL     1      11.691   4.957   1.311  1.00  0.00     0.184 C 
BRANCH  32  43
HETATM   43  C23 UNL     1      12.463  -0.279   2.198  1.00  0.00     0.038 C 
BRANCH  43  44
HETATM   44  C24 UNL     1      11.469  -0.440   1.106  1.00  0.00    -0.020 C 
HETATM   45  C25 UNL     1      10.746  -1.783   1.187  1.00  0.00     0.009 C 
HETATM   46  C26 UNL     1      10.402   0.639   1.126  1.00  0.00     0.009 C 
ENDBRANCH  43  44
ENDBRANCH  32  43
BRANCH  37  47
HETATM   47  C29 UNL     1       9.066   3.148   4.757  1.00  0.00     0.101 C 
BRANCH  47  48
HETATM   48  C30 UNL     1       8.187   4.191   4.287  1.00  0.00    -0.052 A 
HETATM   49  C31 UNL     1       7.560   4.121   3.053  1.00  0.00     0.007 A 
HETATM   50  C32 UNL     1       6.723   5.155   2.621  1.00  0.00     0.001 A 
HETATM   51  C33 UNL     1       6.501   6.266   3.409  1.00  0.00     0.000 A 
HETATM   52  C34 UNL     1       7.116   6.342   4.627  1.00  0.00     0.001 A 
HETATM   53  C35 UNL     1       7.936   5.313   5.032  1.00  0.00     0.007 A 
ENDBRANCH  47  48
ENDBRANCH  37  47
BRANCH  42  54
HETATM   54  C38 UNL     1      10.420   5.601   1.046  1.00  0.00     0.010 C 
HETATM   55  C39 UNL     1      10.144   7.015   1.325  1.00  0.00     0.012 C 
HETATM   56  C40 UNL     1       9.796   5.223  -0.301  1.00  0.00     0.012 C 
ENDBRANCH  42  54
ENDBRANCH  18  23
ENDBRANCH  15  18
ENDBRANCH  13  15
ENDBRANCH   7  13
ENDBRANCH   3   4
TORSDOF 15
ENDMDL
MODEL 5
REMARK VINA RESULT: -7.010297708      3.564      9.838
REMARK  15 active torsions:
REMARK  status: ('A' for Active; 'I' for Inactive)
REMARK    1  A    between atoms: C3_3  and  N1_4 
REMARK    2  A    between atoms: N1_4  and  C4_5 
REMARK    3  A    between atoms: C7_8  and  C8_9 
REMARK    4  A    between atoms: C11_12  and  N2_13 
REMARK    5  A    between atoms: N2_13  and  C12_15 
REMARK    6  A    between atoms: C12_15  and  O1_16 
REMARK    7  A    between atoms: C12_15  and  C13_18 
REMARK    8  A    between atoms: C13_18  and  C14_19 
REMARK    9  A    between atoms: C13_18  and  N3_23 
REMARK   10  A    between atoms: C14_19  and  C15_20 
REMARK   11  A    between atoms: C22_32  and  C23_33 
REMARK   12  A    between atoms: C23_33  and  C24_34 
REMARK   13  A    between atoms: C28_41  and  C29_42 
REMARK   14  A    between atoms: C29_42  and  C30_43 
REMARK   15  A    between atoms: C37_53  and  C38_54 
ROOT
HETATM    1  C1  UNL     1      10.442   8.194   1.512  1.00  0.00     0.014 C 
HETATM    2  C2  UNL     1      11.425   7.852   2.126  1.00  0.00    -0.098 C 
HETATM    3  C3  UNL     1      12.603   7.402   2.895  1.00  0.00     0.215 C 
ENDROOT
BRANCH   3   4
HETATM    4  N1  UNL     1      13.858   7.838   2.279  1.00  0.00    -0.375 N 
HETATM    5  C6  UNL     1      14.339   7.237   1.287  1.00  0.00     0.012 C 
HETATM    6  C7  UNL     1      15.476   7.276   0.363  1.00  0.00     0.035 C 
HETATM    7  C11 UNL     1      13.921   5.975   0.536  1.00  0.00     0.130 C 
HETATM    8  C10 UNL     1      14.570   6.571  -0.705  1.00  0.00     0.041 C 
BRANCH   4   9
HETATM    9  C4  UNL     1      14.479   8.951   2.933  1.00  0.00     0.119 C 
HETATM   10  C5  UNL     1      14.457   8.945   4.418  1.00  0.00     0.026 C 
ENDBRANCH   4   9
BRANCH   6  11
HETATM   11  C8  UNL     1      15.977   8.589  -0.137  1.00  0.00     0.006 C 
HETATM   12  C9  UNL     1      17.328   8.982   0.405  1.00  0.00     0.006 C 
ENDBRANCH   6  11
BRANCH   7  13
HETATM   13  N2  UNL     1      14.563   4.780   0.960  1.00  0.00    -0.363 N 
ATOM     14  H2  UNL     1      15.583   4.821   0.951  1.00  0.00     0.162 HD
BRANCH  13  15
HETATM   15  C12 UNL     1      14.033   3.555   1.388  1.00  0.00     0.135 C 
BRANCH  15  16
HETATM   16  O1  UNL     1      14.466   3.220   2.575  1.00  0.00    -0.348 OA
ATOM     17  H1  UNL     1      15.360   2.902   2.553  1.00  0.00     0.219 HD
ENDBRANCH  15  16
BRANCH  15  18
HETATM   18  C13 UNL     1      13.106   2.640   0.714  1.00  0.00     0.163 C 
BRANCH  18  19
HETATM   19  C14 UNL     1      13.768   1.705  -0.213  1.00  0.00     0.037 C 
BRANCH  19  20
HETATM   20  C15 UNL     1      13.315   1.632  -1.632  1.00  0.00    -0.020 C 
HETATM   21  C16 UNL     1      12.978   3.101  -2.021  1.00  0.00     0.009 C 
HETATM   22  C17 UNL     1      12.107   0.790  -1.908  1.00  0.00     0.009 C 
ENDBRANCH  19  20
ENDBRANCH  18  19
BRANCH  18  23
HETATM   23  N3  UNL     1      12.067   2.034   1.575  1.00  0.00    -0.321 N 
HETATM   24  C18 UNL     1      12.436   0.818   2.211  1.00  0.00     0.267 C 
HETATM   25  O2  UNL     1      13.439   0.742   3.024  1.00  0.00    -0.266 OA
HETATM   26  C19 UNL     1      11.809  -0.539   2.100  1.00  0.00     0.076 C 
HETATM   27  C20 UNL     1      10.752  -0.710   1.087  1.00  0.00     0.074 C 
HETATM   28  N4  UNL     1      11.576  -1.167   3.379  1.00  0.00    -0.324 N 
HETATM   29  C21 UNL     1      10.839  -0.664   4.469  1.00  0.00     0.244 C 
ATOM     30  H4  UNL     1      11.996  -2.088   3.508  1.00  0.00     0.169 HD
HETATM   31  O3  UNL     1      11.417  -0.570   5.615  1.00  0.00    -0.271 OA
HETATM   32  C22 UNL     1       9.421  -0.211   4.463  1.00  0.00     0.177 C 
HETATM   33  N5  UNL     1       9.252   0.722   5.552  1.00  0.00    -0.343 N 
HETATM   34  C27 UNL     1       8.563   1.922   5.605  1.00  0.00     0.265 C 
ATOM     35  H5  UNL     1       9.715   0.455   6.421  1.00  0.00     0.163 HD
HETATM   36  O4  UNL     1       7.843   2.091   6.674  1.00  0.00    -0.266 OA
HETATM   37  C28 UNL     1       8.543   3.011   4.621  1.00  0.00     0.084 C 
HETATM   38  N6  UNL     1       9.397   3.338   3.784  1.00  0.00    -0.324 N 
HETATM   39  C36 UNL     1      10.612   3.067   3.272  1.00  0.00     0.245 C 
ATOM     40  H6  UNL     1       9.028   4.141   3.274  1.00  0.00     0.169 HD
HETATM   41  O5  UNL     1      11.750   3.175   3.849  1.00  0.00    -0.271 OA
HETATM   42  C37 UNL     1      10.763   2.562   1.835  1.00  0.00     0.184 C 
BRANCH  32  43
HETATM   43  C23 UNL     1       8.548  -1.450   4.627  1.00  0.00     0.038 C 
BRANCH  43  44
HETATM   44  C24 UNL     1       7.598  -1.523   3.488  1.00  0.00    -0.020 C 
HETATM   45  C25 UNL     1       7.535  -0.208   2.713  1.00  0.00     0.009 C 
HETATM   46  C26 UNL     1       7.967  -2.606   2.491  1.00  0.00     0.009 C 
ENDBRANCH  43  44
ENDBRANCH  32  43
BRANCH  37  47
HETATM   47  C29 UNL     1       7.292   3.864   4.715  1.00  0.00     0.101 C 
BRANCH  47  48
HETATM   48  C30 UNL     1       7.130   4.832   3.657  1.00  0.00    -0.052 A 
HETATM   49  C31 UNL     1       6.720   4.466   2.385  1.00  0.00     0.007 A 
HETATM   50  C32 UNL     1       6.585   5.427   1.378  1.00  0.00     0.001 A 
HETATM   51  C33 UNL     1       6.855   6.758   1.623  1.00  0.00     0.000 A 
HETATM   52  C34 UNL     1       7.259   7.126   2.876  1.00  0.00     0.001 A 
HETATM   53  C35 UNL     1       7.386   6.164   3.852  1.00  0.00     0.007 A 
ENDBRANCH  47  48
ENDBRANCH  37  47
BRANCH  42  54
HETATM   54  C38 UNL     1      10.059   3.510   0.995  1.00  0.00     0.010 C 
HETATM   55  C39 UNL     1      10.565   4.848   0.666  1.00  0.00     0.012 C 
HETATM   56  C40 UNL     1       9.429   2.889  -0.256  1.00  0.00     0.012 C 
ENDBRANCH  42  54
ENDBRANCH  18  23
ENDBRANCH  15  18
ENDBRANCH  13  15
ENDBRANCH   7  13
ENDBRANCH   3   4
TORSDOF 15
ENDMDL
