MODEL 1
REMARK VINA RESULT: -11.017477272      0.000      0.000
REMARK  15 active torsions:
REMARK  status: ('A' for Active; 'I' for Inactive)
REMARK    1  A    between atoms: C11_11  and  N1_12 
REMARK       I    between atoms: N1_12  and  C12_14 
REMARK    2  A    between atoms: C12_14  and  C13_16 
REMARK    3  A    between atoms: C13_16  and  C14_17 
REMARK    4  A    between atoms: C13_16  and  N2_21 
REMARK    5  A    between atoms: C14_17  and  C15_18 
REMARK       I    between atoms: N2_21  and  C18_23 
REMARK    6  A    between atoms: C18_23  and  C19_25 
REMARK    7  A    between atoms: N3_29  and  C23_30 
REMARK    8  A    between atoms: C23_30  and  C24_31 
REMARK    9  A    between atoms: C27_34  and  C28_35 
REMARK   10  A    between atoms: C33_40  and  C34_41 
REMARK   11  A    between atoms: C34_41  and  N4_42 
REMARK   12  A    between atoms: N4_42  and  C35_44 
REMARK   13  A    between atoms: C35_44  and  C36_52 
REMARK   14  A    between atoms: N5_45  and  N6_47 
REMARK   15  A    between atoms: C36_52  and  C37_54 
ROOT
HETATM    1  C19 UNL     1      12.439   1.064   1.422  1.00  0.00     0.047 A 
HETATM    2  C20 UNL     1      13.310   1.027   2.490  1.00  0.00     0.020 A 
HETATM    3  C21 UNL     1      13.435  -0.124   3.204  1.00  0.00     0.018 A 
HETATM    4  C22 UNL     1      12.705  -1.244   2.871  1.00  0.00     0.090 A 
HETATM    5  N3  UNL     1      11.853  -1.227   1.837  1.00  0.00    -0.361 N 
HETATM    6  C40 UNL     1      11.735  -0.085   1.136  1.00  0.00     0.107 A 
ENDROOT
BRANCH   5   7
HETATM    7  C23 UNL     1      11.074  -2.348   1.427  1.00  0.00     0.166 C 
BRANCH   7   8
HETATM    8  C24 UNL     1      11.488  -3.563   2.195  1.00  0.00    -0.040 A 
HETATM    9  C25 UNL     1      10.770  -3.969   3.313  1.00  0.00     0.010 A 
HETATM   10  C26 UNL     1      11.153  -5.104   4.008  1.00  0.00     0.013 A 
HETATM   11  C27 UNL     1      12.248  -5.886   3.639  1.00  0.00    -0.025 A 
HETATM   12  C38 UNL     1      12.942  -5.464   2.530  1.00  0.00     0.013 A 
HETATM   13  C39 UNL     1      12.569  -4.323   1.822  1.00  0.00     0.010 A 
BRANCH  11  14
HETATM   14  C28 UNL     1      12.539  -7.083   4.406  1.00  0.00    -0.018 A 
HETATM   15  C29 UNL     1      13.360  -7.020   5.532  1.00  0.00     0.013 A 
HETATM   16  C30 UNL     1      13.641  -8.098   6.333  1.00  0.00     0.001 A 
HETATM   17  C31 UNL     1      13.073  -9.306   5.993  1.00  0.00     0.001 A 
HETATM   18  C32 UNL     1      12.252  -9.384   4.872  1.00  0.00     0.010 A 
HETATM   19  C33 UNL     1      11.961  -8.313   4.057  1.00  0.00    -0.029 A 
BRANCH  19  20
HETATM   20  C34 UNL     1      11.138  -8.345   2.844  1.00  0.00     0.160 C 
BRANCH  20  21
HETATM   21  N4  UNL     1       9.753  -8.040   3.109  1.00  0.00    -0.367 N 
ATOM     22  H4  UNL     1       9.342  -8.316   4.001  1.00  0.00     0.161 HD
BRANCH  21  23
HETATM   23  C35 UNL     1       8.942  -7.357   2.141  1.00  0.00     0.173 C 
HETATM   24  N5  UNL     1       7.821  -6.881   2.512  1.00  0.00    -0.268 N 
ATOM     25  H5  UNL     1       7.236  -6.393   1.834  1.00  0.00     0.190 HD
BRANCH  24  26
HETATM   26  N6  UNL     1       7.381  -7.012   3.820  1.00  0.00    -0.248 N 
HETATM   27  N7  UNL     1       6.167  -7.390   3.978  1.00  0.00    -0.331 N 
ATOM     28  H72 UNL     1       5.569  -7.580   3.174  1.00  0.00     0.178 HD
ATOM     29  H71 UNL     1       5.843  -7.487   4.941  1.00  0.00     0.178 HD
ATOM     30  H6  UNL     1       7.991  -6.818   4.615  1.00  0.00     0.207 HD
ENDBRANCH  24  26
BRANCH  23  31
HETATM   31  C36 UNL     1       9.371  -7.215   0.766  1.00  0.00     0.281 C 
HETATM   32  O3  UNL     1       9.899  -6.134   0.397  1.00  0.00    -0.279 OA
BRANCH  31  33
HETATM   33  C37 UNL     1       9.216  -8.283  -0.220  1.00  0.00     0.308 C 
HETATM   34  N8  UNL     1       9.428  -8.085  -1.607  1.00  0.00    -0.054 NA
HETATM   35  O4  UNL     1       8.883  -9.405   0.194  1.00  0.00    -0.267 OA
ENDBRANCH  31  33
ENDBRANCH  23  31
ENDBRANCH  21  23
ENDBRANCH  20  21
ENDBRANCH  19  20
ENDBRANCH  11  14
ENDBRANCH   7   8
ENDBRANCH   5   7
BRANCH   1  36
HETATM   36  C18 UNL     1      12.296   2.291   0.661  1.00  0.00     0.253 C 
HETATM   37  N2  UNL     1      12.551   3.544   1.266  1.00  0.00    -0.344 N 
ATOM     38  H2  UNL     1      12.833   3.572   2.246  1.00  0.00     0.163 HD
HETATM   39  O2  UNL     1      11.943   2.296  -0.554  1.00  0.00    -0.268 OA
BRANCH  37  40
HETATM   40  C13 UNL     1      12.418   4.822   0.511  1.00  0.00     0.177 C 
BRANCH  40  41
HETATM   41  C12 UNL     1      13.549   5.634   0.970  1.00  0.00     0.245 C 
HETATM   42  N1  UNL     1      13.710   6.979   0.548  1.00  0.00    -0.324 N 
ATOM     43  H1  UNL     1      13.005   7.372  -0.076  1.00  0.00     0.169 HD
HETATM   44  O1  UNL     1      14.395   5.123   1.747  1.00  0.00    -0.271 OA
BRANCH  42  45
HETATM   45  C11 UNL     1      14.793   7.812   0.940  1.00  0.00     0.051 A 
HETATM   46  C2  UNL     1      15.888   7.985   0.073  1.00  0.00    -0.034 A 
HETATM   47  C1  UNL     1      15.825   7.246  -1.216  1.00  0.00     0.050 C 
HETATM   48  C3  UNL     1      16.954   8.784   0.390  1.00  0.00     0.010 A 
HETATM   49  C4  UNL     1      16.976   9.447   1.589  1.00  0.00     0.013 A 
HETATM   50  C5  UNL     1      15.924   9.308   2.474  1.00  0.00    -0.024 A 
HETATM   51  C6  UNL     1      15.951   9.985   3.674  1.00  0.00     0.012 A 
HETATM   52  C10 UNL     1      14.844   8.485   2.128  1.00  0.00     0.001 A 
HETATM   53  C7  UNL     1      14.900   9.856   4.554  1.00  0.00     0.001 A 
HETATM   54  C8  UNL     1      13.839   9.046   4.208  1.00  0.00     0.001 A 
HETATM   55  C9  UNL     1      13.783   8.352   3.009  1.00  0.00     0.014 A 
ENDBRANCH  42  45
ENDBRANCH  40  41
BRANCH  40  56
HETATM   56  C14 UNL     1      11.082   5.357   0.891  1.00  0.00     0.038 C 
BRANCH  56  57
HETATM   57  C15 UNL     1      11.025   6.293   2.039  1.00  0.00    -0.020 C 
HETATM   58  C16 UNL     1      10.344   7.589   1.753  1.00  0.00     0.009 C 
HETATM   59  C17 UNL     1      10.152   5.608   3.122  1.00  0.00     0.009 C 
ENDBRANCH  56  57
ENDBRANCH  40  56
ENDBRANCH  37  40
ENDBRANCH   1  36
TORSDOF 15
ENDMDL
MODEL 2
REMARK VINA RESULT: -10.927037776      1.544      2.058
REMARK  15 active torsions:
REMARK  status: ('A' for Active; 'I' for Inactive)
REMARK    1  A    between atoms: C11_11  and  N1_12 
REMARK       I    between atoms: N1_12  and  C12_14 
REMARK    2  A    between atoms: C12_14  and  C13_16 
REMARK    3  A    between atoms: C13_16  and  C14_17 
REMARK    4  A    between atoms: C13_16  and  N2_21 
REMARK    5  A    between atoms: C14_17  and  C15_18 
REMARK       I    between atoms: N2_21  and  C18_23 
REMARK    6  A    between atoms: C18_23  and  C19_25 
REMARK    7  A    between atoms: N3_29  and  C23_30 
REMARK    8  A    between atoms: C23_30  and  C24_31 
REMARK    9  A    between atoms: C27_34  and  C28_35 
REMARK   10  A    between atoms: C33_40  and  C34_41 
REMARK   11  A    between atoms: C34_41  and  N4_42 
REMARK   12  A    between atoms: N4_42  and  C35_44 
REMARK   13  A    between atoms: C35_44  and  C36_52 
REMARK   14  A    between atoms: N5_45  and  N6_47 
REMARK   15  A    between atoms: C36_52  and  C37_54 
ROOT
HETATM    1  C19 UNL     1      13.013   1.301   1.185  1.00  0.00     0.047 A 
HETATM    2  C20 UNL     1      13.872   1.208   2.259  1.00  0.00     0.020 A 
HETATM    3  C21 UNL     1      13.724   0.182   3.139  1.00  0.00     0.018 A 
HETATM    4  C22 UNL     1      12.730  -0.758   2.968  1.00  0.00     0.090 A 
HETATM    5  N3  UNL     1      11.886  -0.683   1.931  1.00  0.00    -0.361 N 
HETATM    6  C40 UNL     1      12.039   0.335   1.064  1.00  0.00     0.107 A 
ENDROOT
BRANCH   5   7
HETATM    7  C23 UNL     1      10.842  -1.623   1.683  1.00  0.00     0.166 C 
BRANCH   7   8
HETATM    8  C24 UNL     1      11.200  -2.947   2.278  1.00  0.00    -0.040 A 
HETATM    9  C25 UNL     1      10.495  -3.444   3.366  1.00  0.00     0.010 A 
HETATM   10  C26 UNL     1      10.824  -4.679   3.900  1.00  0.00     0.013 A 
HETATM   11  C27 UNL     1      11.851  -5.475   3.392  1.00  0.00    -0.025 A 
HETATM   12  C38 UNL     1      12.534  -4.963   2.315  1.00  0.00     0.013 A 
HETATM   13  C39 UNL     1      12.214  -3.720   1.768  1.00  0.00     0.010 A 
BRANCH  11  14
HETATM   14  C28 UNL     1      12.086  -6.775   3.994  1.00  0.00    -0.018 A 
HETATM   15  C29 UNL     1      13.056  -6.931   4.984  1.00  0.00     0.013 A 
HETATM   16  C30 UNL     1      13.302  -8.115   5.631  1.00  0.00     0.001 A 
HETATM   17  C31 UNL     1      12.540  -9.206   5.271  1.00  0.00     0.001 A 
HETATM   18  C32 UNL     1      11.570  -9.065   4.284  1.00  0.00     0.010 A 
HETATM   19  C33 UNL     1      11.311  -7.884   3.624  1.00  0.00    -0.029 A 
BRANCH  19  20
HETATM   20  C34 UNL     1      10.331  -7.688   2.551  1.00  0.00     0.160 C 
BRANCH  20  21
HETATM   21  N4  UNL     1       9.973  -8.922   1.898  1.00  0.00    -0.367 N 
ATOM     22  H4  UNL     1      10.237  -9.809   2.327  1.00  0.00     0.161 HD
BRANCH  21  23
HETATM   23  C35 UNL     1       9.253  -8.928   0.656  1.00  0.00     0.173 C 
HETATM   24  N5  UNL     1       9.082 -10.037   0.055  1.00  0.00    -0.268 N 
ATOM     25  H5  UNL     1       8.572 -10.054  -0.828  1.00  0.00     0.190 HD
BRANCH  24  26
HETATM   26  N6  UNL     1       9.576 -11.223   0.578  1.00  0.00    -0.248 N 
HETATM   27  N7  UNL     1       8.940 -12.291   0.268  1.00  0.00    -0.331 N 
ATOM     28  H72 UNL     1       8.117 -12.254  -0.332  1.00  0.00     0.178 HD
ATOM     29  H71 UNL     1       9.304 -13.163   0.652  1.00  0.00     0.178 HD
ATOM     30  H6  UNL     1      10.401 -11.243   1.177  1.00  0.00     0.207 HD
ENDBRANCH  24  26
BRANCH  23  31
HETATM   31  C36 UNL     1       8.736  -7.704   0.081  1.00  0.00     0.281 C 
HETATM   32  O3  UNL     1       7.580  -7.320   0.394  1.00  0.00    -0.279 OA
BRANCH  31  33
HETATM   33  C37 UNL     1       9.508  -6.888  -0.855  1.00  0.00     0.308 C 
HETATM   34  N8  UNL     1       9.710  -5.497  -0.675  1.00  0.00    -0.054 NA
HETATM   35  O4  UNL     1       9.999  -7.455  -1.844  1.00  0.00    -0.267 OA
ENDBRANCH  31  33
ENDBRANCH  23  31
ENDBRANCH  21  23
ENDBRANCH  20  21
ENDBRANCH  19  20
ENDBRANCH  11  14
ENDBRANCH   7   8
ENDBRANCH   5   7
BRANCH   1  36
HETATM   36  C18 UNL     1      13.162   2.398   0.247  1.00  0.00     0.253 C 
HETATM   37  N2  UNL     1      13.097   3.738   0.694  1.00  0.00    -0.344 N 
ATOM     38  H2  UNL     1      12.942   3.923   1.685  1.00  0.00     0.163 HD
HETATM   39  O2  UNL     1      13.351   2.208  -0.990  1.00  0.00    -0.268 OA
BRANCH  37  40
HETATM   40  C13 UNL     1      13.251   4.887  -0.244  1.00  0.00     0.177 C 
BRANCH  40  41
HETATM   41  C12 UNL     1      14.274   5.731   0.382  1.00  0.00     0.245 C 
HETATM   42  N1  UNL     1      14.238   7.144   0.261  1.00  0.00    -0.324 N 
ATOM     43  H1  UNL     1      13.468   7.560  -0.264  1.00  0.00     0.169 HD
HETATM   44  O1  UNL     1      15.204   5.189   1.030  1.00  0.00    -0.271 OA
BRANCH  42  45
HETATM   45  C11 UNL     1      15.208   8.016   0.826  1.00  0.00     0.051 A 
HETATM   46  C2  UNL     1      16.367   8.335   0.094  1.00  0.00    -0.034 A 
HETATM   47  C1  UNL     1      16.491   7.702  -1.245  1.00  0.00     0.050 C 
HETATM   48  C3  UNL     1      17.331   9.179   0.581  1.00  0.00     0.010 A 
HETATM   49  C4  UNL     1      17.181   9.741   1.821  1.00  0.00     0.013 A 
HETATM   50  C5  UNL     1      16.060   9.458   2.577  1.00  0.00    -0.024 A 
HETATM   51  C6  UNL     1      15.914  10.035   3.820  1.00  0.00     0.012 A 
HETATM   52  C10 UNL     1      15.088   8.592   2.059  1.00  0.00     0.001 A 
HETATM   53  C7  UNL     1      14.794   9.761   4.572  1.00  0.00     0.001 A 
HETATM   54  C8  UNL     1      13.839   8.911   4.058  1.00  0.00     0.001 A 
HETATM   55  C9  UNL     1      13.958   8.314   2.811  1.00  0.00     0.014 A 
ENDBRANCH  42  45
ENDBRANCH  40  41
BRANCH  40  56
HETATM   56  C14 UNL     1      11.901   5.508  -0.316  1.00  0.00     0.038 C 
BRANCH  56  57
HETATM   57  C15 UNL     1      11.373   5.837  -1.661  1.00  0.00    -0.020 C 
HETATM   58  C16 UNL     1      11.436   7.283  -2.020  1.00  0.00     0.009 C 
HETATM   59  C17 UNL     1      12.298   5.125  -2.682  1.00  0.00     0.009 C 
ENDBRANCH  56  57
ENDBRANCH  40  56
ENDBRANCH  37  40
ENDBRANCH   1  36
TORSDOF 15
ENDMDL
MODEL 3
REMARK VINA RESULT: -10.883037644      1.321      1.701
REMARK  15 active torsions:
REMARK  status: ('A' for Active; 'I' for Inactive)
REMARK    1  A    between atoms: C11_11  and  N1_12 
REMARK       I    between atoms: N1_12  and  C12_14 
REMARK    2  A    between atoms: C12_14  and  C13_16 
REMARK    3  A    between atoms: C13_16  and  C14_17 
REMARK    4  A    between atoms: C13_16  and  N2_21 
REMARK    5  A    between atoms: C14_17  and  C15_18 
REMARK       I    between atoms: N2_21  and  C18_23 
REMARK    6  A    between atoms: C18_23  and  C19_25 
REMARK    7  A    between atoms: N3_29  and  C23_30 
REMARK    8  A    between atoms: C23_30  and  C24_31 
REMARK    9  A    between atoms: C27_34  and  C28_35 
REMARK   10  A    between atoms: C33_40  and  C34_41 
REMARK   11  A    between atoms: C34_41  and  N4_42 
REMARK   12  A    between atoms: N4_42  and  C35_44 
REMARK   13  A    between atoms: C35_44  and  C36_52 
REMARK   14  A    between atoms: N5_45  and  N6_47 
REMARK   15  A    between atoms: C36_52  and  C37_54 
ROOT
HETATM    1  C19 UNL     1      12.855   1.336   1.255  1.00  0.00     0.047 A 
HETATM    2  C20 UNL     1      13.802   1.185   2.245  1.00  0.00     0.020 A 
HETATM    3  C21 UNL     1      13.746   0.094   3.056  1.00  0.00     0.018 A 
HETATM    4  C22 UNL     1      12.757  -0.853   2.897  1.00  0.00     0.090 A 
HETATM    5  N3  UNL     1      11.828  -0.723   1.942  1.00  0.00    -0.361 N 
HETATM    6  C40 UNL     1      11.891   0.359   1.143  1.00  0.00     0.107 A 
ENDROOT
BRANCH   5   7
HETATM    7  C23 UNL     1      10.783  -1.665   1.710  1.00  0.00     0.166 C 
BRANCH   7   8
HETATM    8  C24 UNL     1      11.154  -2.988   2.300  1.00  0.00    -0.040 A 
HETATM    9  C25 UNL     1      10.449  -3.501   3.381  1.00  0.00     0.010 A 
HETATM   10  C26 UNL     1      10.790  -4.735   3.910  1.00  0.00     0.013 A 
HETATM   11  C27 UNL     1      11.831  -5.514   3.405  1.00  0.00    -0.025 A 
HETATM   12  C38 UNL     1      12.515  -4.986   2.335  1.00  0.00     0.013 A 
HETATM   13  C39 UNL     1      12.182  -3.745   1.794  1.00  0.00     0.010 A 
BRANCH  11  14
HETATM   14  C28 UNL     1      12.080  -6.814   4.000  1.00  0.00    -0.018 A 
HETATM   15  C29 UNL     1      13.041  -6.962   5.000  1.00  0.00     0.013 A 
HETATM   16  C30 UNL     1      13.298  -8.147   5.642  1.00  0.00     0.001 A 
HETATM   17  C31 UNL     1      12.557  -9.246   5.266  1.00  0.00     0.001 A 
HETATM   18  C32 UNL     1      11.595  -9.114   4.270  1.00  0.00     0.010 A 
HETATM   19  C33 UNL     1      11.325  -7.932   3.615  1.00  0.00    -0.029 A 
BRANCH  19  20
HETATM   20  C34 UNL     1      10.354  -7.744   2.533  1.00  0.00     0.160 C 
BRANCH  20  21
HETATM   21  N4  UNL     1       9.997  -8.984   1.889  1.00  0.00    -0.367 N 
ATOM     22  H4  UNL     1      10.258  -9.867   2.327  1.00  0.00     0.161 HD
BRANCH  21  23
HETATM   23  C35 UNL     1       9.282  -8.999   0.644  1.00  0.00     0.173 C 
HETATM   24  N5  UNL     1       9.084 -10.117   0.069  1.00  0.00    -0.268 N 
ATOM     25  H5  UNL     1       8.577 -10.141  -0.816  1.00  0.00     0.190 HD
BRANCH  24  26
HETATM   26  N6  UNL     1       9.544 -11.303   0.621  1.00  0.00    -0.248 N 
HETATM   27  N7  UNL     1       8.941 -12.373   0.258  1.00  0.00    -0.331 N 
ATOM     28  H72 UNL     1       8.165 -12.338  -0.404  1.00  0.00     0.178 HD
ATOM     29  H71 UNL     1       9.280 -13.245   0.664  1.00  0.00     0.178 HD
ATOM     30  H6  UNL     1      10.321 -11.322   1.282  1.00  0.00     0.207 HD
ENDBRANCH  24  26
BRANCH  23  31
HETATM   31  C36 UNL     1       8.800  -7.776   0.039  1.00  0.00     0.281 C 
HETATM   32  O3  UNL     1       9.517  -7.190  -0.813  1.00  0.00    -0.279 OA
BRANCH  31  33
HETATM   33  C37 UNL     1       7.505  -7.187   0.377  1.00  0.00     0.308 C 
HETATM   34  N8  UNL     1       6.779  -6.364  -0.518  1.00  0.00    -0.054 NA
HETATM   35  O4  UNL     1       7.039  -7.431   1.501  1.00  0.00    -0.267 OA
ENDBRANCH  31  33
ENDBRANCH  23  31
ENDBRANCH  21  23
ENDBRANCH  20  21
ENDBRANCH  19  20
ENDBRANCH  11  14
ENDBRANCH   7   8
ENDBRANCH   5   7
BRANCH   1  36
HETATM   36  C18 UNL     1      12.906   2.502   0.392  1.00  0.00     0.253 C 
HETATM   37  N2  UNL     1      12.755   3.800   0.931  1.00  0.00    -0.344 N 
ATOM     38  H2  UNL     1      12.606   3.906   1.934  1.00  0.00     0.163 HD
HETATM   39  O2  UNL     1      13.084   2.409  -0.857  1.00  0.00    -0.268 OA
BRANCH  37  40
HETATM   40  C13 UNL     1      12.807   5.018   0.072  1.00  0.00     0.177 C 
BRANCH  40  41
HETATM   41  C12 UNL     1      13.900   5.814   0.639  1.00  0.00     0.245 C 
HETATM   42  N1  UNL     1      14.014   7.203   0.372  1.00  0.00    -0.324 N 
ATOM     43  H1  UNL     1      13.303   7.637  -0.217  1.00  0.00     0.169 HD
HETATM   44  O1  UNL     1      14.754   5.252   1.369  1.00  0.00    -0.271 OA
BRANCH  42  45
HETATM   45  C11 UNL     1      15.058   8.027   0.874  1.00  0.00     0.051 A 
HETATM   46  C2  UNL     1      16.199   8.263   0.085  1.00  0.00    -0.034 A 
HETATM   47  C1  UNL     1      16.225   7.597  -1.245  1.00  0.00     0.050 C 
HETATM   48  C3  UNL     1      17.231   9.057   0.510  1.00  0.00     0.010 A 
HETATM   49  C4  UNL     1      17.172   9.651   1.742  1.00  0.00     0.013 A 
HETATM   50  C5  UNL     1      16.071   9.449   2.554  1.00  0.00    -0.024 A 
HETATM   51  C6  UNL     1      16.016  10.057   3.788  1.00  0.00     0.012 A 
HETATM   52  C10 UNL     1      15.027   8.633   2.098  1.00  0.00     0.001 A 
HETATM   53  C7  UNL     1      14.917   9.865   4.595  1.00  0.00     0.001 A 
HETATM   54  C8  UNL     1      13.892   9.063   4.143  1.00  0.00     0.001 A 
HETATM   55  C9  UNL     1      13.919   8.436   2.905  1.00  0.00     0.014 A 
ENDBRANCH  42  45
ENDBRANCH  40  41
BRANCH  40  56
HETATM   56  C14 UNL     1      11.462   5.638   0.201  1.00  0.00     0.038 C 
BRANCH  56  57
HETATM   57  C15 UNL     1      11.014   6.018   1.562  1.00  0.00    -0.020 C 
HETATM   58  C16 UNL     1      10.656   7.457   1.722  1.00  0.00     0.009 C 
HETATM   59  C17 UNL     1       9.698   5.242   1.824  1.00  0.00     0.009 C 
ENDBRANCH  56  57
ENDBRANCH  40  56
ENDBRANCH  37  40
ENDBRANCH   1  36
TORSDOF 15
ENDMDL
MODEL 4
REMARK VINA RESULT: -10.796204835      1.164      1.405
REMARK  15 active torsions:
REMARK  status: ('A' for Active; 'I' for Inactive)
REMARK    1  A    between atoms: C11_11  and  N1_12 
REMARK       I    between atoms: N1_12  and  C12_14 
REMARK    2  A    between atoms: C12_14  and  C13_16 
REMARK    3  A    between atoms: C13_16  and  C14_17 
REMARK    4  A    between atoms: C13_16  and  N2_21 
REMARK    5  A    between atoms: C14_17  and  C15_18 
REMARK       I    between atoms: N2_21  and  C18_23 
REMARK    6  A    between atoms: C18_23  and  C19_25 
REMARK    7  A    between atoms: N3_29  and  C23_30 
REMARK    8  A    between atoms: C23_30  and  C24_31 
REMARK    9  A    between atoms: C27_34  and  C28_35 
REMARK   10  A    between atoms: C33_40  and  C34_41 
REMARK   11  A    between atoms: C34_41  and  N4_42 
REMARK   12  A    between atoms: N4_42  and  C35_44 
REMARK   13  A    between atoms: C35_44  and  C36_52 
REMARK   14  A    between atoms: N5_45  and  N6_47 
REMARK   15  A    between atoms: C36_52  and  C37_54 
ROOT
HETATM    1  C19 UNL     1      12.807   1.608   1.335  1.00  0.00     0.047 A 
HETATM    2  C20 UNL     1      13.401   1.633   2.579  1.00  0.00     0.020 A 
HETATM    3  C21 UNL     1      13.072   0.678   3.490  1.00  0.00     0.018 A 
HETATM    4  C22 UNL     1      12.159  -0.307   3.182  1.00  0.00     0.090 A 
HETATM    5  N3  UNL     1      11.571  -0.348   1.979  1.00  0.00    -0.361 N 
HETATM    6  C40 UNL     1      11.902   0.601   1.083  1.00  0.00     0.107 A 
ENDROOT
BRANCH   5   7
HETATM    7  C23 UNL     1      10.627  -1.340   1.585  1.00  0.00     0.166 C 
BRANCH   7   8
HETATM    8  C24 UNL     1      11.009  -2.664   2.168  1.00  0.00    -0.040 A 
HETATM    9  C25 UNL     1      10.225  -3.255   3.150  1.00  0.00     0.010 A 
HETATM   10  C26 UNL     1      10.579  -4.487   3.672  1.00  0.00     0.013 A 
HETATM   11  C27 UNL     1      11.711  -5.190   3.255  1.00  0.00    -0.025 A 
HETATM   12  C38 UNL     1      12.471  -4.586   2.282  1.00  0.00     0.013 A 
HETATM   13  C39 UNL     1      12.126  -3.344   1.749  1.00  0.00     0.010 A 
BRANCH  11  14
HETATM   14  C28 UNL     1      11.969  -6.497   3.830  1.00  0.00    -0.018 A 
HETATM   15  C29 UNL     1      12.827  -6.632   4.923  1.00  0.00     0.013 A 
HETATM   16  C30 UNL     1      13.082  -7.825   5.549  1.00  0.00     0.001 A 
HETATM   17  C31 UNL     1      12.450  -8.947   5.061  1.00  0.00     0.001 A 
HETATM   18  C32 UNL     1      11.592  -8.828   3.972  1.00  0.00     0.010 A 
HETATM   19  C33 UNL     1      11.325  -7.638   3.330  1.00  0.00    -0.029 A 
BRANCH  19  20
HETATM   20  C34 UNL     1      10.464  -7.461   2.157  1.00  0.00     0.160 C 
BRANCH  20  21
HETATM   21  N4  UNL     1       9.644  -8.617   1.894  1.00  0.00    -0.367 N 
ATOM     22  H4  UNL     1       9.741  -9.443   2.484  1.00  0.00     0.161 HD
BRANCH  21  23
HETATM   23  C35 UNL     1       8.692  -8.627   0.818  1.00  0.00     0.173 C 
HETATM   24  N5  UNL     1       7.566  -8.062   0.996  1.00  0.00    -0.268 N 
ATOM     25  H5  UNL     1       6.882  -8.063   0.239  1.00  0.00     0.190 HD
BRANCH  24  26
HETATM   26  N6  UNL     1       7.250  -7.445   2.197  1.00  0.00    -0.248 N 
HETATM   27  N7  UNL     1       6.014  -7.447   2.531  1.00  0.00    -0.331 N 
ATOM     28  H72 UNL     1       5.311  -7.883   1.935  1.00  0.00     0.178 HD
ATOM     29  H71 UNL     1       5.782  -6.994   3.415  1.00  0.00     0.178 HD
ATOM     30  H6  UNL     1       7.965  -7.013   2.782  1.00  0.00     0.207 HD
ENDBRANCH  24  26
BRANCH  23  31
HETATM   31  C36 UNL     1       8.990  -9.274  -0.442  1.00  0.00     0.281 C 
HETATM   32  O3  UNL     1       9.399  -8.577  -1.407  1.00  0.00    -0.279 OA
BRANCH  31  33
HETATM   33  C37 UNL     1       8.835 -10.714  -0.643  1.00  0.00     0.308 C 
HETATM   34  N8  UNL     1       8.086 -11.263  -1.713  1.00  0.00    -0.054 NA
HETATM   35  O4  UNL     1       9.390 -11.471   0.169  1.00  0.00    -0.267 OA
ENDBRANCH  31  33
ENDBRANCH  23  31
ENDBRANCH  21  23
ENDBRANCH  20  21
ENDBRANCH  19  20
ENDBRANCH  11  14
ENDBRANCH   7   8
ENDBRANCH   5   7
BRANCH   1  36
HETATM   36  C18 UNL     1      13.148   2.629   0.362  1.00  0.00     0.253 C 
HETATM   37  N2  UNL     1      12.838   3.986   0.608  1.00  0.00    -0.344 N 
ATOM     38  H2  UNL     1      12.369   4.238   1.478  1.00  0.00     0.163 HD
HETATM   39  O2  UNL     1      13.726   2.355  -0.730  1.00  0.00    -0.268 OA
BRANCH  37  40
HETATM   40  C13 UNL     1      13.180   5.059  -0.370  1.00  0.00     0.177 C 
BRANCH  40  41
HETATM   41  C12 UNL     1      14.206   5.855   0.310  1.00  0.00     0.245 C 
HETATM   42  N1  UNL     1      14.264   7.265   0.161  1.00  0.00    -0.324 N 
ATOM     43  H1  UNL     1      13.558   7.713  -0.425  1.00  0.00     0.169 HD
HETATM   44  O1  UNL     1      15.055   5.274   1.033  1.00  0.00    -0.271 OA
BRANCH  42  45
HETATM   45  C11 UNL     1      15.243   8.091   0.776  1.00  0.00     0.051 A 
HETATM   46  C2  UNL     1      16.429   8.399   0.084  1.00  0.00    -0.034 A 
HETATM   47  C1  UNL     1      16.569   7.802  -1.271  1.00  0.00     0.050 C 
HETATM   48  C3  UNL     1      17.403   9.199   0.620  1.00  0.00     0.010 A 
HETATM   49  C4  UNL     1      17.238   9.728   1.872  1.00  0.00     0.013 A 
HETATM   50  C5  UNL     1      16.090   9.455   2.591  1.00  0.00    -0.024 A 
HETATM   51  C6  UNL     1      15.928   9.998   3.847  1.00  0.00     0.012 A 
HETATM   52  C10 UNL     1      15.107   8.633   2.023  1.00  0.00     0.001 A 
HETATM   53  C7  UNL     1      14.782   9.735   4.563  1.00  0.00     0.001 A 
HETATM   54  C8  UNL     1      13.817   8.928   3.999  1.00  0.00     0.001 A 
HETATM   55  C9  UNL     1      13.951   8.365   2.737  1.00  0.00     0.014 A 
ENDBRANCH  42  45
ENDBRANCH  40  41
BRANCH  40  56
HETATM   56  C14 UNL     1      11.901   5.780  -0.612  1.00  0.00     0.038 C 
BRANCH  56  57
HETATM   57  C15 UNL     1      10.858   5.689   0.437  1.00  0.00    -0.020 C 
HETATM   58  C16 UNL     1      10.828   6.836   1.389  1.00  0.00     0.009 C 
HETATM   59  C17 UNL     1       9.493   5.735  -0.296  1.00  0.00     0.009 C 
ENDBRANCH  56  57
ENDBRANCH  40  56
ENDBRANCH  37  40
ENDBRANCH   1  36
TORSDOF 15
ENDMDL
MODEL 5
REMARK VINA RESULT: -10.710242612      1.291      1.828
REMARK  15 active torsions:
REMARK  status: ('A' for Active; 'I' for Inactive)
REMARK    1  A    between atoms: C11_11  and  N1_12 
REMARK       I    between atoms: N1_12  and  C12_14 
REMARK    2  A    between atoms: C12_14  and  C13_16 
REMARK    3  A    between atoms: C13_16  and  C14_17 
REMARK    4  A    between atoms: C13_16  and  N2_21 
REMARK    5  A    between atoms: C14_17  and  C15_18 
REMARK       I    between atoms: N2_21  and  C18_23 
REMARK    6  A    between atoms: C18_23  and  C19_25 
REMARK    7  A    between atoms: N3_29  and  C23_30 
REMARK    8  A    between atoms: C23_30  and  C24_31 
REMARK    9  A    between atoms: C27_34  and  C28_35 
REMARK   10  A    between atoms: C33_40  and  C34_41 
REMARK   11  A    between atoms: C34_41  and  N4_42 
REMARK   12  A    between atoms: N4_42  and  C35_44 
REMARK   13  A    between atoms: C35_44  and  C36_52 
REMARK   14  A    between atoms: N5_45  and  N6_47 
REMARK   15  A    between atoms: C36_52  and  C37_54 
ROOT
HETATM    1  C19 UNL     1      13.037   1.323   1.117  1.00  0.00     0.047 A 
HETATM    2  C20 UNL     1      13.918   1.185   2.168  1.00  0.00     0.020 A 
HETATM    3  C21 UNL     1      13.754   0.154   3.040  1.00  0.00     0.018 A 
HETATM    4  C22 UNL     1      12.723  -0.747   2.882  1.00  0.00     0.090 A 
HETATM    5  N3  UNL     1      11.857  -0.628   1.867  1.00  0.00    -0.361 N 
HETATM    6  C40 UNL     1      12.026   0.395   1.009  1.00  0.00     0.107 A 
ENDROOT
BRANCH   5   7
HETATM    7  C23 UNL     1      10.774  -1.526   1.633  1.00  0.00     0.166 C 
BRANCH   7   8
HETATM    8  C24 UNL     1      11.069  -2.851   2.261  1.00  0.00    -0.040 A 
HETATM    9  C25 UNL     1      12.042  -3.684   1.725  1.00  0.00     0.010 A 
HETATM   10  C26 UNL     1      12.318  -4.902   2.323  1.00  0.00     0.013 A 
HETATM   11  C27 UNL     1      11.657  -5.353   3.467  1.00  0.00    -0.025 A 
HETATM   12  C38 UNL     1      10.699  -4.510   3.980  1.00  0.00     0.013 A 
HETATM   13  C39 UNL     1      10.410  -3.282   3.386  1.00  0.00     0.010 A 
BRANCH  11  14
HETATM   14  C28 UNL     1      12.053  -6.623   4.045  1.00  0.00    -0.018 A 
HETATM   15  C29 UNL     1      13.014  -6.673   5.055  1.00  0.00     0.013 A 
HETATM   16  C30 UNL     1      13.403  -7.830   5.681  1.00  0.00     0.001 A 
HETATM   17  C31 UNL     1      12.803  -9.003   5.279  1.00  0.00     0.001 A 
HETATM   18  C32 UNL     1      11.844  -8.969   4.272  1.00  0.00     0.010 A 
HETATM   19  C33 UNL     1      11.442  -7.817   3.632  1.00  0.00    -0.029 A 
BRANCH  19  20
HETATM   20  C34 UNL     1      10.467  -7.727   2.541  1.00  0.00     0.160 C 
BRANCH  20  21
HETATM   21  N4  UNL     1       9.135  -7.439   3.012  1.00  0.00    -0.367 N 
ATOM     22  H4  UNL     1       8.928  -7.526   4.007  1.00  0.00     0.161 HD
BRANCH  21  23
HETATM   23  C35 UNL     1       8.096  -7.031   2.108  1.00  0.00     0.173 C 
HETATM   24  N5  UNL     1       6.893  -7.029   2.525  1.00  0.00    -0.268 N 
ATOM     25  H5  UNL     1       6.146  -6.742   1.893  1.00  0.00     0.190 HD
BRANCH  24  26
HETATM   26  N6  UNL     1       6.579  -7.409   3.820  1.00  0.00    -0.248 N 
HETATM   27  N7  UNL     1       5.371  -7.782   4.028  1.00  0.00    -0.331 N 
ATOM     28  H72 UNL     1       4.689  -7.793   3.270  1.00  0.00     0.178 HD
ATOM     29  H71 UNL     1       5.140  -8.062   4.981  1.00  0.00     0.178 HD
ATOM     30  H6  UNL     1       7.272  -7.392   4.568  1.00  0.00     0.207 HD
ENDBRANCH  24  26
BRANCH  23  31
HETATM   31  C36 UNL     1       8.394  -6.641   0.747  1.00  0.00     0.281 C 
HETATM   32  O3  UNL     1       8.392  -7.517  -0.157  1.00  0.00    -0.279 OA
BRANCH  31  33
HETATM   33  C37 UNL     1       8.700  -5.261   0.373  1.00  0.00     0.308 C 
HETATM   34  N8  UNL     1       9.635  -4.929  -0.638  1.00  0.00    -0.054 NA
HETATM   35  O4  UNL     1       8.105  -4.356   0.980  1.00  0.00    -0.267 OA
ENDBRANCH  31  33
ENDBRANCH  23  31
ENDBRANCH  21  23
ENDBRANCH  20  21
ENDBRANCH  19  20
ENDBRANCH  11  14
ENDBRANCH   7   8
ENDBRANCH   5   7
BRANCH   1  36
HETATM   36  C18 UNL     1      13.203   2.426   0.189  1.00  0.00     0.253 C 
HETATM   37  N2  UNL     1      13.129   3.763   0.643  1.00  0.00    -0.344 N 
ATOM     38  H2  UNL     1      12.953   3.942   1.631  1.00  0.00     0.163 HD
HETATM   39  O2  UNL     1      13.417   2.244  -1.045  1.00  0.00    -0.268 OA
BRANCH  37  40
HETATM   40  C13 UNL     1      13.299   4.918  -0.285  1.00  0.00     0.177 C 
BRANCH  40  41
HETATM   41  C12 UNL     1      14.312   5.757   0.363  1.00  0.00     0.245 C 
HETATM   42  N1  UNL     1      14.300   7.169   0.221  1.00  0.00    -0.324 N 
ATOM     43  H1  UNL     1      13.556   7.587  -0.337  1.00  0.00     0.169 HD
HETATM   44  O1  UNL     1      15.211   5.212   1.052  1.00  0.00    -0.271 OA
BRANCH  42  45
HETATM   45  C11 UNL     1      15.263   8.036   0.807  1.00  0.00     0.051 A 
HETATM   46  C2  UNL     1      16.436   8.353   0.098  1.00  0.00    -0.034 A 
HETATM   47  C1  UNL     1      16.583   7.723  -1.241  1.00  0.00     0.050 C 
HETATM   48  C3  UNL     1      17.393   9.192   0.605  1.00  0.00     0.010 A 
HETATM   49  C4  UNL     1      17.222   9.751   1.844  1.00  0.00     0.013 A 
HETATM   50  C5  UNL     1      16.086   9.469   2.578  1.00  0.00    -0.024 A 
HETATM   51  C6  UNL     1      15.918  10.043   3.819  1.00  0.00     0.012 A 
HETATM   52  C10 UNL     1      15.121   8.608   2.039  1.00  0.00     0.001 A 
HETATM   53  C7  UNL     1      14.783   9.771   4.549  1.00  0.00     0.001 A 
HETATM   54  C8  UNL     1      13.836   8.925   4.015  1.00  0.00     0.001 A 
HETATM   55  C9  UNL     1      13.976   8.331   2.768  1.00  0.00     0.014 A 
ENDBRANCH  42  45
ENDBRANCH  40  41
BRANCH  40  56
HETATM   56  C14 UNL     1      11.951   5.541  -0.377  1.00  0.00     0.038 C 
BRANCH  56  57
HETATM   57  C15 UNL     1      11.462   5.911  -1.726  1.00  0.00    -0.020 C 
HETATM   58  C16 UNL     1      11.447   7.376  -2.004  1.00  0.00     0.009 C 
HETATM   59  C17 UNL     1      12.475   5.317  -2.739  1.00  0.00     0.009 C 
ENDBRANCH  56  57
ENDBRANCH  40  56
ENDBRANCH  37  40
ENDBRANCH   1  36
TORSDOF 15
ENDMDL
