MODEL 1
REMARK VINA RESULT: -10.870973320      0.000      0.000
REMARK  16 active torsions:
REMARK  status: ('A' for Active; 'I' for Inactive)
REMARK    1  A    between atoms: C2_2  and  C3_3 
REMARK    2  A    between atoms: C3_3  and  C4_4 
REMARK    3  A    between atoms: C4_4  and  N1_5 
REMARK    4  A    between atoms: C8_9  and  C9_10 
REMARK    5  A    between atoms: C9_10  and  O1_11 
REMARK    6  A    between atoms: O1_11  and  C10_12 
REMARK    7  A    between atoms: C10_12  and  C12_14 
REMARK    8  A    between atoms: C16_19  and  C17_20 
REMARK    9  A    between atoms: C19_22  and  O2_23 
REMARK   10  A    between atoms: C19_22  and  C20_25 
REMARK   11  A    between atoms: C22_27  and  O3_28 
REMARK   12  A    between atoms: C23_32  and  C24_33 
REMARK   13  A    between atoms: C24_33  and  C25_34 
REMARK   14  A    between atoms: C25_34  and  C26_35 
REMARK   15  A    between atoms: C25_34  and  C32_42 
REMARK   16  A    between atoms: C26_35  and  N4_36 
ROOT
HETATM    1  C12 UNL     1      11.565  -0.380   1.121  1.00  0.00     0.003 A 
HETATM    2  C13 UNL     1      11.009  -0.289  -0.201  1.00  0.00     0.034 A 
HETATM    3  C14 UNL     1      11.321   0.778  -0.908  1.00  0.00     0.117 A 
HETATM    4  N2  UNL     1      12.138   1.835  -0.530  1.00  0.00    -0.268 N 
HETATM    5  C15 UNL     1      12.666   1.754   0.728  1.00  0.00     0.083 A 
HETATM    6  C16 UNL     1      12.380   0.654   1.553  1.00  0.00    -0.018 A 
HETATM    7  C19 UNL     1      13.661   2.782   1.177  1.00  0.00     0.166 C 
HETATM    8  C22 UNL     1      13.376   4.136   0.719  1.00  0.00     0.159 C 
HETATM    9  N3  UNL     1      14.068   5.191   0.186  1.00  0.00    -0.324 N 
ATOM     10  H3  UNL     1      13.635   6.089   0.405  1.00  0.00     0.169 HD
HETATM   11  C23 UNL     1      15.265   5.337  -0.612  1.00  0.00     0.107 C 
HETATM   12  N6  UNL     1      15.331   4.765  -1.795  1.00  0.00    -0.351 N 
ATOM     13  H6  UNL     1      16.217   4.911  -2.279  1.00  0.00     0.166 HD
HETATM   14  C40 UNL     1      14.414   3.997  -2.511  1.00  0.00     0.108 C 
HETATM   15  C41 UNL     1      13.332   3.296  -2.369  1.00  0.00     0.124 C 
HETATM   16  N7  UNL     1      12.365   2.813  -1.523  1.00  0.00    -0.304 N 
ATOM     17  H7  UNL     1      11.508   3.349  -1.660  1.00  0.00     0.186 HD
ENDROOT
BRANCH  11  18
HETATM   18  C24 UNL     1      16.251   6.311  -0.153  1.00  0.00     0.062 C 
BRANCH  18  19
HETATM   19  C25 UNL     1      16.134   7.770  -0.084  1.00  0.00    -0.004 C 
BRANCH  19  20
HETATM   20  C26 UNL     1      14.872   8.148   0.619  1.00  0.00     0.108 C 
BRANCH  20  21
HETATM   21  N4  UNL     1      14.901   8.668   1.923  1.00  0.00    -0.342 N 
HETATM   22  C27 UNL     1      15.790   9.346   2.551  1.00  0.00     0.096 A 
HETATM   23  C28 UNL     1      15.748   9.746   3.858  1.00  0.00     0.018 A 
HETATM   24  C29 UNL     1      14.676   9.427   4.636  1.00  0.00     0.003 A 
HETATM   25  C30 UNL     1      13.665   8.685   3.993  1.00  0.00     0.018 A 
HETATM   26  C31 UNL     1      13.766   8.315   2.685  1.00  0.00     0.096 A 
ENDBRANCH  20  21
ENDBRANCH  19  20
BRANCH  19  27
HETATM   27  C32 UNL     1      16.847   8.659  -0.958  1.00  0.00     0.004 A 
HETATM   28  C33 UNL     1      16.696   8.792  -2.359  1.00  0.00     0.101 A 
HETATM   29  N5  UNL     1      17.645   9.543  -2.896  1.00  0.00    -0.364 N 
HETATM   30  C34 UNL     1      18.460   9.945  -1.925  1.00  0.00     0.043 A 
ATOM     31  H5  UNL     1      17.735   9.774  -3.886  1.00  0.00     0.165 HD
HETATM   32  C35 UNL     1      19.583  10.777  -2.028  1.00  0.00     0.030 A 
HETATM   33  C39 UNL     1      18.003   9.426  -0.736  1.00  0.00     0.003 A 
HETATM   34  C36 UNL     1      20.252  11.082  -0.863  1.00  0.00     0.002 A 
HETATM   35  C37 UNL     1      19.823  10.586   0.350  1.00  0.00     0.001 A 
HETATM   36  C38 UNL     1      18.726   9.780   0.387  1.00  0.00     0.014 A 
ENDBRANCH  19  27
ENDBRANCH  18  19
ENDBRANCH  11  18
BRANCH   8  37
HETATM   37  O3  UNL     1      12.081   4.404   0.881  1.00  0.00    -0.347 OA
ATOM     38  H3  UNL     1      11.963   5.329   1.061  1.00  0.00     0.219 HD
ENDBRANCH   8  37
BRANCH   7  39
HETATM   39  O2  UNL     1      13.383   3.008   2.620  1.00  0.00    -0.375 OA
ATOM     40  H2  UNL     1      13.852   3.801   2.851  1.00  0.00     0.211 HD
ENDBRANCH   7  39
BRANCH   7  41
HETATM   41  C20 UNL     1      15.033   2.266   1.250  1.00  0.00     0.049 C 
HETATM   42  C21 UNL     1      15.646   1.682   0.004  1.00  0.00     0.009 C 
ENDBRANCH   7  41
BRANCH   6  43
HETATM   43  C17 UNL     1      12.942   0.467   2.891  1.00  0.00     0.037 C 
HETATM   44  C18 UNL     1      12.028   0.634   4.085  1.00  0.00     0.010 C 
ENDBRANCH   6  43
BRANCH   1  45
HETATM   45  C10 UNL     1      11.134  -1.599   1.816  1.00  0.00     0.053 C 
HETATM   46  C11 UNL     1      10.042  -2.273   0.861  1.00  0.00     0.077 C 
BRANCH  45  47
HETATM   47  O1  UNL     1      11.798  -2.466   2.490  1.00  0.00    -0.350 OA
BRANCH  47  48
HETATM   48  C9  UNL     1      11.474  -3.791   2.358  1.00  0.00     0.215 C 
BRANCH  48  49
HETATM   49  C8  UNL     1      12.423  -4.784   2.841  1.00  0.00    -0.018 A 
HETATM   50  C7  UNL     1      13.724  -4.773   2.441  1.00  0.00     0.012 A 
HETATM   51  C6  UNL     1      14.590  -5.761   2.895  1.00  0.00     0.018 A 
HETATM   52  C5  UNL     1      14.130  -6.732   3.733  1.00  0.00     0.090 A 
HETATM   53  N1  UNL     1      12.827  -6.769   4.152  1.00  0.00    -0.366 N 
HETATM   54  C42 UNL     1      12.017  -5.815   3.710  1.00  0.00     0.099 A 
BRANCH  53  55
HETATM   55  C4  UNL     1      12.417  -7.881   5.015  1.00  0.00     0.128 C 
BRANCH  55  56
HETATM   56  C3  UNL     1      13.347  -7.830   6.222  1.00  0.00     0.020 C 
BRANCH  56  57
HETATM   57  C2  UNL     1      13.727  -9.177   6.741  1.00  0.00    -0.003 C 
HETATM   58  C1  UNL     1      13.387 -10.315   5.824  1.00  0.00     0.005 C 
ENDBRANCH  56  57
ENDBRANCH  55  56
ENDBRANCH  53  55
ENDBRANCH  48  49
ENDBRANCH  47  48
ENDBRANCH  45  47
ENDBRANCH   1  45
TORSDOF 16
ENDMDL
MODEL 2
REMARK VINA RESULT: -10.847697105      1.300      3.484
REMARK  16 active torsions:
REMARK  status: ('A' for Active; 'I' for Inactive)
REMARK    1  A    between atoms: C2_2  and  C3_3 
REMARK    2  A    between atoms: C3_3  and  C4_4 
REMARK    3  A    between atoms: C4_4  and  N1_5 
REMARK    4  A    between atoms: C8_9  and  C9_10 
REMARK    5  A    between atoms: C9_10  and  O1_11 
REMARK    6  A    between atoms: O1_11  and  C10_12 
REMARK    7  A    between atoms: C10_12  and  C12_14 
REMARK    8  A    between atoms: C16_19  and  C17_20 
REMARK    9  A    between atoms: C19_22  and  O2_23 
REMARK   10  A    between atoms: C19_22  and  C20_25 
REMARK   11  A    between atoms: C22_27  and  O3_28 
REMARK   12  A    between atoms: C23_32  and  C24_33 
REMARK   13  A    between atoms: C24_33  and  C25_34 
REMARK   14  A    between atoms: C25_34  and  C26_35 
REMARK   15  A    between atoms: C25_34  and  C32_42 
REMARK   16  A    between atoms: C26_35  and  N4_36 
ROOT
HETATM    1  C12 UNL     1      11.318  -0.602   1.169  1.00  0.00     0.003 A 
HETATM    2  C13 UNL     1      10.851  -0.938  -0.147  1.00  0.00     0.034 A 
HETATM    3  C14 UNL     1      10.801   0.039  -1.030  1.00  0.00     0.117 A 
HETATM    4  N2  UNL     1      11.155   1.369  -0.842  1.00  0.00    -0.268 N 
HETATM    5  C15 UNL     1      11.595   1.693   0.410  1.00  0.00     0.083 A 
HETATM    6  C16 UNL     1      11.674   0.715   1.414  1.00  0.00    -0.018 A 
HETATM    7  C19 UNL     1      12.121   3.073   0.672  1.00  0.00     0.166 C 
HETATM    8  C22 UNL     1      11.395   4.134  -0.015  1.00  0.00     0.159 C 
HETATM    9  N3  UNL     1      11.690   5.267  -0.724  1.00  0.00    -0.324 N 
ATOM     10  H3  UNL     1      10.950   5.966  -0.665  1.00  0.00     0.169 HD
HETATM   11  C23 UNL     1      12.802   5.710  -1.537  1.00  0.00     0.107 C 
HETATM   12  N6  UNL     1      13.145   5.019  -2.602  1.00  0.00    -0.351 N 
ATOM     13  H6  UNL     1      13.947   5.399  -3.104  1.00  0.00     0.166 HD
HETATM   14  C40 UNL     1      12.615   3.862  -3.172  1.00  0.00     0.108 C 
HETATM   15  C41 UNL     1      11.853   2.846  -2.909  1.00  0.00     0.124 C 
HETATM   16  N7  UNL     1      11.074   2.186  -1.991  1.00  0.00    -0.304 N 
ATOM     17  H7  UNL     1      10.093   2.341  -2.219  1.00  0.00     0.186 HD
ENDROOT
BRANCH  11  18
HETATM   18  C24 UNL     1      13.338   7.040  -1.256  1.00  0.00     0.062 C 
BRANCH  18  19
HETATM   19  C25 UNL     1      14.328   7.434  -0.250  1.00  0.00    -0.004 C 
BRANCH  19  20
HETATM   20  C26 UNL     1      15.701   7.089  -0.722  1.00  0.00     0.108 C 
BRANCH  20  21
HETATM   21  N4  UNL     1      16.609   8.092  -1.099  1.00  0.00    -0.342 N 
HETATM   22  C27 UNL     1      16.475   9.123  -1.849  1.00  0.00     0.096 A 
HETATM   23  C28 UNL     1      17.453  10.008  -2.214  1.00  0.00     0.018 A 
HETATM   24  C29 UNL     1      18.728   9.838  -1.767  1.00  0.00     0.003 A 
HETATM   25  C30 UNL     1      18.930   8.720  -0.932  1.00  0.00     0.018 A 
HETATM   26  C31 UNL     1      17.913   7.873  -0.606  1.00  0.00     0.096 A 
ENDBRANCH  20  21
ENDBRANCH  19  20
BRANCH  19  27
HETATM   27  C32 UNL     1      14.000   7.656   1.131  1.00  0.00     0.004 A 
HETATM   28  C33 UNL     1      12.812   7.286   1.804  1.00  0.00     0.101 A 
HETATM   29  N5  UNL     1      12.733   7.819   3.012  1.00  0.00    -0.364 N 
HETATM   30  C34 UNL     1      13.823   8.553   3.218  1.00  0.00     0.043 A 
ATOM     31  H5  UNL     1      11.967   7.690   3.673  1.00  0.00     0.165 HD
HETATM   32  C35 UNL     1      14.176   9.274   4.366  1.00  0.00     0.030 A 
HETATM   33  C39 UNL     1      14.614   8.474   2.095  1.00  0.00     0.003 A 
HETATM   34  C36 UNL     1      15.386   9.933   4.351  1.00  0.00     0.002 A 
HETATM   35  C37 UNL     1      16.209   9.875   3.247  1.00  0.00     0.001 A 
HETATM   36  C38 UNL     1      15.812   9.159   2.158  1.00  0.00     0.014 A 
ENDBRANCH  19  27
ENDBRANCH  18  19
ENDBRANCH  11  18
BRANCH   8  37
HETATM   37  O3  UNL     1      10.083   3.930   0.098  1.00  0.00    -0.347 OA
ATOM     38  H3  UNL     1       9.787   4.204   0.959  1.00  0.00     0.219 HD
ENDBRANCH   8  37
BRANCH   7  39
HETATM   39  O2  UNL     1      11.689   3.412   2.053  1.00  0.00    -0.375 OA
ATOM     40  H2  UNL     1      11.830   4.347   2.145  1.00  0.00     0.211 HD
ENDBRANCH   7  39
BRANCH   7  41
HETATM   41  C20 UNL     1      13.578   3.115   0.833  1.00  0.00     0.049 C 
HETATM   42  C21 UNL     1      14.436   2.488  -0.236  1.00  0.00     0.009 C 
ENDBRANCH   7  41
BRANCH   6  43
HETATM   43  C17 UNL     1      12.180   0.967   2.764  1.00  0.00     0.037 C 
HETATM   44  C18 UNL     1      13.600   0.561   3.087  1.00  0.00     0.010 C 
ENDBRANCH   6  43
BRANCH   1  45
HETATM   45  C10 UNL     1      11.314  -1.763   2.067  1.00  0.00     0.053 C 
HETATM   46  C11 UNL     1       9.848  -2.392   1.947  1.00  0.00     0.077 C 
BRANCH  45  47
HETATM   47  O1  UNL     1      12.210  -2.651   2.304  1.00  0.00    -0.350 OA
BRANCH  47  48
HETATM   48  C9  UNL     1      11.966  -3.948   1.936  1.00  0.00     0.215 C 
BRANCH  48  49
HETATM   49  C8  UNL     1      12.720  -5.005   2.593  1.00  0.00    -0.018 A 
HETATM   50  C7  UNL     1      14.080  -5.035   2.552  1.00  0.00     0.012 A 
HETATM   51  C6  UNL     1      14.763  -6.081   3.160  1.00  0.00     0.018 A 
HETATM   52  C5  UNL     1      14.067  -7.069   3.789  1.00  0.00     0.090 A 
HETATM   53  N1  UNL     1      12.699  -7.067   3.846  1.00  0.00    -0.366 N 
HETATM   54  C42 UNL     1      12.066  -6.057   3.263  1.00  0.00     0.099 A 
BRANCH  53  55
HETATM   55  C4  UNL     1      12.040  -8.200   4.504  1.00  0.00     0.128 C 
BRANCH  55  56
HETATM   56  C3  UNL     1      12.934  -8.568   5.682  1.00  0.00     0.020 C 
BRANCH  56  57
HETATM   57  C2  UNL     1      13.117 -10.039   5.856  1.00  0.00    -0.003 C 
HETATM   58  C1  UNL     1      13.972 -10.687   4.805  1.00  0.00     0.005 C 
ENDBRANCH  56  57
ENDBRANCH  55  56
ENDBRANCH  53  55
ENDBRANCH  48  49
ENDBRANCH  47  48
ENDBRANCH  45  47
ENDBRANCH   1  45
TORSDOF 16
ENDMDL
MODEL 3
REMARK VINA RESULT: -10.817415652      2.396      3.881
REMARK  16 active torsions:
REMARK  status: ('A' for Active; 'I' for Inactive)
REMARK    1  A    between atoms: C2_2  and  C3_3 
REMARK    2  A    between atoms: C3_3  and  C4_4 
REMARK    3  A    between atoms: C4_4  and  N1_5 
REMARK    4  A    between atoms: C8_9  and  C9_10 
REMARK    5  A    between atoms: C9_10  and  O1_11 
REMARK    6  A    between atoms: O1_11  and  C10_12 
REMARK    7  A    between atoms: C10_12  and  C12_14 
REMARK    8  A    between atoms: C16_19  and  C17_20 
REMARK    9  A    between atoms: C19_22  and  O2_23 
REMARK   10  A    between atoms: C19_22  and  C20_25 
REMARK   11  A    between atoms: C22_27  and  O3_28 
REMARK   12  A    between atoms: C23_32  and  C24_33 
REMARK   13  A    between atoms: C24_33  and  C25_34 
REMARK   14  A    between atoms: C25_34  and  C26_35 
REMARK   15  A    between atoms: C25_34  and  C32_42 
REMARK   16  A    between atoms: C26_35  and  N4_36 
ROOT
HETATM    1  C12 UNL     1       9.959  -2.338   2.429  1.00  0.00     0.003 A 
HETATM    2  C13 UNL     1      10.162  -2.590   1.028  1.00  0.00     0.034 A 
HETATM    3  C14 UNL     1      10.576  -1.576   0.295  1.00  0.00     0.117 A 
HETATM    4  N2  UNL     1      10.849  -0.282   0.716  1.00  0.00    -0.268 N 
HETATM    5  C15 UNL     1      10.653  -0.038   2.046  1.00  0.00     0.083 A 
HETATM    6  C16 UNL     1      10.207  -1.059   2.900  1.00  0.00    -0.018 A 
HETATM    7  C19 UNL     1      11.044   1.293   2.617  1.00  0.00     0.166 C 
HETATM    8  C22 UNL     1      10.775   2.426   1.741  1.00  0.00     0.159 C 
HETATM    9  N3  UNL     1      11.416   3.565   1.334  1.00  0.00    -0.324 N 
ATOM     10  H3  UNL     1      10.764   4.308   1.082  1.00  0.00     0.169 HD
HETATM   11  C23 UNL     1      12.797   3.966   1.174  1.00  0.00     0.107 C 
HETATM   12  N6  UNL     1      13.578   3.297   0.355  1.00  0.00    -0.351 N 
ATOM     13  H6  UNL     1      14.537   3.643   0.318  1.00  0.00     0.166 HD
HETATM   14  C40 UNL     1      13.338   2.202  -0.474  1.00  0.00     0.108 C 
HETATM   15  C41 UNL     1      12.504   1.228  -0.671  1.00  0.00     0.124 C 
HETATM   16  N7  UNL     1      11.357   0.585  -0.277  1.00  0.00    -0.304 N 
ATOM     17  H7  UNL     1      10.609   0.813  -0.931  1.00  0.00     0.186 HD
ENDROOT
BRANCH  11  18
HETATM   18  C24 UNL     1      13.186   5.245   1.764  1.00  0.00     0.062 C 
BRANCH  18  19
HETATM   19  C25 UNL     1      13.090   6.587   1.185  1.00  0.00    -0.004 C 
BRANCH  19  20
HETATM   20  C26 UNL     1      12.128   6.584   0.043  1.00  0.00     0.108 C 
BRANCH  20  21
HETATM   21  N4  UNL     1      11.001   7.421   0.046  1.00  0.00    -0.342 N 
HETATM   22  C27 UNL     1      10.483   8.157  -0.868  1.00  0.00     0.096 A 
HETATM   23  C28 UNL     1       9.414   8.999  -0.739  1.00  0.00     0.018 A 
HETATM   24  C29 UNL     1       8.780   9.119   0.460  1.00  0.00     0.003 A 
HETATM   25  C30 UNL     1       9.306   8.328   1.502  1.00  0.00     0.018 A 
HETATM   26  C31 UNL     1      10.378   7.507   1.310  1.00  0.00     0.096 A 
ENDBRANCH  20  21
ENDBRANCH  19  20
BRANCH  19  27
HETATM   27  C32 UNL     1      14.098   7.595   1.364  1.00  0.00     0.004 A 
HETATM   28  C33 UNL     1      15.199   7.871   0.519  1.00  0.00     0.101 A 
HETATM   29  N5  UNL     1      16.056   8.715   1.071  1.00  0.00    -0.364 N 
HETATM   30  C34 UNL     1      15.600   9.046   2.276  1.00  0.00     0.043 A 
ATOM     31  H5  UNL     1      16.918   9.054   0.645  1.00  0.00     0.165 HD
HETATM   32  C35 UNL     1      16.166   9.931   3.202  1.00  0.00     0.030 A 
HETATM   33  C39 UNL     1      14.412   8.383   2.484  1.00  0.00     0.003 A 
HETATM   34  C36 UNL     1      15.481  10.138   4.380  1.00  0.00     0.002 A 
HETATM   35  C37 UNL     1      14.285   9.496   4.624  1.00  0.00     0.001 A 
HETATM   36  C38 UNL     1      13.784   8.645   3.687  1.00  0.00     0.014 A 
ENDBRANCH  19  27
ENDBRANCH  18  19
ENDBRANCH  11  18
BRANCH   8  37
HETATM   37  O3  UNL     1       9.560   2.304   1.207  1.00  0.00    -0.347 OA
ATOM     38  H3  UNL     1       9.357   3.076   0.690  1.00  0.00     0.219 HD
ENDBRANCH   8  37
BRANCH   7  39
HETATM   39  O2  UNL     1      10.020   1.603   3.649  1.00  0.00    -0.375 OA
ATOM     40  H2  UNL     1       9.194   1.653   3.183  1.00  0.00     0.211 HD
ENDBRANCH   7  39
BRANCH   7  41
HETATM   41  C20 UNL     1      12.250   1.232   3.450  1.00  0.00     0.049 C 
HETATM   42  C21 UNL     1      13.488   0.594   2.874  1.00  0.00     0.009 C 
ENDBRANCH   7  41
BRANCH   6  43
HETATM   43  C17 UNL     1      10.019  -0.896   4.342  1.00  0.00     0.037 C 
HETATM   44  C18 UNL     1       8.610  -0.927   4.892  1.00  0.00     0.010 C 
ENDBRANCH   6  43
BRANCH   1  45
HETATM   45  C10 UNL     1       9.482  -3.532   3.138  1.00  0.00     0.053 C 
HETATM   46  C11 UNL     1       8.464  -4.249   2.133  1.00  0.00     0.077 C 
BRANCH  45  47
HETATM   47  O1  UNL     1      10.099  -4.369   3.891  1.00  0.00    -0.350 OA
BRANCH  47  48
HETATM   48  C9  UNL     1      10.579  -5.526   3.335  1.00  0.00     0.215 C 
BRANCH  48  49
HETATM   49  C8  UNL     1      11.938  -5.934   3.658  1.00  0.00    -0.018 A 
HETATM   50  C7  UNL     1      12.997  -5.528   2.905  1.00  0.00     0.012 A 
HETATM   51  C6  UNL     1      14.276  -5.969   3.223  1.00  0.00     0.018 A 
HETATM   52  C5  UNL     1      14.459  -6.805   4.283  1.00  0.00     0.090 A 
HETATM   53  N1  UNL     1      13.414  -7.231   5.059  1.00  0.00    -0.366 N 
HETATM   54  C42 UNL     1      12.201  -6.796   4.740  1.00  0.00     0.099 A 
BRANCH  53  55
HETATM   55  C4  UNL     1      13.707  -8.169   6.147  1.00  0.00     0.128 C 
BRANCH  55  56
HETATM   56  C3  UNL     1      12.928  -9.437   5.817  1.00  0.00     0.020 C 
BRANCH  56  57
HETATM   57  C2  UNL     1      13.796 -10.585   5.419  1.00  0.00    -0.003 C 
HETATM   58  C1  UNL     1      14.146 -10.622   3.960  1.00  0.00     0.005 C 
ENDBRANCH  56  57
ENDBRANCH  55  56
ENDBRANCH  53  55
ENDBRANCH  48  49
ENDBRANCH  47  48
ENDBRANCH  45  47
ENDBRANCH   1  45
TORSDOF 16
ENDMDL
MODEL 4
REMARK VINA RESULT: -10.651996481      1.971      3.391
REMARK  16 active torsions:
REMARK  status: ('A' for Active; 'I' for Inactive)
REMARK    1  A    between atoms: C2_2  and  C3_3 
REMARK    2  A    between atoms: C3_3  and  C4_4 
REMARK    3  A    between atoms: C4_4  and  N1_5 
REMARK    4  A    between atoms: C8_9  and  C9_10 
REMARK    5  A    between atoms: C9_10  and  O1_11 
REMARK    6  A    between atoms: O1_11  and  C10_12 
REMARK    7  A    between atoms: C10_12  and  C12_14 
REMARK    8  A    between atoms: C16_19  and  C17_20 
REMARK    9  A    between atoms: C19_22  and  O2_23 
REMARK   10  A    between atoms: C19_22  and  C20_25 
REMARK   11  A    between atoms: C22_27  and  O3_28 
REMARK   12  A    between atoms: C23_32  and  C24_33 
REMARK   13  A    between atoms: C24_33  and  C25_34 
REMARK   14  A    between atoms: C25_34  and  C26_35 
REMARK   15  A    between atoms: C25_34  and  C32_42 
REMARK   16  A    between atoms: C26_35  and  N4_36 
ROOT
HETATM    1  C12 UNL     1      10.611  -1.210   2.553  1.00  0.00     0.003 A 
HETATM    2  C13 UNL     1      10.264  -1.591   1.212  1.00  0.00     0.034 A 
HETATM    3  C14 UNL     1      10.543  -0.727   0.256  1.00  0.00     0.117 A 
HETATM    4  N2  UNL     1      11.143   0.518   0.389  1.00  0.00    -0.268 N 
HETATM    5  C15 UNL     1      11.470   0.884   1.664  1.00  0.00     0.083 A 
HETATM    6  C16 UNL     1      11.203   0.028   2.744  1.00  0.00    -0.018 A 
HETATM    7  C19 UNL     1      12.238   2.153   1.892  1.00  0.00     0.166 C 
HETATM    8  C22 UNL     1      11.854   3.254   1.018  1.00  0.00     0.159 C 
HETATM    9  N3  UNL     1      12.477   4.220   0.274  1.00  0.00    -0.324 N 
ATOM     10  H3  UNL     1      11.901   5.055   0.161  1.00  0.00     0.169 HD
HETATM   11  C23 UNL     1      13.756   4.341  -0.390  1.00  0.00     0.107 C 
HETATM   12  N6  UNL     1      14.084   3.481  -1.330  1.00  0.00    -0.351 N 
ATOM     13  H6  UNL     1      15.009   3.636  -1.731  1.00  0.00     0.166 HD
HETATM   14  C40 UNL     1      13.401   2.397  -1.880  1.00  0.00     0.108 C 
HETATM   15  C41 UNL     1      12.412   1.588  -1.658  1.00  0.00     0.124 C 
HETATM   16  N7  UNL     1      11.394   1.203  -0.821  1.00  0.00    -0.304 N 
ATOM     17  H7  UNL     1      10.508   1.523  -1.210  1.00  0.00     0.186 HD
ENDROOT
BRANCH  11  18
HETATM   18  C24 UNL     1      14.520   5.559  -0.137  1.00  0.00     0.062 C 
BRANCH  18  19
HETATM   19  C25 UNL     1      14.025   6.902   0.176  1.00  0.00    -0.004 C 
BRANCH  19  20
HETATM   20  C26 UNL     1      12.857   7.232  -0.693  1.00  0.00     0.108 C 
BRANCH  20  21
HETATM   21  N4  UNL     1      11.627   7.615  -0.134  1.00  0.00    -0.342 N 
HETATM   22  C27 UNL     1      11.160   7.505   1.056  1.00  0.00     0.096 A 
HETATM   23  C28 UNL     1       9.908   7.849   1.483  1.00  0.00     0.018 A 
HETATM   24  C29 UNL     1       9.007   8.372   0.606  1.00  0.00     0.003 A 
HETATM   25  C30 UNL     1       9.470   8.520  -0.718  1.00  0.00     0.018 A 
HETATM   26  C31 UNL     1      10.732   8.156  -1.082  1.00  0.00     0.096 A 
ENDBRANCH  20  21
ENDBRANCH  19  20
BRANCH  19  27
HETATM   27  C32 UNL     1      14.818   7.897   0.843  1.00  0.00     0.004 A 
HETATM   28  C33 UNL     1      16.081   8.398   0.448  1.00  0.00     0.101 A 
HETATM   29  N5  UNL     1      16.639   9.147   1.385  1.00  0.00    -0.364 N 
HETATM   30  C34 UNL     1      15.816   9.195   2.428  1.00  0.00     0.043 A 
ATOM     31  H5  UNL     1      17.546   9.610   1.318  1.00  0.00     0.165 HD
HETATM   32  C35 UNL     1      15.984   9.892   3.632  1.00  0.00     0.030 A 
HETATM   33  C39 UNL     1      14.700   8.446   2.131  1.00  0.00     0.003 A 
HETATM   34  C36 UNL     1      14.965   9.814   4.555  1.00  0.00     0.002 A 
HETATM   35  C37 UNL     1      13.828   9.078   4.294  1.00  0.00     0.001 A 
HETATM   36  C38 UNL     1      13.722   8.419   3.107  1.00  0.00     0.014 A 
ENDBRANCH  19  27
ENDBRANCH  18  19
ENDBRANCH  11  18
BRANCH   8  37
HETATM   37  O3  UNL     1      10.525   3.329   0.943  1.00  0.00    -0.347 OA
ATOM     38  H3  UNL     1      10.267   3.606   0.072  1.00  0.00     0.219 HD
ENDBRANCH   8  37
BRANCH   7  39
HETATM   39  O2  UNL     1      11.706   2.722   3.158  1.00  0.00    -0.375 OA
ATOM     40  H2  UNL     1      11.833   2.047   3.815  1.00  0.00     0.211 HD
ENDBRANCH   7  39
BRANCH   7  41
HETATM   41  C20 UNL     1      13.636   1.922   2.272  1.00  0.00     0.049 C 
HETATM   42  C21 UNL     1      14.545   1.244   1.281  1.00  0.00     0.009 C 
ENDBRANCH   7  41
BRANCH   6  43
HETATM   43  C17 UNL     1      11.565   0.322   4.131  1.00  0.00     0.037 C 
HETATM   44  C18 UNL     1      10.454   0.508   5.139  1.00  0.00     0.010 C 
ENDBRANCH   6  43
BRANCH   1  45
HETATM   45  C10 UNL     1      10.238  -2.241   3.530  1.00  0.00     0.053 C 
HETATM   46  C11 UNL     1       8.724  -2.629   3.187  1.00  0.00     0.077 C 
BRANCH  45  47
HETATM   47  O1  UNL     1      10.902  -3.231   4.008  1.00  0.00    -0.350 OA
BRANCH  47  48
HETATM   48  C9  UNL     1      11.011  -4.373   3.260  1.00  0.00     0.215 C 
BRANCH  48  49
HETATM   49  C8  UNL     1      12.215  -5.178   3.404  1.00  0.00    -0.018 A 
HETATM   50  C7  UNL     1      13.300  -4.979   2.606  1.00  0.00     0.012 A 
HETATM   51  C6  UNL     1      14.416  -5.793   2.749  1.00  0.00     0.018 A 
HETATM   52  C5  UNL     1      14.416  -6.786   3.682  1.00  0.00     0.090 A 
HETATM   53  N1  UNL     1      13.339  -7.011   4.499  1.00  0.00    -0.366 N 
HETATM   54  C42 UNL     1      12.284  -6.220   4.349  1.00  0.00     0.099 A 
BRANCH  53  55
HETATM   55  C4  UNL     1      13.417  -8.134   5.438  1.00  0.00     0.128 C 
BRANCH  55  56
HETATM   56  C3  UNL     1      12.398  -9.155   4.944  1.00  0.00     0.020 C 
BRANCH  56  57
HETATM   57  C2  UNL     1      12.898  -9.999   3.819  1.00  0.00    -0.003 C 
HETATM   58  C1  UNL     1      14.213 -10.672   4.083  1.00  0.00     0.005 C 
ENDBRANCH  56  57
ENDBRANCH  55  56
ENDBRANCH  53  55
ENDBRANCH  48  49
ENDBRANCH  47  48
ENDBRANCH  45  47
ENDBRANCH   1  45
TORSDOF 16
ENDMDL
MODEL 5
REMARK VINA RESULT: -10.511685777      2.699      5.202
REMARK  16 active torsions:
REMARK  status: ('A' for Active; 'I' for Inactive)
REMARK    1  A    between atoms: C2_2  and  C3_3 
REMARK    2  A    between atoms: C3_3  and  C4_4 
REMARK    3  A    between atoms: C4_4  and  N1_5 
REMARK    4  A    between atoms: C8_9  and  C9_10 
REMARK    5  A    between atoms: C9_10  and  O1_11 
REMARK    6  A    between atoms: O1_11  and  C10_12 
REMARK    7  A    between atoms: C10_12  and  C12_14 
REMARK    8  A    between atoms: C16_19  and  C17_20 
REMARK    9  A    between atoms: C19_22  and  O2_23 
REMARK   10  A    between atoms: C19_22  and  C20_25 
REMARK   11  A    between atoms: C22_27  and  O3_28 
REMARK   12  A    between atoms: C23_32  and  C24_33 
REMARK   13  A    between atoms: C24_33  and  C25_34 
REMARK   14  A    between atoms: C25_34  and  C26_35 
REMARK   15  A    between atoms: C25_34  and  C32_42 
REMARK   16  A    between atoms: C26_35  and  N4_36 
ROOT
HETATM    1  C12 UNL     1       9.714  -1.663   3.985  1.00  0.00     0.003 A 
HETATM    2  C13 UNL     1       8.635  -1.332   4.875  1.00  0.00     0.034 A 
HETATM    3  C14 UNL     1       8.430  -0.053   5.113  1.00  0.00     0.117 A 
HETATM    4  N2  UNL     1       9.132   1.028   4.597  1.00  0.00    -0.268 N 
HETATM    5  C15 UNL     1      10.161   0.716   3.753  1.00  0.00     0.083 A 
HETATM    6  C16 UNL     1      10.455  -0.622   3.449  1.00  0.00    -0.018 A 
HETATM    7  C19 UNL     1      10.893   1.819   3.046  1.00  0.00     0.166 C 
HETATM    8  C22 UNL     1      11.103   3.015   3.852  1.00  0.00     0.159 C 
HETATM    9  N3  UNL     1      11.004   4.372   3.693  1.00  0.00    -0.324 N 
ATOM     10  H3  UNL     1      11.638   4.881   4.309  1.00  0.00     0.169 HD
HETATM   11  C23 UNL     1      10.215   5.254   2.862  1.00  0.00     0.107 C 
HETATM   12  N6  UNL     1       8.903   5.222   2.941  1.00  0.00    -0.351 N 
ATOM     13  H6  UNL     1       8.432   5.869   2.308  1.00  0.00     0.166 HD
HETATM   14  C40 UNL     1       8.036   4.467   3.729  1.00  0.00     0.108 C 
HETATM   15  C41 UNL     1       7.983   3.395   4.459  1.00  0.00     0.124 C 
HETATM   16  N7  UNL     1       8.642   2.301   4.962  1.00  0.00    -0.304 N 
ATOM     17  H7  UNL     1       8.850   2.465   5.947  1.00  0.00     0.186 HD
ENDROOT
BRANCH  11  18
HETATM   18  C24 UNL     1      10.935   6.304   2.144  1.00  0.00     0.062 C 
BRANCH  18  19
HETATM   19  C25 UNL     1      12.218   6.218   1.442  1.00  0.00    -0.004 C 
BRANCH  19  20
HETATM   20  C26 UNL     1      12.821   7.578   1.313  1.00  0.00     0.108 C 
BRANCH  20  21
HETATM   21  N4  UNL     1      13.610   8.118   2.342  1.00  0.00    -0.342 N 
HETATM   22  C27 UNL     1      13.399   8.244   3.601  1.00  0.00     0.096 A 
HETATM   23  C28 UNL     1      14.212   8.857   4.514  1.00  0.00     0.018 A 
HETATM   24  C29 UNL     1      15.389   9.414   4.114  1.00  0.00     0.003 A 
HETATM   25  C30 UNL     1      15.673   9.301   2.738  1.00  0.00     0.018 A 
HETATM   26  C31 UNL     1      14.819   8.677   1.877  1.00  0.00     0.096 A 
ENDBRANCH  20  21
ENDBRANCH  19  20
BRANCH  19  27
HETATM   27  C32 UNL     1      12.585   5.110   0.605  1.00  0.00     0.004 A 
HETATM   28  C33 UNL     1      11.930   4.664  -0.567  1.00  0.00     0.101 A 
HETATM   29  N5  UNL     1      12.391   3.495  -0.985  1.00  0.00    -0.364 N 
HETATM   30  C34 UNL     1      13.348   3.100  -0.149  1.00  0.00     0.043 A 
ATOM     31  H5  UNL     1      12.067   2.985  -1.806  1.00  0.00     0.165 HD
HETATM   32  C35 UNL     1      14.129   1.939  -0.217  1.00  0.00     0.030 A 
HETATM   33  C39 UNL     1      13.490   4.059   0.828  1.00  0.00     0.003 A 
HETATM   34  C36 UNL     1      15.090   1.767   0.756  1.00  0.00     0.002 A 
HETATM   35  C37 UNL     1      15.267   2.707   1.750  1.00  0.00     0.001 A 
HETATM   36  C38 UNL     1      14.476   3.815   1.765  1.00  0.00     0.014 A 
ENDBRANCH  19  27
ENDBRANCH  18  19
ENDBRANCH  11  18
BRANCH   8  37
HETATM   37  O3  UNL     1      11.512   2.671   5.073  1.00  0.00    -0.347 OA
ATOM     38  H3  UNL     1      11.072   3.207   5.722  1.00  0.00     0.219 HD
ENDBRANCH   8  37
BRANCH   7  39
HETATM   39  O2  UNL     1      12.313   1.381   2.984  1.00  0.00    -0.375 OA
ATOM     40  H2  UNL     1      12.537   1.371   2.060  1.00  0.00     0.211 HD
ENDBRANCH   7  39
BRANCH   7  41
HETATM   41  C20 UNL     1      10.577   1.897   1.616  1.00  0.00     0.049 C 
HETATM   42  C21 UNL     1       9.129   1.975   1.205  1.00  0.00     0.009 C 
ENDBRANCH   7  41
BRANCH   6  43
HETATM   43  C17 UNL     1      11.505  -1.039   2.520  1.00  0.00     0.037 C 
HETATM   44  C18 UNL     1      11.113  -1.388   1.102  1.00  0.00     0.010 C 
ENDBRANCH   6  43
BRANCH   1  45
HETATM   45  C10 UNL     1       9.857  -3.114   3.811  1.00  0.00     0.053 C 
HETATM   46  C11 UNL     1       9.107  -3.772   5.062  1.00  0.00     0.077 C 
BRANCH  45  47
HETATM   47  O1  UNL     1       9.795  -3.849   2.760  1.00  0.00    -0.350 OA
BRANCH  47  48
HETATM   48  C9  UNL     1      10.171  -5.163   2.853  1.00  0.00     0.215 C 
BRANCH  48  49
HETATM   49  C8  UNL     1      11.586  -5.464   3.017  1.00  0.00    -0.018 A 
HETATM   50  C7  UNL     1      12.544  -4.720   2.401  1.00  0.00     0.012 A 
HETATM   51  C6  UNL     1      13.883  -5.062   2.552  1.00  0.00     0.018 A 
HETATM   52  C5  UNL     1      14.224  -6.140   3.312  1.00  0.00     0.090 A 
HETATM   53  N1  UNL     1      13.282  -6.909   3.943  1.00  0.00    -0.366 N 
HETATM   54  C42 UNL     1      12.010  -6.563   3.789  1.00  0.00     0.099 A 
BRANCH  53  55
HETATM   55  C4  UNL     1      13.747  -8.077   4.698  1.00  0.00     0.128 C 
BRANCH  55  56
HETATM   56  C3  UNL     1      14.312  -9.039   3.660  1.00  0.00     0.020 C 
BRANCH  56  57
HETATM   57  C2  UNL     1      14.276 -10.468   4.088  1.00  0.00    -0.003 C 
HETATM   58  C1  UNL     1      13.754 -10.688   5.478  1.00  0.00     0.005 C 
ENDBRANCH  56  57
ENDBRANCH  55  56
ENDBRANCH  53  55
ENDBRANCH  48  49
ENDBRANCH  47  48
ENDBRANCH  45  47
ENDBRANCH   1  45
TORSDOF 16
ENDMDL
