MODEL 1
REMARK VINA RESULT: -9.192017021      0.000      0.000
REMARK  14 active torsions:
REMARK  status: ('A' for Active; 'I' for Inactive)
REMARK    1  A    between atoms: N2_10  and  C9_11 
REMARK    2  A    between atoms: N2_10  and  C34_43 
REMARK    3  A    between atoms: C9_11  and  C10_12 
REMARK    4  A    between atoms: C11_13  and  C12_14 
REMARK    5  A    between atoms: C14_16  and  C15_17 
REMARK    6  A    between atoms: C18_20  and  N3_21 
REMARK    7  A    between atoms: C21_25  and  C22_26 
REMARK    8  A    between atoms: C21_25  and  C24_29 
REMARK    9  A    between atoms: C24_29  and  N5_30 
REMARK   10  A    between atoms: C32_40  and  C33_41 
REMARK   11  A    between atoms: C34_43  and  C35_44 
REMARK       I    between atoms: C35_44  and  N7_46 
REMARK   12  A    between atoms: N7_46  and  C36_48 
REMARK   13  A    between atoms: C36_48  and  C37_49 
REMARK   14  A    between atoms: C38_50  and  C39_51 
ROOT
HETATM    1  C12 UNL     1      10.526   0.455   3.704  1.00  0.00    -0.011 A 
HETATM    2  C13 UNL     1      11.057   1.090   2.569  1.00  0.00     0.043 A 
HETATM    3  C14 UNL     1      11.631   2.271   2.979  1.00  0.00     0.043 A 
HETATM    4  N6  UNL     1      11.486   2.406   4.284  1.00  0.00    -0.357 N 
ATOM      5  H6  UNL     1      11.815   3.189   4.851  1.00  0.00     0.166 HD
HETATM    6  C32 UNL     1      10.817   1.310   4.735  1.00  0.00     0.033 A 
ENDROOT
BRANCH   1   7
HETATM    7  C11 UNL     1       9.866  -0.838   3.658  1.00  0.00     0.011 C 
HETATM    8  C10 UNL     1      10.390  -2.026   3.873  1.00  0.00     0.005 C 
BRANCH   8   9
HETATM    9  C9  UNL     1       9.532  -3.203   3.771  1.00  0.00     0.304 C 
BRANCH   9  10
HETATM   10  N2  UNL     1      10.017  -4.367   3.105  1.00  0.00     0.066 N 
HETATM   11  N1  UNL     1      11.045  -4.134   2.232  1.00  0.00    -0.204 N 
HETATM   12  C1  UNL     1      11.029  -3.339   0.991  1.00  0.00     0.186 C 
HETATM   13  C2  UNL     1      12.098  -4.727   2.658  1.00  0.00     0.070 A 
HETATM   14  C3  UNL     1      13.403  -4.810   2.162  1.00  0.00     0.032 A 
HETATM   15  C7  UNL     1      11.842  -5.396   3.830  1.00  0.00     0.018 A 
HETATM   16  C4  UNL     1      14.395  -5.517   2.799  1.00  0.00     0.002 A 
HETATM   17  C5  UNL     1      14.137  -6.188   3.977  1.00  0.00     0.001 A 
HETATM   18  C6  UNL     1      12.856  -6.114   4.474  1.00  0.00     0.015 A 
HETATM   19  C8  UNL     1      10.586  -5.182   4.105  1.00  0.00     0.249 A 
BRANCH  10  20
HETATM   20  C34 UNL     1       9.005  -5.198   2.484  1.00  0.00     0.309 C 
BRANCH  20  21
HETATM   21  C35 UNL     1       9.402  -6.510   2.043  1.00  0.00     0.268 C 
HETATM   22  O2  UNL     1       9.574  -6.773   0.829  1.00  0.00    -0.267 OA
HETATM   23  N7  UNL     1       9.620  -7.586   2.941  1.00  0.00    -0.346 N 
ATOM     24  H7  UNL     1       9.499  -7.445   3.943  1.00  0.00     0.163 HD
BRANCH  23  25
HETATM   25  C36 UNL     1      10.011  -8.876   2.438  1.00  0.00     0.217 C 
BRANCH  25  26
HETATM   26  C37 UNL     1      11.256  -9.300   3.050  1.00  0.00    -0.086 C 
HETATM   27  C38 UNL     1      12.310  -9.620   3.558  1.00  0.00    -0.096 C 
BRANCH  27  28
HETATM   28  C39 UNL     1      13.605  -9.976   4.172  1.00  0.00     0.013 C 
HETATM   29  C40 UNL     1      13.942 -11.421   3.980  1.00  0.00     0.028 C 
HETATM   30  C41 UNL     1      13.454  -9.663   5.644  1.00  0.00     0.028 C 
HETATM   31  C42 UNL     1      14.728  -9.121   3.642  1.00  0.00     0.028 C 
ENDBRANCH  27  28
ENDBRANCH  25  26
ENDBRANCH  23  25
ENDBRANCH  20  21
ENDBRANCH  10  20
ENDBRANCH   9  10
ENDBRANCH   8   9
ENDBRANCH   1   7
BRANCH   6  32
HETATM   32  C33 UNL     1      10.471   1.137   6.152  1.00  0.00     0.169 C 
HETATM   33  S1  UNL     1       8.904   1.225   6.649  1.00  0.00    -0.120 SA
ENDBRANCH   6  32
BRANCH   3  34
HETATM   34  C15 UNL     1      12.369   3.208   2.094  1.00  0.00    -0.009 A 
HETATM   35  C16 UNL     1      13.599   2.907   1.557  1.00  0.00     0.016 A 
HETATM   36  C17 UNL     1      14.254   3.764   0.695  1.00  0.00     0.031 A 
HETATM   37  C18 UNL     1      13.690   4.976   0.336  1.00  0.00     0.038 A 
HETATM   38  C30 UNL     1      12.436   5.274   0.891  1.00  0.00     0.031 A 
HETATM   39  C31 UNL     1      11.786   4.412   1.752  1.00  0.00     0.016 A 
BRANCH  37  40
HETATM   40  N3  UNL     1      14.262   5.881  -0.560  1.00  0.00    -0.302 N 
HETATM   41  C19 UNL     1      13.741   6.386  -1.814  1.00  0.00     0.228 C 
HETATM   42  O1  UNL     1      12.608   6.712  -2.179  1.00  0.00    -0.273 OA
HETATM   43  C20 UNL     1      15.158   6.283  -2.293  1.00  0.00     0.141 C 
HETATM   44  C21 UNL     1      15.419   6.708  -0.820  1.00  0.00     0.084 C 
BRANCH  44  45
HETATM   45  C22 UNL     1      16.714   6.224  -0.341  1.00  0.00     0.021 C 
HETATM   46  C23 UNL     1      17.851   6.586  -0.876  1.00  0.00     0.098 C 
HETATM   47  N4  UNL     1      19.114   6.138  -0.433  1.00  0.00    -0.115 NA
ENDBRANCH  44  45
BRANCH  44  48
HETATM   48  C24 UNL     1      15.187   8.166  -0.588  1.00  0.00     0.164 C 
BRANCH  48  49
HETATM   49  N5  UNL     1      15.225   8.520   0.793  1.00  0.00    -0.364 N 
HETATM   50  C25 UNL     1      16.315   9.135   1.313  1.00  0.00     0.090 A 
HETATM   51  C26 UNL     1      16.428   9.518   2.627  1.00  0.00     0.017 A 
HETATM   52  C27 UNL     1      15.392   9.281   3.490  1.00  0.00     0.003 A 
HETATM   53  C28 UNL     1      14.259   8.645   2.958  1.00  0.00     0.017 A 
HETATM   54  C29 UNL     1      14.199   8.282   1.636  1.00  0.00     0.090 A 
ENDBRANCH  48  49
ENDBRANCH  44  48
ENDBRANCH  37  40
ENDBRANCH   3  34
TORSDOF 14
ENDMDL
MODEL 2
REMARK VINA RESULT: -8.965697447      2.596      4.461
REMARK  14 active torsions:
REMARK  status: ('A' for Active; 'I' for Inactive)
REMARK    1  A    between atoms: N2_10  and  C9_11 
REMARK    2  A    between atoms: N2_10  and  C34_43 
REMARK    3  A    between atoms: C9_11  and  C10_12 
REMARK    4  A    between atoms: C11_13  and  C12_14 
REMARK    5  A    between atoms: C14_16  and  C15_17 
REMARK    6  A    between atoms: C18_20  and  N3_21 
REMARK    7  A    between atoms: C21_25  and  C22_26 
REMARK    8  A    between atoms: C21_25  and  C24_29 
REMARK    9  A    between atoms: C24_29  and  N5_30 
REMARK   10  A    between atoms: C32_40  and  C33_41 
REMARK   11  A    between atoms: C34_43  and  C35_44 
REMARK       I    between atoms: C35_44  and  N7_46 
REMARK   12  A    between atoms: N7_46  and  C36_48 
REMARK   13  A    between atoms: C36_48  and  C37_49 
REMARK   14  A    between atoms: C38_50  and  C39_51 
ROOT
HETATM    1  C12 UNL     1       9.859  -1.484   4.198  1.00  0.00    -0.011 A 
HETATM    2  C13 UNL     1      10.728  -0.663   3.461  1.00  0.00     0.043 A 
HETATM    3  C14 UNL     1      10.276   0.631   3.571  1.00  0.00     0.043 A 
HETATM    4  N6  UNL     1       9.190   0.662   4.320  1.00  0.00    -0.357 N 
ATOM      5  H6  UNL     1       8.647   1.490   4.564  1.00  0.00     0.166 HD
HETATM    6  C32 UNL     1       8.927  -0.617   4.707  1.00  0.00     0.033 A 
ENDROOT
BRANCH   1   7
HETATM    7  C11 UNL     1      10.040  -2.918   4.335  1.00  0.00     0.011 C 
HETATM    8  C10 UNL     1      10.805  -3.713   3.617  1.00  0.00     0.005 C 
BRANCH   8   9
HETATM    9  C9  UNL     1      10.833  -5.139   3.932  1.00  0.00     0.304 C 
BRANCH   9  10
HETATM   10  N2  UNL     1      11.342  -6.059   2.968  1.00  0.00     0.066 N 
HETATM   11  N1  UNL     1      12.699  -6.235   3.013  1.00  0.00    -0.204 N 
HETATM   12  C1  UNL     1      13.759  -5.247   2.742  1.00  0.00     0.186 C 
HETATM   13  C2  UNL     1      12.953  -7.445   3.350  1.00  0.00     0.070 A 
HETATM   14  C3  UNL     1      14.149  -8.140   3.547  1.00  0.00     0.032 A 
HETATM   15  C7  UNL     1      11.791  -8.152   3.544  1.00  0.00     0.018 A 
HETATM   16  C4  UNL     1      14.186  -9.464   3.916  1.00  0.00     0.002 A 
HETATM   17  C5  UNL     1      13.018 -10.174   4.110  1.00  0.00     0.001 A 
HETATM   18  C6  UNL     1      11.835  -9.499   3.919  1.00  0.00     0.015 A 
HETATM   19  C8  UNL     1      10.815  -7.319   3.314  1.00  0.00     0.249 A 
BRANCH  10  20
HETATM   20  C34 UNL     1      10.906  -5.838   1.604  1.00  0.00     0.309 C 
BRANCH  20  21
HETATM   21  C35 UNL     1       9.538  -6.151   1.285  1.00  0.00     0.268 C 
HETATM   22  O2  UNL     1       8.589  -5.425   1.669  1.00  0.00    -0.267 OA
HETATM   23  N7  UNL     1       9.169  -7.291   0.526  1.00  0.00    -0.346 N 
ATOM     24  H7  UNL     1       9.888  -7.926   0.179  1.00  0.00     0.163 HD
BRANCH  23  25
HETATM   25  C36 UNL     1       7.783  -7.552   0.245  1.00  0.00     0.217 C 
BRANCH  25  26
HETATM   26  C37 UNL     1       7.602  -8.933  -0.161  1.00  0.00    -0.086 C 
HETATM   27  C38 UNL     1       7.419 -10.089  -0.481  1.00  0.00    -0.096 C 
BRANCH  27  28
HETATM   28  C39 UNL     1       7.165 -11.495  -0.853  1.00  0.00     0.013 C 
HETATM   29  C40 UNL     1       8.124 -12.435  -0.193  1.00  0.00     0.028 C 
HETATM   30  C41 UNL     1       7.325 -11.551  -2.356  1.00  0.00     0.028 C 
HETATM   31  C42 UNL     1       5.751 -11.910  -0.533  1.00  0.00     0.028 C 
ENDBRANCH  27  28
ENDBRANCH  25  26
ENDBRANCH  23  25
ENDBRANCH  20  21
ENDBRANCH  10  20
ENDBRANCH   9  10
ENDBRANCH   8   9
ENDBRANCH   1   7
BRANCH   6  32
HETATM   32  C33 UNL     1       7.770  -0.954   5.548  1.00  0.00     0.169 C 
HETATM   33  S1  UNL     1       7.128   0.160   6.575  1.00  0.00    -0.120 SA
ENDBRANCH   6  32
BRANCH   3  34
HETATM   34  C15 UNL     1      10.958   1.820   2.996  1.00  0.00    -0.009 A 
HETATM   35  C16 UNL     1      12.192   2.246   3.427  1.00  0.00     0.016 A 
HETATM   36  C17 UNL     1      12.839   3.322   2.852  1.00  0.00     0.031 A 
HETATM   37  C18 UNL     1      12.261   4.021   1.807  1.00  0.00     0.038 A 
HETATM   38  C30 UNL     1      11.001   3.578   1.376  1.00  0.00     0.031 A 
HETATM   39  C31 UNL     1      10.359   2.501   1.955  1.00  0.00     0.016 A 
BRANCH  37  40
HETATM   40  N3  UNL     1      12.862   5.090   1.141  1.00  0.00    -0.302 N 
HETATM   41  C19 UNL     1      13.587   5.101  -0.114  1.00  0.00     0.228 C 
HETATM   42  O1  UNL     1      13.421   4.506  -1.182  1.00  0.00    -0.273 OA
HETATM   43  C20 UNL     1      14.486   6.091   0.565  1.00  0.00     0.141 C 
HETATM   44  C21 UNL     1      13.127   6.511   1.192  1.00  0.00     0.084 C 
BRANCH  44  45
HETATM   45  C22 UNL     1      13.307   7.113   2.514  1.00  0.00     0.021 C 
HETATM   46  C23 UNL     1      13.683   8.355   2.684  1.00  0.00     0.098 C 
HETATM   47  N4  UNL     1      13.862   8.963   3.945  1.00  0.00    -0.115 NA
ENDBRANCH  44  45
BRANCH  44  48
HETATM   48  C24 UNL     1      12.283   7.320   0.261  1.00  0.00     0.164 C 
BRANCH  48  49
HETATM   49  N5  UNL     1      10.886   7.099   0.445  1.00  0.00    -0.364 N 
HETATM   50  C25 UNL     1      10.275   7.496   1.588  1.00  0.00     0.090 A 
HETATM   51  C26 UNL     1       8.934   7.331   1.838  1.00  0.00     0.017 A 
HETATM   52  C27 UNL     1       8.140   6.735   0.897  1.00  0.00     0.003 A 
HETATM   53  C28 UNL     1       8.768   6.322  -0.290  1.00  0.00     0.017 A 
HETATM   54  C29 UNL     1      10.112   6.511  -0.489  1.00  0.00     0.090 A 
ENDBRANCH  48  49
ENDBRANCH  44  48
ENDBRANCH  37  40
ENDBRANCH   3  34
TORSDOF 14
ENDMDL
MODEL 3
REMARK VINA RESULT: -8.903773045      3.091      6.050
REMARK  14 active torsions:
REMARK  status: ('A' for Active; 'I' for Inactive)
REMARK    1  A    between atoms: N2_10  and  C9_11 
REMARK    2  A    between atoms: N2_10  and  C34_43 
REMARK    3  A    between atoms: C9_11  and  C10_12 
REMARK    4  A    between atoms: C11_13  and  C12_14 
REMARK    5  A    between atoms: C14_16  and  C15_17 
REMARK    6  A    between atoms: C18_20  and  N3_21 
REMARK    7  A    between atoms: C21_25  and  C22_26 
REMARK    8  A    between atoms: C21_25  and  C24_29 
REMARK    9  A    between atoms: C24_29  and  N5_30 
REMARK   10  A    between atoms: C32_40  and  C33_41 
REMARK   11  A    between atoms: C34_43  and  C35_44 
REMARK       I    between atoms: C35_44  and  N7_46 
REMARK   12  A    between atoms: N7_46  and  C36_48 
REMARK   13  A    between atoms: C36_48  and  C37_49 
REMARK   14  A    between atoms: C38_50  and  C39_51 
ROOT
HETATM    1  C12 UNL     1      10.284  -1.429  -0.919  1.00  0.00    -0.011 A 
HETATM    2  C13 UNL     1      10.532  -0.141  -0.418  1.00  0.00     0.043 A 
HETATM    3  C14 UNL     1      10.814   0.678  -1.487  1.00  0.00     0.043 A 
HETATM    4  N6  UNL     1      10.761  -0.018  -2.607  1.00  0.00    -0.357 N 
ATOM      5  H6  UNL     1      10.930   0.337  -3.548  1.00  0.00     0.166 HD
HETATM    6  C32 UNL     1      10.439  -1.299  -2.275  1.00  0.00     0.033 A 
ENDROOT
BRANCH   1   7
HETATM    7  C11 UNL     1       9.921  -2.556  -0.078  1.00  0.00     0.011 C 
HETATM    8  C10 UNL     1      10.700  -3.265   0.712  1.00  0.00     0.005 C 
BRANCH   8   9
HETATM    9  C9  UNL     1      10.118  -4.367   1.472  1.00  0.00     0.304 C 
BRANCH   9  10
HETATM   10  N2  UNL     1      10.642  -4.683   2.760  1.00  0.00     0.066 N 
HETATM   11  N1  UNL     1      10.622  -6.017   3.070  1.00  0.00    -0.204 N 
HETATM   12  C1  UNL     1       9.452  -6.897   3.247  1.00  0.00     0.186 C 
HETATM   13  C2  UNL     1      11.827  -6.437   3.188  1.00  0.00     0.070 A 
HETATM   14  C3  UNL     1      12.365  -7.693   3.482  1.00  0.00     0.032 A 
HETATM   15  C7  UNL     1      12.723  -5.418   2.974  1.00  0.00     0.018 A 
HETATM   16  C4  UNL     1      13.718  -7.922   3.559  1.00  0.00     0.002 A 
HETATM   17  C5  UNL     1      14.618  -6.897   3.344  1.00  0.00     0.001 A 
HETATM   18  C6  UNL     1      14.100  -5.657   3.053  1.00  0.00     0.015 A 
HETATM   19  C8  UNL     1      12.012  -4.356   2.715  1.00  0.00     0.249 A 
BRANCH  10  20
HETATM   20  C34 UNL     1      10.112  -3.901   3.859  1.00  0.00     0.309 C 
BRANCH  20  21
HETATM   21  C35 UNL     1       9.804  -2.519   3.603  1.00  0.00     0.268 C 
HETATM   22  O2  UNL     1       8.649  -2.150   3.279  1.00  0.00    -0.267 OA
HETATM   23  N7  UNL     1      10.773  -1.488   3.693  1.00  0.00    -0.346 N 
ATOM     24  H7  UNL     1      11.734  -1.713   3.952  1.00  0.00     0.163 HD
BRANCH  23  25
HETATM   25  C36 UNL     1      10.404  -0.125   3.419  1.00  0.00     0.217 C 
BRANCH  25  26
HETATM   26  C37 UNL     1      11.520   0.592   2.832  1.00  0.00    -0.086 C 
HETATM   27  C38 UNL     1      12.464   1.200   2.375  1.00  0.00    -0.096 C 
BRANCH  27  28
HETATM   28  C39 UNL     1      13.626   1.948   1.852  1.00  0.00     0.013 C 
HETATM   29  C40 UNL     1      14.144   1.364   0.575  1.00  0.00     0.028 C 
HETATM   30  C41 UNL     1      14.680   1.864   2.933  1.00  0.00     0.028 C 
HETATM   31  C42 UNL     1      13.305   3.406   1.646  1.00  0.00     0.028 C 
ENDBRANCH  27  28
ENDBRANCH  25  26
ENDBRANCH  23  25
ENDBRANCH  20  21
ENDBRANCH  10  20
ENDBRANCH   9  10
ENDBRANCH   8   9
ENDBRANCH   1   7
BRANCH   6  32
HETATM   32  C33 UNL     1      10.308  -2.356  -3.286  1.00  0.00     0.169 C 
HETATM   33  S1  UNL     1      11.419  -2.506  -4.491  1.00  0.00    -0.120 SA
ENDBRANCH   6  32
BRANCH   3  34
HETATM   34  C15 UNL     1      11.063   2.140  -1.393  1.00  0.00    -0.009 A 
HETATM   35  C16 UNL     1      12.005   2.781  -2.163  1.00  0.00     0.016 A 
HETATM   36  C17 UNL     1      12.195   4.147  -2.104  1.00  0.00     0.031 A 
HETATM   37  C18 UNL     1      11.435   4.933  -1.256  1.00  0.00     0.038 A 
HETATM   38  C30 UNL     1      10.478   4.268  -0.473  1.00  0.00     0.031 A 
HETATM   39  C31 UNL     1      10.293   2.900  -0.537  1.00  0.00     0.016 A 
BRANCH  37  40
HETATM   40  N3  UNL     1      11.531   6.322  -1.164  1.00  0.00    -0.302 N 
HETATM   41  C19 UNL     1      10.821   7.343  -1.908  1.00  0.00     0.228 C 
HETATM   42  O1  UNL     1       9.656   7.432  -2.306  1.00  0.00    -0.273 OA
HETATM   43  C20 UNL     1      12.128   8.077  -1.894  1.00  0.00     0.141 C 
HETATM   44  C21 UNL     1      12.194   7.415  -0.489  1.00  0.00     0.084 C 
BRANCH  44  45
HETATM   45  C22 UNL     1      13.576   7.199  -0.059  1.00  0.00     0.021 C 
HETATM   46  C23 UNL     1      14.234   8.057   0.679  1.00  0.00     0.098 C 
HETATM   47  N4  UNL     1      15.565   7.875   1.110  1.00  0.00    -0.115 NA
ENDBRANCH  44  45
BRANCH  44  48
HETATM   48  C24 UNL     1      11.341   8.111   0.521  1.00  0.00     0.164 C 
BRANCH  48  49
HETATM   49  N5  UNL     1      10.758   7.217   1.467  1.00  0.00    -0.364 N 
HETATM   50  C25 UNL     1      11.539   6.554   2.355  1.00  0.00     0.090 A 
HETATM   51  C26 UNL     1      11.057   5.685   3.303  1.00  0.00     0.017 A 
HETATM   52  C27 UNL     1       9.711   5.453   3.383  1.00  0.00     0.003 A 
HETATM   53  C28 UNL     1       8.896   6.137   2.466  1.00  0.00     0.017 A 
HETATM   54  C29 UNL     1       9.431   6.995   1.538  1.00  0.00     0.090 A 
ENDBRANCH  48  49
ENDBRANCH  44  48
ENDBRANCH  37  40
ENDBRANCH   3  34
TORSDOF 14
ENDMDL
MODEL 4
REMARK VINA RESULT: -8.884757217      2.376      3.301
REMARK  14 active torsions:
REMARK  status: ('A' for Active; 'I' for Inactive)
REMARK    1  A    between atoms: N2_10  and  C9_11 
REMARK    2  A    between atoms: N2_10  and  C34_43 
REMARK    3  A    between atoms: C9_11  and  C10_12 
REMARK    4  A    between atoms: C11_13  and  C12_14 
REMARK    5  A    between atoms: C14_16  and  C15_17 
REMARK    6  A    between atoms: C18_20  and  N3_21 
REMARK    7  A    between atoms: C21_25  and  C22_26 
REMARK    8  A    between atoms: C21_25  and  C24_29 
REMARK    9  A    between atoms: C24_29  and  N5_30 
REMARK   10  A    between atoms: C32_40  and  C33_41 
REMARK   11  A    between atoms: C34_43  and  C35_44 
REMARK       I    between atoms: C35_44  and  N7_46 
REMARK   12  A    between atoms: N7_46  and  C36_48 
REMARK   13  A    between atoms: C36_48  and  C37_49 
REMARK   14  A    between atoms: C38_50  and  C39_51 
ROOT
HETATM    1  C12 UNL     1      10.740   0.169   4.613  1.00  0.00    -0.011 A 
HETATM    2  C13 UNL     1      11.291   0.740   3.453  1.00  0.00     0.043 A 
HETATM    3  C14 UNL     1      11.458   2.085   3.687  1.00  0.00     0.043 A 
HETATM    4  N6  UNL     1      11.043   2.380   4.905  1.00  0.00    -0.357 N 
ATOM      5  H6  UNL     1      11.050   3.304   5.338  1.00  0.00     0.166 HD
HETATM    6  C32 UNL     1      10.606   1.225   5.477  1.00  0.00     0.033 A 
ENDROOT
BRANCH   1   7
HETATM    7  C11 UNL     1      10.453  -1.248   4.745  1.00  0.00     0.011 C 
HETATM    8  C10 UNL     1       9.982  -2.071   3.831  1.00  0.00     0.005 C 
BRANCH   8   9
HETATM    9  C9  UNL     1       9.765  -3.470   4.187  1.00  0.00     0.304 C 
BRANCH   9  10
HETATM   10  N2  UNL     1      10.232  -4.496   3.313  1.00  0.00     0.066 N 
HETATM   11  N1  UNL     1      11.337  -4.155   2.579  1.00  0.00    -0.204 N 
HETATM   12  C1  UNL     1      11.462  -3.112   1.545  1.00  0.00     0.186 C 
HETATM   13  C2  UNL     1      12.318  -4.901   2.930  1.00  0.00     0.070 A 
HETATM   14  C3  UNL     1      13.650  -4.970   2.511  1.00  0.00     0.032 A 
HETATM   15  C7  UNL     1      11.934  -5.786   3.908  1.00  0.00     0.018 A 
HETATM   16  C4  UNL     1      14.549  -5.867   3.037  1.00  0.00     0.002 A 
HETATM   17  C5  UNL     1      14.162  -6.756   4.020  1.00  0.00     0.001 A 
HETATM   18  C6  UNL     1      12.854  -6.698   4.440  1.00  0.00     0.015 A 
HETATM   19  C8  UNL     1      10.675  -5.545   4.143  1.00  0.00     0.249 A 
BRANCH  10  20
HETATM   20  C34 UNL     1       9.225  -5.098   2.462  1.00  0.00     0.309 C 
BRANCH  20  21
HETATM   21  C35 UNL     1       7.893  -5.219   2.994  1.00  0.00     0.268 C 
HETATM   22  O2  UNL     1       7.004  -4.372   2.742  1.00  0.00    -0.267 OA
HETATM   23  N7  UNL     1       7.498  -6.293   3.832  1.00  0.00    -0.346 N 
ATOM     24  H7  UNL     1       8.169  -7.020   4.078  1.00  0.00     0.163 HD
BRANCH  23  25
HETATM   25  C36 UNL     1       6.152  -6.356   4.336  1.00  0.00     0.217 C 
BRANCH  25  26
HETATM   26  C37 UNL     1       6.157  -6.385   5.786  1.00  0.00    -0.086 C 
HETATM   27  C38 UNL     1       6.127  -6.398   6.999  1.00  0.00    -0.096 C 
BRANCH  27  28
HETATM   28  C39 UNL     1       6.055  -6.403   8.474  1.00  0.00     0.013 C 
HETATM   29  C40 UNL     1       6.486  -7.713   9.055  1.00  0.00     0.028 C 
HETATM   30  C41 UNL     1       4.604  -6.132   8.809  1.00  0.00     0.028 C 
HETATM   31  C42 UNL     1       6.872  -5.290   9.077  1.00  0.00     0.028 C 
ENDBRANCH  27  28
ENDBRANCH  25  26
ENDBRANCH  23  25
ENDBRANCH  20  21
ENDBRANCH  10  20
ENDBRANCH   9  10
ENDBRANCH   8   9
ENDBRANCH   1   7
BRANCH   6  32
HETATM   32  C33 UNL     1      10.059   1.189   6.840  1.00  0.00     0.169 C 
HETATM   33  S1  UNL     1       8.432   1.165   7.089  1.00  0.00    -0.120 SA
ENDBRANCH   6  32
BRANCH   3  34
HETATM   34  C15 UNL     1      12.082   3.040   2.735  1.00  0.00    -0.009 A 
HETATM   35  C16 UNL     1      13.252   2.763   2.069  1.00  0.00     0.016 A 
HETATM   36  C17 UNL     1      13.798   3.637   1.149  1.00  0.00     0.031 A 
HETATM   37  C18 UNL     1      13.179   4.841   0.861  1.00  0.00     0.038 A 
HETATM   38  C30 UNL     1      11.987   5.114   1.548  1.00  0.00     0.031 A 
HETATM   39  C31 UNL     1      11.445   4.236   2.467  1.00  0.00     0.016 A 
BRANCH  37  40
HETATM   40  N3  UNL     1      13.638   5.761  -0.083  1.00  0.00    -0.302 N 
HETATM   41  C19 UNL     1      12.972   6.275  -1.263  1.00  0.00     0.228 C 
HETATM   42  O1  UNL     1      11.803   6.595  -1.492  1.00  0.00    -0.273 OA
HETATM   43  C20 UNL     1      14.326   6.191  -1.902  1.00  0.00     0.141 C 
HETATM   44  C21 UNL     1      14.751   6.602  -0.465  1.00  0.00     0.084 C 
BRANCH  44  45
HETATM   45  C22 UNL     1      16.096   6.124  -0.142  1.00  0.00     0.021 C 
HETATM   46  C23 UNL     1      17.173   6.584  -0.725  1.00  0.00     0.098 C 
HETATM   47  N4  UNL     1      18.482   6.144  -0.433  1.00  0.00    -0.115 NA
ENDBRANCH  44  45
BRANCH  44  48
HETATM   48  C24 UNL     1      14.535   8.054  -0.189  1.00  0.00     0.164 C 
BRANCH  48  49
HETATM   49  N5  UNL     1      14.632   8.377   1.197  1.00  0.00    -0.364 N 
HETATM   50  C25 UNL     1      15.713   9.042   1.672  1.00  0.00     0.090 A 
HETATM   51  C26 UNL     1      15.878   9.400   2.988  1.00  0.00     0.017 A 
HETATM   52  C27 UNL     1      14.909   9.081   3.900  1.00  0.00     0.003 A 
HETATM   53  C28 UNL     1      13.786   8.391   3.414  1.00  0.00     0.017 A 
HETATM   54  C29 UNL     1      13.672   8.058   2.088  1.00  0.00     0.090 A 
ENDBRANCH  48  49
ENDBRANCH  44  48
ENDBRANCH  37  40
ENDBRANCH   3  34
TORSDOF 14
ENDMDL
MODEL 5
REMARK VINA RESULT: -8.849428622      2.754      4.638
REMARK  14 active torsions:
REMARK  status: ('A' for Active; 'I' for Inactive)
REMARK    1  A    between atoms: N2_10  and  C9_11 
REMARK    2  A    between atoms: N2_10  and  C34_43 
REMARK    3  A    between atoms: C9_11  and  C10_12 
REMARK    4  A    between atoms: C11_13  and  C12_14 
REMARK    5  A    between atoms: C14_16  and  C15_17 
REMARK    6  A    between atoms: C18_20  and  N3_21 
REMARK    7  A    between atoms: C21_25  and  C22_26 
REMARK    8  A    between atoms: C21_25  and  C24_29 
REMARK    9  A    between atoms: C24_29  and  N5_30 
REMARK   10  A    between atoms: C32_40  and  C33_41 
REMARK   11  A    between atoms: C34_43  and  C35_44 
REMARK       I    between atoms: C35_44  and  N7_46 
REMARK   12  A    between atoms: N7_46  and  C36_48 
REMARK   13  A    between atoms: C36_48  and  C37_49 
REMARK   14  A    between atoms: C38_50  and  C39_51 
ROOT
HETATM    1  C12 UNL     1      10.534   0.149   4.674  1.00  0.00    -0.011 A 
HETATM    2  C13 UNL     1      11.142   0.726   3.547  1.00  0.00     0.043 A 
HETATM    3  C14 UNL     1      11.341   2.060   3.814  1.00  0.00     0.043 A 
HETATM    4  N6  UNL     1      10.893   2.344   5.023  1.00  0.00    -0.357 N 
ATOM      5  H6  UNL     1      10.912   3.258   5.476  1.00  0.00     0.166 HD
HETATM    6  C32 UNL     1      10.401   1.191   5.556  1.00  0.00     0.033 A 
ENDROOT
BRANCH   1   7
HETATM    7  C11 UNL     1      10.199  -1.261   4.767  1.00  0.00     0.011 C 
HETATM    8  C10 UNL     1      10.076  -2.133   3.788  1.00  0.00     0.005 C 
BRANCH   8   9
HETATM    9  C9  UNL     1       9.727  -3.513   4.114  1.00  0.00     0.304 C 
BRANCH   9  10
HETATM   10  N2  UNL     1      10.215  -4.571   3.291  1.00  0.00     0.066 N 
HETATM   11  N1  UNL     1      11.314  -4.246   2.542  1.00  0.00    -0.204 N 
HETATM   12  C1  UNL     1      11.421  -3.253   1.458  1.00  0.00     0.186 C 
HETATM   13  C2  UNL     1      12.309  -4.955   2.929  1.00  0.00     0.070 A 
HETATM   14  C3  UNL     1      13.642  -5.018   2.515  1.00  0.00     0.032 A 
HETATM   15  C7  UNL     1      11.940  -5.798   3.949  1.00  0.00     0.018 A 
HETATM   16  C4  UNL     1      14.557  -5.872   3.086  1.00  0.00     0.002 A 
HETATM   17  C5  UNL     1      14.186  -6.718   4.110  1.00  0.00     0.001 A 
HETATM   18  C6  UNL     1      12.876  -6.664   4.526  1.00  0.00     0.015 A 
HETATM   19  C8  UNL     1      10.676  -5.570   4.172  1.00  0.00     0.249 A 
BRANCH  10  20
HETATM   20  C34 UNL     1       9.221  -5.233   2.470  1.00  0.00     0.309 C 
BRANCH  20  21
HETATM   21  C35 UNL     1       7.904  -5.399   3.026  1.00  0.00     0.268 C 
HETATM   22  O2  UNL     1       7.010  -4.533   2.873  1.00  0.00    -0.267 OA
HETATM   23  N7  UNL     1       7.530  -6.539   3.782  1.00  0.00    -0.346 N 
ATOM     24  H7  UNL     1       8.205  -7.286   3.946  1.00  0.00     0.163 HD
BRANCH  23  25
HETATM   25  C36 UNL     1       6.198  -6.645   4.316  1.00  0.00     0.217 C 
BRANCH  25  26
HETATM   26  C37 UNL     1       6.219  -6.492   5.758  1.00  0.00    -0.086 C 
HETATM   27  C38 UNL     1       6.207  -6.343   6.962  1.00  0.00    -0.096 C 
BRANCH  27  28
HETATM   28  C39 UNL     1       6.162  -6.143   8.424  1.00  0.00     0.013 C 
HETATM   29  C40 UNL     1       6.681  -7.329   9.173  1.00  0.00     0.028 C 
HETATM   30  C41 UNL     1       4.704  -5.910   8.755  1.00  0.00     0.028 C 
HETATM   31  C42 UNL     1       6.921  -4.910   8.843  1.00  0.00     0.028 C 
ENDBRANCH  27  28
ENDBRANCH  25  26
ENDBRANCH  23  25
ENDBRANCH  20  21
ENDBRANCH  10  20
ENDBRANCH   9  10
ENDBRANCH   8   9
ENDBRANCH   1   7
BRANCH   6  32
HETATM   32  C33 UNL     1       9.806   1.145   6.898  1.00  0.00     0.169 C 
HETATM   33  S1  UNL     1       8.171   1.130   7.089  1.00  0.00    -0.120 SA
ENDBRANCH   6  32
BRANCH   3  34
HETATM   34  C15 UNL     1      12.027   3.014   2.905  1.00  0.00    -0.009 A 
HETATM   35  C16 UNL     1      12.896   2.605   1.921  1.00  0.00     0.016 A 
HETATM   36  C17 UNL     1      13.490   3.496   1.049  1.00  0.00     0.031 A 
HETATM   37  C18 UNL     1      13.230   4.852   1.135  1.00  0.00     0.038 A 
HETATM   38  C30 UNL     1      12.343   5.259   2.144  1.00  0.00     0.031 A 
HETATM   39  C31 UNL     1      11.751   4.363   3.013  1.00  0.00     0.016 A 
BRANCH  37  40
HETATM   40  N3  UNL     1      13.752   5.815   0.270  1.00  0.00    -0.302 N 
HETATM   41  C19 UNL     1      15.088   6.372   0.214  1.00  0.00     0.228 C 
HETATM   42  O1  UNL     1      16.208   5.878   0.369  1.00  0.00    -0.273 OA
HETATM   43  C20 UNL     1      14.394   7.667  -0.089  1.00  0.00     0.141 C 
HETATM   44  C21 UNL     1      13.448   6.689  -0.841  1.00  0.00     0.084 C 
BRANCH  44  45
HETATM   45  C22 UNL     1      12.086   7.217  -0.928  1.00  0.00     0.021 C 
HETATM   46  C23 UNL     1      11.508   7.513  -2.064  1.00  0.00     0.098 C 
HETATM   47  N4  UNL     1      10.197   8.020  -2.178  1.00  0.00    -0.115 NA
ENDBRANCH  44  45
BRANCH  44  48
HETATM   48  C24 UNL     1      14.008   6.228  -2.147  1.00  0.00     0.164 C 
BRANCH  48  49
HETATM   49  N5  UNL     1      13.839   4.828  -2.360  1.00  0.00    -0.364 N 
HETATM   50  C25 UNL     1      12.602   4.308  -2.550  1.00  0.00     0.090 A 
HETATM   51  C26 UNL     1      12.354   2.976  -2.772  1.00  0.00     0.017 A 
HETATM   52  C27 UNL     1      13.398   2.092  -2.811  1.00  0.00     0.003 A 
HETATM   53  C28 UNL     1      14.683   2.624  -2.615  1.00  0.00     0.017 A 
HETATM   54  C29 UNL     1      14.875   3.965  -2.396  1.00  0.00     0.090 A 
ENDBRANCH  48  49
ENDBRANCH  44  48
ENDBRANCH  37  40
ENDBRANCH   3  34
TORSDOF 14
ENDMDL
