MODEL 1
REMARK VINA RESULT: -7.592952618      0.000      0.000
REMARK  17 active torsions:
REMARK  status: ('A' for Active; 'I' for Inactive)
REMARK    1  A    between atoms: S1_2  and  N1_5 
REMARK    2  A    between atoms: N1_5  and  C2_7 
REMARK    3  A    between atoms: C2_7  and  C3_8 
REMARK    4  A    between atoms: C3_8  and  C4_9 
REMARK    5  A    between atoms: C8_13  and  C9_14 
REMARK    6  A    between atoms: N2_17  and  C12_18 
REMARK    7  A    between atoms: C12_18  and  C13_19 
REMARK    8  A    between atoms: C13_19  and  C14_20 
REMARK    9  A    between atoms: C14_20  and  N3_21 
REMARK   10  A    between atoms: C17_24  and  C18_25 
REMARK   11  A    between atoms: C18_25  and  C19_26 
REMARK   12  A    between atoms: C20_27  and  C21_28 
REMARK   13  A    between atoms: C24_31  and  C25_32 
REMARK   14  A    between atoms: C25_32  and  C26_33 
REMARK   15  A    between atoms: C29_36  and  C30_37 
REMARK   16  A    between atoms: C30_37  and  C31_38 
REMARK   17  A    between atoms: C39_51  and  O5_52 
ROOT
HETATM    1  C14 UNL     1      20.850   8.331  -4.309  1.00  0.00     0.129 C 
ENDROOT
BRANCH   1   2
HETATM    2  C13 UNL     1      19.799   7.557  -5.021  1.00  0.00     0.040 C 
BRANCH   2   3
HETATM    3  C12 UNL     1      18.547   8.356  -5.236  1.00  0.00     0.135 C 
BRANCH   3   4
HETATM    4  N2  UNL     1      17.434   7.766  -4.508  1.00  0.00    -0.310 N 
HETATM    5  C11 UNL     1      17.057   6.508  -4.699  1.00  0.00     0.098 A 
HETATM    6  C10 UNL     1      15.994   5.947  -3.982  1.00  0.00     0.048 A 
HETATM    7  C9  UNL     1      15.312   6.676  -3.063  1.00  0.00     0.050 A 
HETATM    8  N5  UNL     1      15.721   7.967  -2.890  1.00  0.00    -0.308 N 
HETATM    9  C38 UNL     1      16.744   8.467  -3.596  1.00  0.00     0.326 A 
ATOM     10  H5  UNL     1      15.242   8.560  -2.211  1.00  0.00     0.170 HD
HETATM   11  O4  UNL     1      17.098   9.683  -3.405  1.00  0.00    -0.246 OA
BRANCH   7  12
HETATM   12  C8  UNL     1      14.158   6.178  -2.301  1.00  0.00     0.024 A 
HETATM   13  C7  UNL     1      14.297   5.044  -1.519  1.00  0.00     0.016 A 
HETATM   14  C6  UNL     1      13.245   4.468  -0.807  1.00  0.00     0.002 A 
HETATM   15  C5  UNL     1      12.006   5.044  -0.876  1.00  0.00     0.010 A 
HETATM   16  C4  UNL     1      11.833   6.183  -1.652  1.00  0.00    -0.022 A 
HETATM   17  C39 UNL     1      12.906   6.741  -2.359  1.00  0.00     0.084 A 
BRANCH  16  18
HETATM   18  C3  UNL     1      10.487   6.808  -1.708  1.00  0.00     0.062 C 
BRANCH  18  19
HETATM   19  C2  UNL     1      10.228   7.653  -0.507  1.00  0.00     0.136 C 
BRANCH  19  20
HETATM   20  N1  UNL     1       9.832   8.991  -0.960  1.00  0.00    -0.320 N 
ATOM     21  H1  UNL     1      10.346   9.547  -1.643  1.00  0.00     0.172 HD
BRANCH  20  22
HETATM   22  S1  UNL     1       8.379   9.493  -0.179  1.00  0.00     0.222 S 
HETATM   23  C1  UNL     1       7.335   8.057   0.018  1.00  0.00     0.185 C 
HETATM   24  O1  UNL     1       8.640  10.022   1.207  1.00  0.00    -0.206 OA
HETATM   25  O2  UNL     1       7.691  10.536  -0.997  1.00  0.00    -0.206 OA
ENDBRANCH  20  22
ENDBRANCH  19  20
ENDBRANCH  18  19
ENDBRANCH  16  18
BRANCH  17  26
HETATM   26  O5  UNL     1      12.623   7.863  -3.101  1.00  0.00    -0.359 OA
ATOM     27  H5  UNL     1      13.311   8.517  -3.150  1.00  0.00     0.217 HD
ENDBRANCH  17  26
ENDBRANCH   7  12
ENDBRANCH   3   4
ENDBRANCH   2   3
ENDBRANCH   1   2
BRANCH   1  28
HETATM   28  N3  UNL     1      20.457   8.799  -2.986  1.00  0.00    -0.366 N 
HETATM   29  C15 UNL     1      20.089   7.909  -2.055  1.00  0.00     0.091 A 
HETATM   30  C16 UNL     1      19.732   8.386  -0.811  1.00  0.00     0.025 A 
HETATM   31  C17 UNL     1      19.746   9.721  -0.511  1.00  0.00    -0.044 A 
HETATM   32  C36 UNL     1      20.131  10.581  -1.502  1.00  0.00     0.025 A 
HETATM   33  C37 UNL     1      20.493  10.115  -2.760  1.00  0.00     0.091 A 
BRANCH  31  34
HETATM   34  C18 UNL     1      19.365  10.203   0.816  1.00  0.00     0.132 C 
BRANCH  34  35
HETATM   35  C19 UNL     1      18.018   9.706   1.204  1.00  0.00    -0.097 C 
HETATM   36  C20 UNL     1      16.920   9.300   1.491  1.00  0.00    -0.067 C 
BRANCH  36  37
HETATM   37  C21 UNL     1      15.607   8.815   1.801  1.00  0.00     0.017 A 
HETATM   38  C22 UNL     1      15.017   9.089   3.041  1.00  0.00     0.021 A 
HETATM   39  C23 UNL     1      13.761   8.620   3.351  1.00  0.00     0.009 A 
HETATM   40  C24 UNL     1      13.043   7.865   2.450  1.00  0.00    -0.054 A 
HETATM   41  C34 UNL     1      13.620   7.595   1.231  1.00  0.00     0.009 A 
HETATM   42  C35 UNL     1      14.889   8.066   0.910  1.00  0.00     0.021 A 
BRANCH  40  43
HETATM   43  C25 UNL     1      11.667   7.345   2.813  1.00  0.00     0.077 C 
BRANCH  43  44
HETATM   44  C26 UNL     1      11.673   5.855   2.671  1.00  0.00    -0.054 A 
HETATM   45  C27 UNL     1      12.822   5.139   2.869  1.00  0.00     0.008 A 
HETATM   46  C28 UNL     1      12.767   3.765   2.739  1.00  0.00     0.008 A 
HETATM   47  C29 UNL     1      11.606   3.095   2.422  1.00  0.00    -0.050 A 
HETATM   48  C32 UNL     1      10.475   3.865   2.233  1.00  0.00     0.008 A 
HETATM   49  C33 UNL     1      10.497   5.230   2.353  1.00  0.00     0.008 A 
BRANCH  47  50
HETATM   50  C30 UNL     1      11.524   1.628   2.286  1.00  0.00     0.138 C 
BRANCH  50  51
HETATM   51  C31 UNL     1      11.844   1.009   3.588  1.00  0.00     0.235 C 
HETATM   52  N4  UNL     1      11.087   1.313   4.739  1.00  0.00    -0.062 NA
HETATM   53  O3  UNL     1      12.799   0.205   3.675  1.00  0.00    -0.277 OA
ENDBRANCH  50  51
ENDBRANCH  47  50
ENDBRANCH  43  44
ENDBRANCH  40  43
ENDBRANCH  36  37
ENDBRANCH  34  35
ENDBRANCH  31  34
ENDBRANCH   1  28
TORSDOF 17
ENDMDL
MODEL 2
REMARK VINA RESULT: -7.328709503      5.072     10.676
REMARK  17 active torsions:
REMARK  status: ('A' for Active; 'I' for Inactive)
REMARK    1  A    between atoms: S1_2  and  N1_5 
REMARK    2  A    between atoms: N1_5  and  C2_7 
REMARK    3  A    between atoms: C2_7  and  C3_8 
REMARK    4  A    between atoms: C3_8  and  C4_9 
REMARK    5  A    between atoms: C8_13  and  C9_14 
REMARK    6  A    between atoms: N2_17  and  C12_18 
REMARK    7  A    between atoms: C12_18  and  C13_19 
REMARK    8  A    between atoms: C13_19  and  C14_20 
REMARK    9  A    between atoms: C14_20  and  N3_21 
REMARK   10  A    between atoms: C17_24  and  C18_25 
REMARK   11  A    between atoms: C18_25  and  C19_26 
REMARK   12  A    between atoms: C20_27  and  C21_28 
REMARK   13  A    between atoms: C24_31  and  C25_32 
REMARK   14  A    between atoms: C25_32  and  C26_33 
REMARK   15  A    between atoms: C29_36  and  C30_37 
REMARK   16  A    between atoms: C30_37  and  C31_38 
REMARK   17  A    between atoms: C39_51  and  O5_52 
ROOT
HETATM    1  C14 UNL     1       5.446   5.018   2.017  1.00  0.00     0.129 C 
ENDROOT
BRANCH   1   2
HETATM    2  C13 UNL     1       5.805   6.312   1.378  1.00  0.00     0.040 C 
BRANCH   2   3
HETATM    3  C12 UNL     1       6.718   6.135   0.200  1.00  0.00     0.135 C 
BRANCH   3   4
HETATM    4  N2  UNL     1       8.074   6.538   0.538  1.00  0.00    -0.310 N 
HETATM    5  C11 UNL     1       8.347   7.739   1.032  1.00  0.00     0.098 A 
HETATM    6  C10 UNL     1       9.654   8.111   1.368  1.00  0.00     0.048 A 
HETATM    7  C9  UNL     1      10.689   7.250   1.199  1.00  0.00     0.050 A 
HETATM    8  N5  UNL     1      10.377   6.024   0.688  1.00  0.00    -0.308 N 
HETATM    9  C38 UNL     1       9.113   5.706   0.378  1.00  0.00     0.326 A 
ATOM     10  H5  UNL     1      11.118   5.338   0.539  1.00  0.00     0.170 HD
HETATM   11  O4  UNL     1       8.861   4.544  -0.099  1.00  0.00    -0.246 OA
BRANCH   7  12
HETATM   12  C8  UNL     1      12.093   7.577   1.484  1.00  0.00     0.024 A 
HETATM   13  C7  UNL     1      12.453   7.979   2.758  1.00  0.00     0.016 A 
HETATM   14  C6  UNL     1      13.748   8.361   3.106  1.00  0.00     0.002 A 
HETATM   15  C5  UNL     1      14.724   8.342   2.146  1.00  0.00     0.010 A 
HETATM   16  C4  UNL     1      14.395   7.943   0.857  1.00  0.00    -0.022 A 
HETATM   17  C39 UNL     1      13.086   7.565   0.533  1.00  0.00     0.084 A 
BRANCH  16  18
HETATM   18  C3  UNL     1      15.465   7.912  -0.172  1.00  0.00     0.062 C 
BRANCH  18  19
HETATM   19  C2  UNL     1      16.261   6.653  -0.094  1.00  0.00     0.136 C 
BRANCH  19  20
HETATM   20  N1  UNL     1      15.626   5.650  -0.954  1.00  0.00    -0.320 N 
ATOM     21  H1  UNL     1      15.543   5.724  -1.967  1.00  0.00     0.172 HD
BRANCH  20  22
HETATM   22  S1  UNL     1      15.038   4.328  -0.016  1.00  0.00     0.222 S 
HETATM   23  C1  UNL     1      15.800   2.834  -0.631  1.00  0.00     0.185 C 
HETATM   24  O1  UNL     1      15.438   4.444   1.431  1.00  0.00    -0.206 OA
HETATM   25  O2  UNL     1      13.550   4.243  -0.125  1.00  0.00    -0.206 OA
ENDBRANCH  20  22
ENDBRANCH  19  20
ENDBRANCH  18  19
ENDBRANCH  16  18
BRANCH  17  26
HETATM   26  O5  UNL     1      12.868   7.195  -0.772  1.00  0.00    -0.359 OA
ATOM     27  H5  UNL     1      13.139   7.820  -1.435  1.00  0.00     0.217 HD
ENDBRANCH  17  26
ENDBRANCH   7  12
ENDBRANCH   3   4
ENDBRANCH   2   3
ENDBRANCH   1   2
BRANCH   1  28
HETATM   28  N3  UNL     1       6.532   4.398   2.766  1.00  0.00    -0.366 N 
HETATM   29  C15 UNL     1       6.908   3.148   2.469  1.00  0.00     0.091 A 
HETATM   30  C16 UNL     1       7.944   2.596   3.193  1.00  0.00     0.025 A 
HETATM   31  C17 UNL     1       8.585   3.283   4.188  1.00  0.00    -0.044 A 
HETATM   32  C36 UNL     1       8.158   4.556   4.445  1.00  0.00     0.025 A 
HETATM   33  C37 UNL     1       7.114   5.125   3.725  1.00  0.00     0.091 A 
BRANCH  31  34
HETATM   34  C18 UNL     1       9.683   2.677   4.940  1.00  0.00     0.132 C 
BRANCH  34  35
HETATM   35  C19 UNL     1      10.102   1.385   4.336  1.00  0.00    -0.097 C 
HETATM   36  C20 UNL     1      10.414   0.330   3.844  1.00  0.00    -0.067 C 
BRANCH  36  37
HETATM   37  C21 UNL     1      10.755  -0.934   3.256  1.00  0.00     0.017 A 
HETATM   38  C22 UNL     1      10.106  -2.108   3.660  1.00  0.00     0.021 A 
HETATM   39  C23 UNL     1      10.432  -3.326   3.109  1.00  0.00     0.009 A 
HETATM   40  C24 UNL     1      11.408  -3.430   2.142  1.00  0.00    -0.054 A 
HETATM   41  C34 UNL     1      12.045  -2.277   1.743  1.00  0.00     0.009 A 
HETATM   42  C35 UNL     1      11.721  -1.042   2.295  1.00  0.00     0.021 A 
BRANCH  40  43
HETATM   43  C25 UNL     1      11.764  -4.780   1.556  1.00  0.00     0.077 C 
BRANCH  43  44
HETATM   44  C26 UNL     1      12.335  -5.632   2.645  1.00  0.00    -0.054 A 
HETATM   45  C27 UNL     1      13.673  -5.596   2.931  1.00  0.00     0.008 A 
HETATM   46  C28 UNL     1      14.145  -6.391   3.957  1.00  0.00     0.008 A 
HETATM   47  C29 UNL     1      13.323  -7.213   4.697  1.00  0.00    -0.050 A 
HETATM   48  C32 UNL     1      11.981  -7.211   4.368  1.00  0.00     0.008 A 
HETATM   49  C33 UNL     1      11.483  -6.434   3.355  1.00  0.00     0.008 A 
BRANCH  47  50
HETATM   50  C30 UNL     1      13.805  -8.065   5.802  1.00  0.00     0.138 C 
BRANCH  50  51
HETATM   51  C31 UNL     1      13.659  -9.482   5.410  1.00  0.00     0.235 C 
HETATM   52  N4  UNL     1      14.181  -9.951   4.186  1.00  0.00    -0.062 NA
HETATM   53  O3  UNL     1      13.065 -10.278   6.169  1.00  0.00    -0.277 OA
ENDBRANCH  50  51
ENDBRANCH  47  50
ENDBRANCH  43  44
ENDBRANCH  40  43
ENDBRANCH  36  37
ENDBRANCH  34  35
ENDBRANCH  31  34
ENDBRANCH   1  28
TORSDOF 17
ENDMDL
MODEL 3
REMARK VINA RESULT: -6.988339184      2.309      5.197
REMARK  17 active torsions:
REMARK  status: ('A' for Active; 'I' for Inactive)
REMARK    1  A    between atoms: S1_2  and  N1_5 
REMARK    2  A    between atoms: N1_5  and  C2_7 
REMARK    3  A    between atoms: C2_7  and  C3_8 
REMARK    4  A    between atoms: C3_8  and  C4_9 
REMARK    5  A    between atoms: C8_13  and  C9_14 
REMARK    6  A    between atoms: N2_17  and  C12_18 
REMARK    7  A    between atoms: C12_18  and  C13_19 
REMARK    8  A    between atoms: C13_19  and  C14_20 
REMARK    9  A    between atoms: C14_20  and  N3_21 
REMARK   10  A    between atoms: C17_24  and  C18_25 
REMARK   11  A    between atoms: C18_25  and  C19_26 
REMARK   12  A    between atoms: C20_27  and  C21_28 
REMARK   13  A    between atoms: C24_31  and  C25_32 
REMARK   14  A    between atoms: C25_32  and  C26_33 
REMARK   15  A    between atoms: C29_36  and  C30_37 
REMARK   16  A    between atoms: C30_37  and  C31_38 
REMARK   17  A    between atoms: C39_51  and  O5_52 
ROOT
HETATM    1  C14 UNL     1      20.588   8.151  -4.035  1.00  0.00     0.129 C 
ENDROOT
BRANCH   1   2
HETATM    2  C13 UNL     1      20.115   6.768  -4.306  1.00  0.00     0.040 C 
BRANCH   2   3
HETATM    3  C12 UNL     1      18.742   6.741  -4.909  1.00  0.00     0.135 C 
BRANCH   3   4
HETATM    4  N2  UNL     1      17.788   6.146  -3.985  1.00  0.00    -0.310 N 
HETATM    5  C11 UNL     1      17.815   4.855  -3.682  1.00  0.00     0.098 A 
HETATM    6  C10 UNL     1      16.902   4.297  -2.779  1.00  0.00     0.048 A 
HETATM    7  C9  UNL     1      15.957   5.064  -2.180  1.00  0.00     0.050 A 
HETATM    8  N5  UNL     1      15.954   6.388  -2.512  1.00  0.00    -0.308 N 
HETATM    9  C38 UNL     1      16.845   6.884  -3.382  1.00  0.00     0.326 A 
ATOM     10  H5  UNL     1      15.263   7.010  -2.092  1.00  0.00     0.170 HD
HETATM   11  O4  UNL     1      16.809   8.132  -3.668  1.00  0.00    -0.246 OA
BRANCH   7  12
HETATM   12  C8  UNL     1      14.936   4.550  -1.257  1.00  0.00     0.024 A 
HETATM   13  C7  UNL     1      13.706   4.154  -1.753  1.00  0.00     0.016 A 
HETATM   14  C6  UNL     1      12.660   3.707  -0.946  1.00  0.00     0.002 A 
HETATM   15  C5  UNL     1      12.846   3.652   0.408  1.00  0.00     0.010 A 
HETATM   16  C4  UNL     1      14.069   4.043   0.938  1.00  0.00    -0.022 A 
HETATM   17  C39 UNL     1      15.103   4.490   0.106  1.00  0.00     0.084 A 
BRANCH  16  18
HETATM   18  C3  UNL     1      14.264   3.965   2.408  1.00  0.00     0.062 C 
BRANCH  18  19
HETATM   19  C2  UNL     1      14.310   2.551   2.879  1.00  0.00     0.136 C 
BRANCH  19  20
HETATM   20  N1  UNL     1      12.995   2.204   3.428  1.00  0.00    -0.320 N 
ATOM     21  H1  UNL     1      12.343   2.872   3.837  1.00  0.00     0.172 HD
BRANCH  20  22
HETATM   22  S1  UNL     1      12.704   0.510   3.286  1.00  0.00     0.222 S 
HETATM   23  C1  UNL     1      11.918   0.216   1.710  1.00  0.00     0.185 C 
HETATM   24  O1  UNL     1      13.984  -0.282   3.277  1.00  0.00    -0.206 OA
HETATM   25  O2  UNL     1      11.829   0.045   4.405  1.00  0.00    -0.206 OA
ENDBRANCH  20  22
ENDBRANCH  19  20
ENDBRANCH  18  19
ENDBRANCH  16  18
BRANCH  17  26
HETATM   26  O5  UNL     1      16.269   4.859   0.735  1.00  0.00    -0.359 OA
ATOM     27  H5  UNL     1      16.954   4.202   0.765  1.00  0.00     0.217 HD
ENDBRANCH  17  26
ENDBRANCH   7  12
ENDBRANCH   3   4
ENDBRANCH   2   3
ENDBRANCH   1   2
BRANCH   1  28
HETATM   28  N3  UNL     1      20.149   8.695  -2.756  1.00  0.00    -0.366 N 
HETATM   29  C15 UNL     1      19.668   9.944  -2.701  1.00  0.00     0.091 A 
HETATM   30  C16 UNL     1      19.254  10.423  -1.475  1.00  0.00     0.025 A 
HETATM   31  C17 UNL     1      19.320   9.666  -0.337  1.00  0.00    -0.044 A 
HETATM   32  C36 UNL     1      19.819   8.398  -0.456  1.00  0.00     0.025 A 
HETATM   33  C37 UNL     1      20.241   7.903  -1.684  1.00  0.00     0.091 A 
BRANCH  31  34
HETATM   34  C18 UNL     1      18.872  10.195   0.951  1.00  0.00     0.132 C 
BRANCH  34  35
HETATM   35  C19 UNL     1      17.536   9.657   1.320  1.00  0.00    -0.097 C 
HETATM   36  C20 UNL     1      16.453   9.205   1.595  1.00  0.00    -0.067 C 
BRANCH  36  37
HETATM   37  C21 UNL     1      15.165   8.651   1.894  1.00  0.00     0.017 A 
HETATM   38  C22 UNL     1      14.470   7.897   0.939  1.00  0.00     0.021 A 
HETATM   39  C23 UNL     1      13.230   7.369   1.213  1.00  0.00     0.009 A 
HETATM   40  C24 UNL     1      12.630   7.565   2.439  1.00  0.00    -0.054 A 
HETATM   41  C34 UNL     1      13.311   8.303   3.379  1.00  0.00     0.009 A 
HETATM   42  C35 UNL     1      14.566   8.840   3.108  1.00  0.00     0.021 A 
BRANCH  40  43
HETATM   43  C25 UNL     1      11.258   6.988   2.720  1.00  0.00     0.077 C 
BRANCH  43  44
HETATM   44  C26 UNL     1      10.427   7.120   1.482  1.00  0.00    -0.054 A 
HETATM   45  C27 UNL     1       9.954   8.342   1.085  1.00  0.00     0.008 A 
HETATM   46  C28 UNL     1       9.206   8.409  -0.072  1.00  0.00     0.008 A 
HETATM   47  C29 UNL     1       8.920   7.300  -0.838  1.00  0.00    -0.050 A 
HETATM   48  C32 UNL     1       9.421   6.091  -0.393  1.00  0.00     0.008 A 
HETATM   49  C33 UNL     1      10.167   5.992   0.753  1.00  0.00     0.008 A 
BRANCH  47  50
HETATM   50  C30 UNL     1       8.128   7.350  -2.082  1.00  0.00     0.138 C 
BRANCH  50  51
HETATM   51  C31 UNL     1       6.811   7.949  -1.785  1.00  0.00     0.235 C 
HETATM   52  N4  UNL     1       5.889   7.289  -0.945  1.00  0.00    -0.062 NA
HETATM   53  O3  UNL     1       6.505   9.055  -2.284  1.00  0.00    -0.277 OA
ENDBRANCH  50  51
ENDBRANCH  47  50
ENDBRANCH  43  44
ENDBRANCH  40  43
ENDBRANCH  36  37
ENDBRANCH  34  35
ENDBRANCH  31  34
ENDBRANCH   1  28
TORSDOF 17
ENDMDL
MODEL 4
REMARK VINA RESULT: -6.813557676      3.425     10.136
REMARK  17 active torsions:
REMARK  status: ('A' for Active; 'I' for Inactive)
REMARK    1  A    between atoms: S1_2  and  N1_5 
REMARK    2  A    between atoms: N1_5  and  C2_7 
REMARK    3  A    between atoms: C2_7  and  C3_8 
REMARK    4  A    between atoms: C3_8  and  C4_9 
REMARK    5  A    between atoms: C8_13  and  C9_14 
REMARK    6  A    between atoms: N2_17  and  C12_18 
REMARK    7  A    between atoms: C12_18  and  C13_19 
REMARK    8  A    between atoms: C13_19  and  C14_20 
REMARK    9  A    between atoms: C14_20  and  N3_21 
REMARK   10  A    between atoms: C17_24  and  C18_25 
REMARK   11  A    between atoms: C18_25  and  C19_26 
REMARK   12  A    between atoms: C20_27  and  C21_28 
REMARK   13  A    between atoms: C24_31  and  C25_32 
REMARK   14  A    between atoms: C25_32  and  C26_33 
REMARK   15  A    between atoms: C29_36  and  C30_37 
REMARK   16  A    between atoms: C30_37  and  C31_38 
REMARK   17  A    between atoms: C39_51  and  O5_52 
ROOT
HETATM    1  C14 UNL     1       7.952  -1.271   3.680  1.00  0.00     0.129 C 
ENDROOT
BRANCH   1   2
HETATM    2  C13 UNL     1       8.903  -1.268   4.822  1.00  0.00     0.040 C 
BRANCH   2   3
HETATM    3  C12 UNL     1      10.300  -1.623   4.405  1.00  0.00     0.135 C 
BRANCH   3   4
HETATM    4  N2  UNL     1      10.922  -0.511   3.703  1.00  0.00    -0.310 N 
HETATM    5  C11 UNL     1      11.004   0.700   4.238  1.00  0.00     0.098 A 
HETATM    6  C10 UNL     1      11.619   1.759   3.559  1.00  0.00     0.048 A 
HETATM    7  C9  UNL     1      12.155   1.578   2.326  1.00  0.00     0.050 A 
HETATM    8  N5  UNL     1      12.054   0.322   1.801  1.00  0.00    -0.308 N 
HETATM    9  C38 UNL     1      11.458  -0.665   2.483  1.00  0.00     0.326 A 
ATOM     10  H5  UNL     1      12.440   0.131   0.876  1.00  0.00     0.170 HD
HETATM   11  O4  UNL     1      11.383  -1.831   1.956  1.00  0.00    -0.246 OA
BRANCH   7  12
HETATM   12  C8  UNL     1      12.777   2.644   1.529  1.00  0.00     0.024 A 
HETATM   13  C7  UNL     1      13.951   3.230   1.972  1.00  0.00     0.016 A 
HETATM   14  C6  UNL     1      14.581   4.283   1.311  1.00  0.00     0.002 A 
HETATM   15  C5  UNL     1      14.021   4.774   0.163  1.00  0.00     0.010 A 
HETATM   16  C4  UNL     1      12.843   4.209  -0.308  1.00  0.00    -0.022 A 
HETATM   17  C39 UNL     1      12.229   3.152   0.375  1.00  0.00     0.084 A 
BRANCH  16  18
HETATM   18  C3  UNL     1      12.253   4.739  -1.563  1.00  0.00     0.062 C 
BRANCH  18  19
HETATM   19  C2  UNL     1      12.861   4.100  -2.766  1.00  0.00     0.136 C 
BRANCH  19  20
HETATM   20  N1  UNL     1      11.999   2.990  -3.185  1.00  0.00    -0.320 N 
ATOM     21  H1  UNL     1      11.043   3.094  -3.522  1.00  0.00     0.172 HD
BRANCH  20  22
HETATM   22  S1  UNL     1      12.826   1.485  -3.028  1.00  0.00     0.222 S 
HETATM   23  C1  UNL     1      12.977   0.768  -4.657  1.00  0.00     0.185 C 
HETATM   24  O1  UNL     1      14.229   1.666  -2.512  1.00  0.00    -0.206 OA
HETATM   25  O2  UNL     1      12.066   0.574  -2.121  1.00  0.00    -0.206 OA
ENDBRANCH  20  22
ENDBRANCH  19  20
ENDBRANCH  18  19
ENDBRANCH  16  18
BRANCH  17  26
HETATM   26  O5  UNL     1      11.065   2.672  -0.175  1.00  0.00    -0.359 OA
ATOM     27  H5  UNL     1      11.115   2.385  -1.079  1.00  0.00     0.217 HD
ENDBRANCH  17  26
ENDBRANCH   7  12
ENDBRANCH   3   4
ENDBRANCH   2   3
ENDBRANCH   1   2
BRANCH   1  28
HETATM   28  N3  UNL     1       7.832   0.010   2.997  1.00  0.00    -0.366 N 
HETATM   29  C15 UNL     1       7.494   1.101   3.697  1.00  0.00     0.091 A 
HETATM   30  C16 UNL     1       7.397   2.299   3.019  1.00  0.00     0.025 A 
HETATM   31  C17 UNL     1       7.635   2.397   1.675  1.00  0.00    -0.044 A 
HETATM   32  C36 UNL     1       7.977   1.249   1.014  1.00  0.00     0.025 A 
HETATM   33  C37 UNL     1       8.077   0.035   1.684  1.00  0.00     0.091 A 
BRANCH  31  34
HETATM   34  C18 UNL     1       7.529   3.678   0.979  1.00  0.00     0.132 C 
BRANCH  34  35
HETATM   35  C19 UNL     1       8.642   4.591   1.355  1.00  0.00    -0.097 C 
HETATM   36  C20 UNL     1       9.542   5.320   1.687  1.00  0.00    -0.067 C 
BRANCH  36  37
HETATM   37  C21 UNL     1      10.609   6.178   2.112  1.00  0.00     0.017 A 
HETATM   38  C22 UNL     1      11.553   5.736   3.049  1.00  0.00     0.021 A 
HETATM   39  C23 UNL     1      12.575   6.555   3.470  1.00  0.00     0.009 A 
HETATM   40  C24 UNL     1      12.703   7.838   2.984  1.00  0.00    -0.054 A 
HETATM   41  C34 UNL     1      11.778   8.274   2.063  1.00  0.00     0.009 A 
HETATM   42  C35 UNL     1      10.742   7.451   1.632  1.00  0.00     0.021 A 
BRANCH  40  43
HETATM   43  C25 UNL     1      13.826   8.731   3.469  1.00  0.00     0.077 C 
BRANCH  43  44
HETATM   44  C26 UNL     1      14.901   8.745   2.430  1.00  0.00    -0.054 A 
HETATM   45  C27 UNL     1      16.058   9.450   2.630  1.00  0.00     0.008 A 
HETATM   46  C28 UNL     1      17.024   9.416   1.644  1.00  0.00     0.008 A 
HETATM   47  C29 UNL     1      16.868   8.702   0.476  1.00  0.00    -0.050 A 
HETATM   48  C32 UNL     1      15.683   8.008   0.324  1.00  0.00     0.008 A 
HETATM   49  C33 UNL     1      14.704   8.023   1.283  1.00  0.00     0.008 A 
BRANCH  47  50
HETATM   50  C30 UNL     1      17.890   8.647  -0.587  1.00  0.00     0.138 C 
BRANCH  50  51
HETATM   51  C31 UNL     1      17.931   9.951  -1.279  1.00  0.00     0.235 C 
HETATM   52  N4  UNL     1      17.032  10.243  -2.326  1.00  0.00    -0.062 NA
HETATM   53  O3  UNL     1      18.773  10.811  -0.935  1.00  0.00    -0.277 OA
ENDBRANCH  50  51
ENDBRANCH  47  50
ENDBRANCH  43  44
ENDBRANCH  40  43
ENDBRANCH  36  37
ENDBRANCH  34  35
ENDBRANCH  31  34
ENDBRANCH   1  28
TORSDOF 17
ENDMDL
MODEL 5
REMARK VINA RESULT: -6.773811783      4.093      7.890
REMARK  17 active torsions:
REMARK  status: ('A' for Active; 'I' for Inactive)
REMARK    1  A    between atoms: S1_2  and  N1_5 
REMARK    2  A    between atoms: N1_5  and  C2_7 
REMARK    3  A    between atoms: C2_7  and  C3_8 
REMARK    4  A    between atoms: C3_8  and  C4_9 
REMARK    5  A    between atoms: C8_13  and  C9_14 
REMARK    6  A    between atoms: N2_17  and  C12_18 
REMARK    7  A    between atoms: C12_18  and  C13_19 
REMARK    8  A    between atoms: C13_19  and  C14_20 
REMARK    9  A    between atoms: C14_20  and  N3_21 
REMARK   10  A    between atoms: C17_24  and  C18_25 
REMARK   11  A    between atoms: C18_25  and  C19_26 
REMARK   12  A    between atoms: C20_27  and  C21_28 
REMARK   13  A    between atoms: C24_31  and  C25_32 
REMARK   14  A    between atoms: C25_32  and  C26_33 
REMARK   15  A    between atoms: C29_36  and  C30_37 
REMARK   16  A    between atoms: C30_37  and  C31_38 
REMARK   17  A    between atoms: C39_51  and  O5_52 
ROOT
HETATM    1  C14 UNL     1      14.610   8.102  -1.263  1.00  0.00     0.129 C 
ENDROOT
BRANCH   1   2
HETATM    2  C13 UNL     1      14.850   7.176  -2.400  1.00  0.00     0.040 C 
BRANCH   2   3
HETATM    3  C12 UNL     1      15.748   6.032  -2.027  1.00  0.00     0.135 C 
BRANCH   3   4
HETATM    4  N2  UNL     1      15.043   5.085  -1.177  1.00  0.00    -0.310 N 
HETATM    5  C11 UNL     1      13.999   4.392  -1.613  1.00  0.00     0.098 A 
HETATM    6  C10 UNL     1      13.339   3.471  -0.791  1.00  0.00     0.048 A 
HETATM    7  C9  UNL     1      13.749   3.256   0.485  1.00  0.00     0.050 A 
HETATM    8  N5  UNL     1      14.824   3.985   0.905  1.00  0.00    -0.308 N 
HETATM    9  C38 UNL     1      15.429   4.857   0.087  1.00  0.00     0.326 A 
ATOM     10  H5  UNL     1      15.173   3.863   1.856  1.00  0.00     0.170 HD
HETATM   11  O4  UNL     1      16.435   5.522   0.518  1.00  0.00    -0.246 OA
BRANCH   7  12
HETATM   12  C8  UNL     1      13.086   2.343   1.425  1.00  0.00     0.024 A 
HETATM   13  C7  UNL     1      12.942   1.008   1.091  1.00  0.00     0.016 A 
HETATM   14  C6  UNL     1      12.278   0.081   1.895  1.00  0.00     0.002 A 
HETATM   15  C5  UNL     1      11.737   0.501   3.079  1.00  0.00     0.010 A 
HETATM   16  C4  UNL     1      11.863   1.835   3.444  1.00  0.00    -0.022 A 
HETATM   17  C39 UNL     1      12.533   2.746   2.618  1.00  0.00     0.084 A 
BRANCH  16  18
HETATM   18  C3  UNL     1      11.285   2.276   4.739  1.00  0.00     0.062 C 
BRANCH  18  19
HETATM   19  C2  UNL     1      10.901   1.114   5.590  1.00  0.00     0.136 C 
BRANCH  19  20
HETATM   20  N1  UNL     1      10.311   1.624   6.831  1.00  0.00    -0.320 N 
ATOM     21  H1  UNL     1      10.817   2.161   7.535  1.00  0.00     0.172 HD
BRANCH  20  22
HETATM   22  S1  UNL     1       8.646   1.191   6.938  1.00  0.00     0.222 S 
HETATM   23  C1  UNL     1       7.685   2.517   6.226  1.00  0.00     0.185 C 
HETATM   24  O1  UNL     1       8.333  -0.041   6.132  1.00  0.00    -0.206 OA
HETATM   25  O2  UNL     1       8.264   0.972   8.366  1.00  0.00    -0.206 OA
ENDBRANCH  20  22
ENDBRANCH  19  20
ENDBRANCH  18  19
ENDBRANCH  16  18
BRANCH  17  26
HETATM   26  O5  UNL     1      12.595   4.042   3.071  1.00  0.00    -0.359 OA
ATOM     27  H5  UNL     1      12.635   4.718   2.404  1.00  0.00     0.217 HD
ENDBRANCH  17  26
ENDBRANCH   7  12
ENDBRANCH   3   4
ENDBRANCH   2   3
ENDBRANCH   1   2
BRANCH   1  28
HETATM   28  N3  UNL     1      13.443   7.769  -0.455  1.00  0.00    -0.366 N 
HETATM   29  C15 UNL     1      13.581   7.612   0.869  1.00  0.00     0.091 A 
HETATM   30  C16 UNL     1      12.454   7.306   1.603  1.00  0.00     0.025 A 
HETATM   31  C17 UNL     1      11.223   7.163   1.023  1.00  0.00    -0.044 A 
HETATM   32  C36 UNL     1      11.145   7.336  -0.332  1.00  0.00     0.025 A 
HETATM   33  C37 UNL     1      12.272   7.643  -1.085  1.00  0.00     0.091 A 
BRANCH  31  34
HETATM   34  C18 UNL     1      10.042   6.840   1.823  1.00  0.00     0.132 C 
BRANCH  34  35
HETATM   35  C19 UNL     1       9.672   5.407   1.684  1.00  0.00    -0.097 C 
HETATM   36  C20 UNL     1       9.372   4.242   1.600  1.00  0.00    -0.067 C 
BRANCH  36  37
HETATM   37  C21 UNL     1       9.019   2.854   1.533  1.00  0.00     0.017 A 
HETATM   38  C22 UNL     1       8.302   2.247   2.571  1.00  0.00     0.021 A 
HETATM   39  C23 UNL     1       7.966   0.914   2.520  1.00  0.00     0.009 A 
HETATM   40  C24 UNL     1       8.325   0.132   1.444  1.00  0.00    -0.054 A 
HETATM   41  C34 UNL     1       9.029   0.727   0.422  1.00  0.00     0.009 A 
HETATM   42  C35 UNL     1       9.372   2.074   0.466  1.00  0.00     0.021 A 
BRANCH  40  43
HETATM   43  C25 UNL     1       7.960  -1.338   1.409  1.00  0.00     0.077 C 
BRANCH  43  44
HETATM   44  C26 UNL     1       9.201  -2.138   1.650  1.00  0.00    -0.054 A 
HETATM   45  C27 UNL     1       9.626  -2.401   2.924  1.00  0.00     0.008 A 
HETATM   46  C28 UNL     1      10.769  -3.158   3.089  1.00  0.00     0.008 A 
HETATM   47  C29 UNL     1      11.491  -3.656   2.026  1.00  0.00    -0.050 A 
HETATM   48  C32 UNL     1      11.018  -3.362   0.762  1.00  0.00     0.008 A 
HETATM   49  C33 UNL     1       9.887  -2.612   0.564  1.00  0.00     0.008 A 
BRANCH  47  50
HETATM   50  C30 UNL     1      12.710  -4.472   2.180  1.00  0.00     0.138 C 
BRANCH  50  51
HETATM   51  C31 UNL     1      12.360  -5.728   2.875  1.00  0.00     0.235 C 
HETATM   52  N4  UNL     1      12.934  -6.048   4.123  1.00  0.00    -0.062 NA
HETATM   53  O3  UNL     1      11.544  -6.519   2.352  1.00  0.00    -0.277 OA
ENDBRANCH  50  51
ENDBRANCH  47  50
ENDBRANCH  43  44
ENDBRANCH  40  43
ENDBRANCH  36  37
ENDBRANCH  34  35
ENDBRANCH  31  34
ENDBRANCH   1  28
TORSDOF 17
ENDMDL
