MODEL 1
REMARK VINA RESULT: -5.946317068      0.000      0.000
REMARK  12 active torsions:
REMARK  status: ('A' for Active; 'I' for Inactive)
REMARK    1  A    between atoms: C2_2  and  C3_3 
REMARK    2  A    between atoms: C3_3  and  C4_4 
REMARK    3  A    between atoms: C4_4  and  C6_6 
REMARK    4  A    between atoms: C6_6  and  O1_7 
REMARK    5  A    between atoms: C6_6  and  C13_22 
REMARK    6  A    between atoms: O1_7  and  C7_8 
REMARK    7  A    between atoms: C8_9  and  O2_10 
REMARK    8  A    between atoms: C10_13  and  O3_14 
REMARK    9  A    between atoms: C11_16  and  O4_17 
REMARK   10  A    between atoms: C12_19  and  O5_20 
REMARK   11  A    between atoms: C13_22  and  O6_23 
REMARK   12  A    between atoms: C13_22  and  C14_25 
ROOT
HETATM    1  C7  UNL     1      39.408  26.882  39.993  1.00  0.00     0.182 C 
HETATM    2  C8  UNL     1      40.028  26.887  38.612  1.00  0.00     0.152 C 
HETATM    3  C9  UNL     1      40.901  28.063  38.301  1.00  0.00     0.069 C 
HETATM    4  C10 UNL     1      41.473  28.828  39.417  1.00  0.00     0.152 C 
HETATM    5  C11 UNL     1      40.798  28.724  40.742  1.00  0.00     0.178 C 
HETATM    6  C12 UNL     1      39.387  28.318  40.525  1.00  0.00     0.180 C 
ENDROOT
BRANCH   1   7
HETATM    7  O1  UNL     1      39.945  25.977  40.858  1.00  0.00    -0.372 OA
BRANCH   7   8
HETATM    8  C6  UNL     1      39.382  24.628  40.685  1.00  0.00     0.155 C 
BRANCH   8   9
HETATM    9  C4  UNL     1      37.913  24.768  40.589  1.00  0.00     0.016 C 
HETATM   10  C5  UNL     1      37.278  24.082  39.380  1.00  0.00     0.013 C 
BRANCH   9  11
HETATM   11  C3  UNL     1      37.057  24.508  41.777  1.00  0.00     0.033 C 
BRANCH  11  12
HETATM   12  C2  UNL     1      35.602  24.402  41.388  1.00  0.00    -0.036 C 
HETATM   13  C1  UNL     1      34.636  24.479  42.269  1.00  0.00     0.007 C 
ENDBRANCH  11  12
ENDBRANCH   9  11
ENDBRANCH   8   9
BRANCH   8  14
HETATM   14  C13 UNL     1      39.844  23.884  41.914  1.00  0.00     0.150 C 
BRANCH  14  15
HETATM   15  O6  UNL     1      41.018  24.537  42.433  1.00  0.00    -0.393 OA
ATOM     16  H6  UNL     1      41.786  24.073  42.119  1.00  0.00     0.210 HD
ENDBRANCH  14  15
BRANCH  14  17
HETATM   17  C14 UNL     1      40.064  22.451  41.944  1.00  0.00     0.009 C 
HETATM   18  C15 UNL     1      39.500  22.005  43.359  1.00  0.00     0.012 C 
HETATM   19  C16 UNL     1      41.494  21.992  42.013  1.00  0.00     0.012 C 
ENDBRANCH  14  17
ENDBRANCH   8  14
ENDBRANCH   7   8
ENDBRANCH   1   7
BRANCH   2  20
HETATM   20  O2  UNL     1      39.041  26.749  37.638  1.00  0.00    -0.393 OA
ATOM     21  H2  UNL     1      38.241  27.177  37.916  1.00  0.00     0.210 HD
ENDBRANCH   2  20
BRANCH   6  22
HETATM   22  O5  UNL     1      38.820  29.145  39.534  1.00  0.00    -0.390 OA
ATOM     23  H5  UNL     1      39.526  29.590  39.081  1.00  0.00     0.210 HD
ENDBRANCH   6  22
BRANCH   5  24
HETATM   24  O4  UNL     1      40.814  29.972  41.359  1.00  0.00    -0.390 OA
ATOM     25  H4  UNL     1      41.367  29.928  42.131  1.00  0.00     0.210 HD
ENDBRANCH   5  24
BRANCH   4  26
HETATM   26  O3  UNL     1      41.621  30.200  39.115  1.00  0.00    -0.393 OA
ATOM     27  H3  UNL     1      41.174  30.762  39.738  1.00  0.00     0.210 HD
ENDBRANCH   4  26
TORSDOF 12
ENDMDL
MODEL 2
REMARK VINA RESULT: -5.945632163      1.656      2.555
REMARK  12 active torsions:
REMARK  status: ('A' for Active; 'I' for Inactive)
REMARK    1  A    between atoms: C2_2  and  C3_3 
REMARK    2  A    between atoms: C3_3  and  C4_4 
REMARK    3  A    between atoms: C4_4  and  C6_6 
REMARK    4  A    between atoms: C6_6  and  O1_7 
REMARK    5  A    between atoms: C6_6  and  C13_22 
REMARK    6  A    between atoms: O1_7  and  C7_8 
REMARK    7  A    between atoms: C8_9  and  O2_10 
REMARK    8  A    between atoms: C10_13  and  O3_14 
REMARK    9  A    between atoms: C11_16  and  O4_17 
REMARK   10  A    between atoms: C12_19  and  O5_20 
REMARK   11  A    between atoms: C13_22  and  O6_23 
REMARK   12  A    between atoms: C13_22  and  C14_25 
ROOT
HETATM    1  C7  UNL     1      39.905  26.779  40.596  1.00  0.00     0.182 C 
HETATM    2  C8  UNL     1      39.535  26.521  39.151  1.00  0.00     0.152 C 
HETATM    3  C9  UNL     1      40.142  27.457  38.153  1.00  0.00     0.069 C 
HETATM    4  C10 UNL     1      41.355  28.196  38.530  1.00  0.00     0.152 C 
HETATM    5  C11 UNL     1      41.637  28.363  39.985  1.00  0.00     0.178 C 
HETATM    6  C12 UNL     1      40.362  28.233  40.732  1.00  0.00     0.180 C 
ENDROOT
BRANCH   1   7
HETATM    7  O1  UNL     1      40.767  25.873  41.138  1.00  0.00    -0.372 OA
BRANCH   7   8
HETATM    8  C6  UNL     1      40.418  24.485  40.791  1.00  0.00     0.155 C 
BRANCH   8   9
HETATM    9  C4  UNL     1      39.523  23.973  41.850  1.00  0.00     0.016 C 
HETATM   10  C5  UNL     1      38.297  23.213  41.346  1.00  0.00     0.013 C 
BRANCH   9  11
HETATM   11  C3  UNL     1      40.085  23.235  43.012  1.00  0.00     0.033 C 
BRANCH  11  12
HETATM   12  C2  UNL     1      38.989  22.714  43.910  1.00  0.00    -0.036 C 
HETATM   13  C1  UNL     1      39.240  21.998  44.977  1.00  0.00     0.007 C 
ENDBRANCH  11  12
ENDBRANCH   9  11
ENDBRANCH   8   9
BRANCH   8  14
HETATM   14  C13 UNL     1      41.753  23.784  40.728  1.00  0.00     0.150 C 
BRANCH  14  15
HETATM   15  O6  UNL     1      42.786  24.773  40.558  1.00  0.00    -0.393 OA
ATOM     16  H6  UNL     1      42.903  25.233  41.381  1.00  0.00     0.210 HD
ENDBRANCH  14  15
BRANCH  14  17
HETATM   17  C14 UNL     1      42.030  22.673  39.836  1.00  0.00     0.009 C 
HETATM   18  C15 UNL     1      41.032  22.896  38.623  1.00  0.00     0.012 C 
HETATM   19  C16 UNL     1      41.639  21.307  40.324  1.00  0.00     0.012 C 
ENDBRANCH  14  17
ENDBRANCH   8  14
ENDBRANCH   7   8
ENDBRANCH   1   7
BRANCH   2  20
HETATM   20  O2  UNL     1      38.149  26.491  39.004  1.00  0.00    -0.393 OA
ATOM     21  H2  UNL     1      37.743  27.127  39.580  1.00  0.00     0.210 HD
ENDBRANCH   2  20
BRANCH   6  22
HETATM   22  O5  UNL     1      39.391  29.058  40.127  1.00  0.00    -0.390 OA
ATOM     23  H5  UNL     1      39.765  29.924  40.017  1.00  0.00     0.210 HD
ENDBRANCH   6  22
BRANCH   5  24
HETATM   24  O4  UNL     1      42.157  29.636  40.202  1.00  0.00    -0.390 OA
ATOM     25  H4  UNL     1      42.523  29.963  39.389  1.00  0.00     0.210 HD
ENDBRANCH   5  24
BRANCH   4  26
HETATM   26  O3  UNL     1      41.423  29.472  37.928  1.00  0.00    -0.393 OA
ATOM     27  H3  UNL     1      42.262  29.636  37.514  1.00  0.00     0.210 HD
ENDBRANCH   4  26
TORSDOF 12
ENDMDL
MODEL 3
REMARK VINA RESULT: -5.943499040      1.072      1.115
REMARK  12 active torsions:
REMARK  status: ('A' for Active; 'I' for Inactive)
REMARK    1  A    between atoms: C2_2  and  C3_3 
REMARK    2  A    between atoms: C3_3  and  C4_4 
REMARK    3  A    between atoms: C4_4  and  C6_6 
REMARK    4  A    between atoms: C6_6  and  O1_7 
REMARK    5  A    between atoms: C6_6  and  C13_22 
REMARK    6  A    between atoms: O1_7  and  C7_8 
REMARK    7  A    between atoms: C8_9  and  O2_10 
REMARK    8  A    between atoms: C10_13  and  O3_14 
REMARK    9  A    between atoms: C11_16  and  O4_17 
REMARK   10  A    between atoms: C12_19  and  O5_20 
REMARK   11  A    between atoms: C13_22  and  O6_23 
REMARK   12  A    between atoms: C13_22  and  C14_25 
ROOT
HETATM    1  C7  UNL     1      39.412  26.205  40.037  1.00  0.00     0.182 C 
HETATM    2  C8  UNL     1      40.440  25.979  38.948  1.00  0.00     0.152 C 
HETATM    3  C9  UNL     1      41.475  27.051  38.806  1.00  0.00     0.069 C 
HETATM    4  C10 UNL     1      41.729  27.938  39.950  1.00  0.00     0.152 C 
HETATM    5  C11 UNL     1      40.658  28.060  40.979  1.00  0.00     0.178 C 
HETATM    6  C12 UNL     1      39.360  27.701  40.358  1.00  0.00     0.180 C 
ENDROOT
BRANCH   1   7
HETATM    7  O1  UNL     1      39.554  25.406  41.132  1.00  0.00    -0.372 OA
BRANCH   7   8
HETATM    8  C6  UNL     1      38.787  24.155  41.020  1.00  0.00     0.155 C 
BRANCH   8   9
HETATM    9  C4  UNL     1      37.375  24.518  40.777  1.00  0.00     0.016 C 
HETATM   10  C5  UNL     1      36.622  23.583  39.832  1.00  0.00     0.013 C 
BRANCH   9  11
HETATM   11  C3  UNL     1      36.480  24.846  41.919  1.00  0.00     0.033 C 
BRANCH  11  12
HETATM   12  C2  UNL     1      35.383  23.820  42.065  1.00  0.00    -0.036 C 
HETATM   13  C1  UNL     1      35.044  23.319  43.227  1.00  0.00     0.007 C 
ENDBRANCH  11  12
ENDBRANCH   9  11
ENDBRANCH   8   9
BRANCH   8  14
HETATM   14  C13 UNL     1      39.022  23.469  42.344  1.00  0.00     0.150 C 
BRANCH  14  15
HETATM   15  O6  UNL     1      40.420  23.571  42.674  1.00  0.00    -0.393 OA
ATOM     16  H6  UNL     1      40.501  23.961  43.536  1.00  0.00     0.210 HD
ENDBRANCH  14  15
BRANCH  14  17
HETATM   17  C14 UNL     1      38.579  22.119  42.634  1.00  0.00     0.009 C 
HETATM   18  C15 UNL     1      38.600  22.039  44.219  1.00  0.00     0.012 C 
HETATM   19  C16 UNL     1      39.515  21.008  42.248  1.00  0.00     0.012 C 
ENDBRANCH  14  17
ENDBRANCH   8  14
ENDBRANCH   7   8
ENDBRANCH   1   7
BRANCH   2  20
HETATM   20  O2  UNL     1      39.808  25.753  37.726  1.00  0.00    -0.393 OA
ATOM     21  H2  UNL     1      39.975  24.868  37.427  1.00  0.00     0.210 HD
ENDBRANCH   2  20
BRANCH   6  22
HETATM   22  O5  UNL     1      39.223  28.406  39.144  1.00  0.00    -0.390 OA
ATOM     23  H5  UNL     1      39.631  29.257  39.249  1.00  0.00     0.210 HD
ENDBRANCH   6  22
BRANCH   5  24
HETATM   24  O4  UNL     1      40.596  29.381  41.414  1.00  0.00    -0.390 OA
ATOM     25  H4  UNL     1      39.895  29.826  40.951  1.00  0.00     0.210 HD
ENDBRANCH   5  24
BRANCH   4  26
HETATM   26  O3  UNL     1      42.098  29.242  39.553  1.00  0.00    -0.393 OA
ATOM     27  H3  UNL     1      41.869  29.900  40.200  1.00  0.00     0.210 HD
ENDBRANCH   4  26
TORSDOF 12
ENDMDL
MODEL 4
REMARK VINA RESULT: -5.932575965      2.822      6.276
REMARK  12 active torsions:
REMARK  status: ('A' for Active; 'I' for Inactive)
REMARK    1  A    between atoms: C2_2  and  C3_3 
REMARK    2  A    between atoms: C3_3  and  C4_4 
REMARK    3  A    between atoms: C4_4  and  C6_6 
REMARK    4  A    between atoms: C6_6  and  O1_7 
REMARK    5  A    between atoms: C6_6  and  C13_22 
REMARK    6  A    between atoms: O1_7  and  C7_8 
REMARK    7  A    between atoms: C8_9  and  O2_10 
REMARK    8  A    between atoms: C10_13  and  O3_14 
REMARK    9  A    between atoms: C11_16  and  O4_17 
REMARK   10  A    between atoms: C12_19  and  O5_20 
REMARK   11  A    between atoms: C13_22  and  O6_23 
REMARK   12  A    between atoms: C13_22  and  C14_25 
ROOT
HETATM    1  C7  UNL     1      38.271  23.514  41.206  1.00  0.00     0.182 C 
HETATM    2  C8  UNL     1      37.162  24.544  41.194  1.00  0.00     0.152 C 
HETATM    3  C9  UNL     1      35.985  24.236  42.067  1.00  0.00     0.069 C 
HETATM    4  C10 UNL     1      36.165  23.293  43.180  1.00  0.00     0.152 C 
HETATM    5  C11 UNL     1      37.311  22.343  43.101  1.00  0.00     0.178 C 
HETATM    6  C12 UNL     1      37.692  22.177  41.677  1.00  0.00     0.180 C 
ENDROOT
BRANCH   1   7
HETATM    7  O1  UNL     1      39.399  23.896  41.869  1.00  0.00    -0.372 OA
BRANCH   7   8
HETATM    8  C6  UNL     1      40.629  23.482  41.174  1.00  0.00     0.155 C 
BRANCH   8   9
HETATM    9  C4  UNL     1      41.392  22.616  42.098  1.00  0.00     0.016 C 
HETATM   10  C5  UNL     1      42.897  22.881  42.134  1.00  0.00     0.013 C 
BRANCH   9  11
HETATM   11  C3  UNL     1      40.920  22.411  43.493  1.00  0.00     0.033 C 
BRANCH  11  12
HETATM   12  C2  UNL     1      42.077  22.153  44.428  1.00  0.00    -0.036 C 
HETATM   13  C1  UNL     1      41.902  21.779  45.671  1.00  0.00     0.007 C 
ENDBRANCH  11  12
ENDBRANCH   9  11
ENDBRANCH   8   9
BRANCH   8  14
HETATM   14  C13 UNL     1      41.316  24.786  40.852  1.00  0.00     0.150 C 
BRANCH  14  15
HETATM   15  O6  UNL     1      41.022  25.732  41.897  1.00  0.00    -0.393 OA
ATOM     16  H6  UNL     1      41.581  26.492  41.784  1.00  0.00     0.210 HD
ENDBRANCH  14  15
BRANCH  14  17
HETATM   17  C14 UNL     1      41.191  25.460  39.573  1.00  0.00     0.009 C 
HETATM   18  C15 UNL     1      42.514  26.331  39.467  1.00  0.00     0.012 C 
HETATM   19  C16 UNL     1      40.114  26.503  39.467  1.00  0.00     0.012 C 
ENDBRANCH  14  17
ENDBRANCH   8  14
ENDBRANCH   7   8
ENDBRANCH   1   7
BRANCH   2  20
HETATM   20  O2  UNL     1      36.741  24.786  39.887  1.00  0.00    -0.393 OA
ATOM     21  H2  UNL     1      37.473  25.071  39.352  1.00  0.00     0.210 HD
ENDBRANCH   2  20
BRANCH   6  22
HETATM   22  O5  UNL     1      36.533  21.909  40.921  1.00  0.00    -0.390 OA
ATOM     23  H5  UNL     1      36.423  20.967  40.871  1.00  0.00     0.210 HD
ENDBRANCH   6  22
BRANCH   5  24
HETATM   24  O4  UNL     1      36.912  21.108  43.605  1.00  0.00    -0.390 OA
ATOM     25  H4  UNL     1      37.590  20.467  43.426  1.00  0.00     0.210 HD
ENDBRANCH   5  24
BRANCH   4  26
HETATM   26  O3  UNL     1      34.999  22.542  43.448  1.00  0.00    -0.393 OA
ATOM     27  H3  UNL     1      35.055  22.059  44.265  1.00  0.00     0.210 HD
ENDBRANCH   4  26
TORSDOF 12
ENDMDL
MODEL 5
REMARK VINA RESULT: -5.931462124      3.876      6.152
REMARK  12 active torsions:
REMARK  status: ('A' for Active; 'I' for Inactive)
REMARK    1  A    between atoms: C2_2  and  C3_3 
REMARK    2  A    between atoms: C3_3  and  C4_4 
REMARK    3  A    between atoms: C4_4  and  C6_6 
REMARK    4  A    between atoms: C6_6  and  O1_7 
REMARK    5  A    between atoms: C6_6  and  C13_22 
REMARK    6  A    between atoms: O1_7  and  C7_8 
REMARK    7  A    between atoms: C8_9  and  O2_10 
REMARK    8  A    between atoms: C10_13  and  O3_14 
REMARK    9  A    between atoms: C11_16  and  O4_17 
REMARK   10  A    between atoms: C12_19  and  O5_20 
REMARK   11  A    between atoms: C13_22  and  O6_23 
REMARK   12  A    between atoms: C13_22  and  C14_25 
ROOT
HETATM    1  C7  UNL     1      36.802  23.029  40.690  1.00  0.00     0.182 C 
HETATM    2  C8  UNL     1      37.274  24.077  41.675  1.00  0.00     0.152 C 
HETATM    3  C9  UNL     1      36.191  24.815  42.399  1.00  0.00     0.069 C 
HETATM    4  C10 UNL     1      34.861  24.198  42.490  1.00  0.00     0.152 C 
HETATM    5  C11 UNL     1      34.515  23.152  41.486  1.00  0.00     0.178 C 
HETATM    6  C12 UNL     1      35.362  23.350  40.285  1.00  0.00     0.180 C 
ENDROOT
BRANCH   1   7
HETATM    7  O1  UNL     1      36.992  21.740  41.092  1.00  0.00    -0.372 OA
BRANCH   7   8
HETATM    8  C6  UNL     1      38.417  21.394  41.221  1.00  0.00     0.155 C 
BRANCH   8   9
HETATM    9  C4  UNL     1      38.705  20.321  40.246  1.00  0.00     0.016 C 
HETATM   10  C5  UNL     1      40.186  20.111  39.937  1.00  0.00     0.013 C 
BRANCH   9  11
HETATM   11  C3  UNL     1      38.065  18.986  40.392  1.00  0.00     0.033 C 
BRANCH  11  12
HETATM   12  C2  UNL     1      39.087  17.923  40.713  1.00  0.00    -0.036 C 
HETATM   13  C1  UNL     1      38.943  16.678  40.335  1.00  0.00     0.007 C 
ENDBRANCH  11  12
ENDBRANCH   9  11
ENDBRANCH   8   9
BRANCH   8  14
HETATM   14  C13 UNL     1      38.553  20.962  42.661  1.00  0.00     0.150 C 
BRANCH  14  15
HETATM   15  O6  UNL     1      37.259  21.042  43.290  1.00  0.00    -0.393 OA
ATOM     16  H6  UNL     1      36.834  20.196  43.216  1.00  0.00     0.210 HD
ENDBRANCH  14  15
BRANCH  14  17
HETATM   17  C14 UNL     1      39.540  21.513  43.571  1.00  0.00     0.009 C 
HETATM   18  C15 UNL     1      38.682  22.361  44.601  1.00  0.00     0.012 C 
HETATM   19  C16 UNL     1      40.471  22.547  43.004  1.00  0.00     0.012 C 
ENDBRANCH  14  17
ENDBRANCH   8  14
ENDBRANCH   7   8
ENDBRANCH   1   7
BRANCH   2  20
HETATM   20  O2  UNL     1      38.134  24.977  41.048  1.00  0.00    -0.393 OA
ATOM     21  H2  UNL     1      38.294  24.711  40.151  1.00  0.00     0.210 HD
ENDBRANCH   2  20
BRANCH   6  22
HETATM   22  O5  UNL     1      35.305  24.707  39.903  1.00  0.00    -0.390 OA
ATOM     23  H5  UNL     1      35.515  25.236  40.663  1.00  0.00     0.210 HD
ENDBRANCH   6  22
BRANCH   5  24
HETATM   24  O4  UNL     1      33.179  23.298  41.121  1.00  0.00    -0.390 OA
ATOM     25  H4  UNL     1      33.110  23.987  40.470  1.00  0.00     0.210 HD
ENDBRANCH   5  24
BRANCH   4  26
HETATM   26  O3  UNL     1      33.819  25.152  42.497  1.00  0.00    -0.393 OA
ATOM     27  H3  UNL     1      32.961  24.756  42.602  1.00  0.00     0.210 HD
ENDBRANCH   4  26
TORSDOF 12
ENDMDL
