MODEL 1
REMARK VINA RESULT: -6.097950014      0.000      0.000
REMARK  11 active torsions:
REMARK  status: ('A' for Active; 'I' for Inactive)
REMARK    1  A    between atoms: C3_3  and  C4_4 
REMARK    2  A    between atoms: C5_5  and  C6_6 
REMARK    3  A    between atoms: C6_6  and  C7_8 
REMARK    4  A    between atoms: C7_8  and  C9_10 
REMARK    5  A    between atoms: C9_10  and  O2_11 
REMARK    6  A    between atoms: C9_10  and  C10_13 
REMARK    7  A    between atoms: C10_13  and  O3_14 
REMARK    8  A    between atoms: C10_13  and  C12_16 
REMARK    9  A    between atoms: C12_16  and  O4_17 
REMARK   10  A    between atoms: C14_23  and  O5_24 
REMARK   11  A    between atoms: C15_26  and  O6_27 
ROOT
HETATM    1  C10 UNL     1      39.469  26.328  40.295  1.00  0.00     0.216 C 
ENDROOT
BRANCH   1   2
HETATM    2  C9  UNL     1      38.303  25.532  39.849  1.00  0.00     0.163 C 
BRANCH   2   3
HETATM    3  C7  UNL     1      37.862  24.418  40.712  1.00  0.00     0.087 C 
HETATM    4  C8  UNL     1      38.359  23.082  40.223  1.00  0.00     0.021 C 
BRANCH   3   5
HETATM    5  C6  UNL     1      36.387  24.314  40.810  1.00  0.00     0.155 C 
HETATM    6  O1  UNL     1      35.745  24.085  39.769  1.00  0.00    -0.293 OA
BRANCH   5   7
HETATM    7  C5  UNL     1      35.694  24.473  42.071  1.00  0.00     0.050 C 
HETATM    8  C4  UNL     1      35.749  23.723  43.127  1.00  0.00     0.003 C 
BRANCH   8   9
HETATM    9  C3  UNL     1      36.505  22.526  43.355  1.00  0.00    -0.004 C 
HETATM   10  C2  UNL     1      37.719  22.578  43.886  1.00  0.00    -0.031 C 
HETATM   11  C1  UNL     1      38.523  21.369  44.133  1.00  0.00     0.036 C 
ENDBRANCH   8   9
ENDBRANCH   5   7
ENDBRANCH   3   5
ENDBRANCH   2   3
BRANCH   2  12
HETATM   12  O2  UNL     1      38.575  25.132  38.532  1.00  0.00    -0.392 OA
ATOM     13  H2  UNL     1      38.319  25.779  37.886  1.00  0.00     0.210 HD
ENDBRANCH   2  12
ENDBRANCH   1   2
BRANCH   1  14
HETATM   14  O3  UNL     1      40.642  25.621  40.321  1.00  0.00    -0.383 OA
HETATM   15  C11 UNL     1      41.139  25.429  41.633  1.00  0.00     0.202 C 
ENDBRANCH   1  14
BRANCH   1  16
HETATM   16  C12 UNL     1      39.589  27.715  39.707  1.00  0.00     0.281 C 
HETATM   17  N1  UNL     1      39.504  28.679  40.819  1.00  0.00    -0.035 N 
HETATM   18  C13 UNL     1      40.271  29.824  40.440  1.00  0.00     0.270 C 
ATOM     19  H12 UNL     1      38.544  28.907  41.078  1.00  0.00     0.281 HD
ATOM     20  H11 UNL     1      39.789  28.283  41.715  1.00  0.00     0.281 HD
HETATM   21  C14 UNL     1      41.445  29.292  39.647  1.00  0.00     0.177 C 
HETATM   22  C15 UNL     1      40.864  28.019  39.017  1.00  0.00     0.214 C 
BRANCH  16  23
HETATM   23  O4  UNL     1      38.462  28.021  38.925  1.00  0.00    -0.361 OA
ATOM     24  H4  UNL     1      38.175  28.912  39.086  1.00  0.00     0.212 HD
ENDBRANCH  16  23
BRANCH  21  25
HETATM   25  O5  UNL     1      41.917  30.173  38.705  1.00  0.00    -0.391 OA
ATOM     26  H5  UNL     1      41.650  29.960  37.818  1.00  0.00     0.210 HD
ENDBRANCH  21  25
BRANCH  22  27
HETATM   27  O6  UNL     1      40.667  28.246  37.629  1.00  0.00    -0.388 OA
ATOM     28  H6  UNL     1      41.481  28.175  37.143  1.00  0.00     0.210 HD
ENDBRANCH  22  27
ENDBRANCH   1  16
TORSDOF 11
ENDMDL
MODEL 2
REMARK VINA RESULT: -5.998167556      1.496      1.903
REMARK  11 active torsions:
REMARK  status: ('A' for Active; 'I' for Inactive)
REMARK    1  A    between atoms: C3_3  and  C4_4 
REMARK    2  A    between atoms: C5_5  and  C6_6 
REMARK    3  A    between atoms: C6_6  and  C7_8 
REMARK    4  A    between atoms: C7_8  and  C9_10 
REMARK    5  A    between atoms: C9_10  and  O2_11 
REMARK    6  A    between atoms: C9_10  and  C10_13 
REMARK    7  A    between atoms: C10_13  and  O3_14 
REMARK    8  A    between atoms: C10_13  and  C12_16 
REMARK    9  A    between atoms: C12_16  and  O4_17 
REMARK   10  A    between atoms: C14_23  and  O5_24 
REMARK   11  A    between atoms: C15_26  and  O6_27 
ROOT
HETATM    1  C10 UNL     1      39.433  25.652  39.031  1.00  0.00     0.216 C 
ENDROOT
BRANCH   1   2
HETATM    2  C9  UNL     1      38.356  25.560  40.043  1.00  0.00     0.163 C 
BRANCH   2   3
HETATM    3  C7  UNL     1      38.583  24.681  41.207  1.00  0.00     0.087 C 
HETATM    4  C8  UNL     1      40.006  24.193  41.290  1.00  0.00     0.021 C 
BRANCH   3   5
HETATM    5  C6  UNL     1      37.719  23.476  41.196  1.00  0.00     0.155 C 
HETATM    6  O1  UNL     1      37.852  22.668  40.259  1.00  0.00    -0.293 OA
BRANCH   5   7
HETATM    7  C5  UNL     1      36.743  23.230  42.236  1.00  0.00     0.050 C 
HETATM    8  C4  UNL     1      36.873  22.535  43.323  1.00  0.00     0.003 C 
BRANCH   8   9
HETATM    9  C3  UNL     1      38.011  21.813  43.811  1.00  0.00    -0.004 C 
HETATM   10  C2  UNL     1      38.972  22.431  44.483  1.00  0.00    -0.031 C 
HETATM   11  C1  UNL     1      40.155  21.721  44.998  1.00  0.00     0.036 C 
ENDBRANCH   8   9
ENDBRANCH   5   7
ENDBRANCH   3   5
ENDBRANCH   2   3
BRANCH   2  12
HETATM   12  O2  UNL     1      37.179  25.254  39.344  1.00  0.00    -0.392 OA
ATOM     13  H2  UNL     1      36.629  26.013  39.190  1.00  0.00     0.210 HD
ENDBRANCH   2  12
ENDBRANCH   1   2
BRANCH   1  14
HETATM   14  O3  UNL     1      39.176  24.948  37.885  1.00  0.00    -0.383 OA
HETATM   15  C11 UNL     1      40.080  23.876  37.685  1.00  0.00     0.202 C 
ENDBRANCH   1  14
BRANCH   1  16
HETATM   16  C12 UNL     1      40.009  27.030  38.799  1.00  0.00     0.281 C 
HETATM   17  N1  UNL     1      39.106  28.004  39.440  1.00  0.00    -0.035 N 
HETATM   18  C13 UNL     1      39.908  29.117  39.840  1.00  0.00     0.270 C 
ATOM     19  H12 UNL     1      38.319  28.269  38.848  1.00  0.00     0.281 HD
ATOM     20  H11 UNL     1      38.564  27.604  40.205  1.00  0.00     0.281 HD
HETATM   21  C14 UNL     1      41.240  28.538  40.265  1.00  0.00     0.177 C 
HETATM   22  C15 UNL     1      41.344  27.283  39.388  1.00  0.00     0.214 C 
BRANCH  16  23
HETATM   23  O4  UNL     1      39.942  27.373  37.437  1.00  0.00    -0.361 OA
ATOM     24  H4  UNL     1      39.038  27.456  37.157  1.00  0.00     0.212 HD
ENDBRANCH  16  23
BRANCH  21  25
HETATM   25  O5  UNL     1      42.297  29.394  40.080  1.00  0.00    -0.391 OA
ATOM     26  H5  UNL     1      43.140  29.010  40.290  1.00  0.00     0.210 HD
ENDBRANCH  21  25
BRANCH  22  27
HETATM   27  O6  UNL     1      42.325  27.509  38.384  1.00  0.00    -0.388 OA
ATOM     28  H6  UNL     1      43.124  27.871  38.750  1.00  0.00     0.210 HD
ENDBRANCH  22  27
ENDBRANCH   1  16
TORSDOF 11
ENDMDL
MODEL 3
REMARK VINA RESULT: -5.947089778      3.991      6.620
REMARK  11 active torsions:
REMARK  status: ('A' for Active; 'I' for Inactive)
REMARK    1  A    between atoms: C3_3  and  C4_4 
REMARK    2  A    between atoms: C5_5  and  C6_6 
REMARK    3  A    between atoms: C6_6  and  C7_8 
REMARK    4  A    between atoms: C7_8  and  C9_10 
REMARK    5  A    between atoms: C9_10  and  O2_11 
REMARK    6  A    between atoms: C9_10  and  C10_13 
REMARK    7  A    between atoms: C10_13  and  O3_14 
REMARK    8  A    between atoms: C10_13  and  C12_16 
REMARK    9  A    between atoms: C12_16  and  O4_17 
REMARK   10  A    between atoms: C14_23  and  O5_24 
REMARK   11  A    between atoms: C15_26  and  O6_27 
ROOT
HETATM    1  C10 UNL     1      37.148  22.935  42.344  1.00  0.00     0.216 C 
ENDROOT
BRANCH   1   2
HETATM    2  C9  UNL     1      37.617  21.683  42.980  1.00  0.00     0.163 C 
BRANCH   2   3
HETATM    3  C7  UNL     1      38.928  21.709  43.659  1.00  0.00     0.087 C 
HETATM    4  C8  UNL     1      39.014  22.793  44.701  1.00  0.00     0.021 C 
BRANCH   3   5
HETATM    5  C6  UNL     1      40.057  21.926  42.723  1.00  0.00     0.155 C 
HETATM    6  O1  UNL     1      40.237  21.093  41.817  1.00  0.00    -0.293 OA
BRANCH   5   7
HETATM    7  C5  UNL     1      40.938  23.068  42.845  1.00  0.00     0.050 C 
HETATM    8  C4  UNL     1      42.222  23.087  43.027  1.00  0.00     0.003 C 
BRANCH   8   9
HETATM    9  C3  UNL     1      43.138  21.993  43.162  1.00  0.00    -0.004 C 
HETATM   10  C2  UNL     1      44.229  21.923  42.411  1.00  0.00    -0.031 C 
HETATM   11  C1  UNL     1      45.192  20.814  42.522  1.00  0.00     0.036 C 
ENDBRANCH   8   9
ENDBRANCH   5   7
ENDBRANCH   3   5
ENDBRANCH   2   3
BRANCH   2  12
HETATM   12  O2  UNL     1      37.524  20.682  42.002  1.00  0.00    -0.392 OA
ATOM     13  H2  UNL     1      38.098  20.832  41.260  1.00  0.00     0.210 HD
ENDBRANCH   2  12
ENDBRANCH   1   2
BRANCH   1  14
HETATM   14  O3  UNL     1      37.753  23.206  41.146  1.00  0.00    -0.383 OA
HETATM   15  C11 UNL     1      38.198  24.547  41.046  1.00  0.00     0.202 C 
ENDBRANCH   1  14
BRANCH   1  16
HETATM   16  C12 UNL     1      35.654  23.164  42.353  1.00  0.00     0.281 C 
HETATM   17  N1  UNL     1      35.412  24.502  42.922  1.00  0.00    -0.035 N 
HETATM   18  C13 UNL     1      34.210  24.998  42.328  1.00  0.00     0.270 C 
ATOM     19  H12 UNL     1      35.386  24.505  43.941  1.00  0.00     0.281 HD
ATOM     20  H11 UNL     1      36.205  25.134  42.810  1.00  0.00     0.281 HD
HETATM   21  C14 UNL     1      34.209  24.486  40.903  1.00  0.00     0.177 C 
HETATM   22  C15 UNL     1      34.990  23.171  41.029  1.00  0.00     0.214 C 
BRANCH  16  23
HETATM   23  O4  UNL     1      35.027  22.303  43.271  1.00  0.00    -0.361 OA
ATOM     24  H4  UNL     1      34.154  22.075  42.973  1.00  0.00     0.212 HD
ENDBRANCH  16  23
BRANCH  21  25
HETATM   25  O5  UNL     1      32.952  24.300  40.386  1.00  0.00    -0.391 OA
ATOM     26  H5  UNL     1      32.933  23.735  39.622  1.00  0.00     0.210 HD
ENDBRANCH  21  25
BRANCH  22  27
HETATM   27  O6  UNL     1      34.081  22.087  40.893  1.00  0.00    -0.388 OA
ATOM     28  H6  UNL     1      34.510  21.312  40.547  1.00  0.00     0.210 HD
ENDBRANCH  22  27
ENDBRANCH   1  16
TORSDOF 11
ENDMDL
MODEL 4
REMARK VINA RESULT: -5.913997353      2.236      3.250
REMARK  11 active torsions:
REMARK  status: ('A' for Active; 'I' for Inactive)
REMARK    1  A    between atoms: C3_3  and  C4_4 
REMARK    2  A    between atoms: C5_5  and  C6_6 
REMARK    3  A    between atoms: C6_6  and  C7_8 
REMARK    4  A    between atoms: C7_8  and  C9_10 
REMARK    5  A    between atoms: C9_10  and  O2_11 
REMARK    6  A    between atoms: C9_10  and  C10_13 
REMARK    7  A    between atoms: C10_13  and  O3_14 
REMARK    8  A    between atoms: C10_13  and  C12_16 
REMARK    9  A    between atoms: C12_16  and  O4_17 
REMARK   10  A    between atoms: C14_23  and  O5_24 
REMARK   11  A    between atoms: C15_26  and  O6_27 
ROOT
HETATM    1  C10 UNL     1      41.450  26.588  38.010  1.00  0.00     0.216 C 
ENDROOT
BRANCH   1   2
HETATM    2  C9  UNL     1      40.555  25.438  38.275  1.00  0.00     0.163 C 
BRANCH   2   3
HETATM    3  C7  UNL     1      40.966  24.475  39.316  1.00  0.00     0.087 C 
HETATM    4  C8  UNL     1      40.537  23.067  38.997  1.00  0.00     0.021 C 
BRANCH   3   5
HETATM    5  C6  UNL     1      40.410  24.798  40.652  1.00  0.00     0.155 C 
HETATM    6  O1  UNL     1      39.277  25.306  40.708  1.00  0.00    -0.293 OA
BRANCH   5   7
HETATM    7  C5  UNL     1      41.151  24.537  41.868  1.00  0.00     0.050 C 
HETATM    8  C4  UNL     1      40.915  23.654  42.788  1.00  0.00     0.003 C 
BRANCH   8   9
HETATM    9  C3  UNL     1      39.861  22.686  42.871  1.00  0.00    -0.004 C 
HETATM   10  C2  UNL     1      38.891  22.811  43.766  1.00  0.00    -0.031 C 
HETATM   11  C1  UNL     1      37.794  21.834  43.880  1.00  0.00     0.036 C 
ENDBRANCH   8   9
ENDBRANCH   5   7
ENDBRANCH   3   5
ENDBRANCH   2   3
BRANCH   2  12
HETATM   12  O2  UNL     1      40.309  24.833  37.034  1.00  0.00    -0.392 OA
ATOM     13  H2  UNL     1      41.090  24.748  36.499  1.00  0.00     0.210 HD
ENDBRANCH   2  12
ENDBRANCH   1   2
BRANCH   1  14
HETATM   14  O3  UNL     1      41.916  26.640  36.724  1.00  0.00    -0.383 OA
HETATM   15  C11 UNL     1      43.275  26.256  36.616  1.00  0.00     0.202 C 
ENDBRANCH   1  14
BRANCH   1  16
HETATM   16  C12 UNL     1      40.999  27.920  38.565  1.00  0.00     0.281 C 
HETATM   17  N1  UNL     1      39.536  27.859  38.736  1.00  0.00    -0.035 N 
HETATM   18  C13 UNL     1      39.206  28.722  39.826  1.00  0.00     0.270 C 
ATOM     19  H12 UNL     1      39.024  28.079  37.882  1.00  0.00     0.281 HD
ATOM     20  H11 UNL     1      39.186  26.908  38.856  1.00  0.00     0.281 HD
HETATM   21  C14 UNL     1      40.348  28.600  40.812  1.00  0.00     0.177 C 
HETATM   22  C15 UNL     1      41.537  28.284  39.896  1.00  0.00     0.214 C 
BRANCH  16  23
HETATM   23  O4  UNL     1      41.172  28.938  37.612  1.00  0.00    -0.361 OA
ATOM     24  H4  UNL     1      40.333  29.291  37.343  1.00  0.00     0.212 HD
ENDBRANCH  16  23
BRANCH  21  25
HETATM   25  O5  UNL     1      40.552  29.733  41.561  1.00  0.00    -0.391 OA
ATOM     26  H5  UNL     1      40.725  30.508  41.040  1.00  0.00     0.210 HD
ENDBRANCH  21  25
BRANCH  22  27
HETATM   27  O6  UNL     1      42.376  29.429  39.826  1.00  0.00    -0.388 OA
ATOM     28  H6  UNL     1      42.375  29.914  40.643  1.00  0.00     0.210 HD
ENDBRANCH  22  27
ENDBRANCH   1  16
TORSDOF 11
ENDMDL
MODEL 5
REMARK VINA RESULT: -5.809814341      1.455      2.518
REMARK  11 active torsions:
REMARK  status: ('A' for Active; 'I' for Inactive)
REMARK    1  A    between atoms: C3_3  and  C4_4 
REMARK    2  A    between atoms: C5_5  and  C6_6 
REMARK    3  A    between atoms: C6_6  and  C7_8 
REMARK    4  A    between atoms: C7_8  and  C9_10 
REMARK    5  A    between atoms: C9_10  and  O2_11 
REMARK    6  A    between atoms: C9_10  and  C10_13 
REMARK    7  A    between atoms: C10_13  and  O3_14 
REMARK    8  A    between atoms: C10_13  and  C12_16 
REMARK    9  A    between atoms: C12_16  and  O4_17 
REMARK   10  A    between atoms: C14_23  and  O5_24 
REMARK   11  A    between atoms: C15_26  and  O6_27 
ROOT
HETATM    1  C10 UNL     1      40.049  25.811  39.428  1.00  0.00     0.216 C 
ENDROOT
BRANCH   1   2
HETATM    2  C9  UNL     1      39.392  25.488  40.714  1.00  0.00     0.163 C 
BRANCH   2   3
HETATM    3  C7  UNL     1      40.159  24.696  41.697  1.00  0.00     0.087 C 
HETATM    4  C8  UNL     1      41.614  24.573  41.324  1.00  0.00     0.021 C 
BRANCH   3   5
HETATM    5  C6  UNL     1      39.642  23.316  41.854  1.00  0.00     0.155 C 
HETATM    6  O1  UNL     1      39.676  22.560  40.867  1.00  0.00    -0.293 OA
BRANCH   5   7
HETATM    7  C5  UNL     1      39.107  22.842  43.114  1.00  0.00     0.050 C 
HETATM    8  C4  UNL     1      37.867  22.713  43.471  1.00  0.00     0.003 C 
BRANCH   8   9
HETATM    9  C3  UNL     1      36.673  22.999  42.732  1.00  0.00    -0.004 C 
HETATM   10  C2  UNL     1      35.974  24.101  42.967  1.00  0.00    -0.031 C 
HETATM   11  C1  UNL     1      34.742  24.426  42.228  1.00  0.00     0.036 C 
ENDBRANCH   8   9
ENDBRANCH   5   7
ENDBRANCH   3   5
ENDBRANCH   2   3
BRANCH   2  12
HETATM   12  O2  UNL     1      38.153  24.913  40.394  1.00  0.00    -0.392 OA
ATOM     13  H2  UNL     1      38.226  24.017  40.086  1.00  0.00     0.210 HD
ENDBRANCH   2  12
ENDBRANCH   1   2
BRANCH   1  14
HETATM   14  O3  UNL     1      39.792  24.906  38.434  1.00  0.00    -0.383 OA
HETATM   15  C11 UNL     1      40.970  24.416  37.819  1.00  0.00     0.202 C 
ENDBRANCH   1  14
BRANCH   1  16
HETATM   16  C12 UNL     1      39.973  27.256  38.990  1.00  0.00     0.281 C 
HETATM   17  N1  UNL     1      39.380  28.026  40.098  1.00  0.00    -0.035 N 
HETATM   18  C13 UNL     1      39.917  29.349  40.023  1.00  0.00     0.270 C 
ATOM     19  H12 UNL     1      38.361  28.008  40.098  1.00  0.00     0.281 HD
ATOM     20  H11 UNL     1      39.518  27.589  41.009  1.00  0.00     0.281 HD
HETATM   21  C14 UNL     1      41.345  29.190  39.549  1.00  0.00     0.177 C 
HETATM   22  C15 UNL     1      41.268  27.915  38.700  1.00  0.00     0.214 C 
BRANCH  16  23
HETATM   23  O4  UNL     1      39.039  27.411  37.951  1.00  0.00    -0.361 OA
ATOM     24  H4  UNL     1      38.607  28.254  38.013  1.00  0.00     0.212 HD
ENDBRANCH  16  23
BRANCH  21  25
HETATM   25  O5  UNL     1      41.811  30.266  38.834  1.00  0.00    -0.391 OA
ATOM     26  H5  UNL     1      41.681  30.186  37.897  1.00  0.00     0.210 HD
ENDBRANCH  21  25
BRANCH  22  27
HETATM   27  O6  UNL     1      41.377  28.272  37.329  1.00  0.00    -0.388 OA
ATOM     28  H6  UNL     1      40.653  28.822  37.051  1.00  0.00     0.210 HD
ENDBRANCH  22  27
ENDBRANCH   1  16
TORSDOF 11
ENDMDL
