MODEL 1
REMARK VINA RESULT: -8.300961774      0.000      0.000
REMARK  14 active torsions:
REMARK  status: ('A' for Active; 'I' for Inactive)
REMARK    1  A    between atoms: C2_2  and  C3_3 
REMARK    2  A    between atoms: C3_3  and  C4_4 
REMARK    3  A    between atoms: C4_4  and  C5_5 
REMARK    4  A    between atoms: C4_4  and  N1_16 
REMARK    5  A    between atoms: C5_5  and  C6_6 
REMARK    6  A    between atoms: C9_10  and  O2_11 
REMARK    7  A    between atoms: C10_13  and  O3_14 
REMARK    8  A    between atoms: N1_16  and  C11_18 
REMARK    9  A    between atoms: C11_18  and  C12_19 
REMARK   10  A    between atoms: C12_19  and  C13_20 
REMARK   11  A    between atoms: C13_20  and  C14_21 
REMARK   12  A    between atoms: C13_20  and  N3_32 
REMARK   13  A    between atoms: C14_21  and  N2_22 
REMARK   14  A    between atoms: N3_32  and  C24_34 
ROOT
HETATM    1  C12 UNL     1      11.126  38.329  -6.583  1.00  0.00     0.046 C 
ENDROOT
BRANCH   1   2
HETATM    2  C11 UNL     1      12.525  38.230  -7.239  1.00  0.00     0.121 C 
BRANCH   2   3
HETATM    3  N1  UNL     1      12.399  38.102  -8.630  1.00  0.00    -0.396 N 
ATOM      4  H1  UNL     1      11.478  37.875  -9.006  1.00  0.00     0.159 HD
BRANCH   3   5
HETATM    5  C4  UNL     1      13.454  38.267  -9.540  1.00  0.00    -0.016 C 
BRANCH   5   6
HETATM    6  C3  UNL     1      14.508  39.279  -9.334  1.00  0.00     0.052 C 
BRANCH   6   7
HETATM    7  C2  UNL     1      14.484  40.393 -10.333  1.00  0.00     0.001 C 
HETATM    8  C1  UNL     1      15.228  41.587  -9.678  1.00  0.00     0.005 C 
ENDBRANCH   6   7
ENDBRANCH   5   6
BRANCH   5   9
HETATM    9  C5  UNL     1      13.901  36.949 -10.125  1.00  0.00     0.086 C 
BRANCH   9  10
HETATM   10  C6  UNL     1      13.323  36.428 -11.361  1.00  0.00     0.158 C 
HETATM   11  O1  UNL     1      13.271  37.529 -12.256  1.00  0.00    -0.375 OA
HETATM   12  C7  UNL     1      14.197  37.339 -13.236  1.00  0.00     0.149 C 
HETATM   13  C8  UNL     1      15.598  37.734 -12.879  1.00  0.00     0.042 C 
HETATM   14  C9  UNL     1      14.126  35.854 -13.547  1.00  0.00     0.178 C 
HETATM   15  C10 UNL     1      13.996  35.332 -12.091  1.00  0.00     0.178 C 
BRANCH  14  16
HETATM   16  O2  UNL     1      12.982  35.610 -14.271  1.00  0.00    -0.390 OA
ATOM     17  H2  UNL     1      12.805  34.677 -14.255  1.00  0.00     0.210 HD
ENDBRANCH  14  16
BRANCH  15  18
HETATM   18  O3  UNL     1      13.175  34.185 -12.255  1.00  0.00    -0.390 OA
ATOM     19  H3  UNL     1      13.448  33.632 -12.977  1.00  0.00     0.210 HD
ENDBRANCH  15  18
ENDBRANCH   9  10
ENDBRANCH   5   9
ENDBRANCH   3   5
ENDBRANCH   2   3
ENDBRANCH   1   2
BRANCH   1  20
HETATM   20  C13 UNL     1      11.096  39.451  -5.559  1.00  0.00     0.112 C 
BRANCH  20  21
HETATM   21  C14 UNL     1      10.177  39.117  -4.436  1.00  0.00     0.297 C 
BRANCH  21  22
HETATM   22  N2  UNL     1      10.660  38.384  -3.346  1.00  0.00     0.090 N 
HETATM   23  C15 UNL     1      10.936  39.371  -2.271  1.00  0.00     0.273 C 
HETATM   24  C16 UNL     1      11.557  38.691  -1.096  1.00  0.00     0.035 C 
HETATM   25  C17 UNL     1      10.463  37.908  -0.398  1.00  0.00    -0.007 C 
HETATM   26  C18 UNL     1       9.871  38.635   0.777  1.00  0.00     0.005 C 
HETATM   27  C22 UNL     1       9.364  37.661  -1.407  1.00  0.00     0.018 C 
HETATM   28  C19 UNL     1       8.426  38.163   0.932  1.00  0.00     0.000 C 
HETATM   29  C20 UNL     1       8.281  36.697   0.552  1.00  0.00     0.000 C 
HETATM   30  C21 UNL     1       8.605  36.449  -0.913  1.00  0.00     0.007 C 
HETATM   31  C23 UNL     1       9.962  37.308  -2.777  1.00  0.00     0.277 C 
ENDBRANCH  21  22
ENDBRANCH  20  21
BRANCH  20  32
HETATM   32  N3  UNL     1      10.950  40.756  -6.098  1.00  0.00    -0.374 N 
ATOM     33  H3  UNL     1      10.129  41.309  -5.850  1.00  0.00     0.161 HD
BRANCH  32  34
HETATM   34  C24 UNL     1      11.931  41.318  -6.987  1.00  0.00     0.066 C 
HETATM   35  C25 UNL     1      11.586  41.686  -8.401  1.00  0.00     0.088 C 
HETATM   36  N4  UNL     1      13.148  41.545  -6.633  1.00  0.00    -0.389 N 
ATOM     37  H42 UNL     1      13.382  41.295  -5.672  1.00  0.00     0.157 HD
ATOM     38  H41 UNL     1      13.844  41.943  -7.263  1.00  0.00     0.157 HD
ENDBRANCH  32  34
ENDBRANCH  20  32
ENDBRANCH   1  20
TORSDOF 14
ENDMDL
MODEL 2
REMARK VINA RESULT: -7.993488461      3.663      9.875
REMARK  14 active torsions:
REMARK  status: ('A' for Active; 'I' for Inactive)
REMARK    1  A    between atoms: C2_2  and  C3_3 
REMARK    2  A    between atoms: C3_3  and  C4_4 
REMARK    3  A    between atoms: C4_4  and  C5_5 
REMARK    4  A    between atoms: C4_4  and  N1_16 
REMARK    5  A    between atoms: C5_5  and  C6_6 
REMARK    6  A    between atoms: C9_10  and  O2_11 
REMARK    7  A    between atoms: C10_13  and  O3_14 
REMARK    8  A    between atoms: N1_16  and  C11_18 
REMARK    9  A    between atoms: C11_18  and  C12_19 
REMARK   10  A    between atoms: C12_19  and  C13_20 
REMARK   11  A    between atoms: C13_20  and  C14_21 
REMARK   12  A    between atoms: C13_20  and  N3_32 
REMARK   13  A    between atoms: C14_21  and  N2_22 
REMARK   14  A    between atoms: N3_32  and  C24_34 
ROOT
HETATM    1  C12 UNL     1      11.786  38.041  -5.822  1.00  0.00     0.046 C 
ENDROOT
BRANCH   1   2
HETATM    2  C11 UNL     1      10.488  38.423  -5.070  1.00  0.00     0.121 C 
BRANCH   2   3
HETATM    3  N1  UNL     1      10.790  38.858  -3.772  1.00  0.00    -0.396 N 
ATOM      4  H1  UNL     1      11.688  39.321  -3.621  1.00  0.00     0.159 HD
BRANCH   3   5
HETATM    5  C4  UNL     1       9.943  38.700  -2.665  1.00  0.00    -0.016 C 
BRANCH   5   6
HETATM    6  C3  UNL     1      10.410  38.080  -1.409  1.00  0.00     0.052 C 
BRANCH   6   7
HETATM    7  C2  UNL     1       9.319  37.452  -0.600  1.00  0.00     0.001 C 
HETATM    8  C1  UNL     1       9.244  35.967  -1.041  1.00  0.00     0.005 C 
ENDBRANCH   6   7
ENDBRANCH   5   6
BRANCH   5   9
HETATM    9  C5  UNL     1       8.986  39.859  -2.520  1.00  0.00     0.086 C 
BRANCH   9  10
HETATM   10  C6  UNL     1       8.426  40.536  -3.686  1.00  0.00     0.158 C 
HETATM   11  O1  UNL     1       7.073  40.814  -3.357  1.00  0.00    -0.375 OA
HETATM   12  C7  UNL     1       6.934  42.156  -3.176  1.00  0.00     0.149 C 
HETATM   13  C8  UNL     1       7.336  42.665  -1.824  1.00  0.00     0.042 C 
HETATM   14  C9  UNL     1       7.799  42.779  -4.258  1.00  0.00     0.178 C 
HETATM   15  C10 UNL     1       9.008  41.812  -4.156  1.00  0.00     0.178 C 
BRANCH  14  16
HETATM   16  O2  UNL     1       7.154  42.650  -5.466  1.00  0.00    -0.390 OA
ATOM     17  H2  UNL     1       7.055  43.512  -5.852  1.00  0.00     0.210 HD
ENDBRANCH  14  16
BRANCH  15  18
HETATM   18  O3  UNL     1       9.462  41.756  -5.500  1.00  0.00    -0.390 OA
ATOM     19  H3  UNL     1      10.139  42.395  -5.691  1.00  0.00     0.210 HD
ENDBRANCH  15  18
ENDBRANCH   9  10
ENDBRANCH   5   9
ENDBRANCH   3   5
ENDBRANCH   2   3
ENDBRANCH   1   2
BRANCH   1  20
HETATM   20  C13 UNL     1      12.134  39.097  -6.857  1.00  0.00     0.112 C 
BRANCH  20  21
HETATM   21  C14 UNL     1      13.157  38.586  -7.811  1.00  0.00     0.297 C 
BRANCH  21  22
HETATM   22  N2  UNL     1      12.917  38.669  -9.186  1.00  0.00     0.090 N 
HETATM   23  C15 UNL     1      14.023  39.483  -9.752  1.00  0.00     0.273 C 
HETATM   24  C16 UNL     1      13.796  39.716 -11.210  1.00  0.00     0.035 C 
HETATM   25  C17 UNL     1      14.096  38.415 -11.926  1.00  0.00    -0.007 C 
HETATM   26  C18 UNL     1      15.481  38.361 -12.505  1.00  0.00     0.005 C 
HETATM   27  C22 UNL     1      13.959  37.296 -10.916  1.00  0.00     0.018 C 
HETATM   28  C19 UNL     1      15.913  36.896 -12.536  1.00  0.00     0.000 C 
HETATM   29  C20 UNL     1      14.731  35.978 -12.816  1.00  0.00     0.000 C 
HETATM   30  C21 UNL     1      13.684  36.041 -11.715  1.00  0.00     0.007 C 
HETATM   31  C23 UNL     1      12.748  37.542 -10.004  1.00  0.00     0.277 C 
ENDBRANCH  21  22
ENDBRANCH  20  21
BRANCH  20  32
HETATM   32  N3  UNL     1      12.381  40.395  -6.335  1.00  0.00    -0.374 N 
ATOM     33  H3  UNL     1      12.548  40.506  -5.335  1.00  0.00     0.161 HD
BRANCH  32  34
HETATM   34  C24 UNL     1      12.401  41.556  -7.183  1.00  0.00     0.066 C 
HETATM   35  C25 UNL     1      13.629  42.411  -7.309  1.00  0.00     0.088 C 
HETATM   36  N4  UNL     1      11.388  41.929  -7.884  1.00  0.00    -0.389 N 
ATOM     37  H42 UNL     1      10.554  41.347  -7.799  1.00  0.00     0.157 HD
ATOM     38  H41 UNL     1      11.402  42.752  -8.486  1.00  0.00     0.157 HD
ENDBRANCH  32  34
ENDBRANCH  20  32
ENDBRANCH   1  20
TORSDOF 14
ENDMDL
MODEL 3
REMARK VINA RESULT: -7.985190513      3.902     10.082
REMARK  14 active torsions:
REMARK  status: ('A' for Active; 'I' for Inactive)
REMARK    1  A    between atoms: C2_2  and  C3_3 
REMARK    2  A    between atoms: C3_3  and  C4_4 
REMARK    3  A    between atoms: C4_4  and  C5_5 
REMARK    4  A    between atoms: C4_4  and  N1_16 
REMARK    5  A    between atoms: C5_5  and  C6_6 
REMARK    6  A    between atoms: C9_10  and  O2_11 
REMARK    7  A    between atoms: C10_13  and  O3_14 
REMARK    8  A    between atoms: N1_16  and  C11_18 
REMARK    9  A    between atoms: C11_18  and  C12_19 
REMARK   10  A    between atoms: C12_19  and  C13_20 
REMARK   11  A    between atoms: C13_20  and  C14_21 
REMARK   12  A    between atoms: C13_20  and  N3_32 
REMARK   13  A    between atoms: C14_21  and  N2_22 
REMARK   14  A    between atoms: N3_32  and  C24_34 
ROOT
HETATM    1  C12 UNL     1      11.874  37.908  -5.912  1.00  0.00     0.046 C 
ENDROOT
BRANCH   1   2
HETATM    2  C11 UNL     1      10.498  38.245  -5.288  1.00  0.00     0.121 C 
BRANCH   2   3
HETATM    3  N1  UNL     1      10.581  38.217  -3.889  1.00  0.00    -0.396 N 
ATOM      4  H1  UNL     1      11.505  38.308  -3.464  1.00  0.00     0.159 HD
BRANCH   3   5
HETATM    5  C4  UNL     1       9.481  38.072  -3.032  1.00  0.00    -0.016 C 
BRANCH   5   6
HETATM    6  C3  UNL     1       9.607  37.444  -1.702  1.00  0.00     0.052 C 
BRANCH   6   7
HETATM    7  C2  UNL     1      10.493  38.195  -0.758  1.00  0.00     0.001 C 
HETATM    8  C1  UNL     1       9.618  38.557   0.471  1.00  0.00     0.005 C 
ENDBRANCH   6   7
ENDBRANCH   5   6
BRANCH   5   9
HETATM    9  C5  UNL     1       8.536  39.245  -3.127  1.00  0.00     0.086 C 
BRANCH   9  10
HETATM   10  C6  UNL     1       9.026  40.620  -3.125  1.00  0.00     0.158 C 
HETATM   11  O1  UNL     1       8.573  41.193  -4.342  1.00  0.00    -0.375 OA
HETATM   12  C7  UNL     1       7.599  42.102  -4.063  1.00  0.00     0.149 C 
HETATM   13  C8  UNL     1       6.229  41.531  -3.857  1.00  0.00     0.042 C 
HETATM   14  C9  UNL     1       8.080  42.801  -2.802  1.00  0.00     0.178 C 
HETATM   15  C10 UNL     1       8.616  41.553  -2.052  1.00  0.00     0.178 C 
BRANCH  14  16
HETATM   16  O2  UNL     1       9.099  43.662  -3.137  1.00  0.00    -0.390 OA
ATOM     17  H2  UNL     1       9.244  44.258  -2.412  1.00  0.00     0.210 HD
ENDBRANCH  14  16
BRANCH  15  18
HETATM   18  O3  UNL     1       9.715  42.087  -1.329  1.00  0.00    -0.390 OA
ATOM     19  H3  UNL     1       9.499  42.307  -0.430  1.00  0.00     0.210 HD
ENDBRANCH  15  18
ENDBRANCH   9  10
ENDBRANCH   5   9
ENDBRANCH   3   5
ENDBRANCH   2   3
ENDBRANCH   1   2
BRANCH   1  20
HETATM   20  C13 UNL     1      12.186  38.856  -7.058  1.00  0.00     0.112 C 
BRANCH  20  21
HETATM   21  C14 UNL     1      13.147  38.235  -8.012  1.00  0.00     0.297 C 
BRANCH  21  22
HETATM   22  N2  UNL     1      12.969  38.421  -9.387  1.00  0.00     0.090 N 
HETATM   23  C15 UNL     1      14.104  39.263  -9.842  1.00  0.00     0.273 C 
HETATM   24  C16 UNL     1      13.944  39.605 -11.287  1.00  0.00     0.035 C 
HETATM   25  C17 UNL     1      14.267  38.357 -12.083  1.00  0.00    -0.007 C 
HETATM   26  C18 UNL     1      15.676  38.332 -12.604  1.00  0.00     0.005 C 
HETATM   27  C22 UNL     1      14.078  37.169 -11.166  1.00  0.00     0.018 C 
HETATM   28  C19 UNL     1      16.100  36.870 -12.723  1.00  0.00     0.000 C 
HETATM   29  C20 UNL     1      14.926  35.986 -13.122  1.00  0.00     0.000 C 
HETATM   30  C21 UNL     1      13.831  35.978 -12.066  1.00  0.00     0.007 C 
HETATM   31  C23 UNL     1      12.830  37.358 -10.292  1.00  0.00     0.277 C 
ENDBRANCH  21  22
ENDBRANCH  20  21
BRANCH  20  32
HETATM   32  N3  UNL     1      12.485  40.190  -6.674  1.00  0.00    -0.374 N 
ATOM     33  H3  UNL     1      13.299  40.369  -6.086  1.00  0.00     0.161 HD
BRANCH  32  34
HETATM   34  C24 UNL     1      11.667  41.296  -7.094  1.00  0.00     0.066 C 
HETATM   35  C25 UNL     1      11.933  42.021  -8.381  1.00  0.00     0.088 C 
HETATM   36  N4  UNL     1      10.666  41.726  -6.408  1.00  0.00    -0.389 N 
ATOM     37  H42 UNL     1      10.485  41.233  -5.534  1.00  0.00     0.157 HD
ATOM     38  H41 UNL     1      10.086  42.510  -6.706  1.00  0.00     0.157 HD
ENDBRANCH  32  34
ENDBRANCH  20  32
ENDBRANCH   1  20
TORSDOF 14
ENDMDL
MODEL 4
REMARK VINA RESULT: -7.926273057      3.961      9.732
REMARK  14 active torsions:
REMARK  status: ('A' for Active; 'I' for Inactive)
REMARK    1  A    between atoms: C2_2  and  C3_3 
REMARK    2  A    between atoms: C3_3  and  C4_4 
REMARK    3  A    between atoms: C4_4  and  C5_5 
REMARK    4  A    between atoms: C4_4  and  N1_16 
REMARK    5  A    between atoms: C5_5  and  C6_6 
REMARK    6  A    between atoms: C9_10  and  O2_11 
REMARK    7  A    between atoms: C10_13  and  O3_14 
REMARK    8  A    between atoms: N1_16  and  C11_18 
REMARK    9  A    between atoms: C11_18  and  C12_19 
REMARK   10  A    between atoms: C12_19  and  C13_20 
REMARK   11  A    between atoms: C13_20  and  C14_21 
REMARK   12  A    between atoms: C13_20  and  N3_32 
REMARK   13  A    between atoms: C14_21  and  N2_22 
REMARK   14  A    between atoms: N3_32  and  C24_34 
ROOT
HETATM    1  C12 UNL     1      12.009  38.137  -6.053  1.00  0.00     0.046 C 
ENDROOT
BRANCH   1   2
HETATM    2  C11 UNL     1      10.687  38.557  -5.368  1.00  0.00     0.121 C 
BRANCH   2   3
HETATM    3  N1  UNL     1      10.650  38.076  -4.051  1.00  0.00    -0.396 N 
ATOM      4  H1  UNL     1      11.528  37.767  -3.632  1.00  0.00     0.159 HD
BRANCH   3   5
HETATM    5  C4  UNL     1       9.488  37.989  -3.271  1.00  0.00    -0.016 C 
BRANCH   5   6
HETATM    6  C3  UNL     1       9.506  37.422  -1.908  1.00  0.00     0.052 C 
BRANCH   6   7
HETATM    7  C2  UNL     1      10.510  38.058  -0.999  1.00  0.00     0.001 C 
HETATM    8  C1  UNL     1       9.736  38.501   0.271  1.00  0.00     0.005 C 
ENDBRANCH   6   7
ENDBRANCH   5   6
BRANCH   5   9
HETATM    9  C5  UNL     1       8.576  39.172  -3.487  1.00  0.00     0.086 C 
BRANCH   9  10
HETATM   10  C6  UNL     1       9.046  40.542  -3.299  1.00  0.00     0.158 C 
HETATM   11  O1  UNL     1       8.574  41.269  -4.423  1.00  0.00    -0.375 OA
HETATM   12  C7  UNL     1       7.589  42.116  -4.013  1.00  0.00     0.149 C 
HETATM   13  C8  UNL     1       6.230  41.501  -3.878  1.00  0.00     0.042 C 
HETATM   14  C9  UNL     1       8.072  42.642  -2.672  1.00  0.00     0.178 C 
HETATM   15  C10 UNL     1       8.634  41.311  -2.105  1.00  0.00     0.178 C 
BRANCH  14  16
HETATM   16  O2  UNL     1       9.075  43.556  -2.893  1.00  0.00    -0.390 OA
ATOM     17  H2  UNL     1       8.751  44.422  -2.677  1.00  0.00     0.210 HD
ENDBRANCH  14  16
BRANCH  15  18
HETATM   18  O3  UNL     1       9.732  41.757  -1.324  1.00  0.00    -0.390 OA
ATOM     19  H3  UNL     1      10.144  42.539  -1.672  1.00  0.00     0.210 HD
ENDBRANCH  15  18
ENDBRANCH   9  10
ENDBRANCH   5   9
ENDBRANCH   3   5
ENDBRANCH   2   3
ENDBRANCH   1   2
BRANCH   1  20
HETATM   20  C13 UNL     1      12.220  38.927  -7.334  1.00  0.00     0.112 C 
BRANCH  20  21
HETATM   21  C14 UNL     1      11.421  40.183  -7.318  1.00  0.00     0.297 C 
BRANCH  21  22
HETATM   22  N2  UNL     1      11.949  41.343  -7.895  1.00  0.00     0.090 N 
HETATM   23  C15 UNL     1      13.303  41.518  -7.311  1.00  0.00     0.273 C 
HETATM   24  C16 UNL     1      13.909  42.796  -7.791  1.00  0.00     0.035 C 
HETATM   25  C17 UNL     1      14.321  42.584  -9.235  1.00  0.00    -0.007 C 
HETATM   26  C18 UNL     1      15.775  42.240  -9.393  1.00  0.00     0.005 C 
HETATM   27  C22 UNL     1      13.499  41.438  -9.781  1.00  0.00     0.018 C 
HETATM   28  C19 UNL     1      15.914  41.391 -10.655  1.00  0.00     0.000 C 
HETATM   29  C20 UNL     1      14.920  41.823 -11.723  1.00  0.00     0.000 C 
HETATM   30  C21 UNL     1      13.479  41.613 -11.283  1.00  0.00     0.007 C 
HETATM   31  C23 UNL     1      12.049  41.531  -9.282  1.00  0.00     0.277 C 
ENDBRANCH  21  22
ENDBRANCH  20  21
BRANCH  20  32
HETATM   32  N3  UNL     1      12.141  38.169  -8.531  1.00  0.00    -0.374 N 
ATOM     33  H3  UNL     1      11.231  37.835  -8.850  1.00  0.00     0.161 HD
BRANCH  32  34
HETATM   34  C24 UNL     1      13.312  37.860  -9.307  1.00  0.00     0.066 C 
HETATM   35  C25 UNL     1      13.218  37.097 -10.596  1.00  0.00     0.088 C 
HETATM   36  N4  UNL     1      14.498  38.218  -8.956  1.00  0.00    -0.389 N 
ATOM     37  H42 UNL     1      14.561  38.737  -8.080  1.00  0.00     0.157 HD
ATOM     38  H41 UNL     1      15.328  37.999  -9.507  1.00  0.00     0.157 HD
ENDBRANCH  32  34
ENDBRANCH  20  32
ENDBRANCH   1  20
TORSDOF 14
ENDMDL
MODEL 5
REMARK VINA RESULT: -7.847341730      4.077      9.663
REMARK  14 active torsions:
REMARK  status: ('A' for Active; 'I' for Inactive)
REMARK    1  A    between atoms: C2_2  and  C3_3 
REMARK    2  A    between atoms: C3_3  and  C4_4 
REMARK    3  A    between atoms: C4_4  and  C5_5 
REMARK    4  A    between atoms: C4_4  and  N1_16 
REMARK    5  A    between atoms: C5_5  and  C6_6 
REMARK    6  A    between atoms: C9_10  and  O2_11 
REMARK    7  A    between atoms: C10_13  and  O3_14 
REMARK    8  A    between atoms: N1_16  and  C11_18 
REMARK    9  A    between atoms: C11_18  and  C12_19 
REMARK   10  A    between atoms: C12_19  and  C13_20 
REMARK   11  A    between atoms: C13_20  and  C14_21 
REMARK   12  A    between atoms: C13_20  and  N3_32 
REMARK   13  A    between atoms: C14_21  and  N2_22 
REMARK   14  A    between atoms: N3_32  and  C24_34 
ROOT
HETATM    1  C12 UNL     1      12.199  38.219  -6.256  1.00  0.00     0.046 C 
ENDROOT
BRANCH   1   2
HETATM    2  C11 UNL     1      10.819  38.592  -5.662  1.00  0.00     0.121 C 
BRANCH   2   3
HETATM    3  N1  UNL     1      10.827  38.418  -4.271  1.00  0.00    -0.396 N 
ATOM      4  H1  UNL     1      11.728  38.450  -3.792  1.00  0.00     0.159 HD
BRANCH   3   5
HETATM    5  C4  UNL     1       9.681  38.202  -3.493  1.00  0.00    -0.016 C 
BRANCH   5   6
HETATM    6  C3  UNL     1       9.751  37.556  -2.167  1.00  0.00     0.052 C 
BRANCH   6   7
HETATM    7  C2  UNL     1      10.631  38.269  -1.189  1.00  0.00     0.001 C 
HETATM    8  C1  UNL     1       9.759  38.553   0.062  1.00  0.00     0.005 C 
ENDBRANCH   6   7
ENDBRANCH   5   6
BRANCH   5   9
HETATM    9  C5  UNL     1       8.686  39.329  -3.632  1.00  0.00     0.086 C 
BRANCH   9  10
HETATM   10  C6  UNL     1       9.071  40.718  -3.405  1.00  0.00     0.158 C 
HETATM   11  O1  UNL     1       8.561  41.446  -4.512  1.00  0.00    -0.375 OA
HETATM   12  C7  UNL     1       7.525  42.221  -4.086  1.00  0.00     0.149 C 
HETATM   13  C8  UNL     1       6.205  41.520  -3.976  1.00  0.00     0.042 C 
HETATM   14  C9  UNL     1       7.968  42.738  -2.728  1.00  0.00     0.178 C 
HETATM   15  C10 UNL     1       8.607  41.429  -2.193  1.00  0.00     0.178 C 
BRANCH  14  16
HETATM   16  O2  UNL     1       8.915  43.717  -2.918  1.00  0.00    -0.390 OA
ATOM     17  H2  UNL     1       8.473  44.547  -3.050  1.00  0.00     0.210 HD
ENDBRANCH  14  16
BRANCH  15  18
HETATM   18  O3  UNL     1       9.672  41.919  -1.393  1.00  0.00    -0.390 OA
ATOM     19  H3  UNL     1       9.645  42.862  -1.273  1.00  0.00     0.210 HD
ENDBRANCH  15  18
ENDBRANCH   9  10
ENDBRANCH   5   9
ENDBRANCH   3   5
ENDBRANCH   2   3
ENDBRANCH   1   2
BRANCH   1  20
HETATM   20  C13 UNL     1      12.422  38.933  -7.579  1.00  0.00     0.112 C 
BRANCH  20  21
HETATM   21  C14 UNL     1      11.712  40.241  -7.599  1.00  0.00     0.297 C 
BRANCH  21  22
HETATM   22  N2  UNL     1      12.108  41.225  -8.512  1.00  0.00     0.090 N 
HETATM   23  C15 UNL     1      12.042  42.518  -7.784  1.00  0.00     0.273 C 
HETATM   24  C16 UNL     1      12.348  43.647  -8.712  1.00  0.00     0.035 C 
HETATM   25  C17 UNL     1      13.841  43.621  -8.974  1.00  0.00    -0.007 C 
HETATM   26  C18 UNL     1      14.612  44.580  -8.111  1.00  0.00     0.005 C 
HETATM   27  C22 UNL     1      14.332  42.220  -8.684  1.00  0.00     0.018 C 
HETATM   28  C19 UNL     1      16.014  44.006  -7.921  1.00  0.00     0.000 C 
HETATM   29  C20 UNL     1      16.480  43.265  -9.166  1.00  0.00     0.000 C 
HETATM   30  C21 UNL     1      15.613  42.053  -9.470  1.00  0.00     0.007 C 
HETATM   31  C23 UNL     1      13.327  41.181  -9.204  1.00  0.00     0.277 C 
ENDBRANCH  21  22
ENDBRANCH  20  21
BRANCH  20  32
HETATM   32  N3  UNL     1      12.250  38.128  -8.735  1.00  0.00    -0.374 N 
ATOM     33  H3  UNL     1      11.306  37.881  -9.035  1.00  0.00     0.161 HD
BRANCH  32  34
HETATM   34  C24 UNL     1      13.374  37.652  -9.496  1.00  0.00     0.066 C 
HETATM   35  C25 UNL     1      13.187  36.914 -10.790  1.00  0.00     0.088 C 
HETATM   36  N4  UNL     1      14.595  37.829  -9.126  1.00  0.00    -0.389 N 
ATOM     37  H42 UNL     1      14.721  38.331  -8.247  1.00  0.00     0.157 HD
ATOM     38  H41 UNL     1      15.392  37.491  -9.665  1.00  0.00     0.157 HD
ENDBRANCH  32  34
ENDBRANCH  20  32
ENDBRANCH   1  20
TORSDOF 14
ENDMDL
