MODEL 1
REMARK VINA RESULT: -6.356492625      0.000      0.000
REMARK  15 active torsions:
REMARK  status: ('A' for Active; 'I' for Inactive)
REMARK    1  A    between atoms: C2_2  and  C3_3 
REMARK    2  A    between atoms: C2_2  and  C4_6 
REMARK    3  A    between atoms: C3_3  and  O1_4 
REMARK    4  A    between atoms: C5_7  and  C6_8 
REMARK    5  A    between atoms: C8_13  and  O5_14 
REMARK    6  A    between atoms: C9_16  and  O6_17 
REMARK    7  A    between atoms: C10_19  and  O7_21 
REMARK    8  A    between atoms: C12_23  and  C13_24 
REMARK    9  A    between atoms: C13_24  and  C14_25 
REMARK   10  A    between atoms: C15_26  and  C17_28 
REMARK   11  A    between atoms: C17_28  and  C18_29 
REMARK   12  A    between atoms: C18_29  and  C19_30 
REMARK   13  A    between atoms: C19_30  and  C20_31 
REMARK   14  A    between atoms: C20_31  and  C21_32 
REMARK   15  A    between atoms: C21_32  and  C22_33 
ROOT
HETATM    1  C4  UNL     1      15.412  38.171 -12.919  1.00  0.00     0.056 C 
HETATM    2  C5  UNL     1      14.475  37.789 -14.075  1.00  0.00     0.238 C 
HETATM    3  O4  UNL     1      14.538  36.441 -14.414  1.00  0.00    -0.371 OA
HETATM    4  C7  UNL     1      14.011  35.742 -13.324  1.00  0.00     0.212 C 
HETATM    5  C8  UNL     1      14.904  36.010 -12.162  1.00  0.00     0.137 C 
HETATM    6  C9  UNL     1      16.127  36.836 -12.589  1.00  0.00     0.174 C 
HETATM    7  C10 UNL     1      14.271  36.954 -11.174  1.00  0.00     0.095 C 
HETATM    8  C11 UNL     1      12.782  36.739 -11.047  1.00  0.00     0.049 C 
HETATM    9  C12 UNL     1      14.618  38.347 -11.708  1.00  0.00     0.045 C 
ENDROOT
BRANCH   9  10
HETATM   10  C13 UNL     1      14.987  39.247 -10.611  1.00  0.00     0.036 C 
BRANCH  10  11
HETATM   11  C14 UNL     1      14.136  40.373 -10.270  1.00  0.00    -0.024 C 
HETATM   12  C15 UNL     1      13.234  40.351  -9.296  1.00  0.00    -0.087 C 
HETATM   13  C16 UNL     1      13.011  39.131  -8.448  1.00  0.00     0.043 C 
BRANCH  12  14
HETATM   14  C17 UNL     1      12.384  41.560  -8.986  1.00  0.00     0.033 C 
BRANCH  14  15
HETATM   15  C18 UNL     1      12.390  41.845  -7.511  1.00  0.00     0.004 C 
BRANCH  15  16
HETATM   16  C19 UNL     1      13.691  42.362  -7.007  1.00  0.00     0.001 C 
BRANCH  16  17
HETATM   17  C20 UNL     1      13.968  43.787  -7.355  1.00  0.00     0.004 C 
BRANCH  17  18
HETATM   18  C21 UNL     1      15.388  44.041  -7.766  1.00  0.00     0.027 C 
BRANCH  18  19
HETATM   19  C22 UNL     1      15.847  43.101  -8.833  1.00  0.00    -0.025 C 
HETATM   20  C23 UNL     1      16.989  43.244  -9.454  1.00  0.00    -0.091 C 
HETATM   21  C24 UNL     1      17.945  44.361  -9.158  1.00  0.00     0.042 C 
HETATM   22  C25 UNL     1      17.381  42.269 -10.507  1.00  0.00     0.042 C 
ENDBRANCH  18  19
ENDBRANCH  17  18
ENDBRANCH  16  17
ENDBRANCH  15  16
ENDBRANCH  14  15
ENDBRANCH  12  14
ENDBRANCH  10  11
ENDBRANCH   9  10
BRANCH   1  23
HETATM   23  C2  UNL     1      16.433  39.145 -13.299  1.00  0.00    -0.051 C 
HETATM   24  C1  UNL     1      16.300  40.429 -13.523  1.00  0.00     0.017 C 
BRANCH  23  25
HETATM   25  C3  UNL     1      17.836  38.606 -13.519  1.00  0.00     0.198 C 
BRANCH  25  26
HETATM   26  O1  UNL     1      18.140  38.588 -14.909  1.00  0.00    -0.397 OA
ATOM     27  H1  UNL     1      19.050  38.352 -15.041  1.00  0.00     0.209 HD
ENDBRANCH  25  26
ENDBRANCH  23  25
ENDBRANCH   1  23
BRANCH   7  28
HETATM   28  O7  UNL     1      14.839  36.672  -9.953  1.00  0.00    -0.387 OA
ATOM     29  H7  UNL     1      14.118  36.522  -9.353  1.00  0.00     0.210 HD
ENDBRANCH   7  28
BRANCH   2  30
HETATM   30  C6  UNL     1      14.583  38.660 -15.258  1.00  0.00     0.204 C 
HETATM   31  O2  UNL     1      15.374  38.476 -16.203  1.00  0.00    -0.646 OA
HETATM   32  O3  UNL     1      13.760  39.777 -15.358  1.00  0.00    -0.646 OA
ENDBRANCH   2  30
BRANCH   6  33
HETATM   33  O6  UNL     1      16.707  36.254 -13.698  1.00  0.00    -0.391 OA
ATOM     34  H6  UNL     1      16.185  36.360 -14.484  1.00  0.00     0.210 HD
ENDBRANCH   6  33
BRANCH   5  35
HETATM   35  O5  UNL     1      15.319  34.849 -11.517  1.00  0.00    -0.382 OA
ATOM     36  H5  UNL     1      15.105  34.842 -10.592  1.00  0.00     0.211 HD
ENDBRANCH   5  35
TORSDOF 15
ENDMDL
MODEL 2
REMARK VINA RESULT: -6.344447735      0.700      1.236
REMARK  15 active torsions:
REMARK  status: ('A' for Active; 'I' for Inactive)
REMARK    1  A    between atoms: C2_2  and  C3_3 
REMARK    2  A    between atoms: C2_2  and  C4_6 
REMARK    3  A    between atoms: C3_3  and  O1_4 
REMARK    4  A    between atoms: C5_7  and  C6_8 
REMARK    5  A    between atoms: C8_13  and  O5_14 
REMARK    6  A    between atoms: C9_16  and  O6_17 
REMARK    7  A    between atoms: C10_19  and  O7_21 
REMARK    8  A    between atoms: C12_23  and  C13_24 
REMARK    9  A    between atoms: C13_24  and  C14_25 
REMARK   10  A    between atoms: C15_26  and  C17_28 
REMARK   11  A    between atoms: C17_28  and  C18_29 
REMARK   12  A    between atoms: C18_29  and  C19_30 
REMARK   13  A    between atoms: C19_30  and  C20_31 
REMARK   14  A    between atoms: C20_31  and  C21_32 
REMARK   15  A    between atoms: C21_32  and  C22_33 
ROOT
HETATM    1  C4  UNL     1      15.338  38.231 -12.920  1.00  0.00     0.056 C 
HETATM    2  C5  UNL     1      14.292  37.834 -13.973  1.00  0.00     0.238 C 
HETATM    3  O4  UNL     1      14.291  36.473 -14.264  1.00  0.00    -0.371 OA
HETATM    4  C7  UNL     1      13.845  35.829 -13.105  1.00  0.00     0.212 C 
HETATM    5  C8  UNL     1      14.845  36.115 -12.037  1.00  0.00     0.137 C 
HETATM    6  C9  UNL     1      16.046  36.889 -12.602  1.00  0.00     0.174 C 
HETATM    7  C10 UNL     1      14.326  37.112 -11.036  1.00  0.00     0.095 C 
HETATM    8  C11 UNL     1      12.850  36.944 -10.770  1.00  0.00     0.049 C 
HETATM    9  C12 UNL     1      14.659  38.474 -11.652  1.00  0.00     0.045 C 
ENDROOT
BRANCH   9  10
HETATM   10  C13 UNL     1      15.147  39.403 -10.628  1.00  0.00     0.036 C 
BRANCH  10  11
HETATM   11  C14 UNL     1      14.214  40.050  -9.722  1.00  0.00    -0.024 C 
HETATM   12  C15 UNL     1      13.506  41.128 -10.035  1.00  0.00    -0.087 C 
HETATM   13  C16 UNL     1      13.614  41.787 -11.380  1.00  0.00     0.043 C 
BRANCH  12  14
HETATM   14  C17 UNL     1      12.546  41.749  -9.048  1.00  0.00     0.033 C 
BRANCH  14  15
HETATM   15  C18 UNL     1      13.073  43.067  -8.558  1.00  0.00     0.004 C 
BRANCH  15  16
HETATM   16  C19 UNL     1      14.096  42.939  -7.484  1.00  0.00     0.001 C 
BRANCH  16  17
HETATM   17  C20 UNL     1      15.280  43.833  -7.646  1.00  0.00     0.004 C 
BRANCH  17  18
HETATM   18  C21 UNL     1      15.776  43.924  -9.059  1.00  0.00     0.027 C 
BRANCH  18  19
HETATM   19  C22 UNL     1      16.734  42.828  -9.397  1.00  0.00    -0.025 C 
HETATM   20  C23 UNL     1      17.225  42.667 -10.599  1.00  0.00    -0.091 C 
HETATM   21  C24 UNL     1      16.876  43.564 -11.750  1.00  0.00     0.042 C 
HETATM   22  C25 UNL     1      18.174  41.553 -10.862  1.00  0.00     0.042 C 
ENDBRANCH  18  19
ENDBRANCH  17  18
ENDBRANCH  16  17
ENDBRANCH  15  16
ENDBRANCH  14  15
ENDBRANCH  12  14
ENDBRANCH  10  11
ENDBRANCH   9  10
BRANCH   1  23
HETATM   23  C2  UNL     1      16.345  39.161 -13.426  1.00  0.00    -0.051 C 
HETATM   24  C1  UNL     1      16.221  40.436 -13.702  1.00  0.00     0.017 C 
BRANCH  23  25
HETATM   25  C3  UNL     1      17.715  38.579 -13.728  1.00  0.00     0.198 C 
BRANCH  25  26
HETATM   26  O1  UNL     1      17.898  38.464 -15.134  1.00  0.00    -0.397 OA
ATOM     27  H1  UNL     1      18.208  37.593 -15.353  1.00  0.00     0.209 HD
ENDBRANCH  25  26
ENDBRANCH  23  25
ENDBRANCH   1  23
BRANCH   7  28
HETATM   28  O7  UNL     1      14.993  36.859  -9.859  1.00  0.00    -0.387 OA
ATOM     29  H7  UNL     1      15.632  37.555  -9.760  1.00  0.00     0.210 HD
ENDBRANCH   7  28
BRANCH   2  30
HETATM   30  C6  UNL     1      14.316  38.657 -15.194  1.00  0.00     0.204 C 
HETATM   31  O2  UNL     1      13.645  39.693 -15.363  1.00  0.00    -0.646 OA
HETATM   32  O3  UNL     1      15.134  38.279 -16.254  1.00  0.00    -0.646 OA
ENDBRANCH   2  30
BRANCH   6  33
HETATM   33  O6  UNL     1      16.510  36.251 -13.734  1.00  0.00    -0.391 OA
ATOM     34  H6  UNL     1      17.279  36.670 -14.102  1.00  0.00     0.210 HD
ENDBRANCH   6  33
BRANCH   5  35
HETATM   35  O5  UNL     1      15.287  34.967 -11.387  1.00  0.00    -0.382 OA
ATOM     36  H5  UNL     1      14.971  34.902 -10.493  1.00  0.00     0.211 HD
ENDBRANCH   5  35
TORSDOF 15
ENDMDL
MODEL 3
REMARK VINA RESULT: -6.294981999      1.043      3.129
REMARK  15 active torsions:
REMARK  status: ('A' for Active; 'I' for Inactive)
REMARK    1  A    between atoms: C2_2  and  C3_3 
REMARK    2  A    between atoms: C2_2  and  C4_6 
REMARK    3  A    between atoms: C3_3  and  O1_4 
REMARK    4  A    between atoms: C5_7  and  C6_8 
REMARK    5  A    between atoms: C8_13  and  O5_14 
REMARK    6  A    between atoms: C9_16  and  O6_17 
REMARK    7  A    between atoms: C10_19  and  O7_21 
REMARK    8  A    between atoms: C12_23  and  C13_24 
REMARK    9  A    between atoms: C13_24  and  C14_25 
REMARK   10  A    between atoms: C15_26  and  C17_28 
REMARK   11  A    between atoms: C17_28  and  C18_29 
REMARK   12  A    between atoms: C18_29  and  C19_30 
REMARK   13  A    between atoms: C19_30  and  C20_31 
REMARK   14  A    between atoms: C20_31  and  C21_32 
REMARK   15  A    between atoms: C21_32  and  C22_33 
ROOT
HETATM    1  C4  UNL     1      15.384  38.215 -12.882  1.00  0.00     0.056 C 
HETATM    2  C5  UNL     1      14.273  37.966 -13.914  1.00  0.00     0.238 C 
HETATM    3  O4  UNL     1      14.143  36.628 -14.274  1.00  0.00    -0.371 OA
HETATM    4  C7  UNL     1      13.682  35.962 -13.134  1.00  0.00     0.212 C 
HETATM    5  C8  UNL     1      14.738  36.104 -12.091  1.00  0.00     0.137 C 
HETATM    6  C9  UNL     1      15.982  36.802 -12.661  1.00  0.00     0.174 C 
HETATM    7  C10 UNL     1      14.341  37.085 -11.021  1.00  0.00     0.095 C 
HETATM    8  C11 UNL     1      12.866  37.029 -10.708  1.00  0.00     0.049 C 
HETATM    9  C12 UNL     1      14.771  38.445 -11.578  1.00  0.00     0.045 C 
ENDROOT
BRANCH   9  10
HETATM   10  C13 UNL     1      15.371  39.272 -10.527  1.00  0.00     0.036 C 
BRANCH  10  11
HETATM   11  C14 UNL     1      14.698  40.473 -10.066  1.00  0.00    -0.024 C 
HETATM   12  C15 UNL     1      15.302  41.643  -9.900  1.00  0.00    -0.087 C 
HETATM   13  C16 UNL     1      16.767  41.827 -10.177  1.00  0.00     0.043 C 
BRANCH  12  14
HETATM   14  C17 UNL     1      14.543  42.858  -9.423  1.00  0.00     0.033 C 
BRANCH  14  15
HETATM   15  C18 UNL     1      14.707  43.035  -7.941  1.00  0.00     0.004 C 
BRANCH  15  16
HETATM   16  C19 UNL     1      13.654  42.358  -7.137  1.00  0.00     0.001 C 
BRANCH  16  17
HETATM   17  C20 UNL     1      12.295  42.379  -7.754  1.00  0.00     0.004 C 
BRANCH  17  18
HETATM   18  C21 UNL     1      11.776  41.018  -8.112  1.00  0.00     0.027 C 
BRANCH  18  19
HETATM   19  C22 UNL     1      11.316  40.252  -6.914  1.00  0.00    -0.025 C 
HETATM   20  C23 UNL     1      11.765  39.058  -6.627  1.00  0.00    -0.091 C 
HETATM   21  C24 UNL     1      12.779  38.342  -7.468  1.00  0.00     0.042 C 
HETATM   22  C25 UNL     1      11.262  38.355  -5.416  1.00  0.00     0.042 C 
ENDBRANCH  18  19
ENDBRANCH  17  18
ENDBRANCH  16  17
ENDBRANCH  15  16
ENDBRANCH  14  15
ENDBRANCH  12  14
ENDBRANCH  10  11
ENDBRANCH   9  10
BRANCH   1  23
HETATM   23  C2  UNL     1      16.450  39.081 -13.377  1.00  0.00    -0.051 C 
HETATM   24  C1  UNL     1      16.433  40.378 -13.571  1.00  0.00     0.017 C 
BRANCH  23  25
HETATM   25  C3  UNL     1      17.748  38.400 -13.778  1.00  0.00     0.198 C 
BRANCH  25  26
HETATM   26  O1  UNL     1      17.856  38.349 -15.195  1.00  0.00    -0.397 OA
ATOM     27  H1  UNL     1      17.101  38.764 -15.595  1.00  0.00     0.209 HD
ENDBRANCH  25  26
ENDBRANCH  23  25
ENDBRANCH   1  23
BRANCH   7  28
HETATM   28  O7  UNL     1      15.023  36.712  -9.885  1.00  0.00    -0.387 OA
ATOM     29  H7  UNL     1      15.746  37.321  -9.797  1.00  0.00     0.210 HD
ENDBRANCH   7  28
BRANCH   2  30
HETATM   30  C6  UNL     1      14.328  38.850 -15.091  1.00  0.00     0.204 C 
HETATM   31  O2  UNL     1      13.720  39.932 -15.193  1.00  0.00    -0.646 OA
HETATM   32  O3  UNL     1      15.102  38.478 -16.185  1.00  0.00    -0.646 OA
ENDBRANCH   2  30
BRANCH   6  33
HETATM   33  O6  UNL     1      16.351  36.189 -13.840  1.00  0.00    -0.391 OA
ATOM     34  H6  UNL     1      17.289  36.220 -13.992  1.00  0.00     0.210 HD
ENDBRANCH   6  33
BRANCH   5  35
HETATM   35  O5  UNL     1      15.100  34.888 -11.518  1.00  0.00    -0.382 OA
ATOM     36  H5  UNL     1      15.269  34.954 -10.585  1.00  0.00     0.211 HD
ENDBRANCH   5  35
TORSDOF 15
ENDMDL
MODEL 4
REMARK VINA RESULT: -6.261507188      0.741      2.641
REMARK  15 active torsions:
REMARK  status: ('A' for Active; 'I' for Inactive)
REMARK    1  A    between atoms: C2_2  and  C3_3 
REMARK    2  A    between atoms: C2_2  and  C4_6 
REMARK    3  A    between atoms: C3_3  and  O1_4 
REMARK    4  A    between atoms: C5_7  and  C6_8 
REMARK    5  A    between atoms: C8_13  and  O5_14 
REMARK    6  A    between atoms: C9_16  and  O6_17 
REMARK    7  A    between atoms: C10_19  and  O7_21 
REMARK    8  A    between atoms: C12_23  and  C13_24 
REMARK    9  A    between atoms: C13_24  and  C14_25 
REMARK   10  A    between atoms: C15_26  and  C17_28 
REMARK   11  A    between atoms: C17_28  and  C18_29 
REMARK   12  A    between atoms: C18_29  and  C19_30 
REMARK   13  A    between atoms: C19_30  and  C20_31 
REMARK   14  A    between atoms: C20_31  and  C21_32 
REMARK   15  A    between atoms: C21_32  and  C22_33 
ROOT
HETATM    1  C4  UNL     1      15.384  38.198 -12.907  1.00  0.00     0.056 C 
HETATM    2  C5  UNL     1      14.211  38.020 -13.882  1.00  0.00     0.238 C 
HETATM    3  O4  UNL     1      13.976  36.692 -14.228  1.00  0.00    -0.371 OA
HETATM    4  C7  UNL     1      13.528  36.062 -13.063  1.00  0.00     0.212 C 
HETATM    5  C8  UNL     1      14.640  36.136 -12.073  1.00  0.00     0.137 C 
HETATM    6  C9  UNL     1      15.898  36.750 -12.705  1.00  0.00     0.174 C 
HETATM    7  C10 UNL     1      14.360  37.145 -10.991  1.00  0.00     0.095 C 
HETATM    8  C11 UNL     1      12.901  37.186 -10.607  1.00  0.00     0.049 C 
HETATM    9  C12 UNL     1      14.851  38.472 -11.576  1.00  0.00     0.045 C 
ENDROOT
BRANCH   9  10
HETATM   10  C13 UNL     1      15.554  39.260 -10.560  1.00  0.00     0.036 C 
BRANCH  10  11
HETATM   11  C14 UNL     1      15.200  40.651 -10.337  1.00  0.00    -0.024 C 
HETATM   12  C15 UNL     1      16.082  41.642 -10.300  1.00  0.00    -0.087 C 
HETATM   13  C16 UNL     1      17.553  41.403 -10.485  1.00  0.00     0.043 C 
BRANCH  12  14
HETATM   14  C17 UNL     1      15.648  43.070 -10.072  1.00  0.00     0.033 C 
BRANCH  14  15
HETATM   15  C18 UNL     1      16.328  43.641  -8.861  1.00  0.00     0.004 C 
BRANCH  15  16
HETATM   16  C19 UNL     1      15.409  44.377  -7.950  1.00  0.00     0.001 C 
BRANCH  16  17
HETATM   17  C20 UNL     1      14.737  43.524  -6.926  1.00  0.00     0.004 C 
BRANCH  17  18
HETATM   18  C21 UNL     1      13.357  43.086  -7.319  1.00  0.00     0.027 C 
BRANCH  18  19
HETATM   19  C22 UNL     1      13.149  41.619  -7.123  1.00  0.00    -0.025 C 
HETATM   20  C23 UNL     1      12.464  40.887  -7.963  1.00  0.00    -0.091 C 
HETATM   21  C24 UNL     1      11.822  41.445  -9.199  1.00  0.00     0.042 C 
HETATM   22  C25 UNL     1      12.298  39.431  -7.703  1.00  0.00     0.042 C 
ENDBRANCH  18  19
ENDBRANCH  17  18
ENDBRANCH  16  17
ENDBRANCH  15  16
ENDBRANCH  14  15
ENDBRANCH  12  14
ENDBRANCH  10  11
ENDBRANCH   9  10
BRANCH   1  23
HETATM   23  C2  UNL     1      16.480  38.991 -13.457  1.00  0.00    -0.051 C 
HETATM   24  C1  UNL     1      16.525  40.281 -13.689  1.00  0.00     0.017 C 
BRANCH  23  25
HETATM   25  C3  UNL     1      17.727  38.230 -13.872  1.00  0.00     0.198 C 
BRANCH  25  26
HETATM   26  O1  UNL     1      17.797  38.143 -15.290  1.00  0.00    -0.397 OA
ATOM     27  H1  UNL     1      17.255  37.427 -15.601  1.00  0.00     0.209 HD
ENDBRANCH  25  26
ENDBRANCH  23  25
ENDBRANCH   1  23
BRANCH   7  28
HETATM   28  O7  UNL     1      15.070  36.731  -9.886  1.00  0.00    -0.387 OA
ATOM     29  H7  UNL     1      15.819  37.310  -9.820  1.00  0.00     0.210 HD
ENDBRANCH   7  28
BRANCH   2  30
HETATM   30  C6  UNL     1      14.266  38.895 -15.066  1.00  0.00     0.204 C 
HETATM   31  O2  UNL     1      14.869  38.620 -16.121  1.00  0.00    -0.646 OA
HETATM   32  O3  UNL     1      13.613  40.122 -15.037  1.00  0.00    -0.646 OA
ENDBRANCH   2  30
BRANCH   6  33
HETATM   33  O6  UNL     1      16.169  36.110 -13.898  1.00  0.00    -0.391 OA
ATOM     34  H6  UNL     1      16.896  35.502 -13.831  1.00  0.00     0.210 HD
ENDBRANCH   6  33
BRANCH   5  35
HETATM   35  O5  UNL     1      14.949  34.901 -11.510  1.00  0.00    -0.382 OA
ATOM     36  H5  UNL     1      15.319  34.973 -10.639  1.00  0.00     0.211 HD
ENDBRANCH   5  35
TORSDOF 15
ENDMDL
MODEL 5
REMARK VINA RESULT: -6.137071545      1.240      1.548
REMARK  15 active torsions:
REMARK  status: ('A' for Active; 'I' for Inactive)
REMARK    1  A    between atoms: C2_2  and  C3_3 
REMARK    2  A    between atoms: C2_2  and  C4_6 
REMARK    3  A    between atoms: C3_3  and  O1_4 
REMARK    4  A    between atoms: C5_7  and  C6_8 
REMARK    5  A    between atoms: C8_13  and  O5_14 
REMARK    6  A    between atoms: C9_16  and  O6_17 
REMARK    7  A    between atoms: C10_19  and  O7_21 
REMARK    8  A    between atoms: C12_23  and  C13_24 
REMARK    9  A    between atoms: C13_24  and  C14_25 
REMARK   10  A    between atoms: C15_26  and  C17_28 
REMARK   11  A    between atoms: C17_28  and  C18_29 
REMARK   12  A    between atoms: C18_29  and  C19_30 
REMARK   13  A    between atoms: C19_30  and  C20_31 
REMARK   14  A    between atoms: C20_31  and  C21_32 
REMARK   15  A    between atoms: C21_32  and  C22_33 
ROOT
HETATM    1  C4  UNL     1      15.100  39.395 -12.892  1.00  0.00     0.056 C 
HETATM    2  C5  UNL     1      14.214  39.215 -14.134  1.00  0.00     0.238 C 
HETATM    3  O4  UNL     1      14.646  38.195 -14.977  1.00  0.00    -0.371 OA
HETATM    4  C7  UNL     1      14.461  37.003 -14.271  1.00  0.00     0.212 C 
HETATM    5  C8  UNL     1      15.339  37.068 -13.068  1.00  0.00     0.137 C 
HETATM    6  C9  UNL     1      16.210  38.333 -13.093  1.00  0.00     0.174 C 
HETATM    7  C10 UNL     1      14.548  37.309 -11.809  1.00  0.00     0.095 C 
HETATM    8  C11 UNL     1      13.212  36.606 -11.827  1.00  0.00     0.049 C 
HETATM    9  C12 UNL     1      14.408  38.832 -11.737  1.00  0.00     0.045 C 
ENDROOT
BRANCH   9  10
HETATM   10  C13 UNL     1      14.593  39.306 -10.362  1.00  0.00     0.036 C 
BRANCH  10  11
HETATM   11  C14 UNL     1      13.542  40.059  -9.700  1.00  0.00    -0.024 C 
HETATM   12  C15 UNL     1      12.873  39.622  -8.640  1.00  0.00    -0.087 C 
HETATM   13  C16 UNL     1      13.149  38.280  -8.025  1.00  0.00     0.043 C 
BRANCH  12  14
HETATM   14  C17 UNL     1      11.795  40.458  -7.993  1.00  0.00     0.033 C 
BRANCH  14  15
HETATM   15  C18 UNL     1      12.396  41.642  -7.291  1.00  0.00     0.004 C 
BRANCH  15  16
HETATM   16  C19 UNL     1      12.136  42.938  -7.975  1.00  0.00     0.001 C 
BRANCH  16  17
HETATM   17  C20 UNL     1      13.364  43.713  -8.321  1.00  0.00     0.004 C 
BRANCH  17  18
HETATM   18  C21 UNL     1      14.631  43.093  -7.810  1.00  0.00     0.027 C 
BRANCH  18  19
HETATM   19  C22 UNL     1      15.618  42.837  -8.903  1.00  0.00    -0.025 C 
HETATM   20  C23 UNL     1      16.720  43.529  -9.032  1.00  0.00    -0.091 C 
HETATM   21  C24 UNL     1      17.100  44.643  -8.102  1.00  0.00     0.042 C 
HETATM   22  C25 UNL     1      17.657  43.218 -10.145  1.00  0.00     0.042 C 
ENDBRANCH  18  19
ENDBRANCH  17  18
ENDBRANCH  16  17
ENDBRANCH  15  16
ENDBRANCH  14  15
ENDBRANCH  12  14
ENDBRANCH  10  11
ENDBRANCH   9  10
BRANCH   1  23
HETATM   23  C2  UNL     1      15.739  40.706 -12.821  1.00  0.00    -0.051 C 
HETATM   24  C1  UNL     1      15.210  41.863 -12.504  1.00  0.00     0.017 C 
BRANCH  23  25
HETATM   25  C3  UNL     1      17.205  40.769 -13.216  1.00  0.00     0.198 C 
BRANCH  25  26
HETATM   26  O1  UNL     1      17.339  41.346 -14.509  1.00  0.00    -0.397 OA
ATOM     27  H1  UNL     1      17.813  40.755 -15.082  1.00  0.00     0.209 HD
ENDBRANCH  25  26
ENDBRANCH  23  25
ENDBRANCH   1  23
BRANCH   7  28
HETATM   28  O7  UNL     1      15.289  36.771 -10.781  1.00  0.00    -0.387 OA
ATOM     29  H7  UNL     1      16.122  36.515 -11.160  1.00  0.00     0.210 HD
ENDBRANCH   7  28
BRANCH   2  30
HETATM   30  C6  UNL     1      13.942  40.460 -14.872  1.00  0.00     0.204 C 
HETATM   31  O2  UNL     1      14.662  40.917 -15.781  1.00  0.00    -0.646 OA
HETATM   32  O3  UNL     1      12.811  41.205 -14.556  1.00  0.00    -0.646 OA
ENDBRANCH   2  30
BRANCH   6  33
HETATM   33  O6  UNL     1      16.830  38.437 -14.322  1.00  0.00    -0.391 OA
ATOM     34  H6  UNL     1      17.760  38.618 -14.249  1.00  0.00     0.210 HD
ENDBRANCH   6  33
BRANCH   5  35
HETATM   35  O5  UNL     1      16.144  35.943 -12.922  1.00  0.00    -0.382 OA
ATOM     36  H5  UNL     1      16.607  35.924 -12.093  1.00  0.00     0.211 HD
ENDBRANCH   5  35
TORSDOF 15
ENDMDL
