MODEL 1
REMARK VINA RESULT: -8.552146496      0.000      0.000
REMARK  17 active torsions:
REMARK  status: ('A' for Active; 'I' for Inactive)
REMARK    1  A    between atoms: C4_4  and  C5_5 
REMARK    2  A    between atoms: C5_5  and  C7_7 
REMARK    3  A    between atoms: C8_8  and  C9_9 
REMARK    4  A    between atoms: C10_10  and  O1_11 
REMARK    5  A    between atoms: C12_14  and  O2_15 
REMARK    6  A    between atoms: C14_18  and  C15_19 
REMARK    7  A    between atoms: C15_19  and  C16_20 
REMARK    8  A    between atoms: C17_21  and  C18_22 
REMARK    9  A    between atoms: C18_22  and  C19_23 
REMARK   10  A    between atoms: C19_23  and  C20_24 
REMARK   11  A    between atoms: C20_24  and  C21_25 
REMARK   12  A    between atoms: C21_25  and  C22_26 
REMARK   13  A    between atoms: C22_26  and  C23_27 
REMARK   14  A    between atoms: C23_27  and  O3_28 
REMARK   15  A    between atoms: C23_27  and  C24_30 
REMARK   16  A    between atoms: C26_33  and  O5_34 
REMARK   17  A    between atoms: C27_36  and  O6_37 
ROOT
HETATM    1  C15 UNL     1      13.479  36.913 -11.500  1.00  0.00     0.032 C 
ENDROOT
BRANCH   1   2
HETATM    2  C14 UNL     1      13.955  37.852 -12.596  1.00  0.00     0.001 C 
HETATM    3  C9  UNL     1      15.213  38.550 -12.255  1.00  0.00     0.041 C 
HETATM    4  C10 UNL     1      16.307  38.420 -13.282  1.00  0.00     0.128 C 
HETATM    5  C11 UNL     1      16.379  37.156 -14.033  1.00  0.00     0.064 C 
HETATM    6  C12 UNL     1      15.200  36.243 -13.939  1.00  0.00     0.121 C 
HETATM    7  C13 UNL     1      13.963  37.115 -13.895  1.00  0.00     0.037 C 
BRANCH   3   8
HETATM    8  C8  UNL     1      14.978  39.977 -11.919  1.00  0.00    -0.022 C 
HETATM    9  C7  UNL     1      15.682  40.585 -10.994  1.00  0.00    -0.022 C 
BRANCH   9  10
HETATM   10  C5  UNL     1      15.526  41.999 -10.587  1.00  0.00     0.026 C 
HETATM   11  C6  UNL     1      14.816  42.808 -11.663  1.00  0.00     0.018 C 
BRANCH  10  12
HETATM   12  C4  UNL     1      14.751  42.157  -9.346  1.00  0.00    -0.017 C 
HETATM   13  C2  UNL     1      15.191  42.975  -8.400  1.00  0.00    -0.091 C 
HETATM   14  C1  UNL     1      14.435  43.160  -7.135  1.00  0.00     0.042 C 
HETATM   15  C3  UNL     1      16.463  43.747  -8.566  1.00  0.00     0.042 C 
ENDBRANCH  10  12
ENDBRANCH   9  10
ENDBRANCH   3   8
BRANCH   4  16
HETATM   16  O1  UNL     1      16.145  39.481 -14.174  1.00  0.00    -0.395 OA
ATOM     17  H1  UNL     1      16.983  39.606 -14.603  1.00  0.00     0.210 HD
ENDBRANCH   4  16
BRANCH   6  18
HETATM   18  O2  UNL     1      15.196  35.453 -15.103  1.00  0.00    -0.395 OA
ATOM     19  H2  UNL     1      15.134  34.547 -14.824  1.00  0.00     0.210 HD
ENDBRANCH   6  18
ENDBRANCH   1   2
BRANCH   1  20
HETATM   20  C16 UNL     1      14.325  36.915 -10.308  1.00  0.00    -0.030 C 
HETATM   21  C17 UNL     1      14.026  37.446  -9.163  1.00  0.00    -0.031 C 
BRANCH  21  22
HETATM   22  C18 UNL     1      12.758  38.147  -8.888  1.00  0.00     0.027 C 
BRANCH  22  23
HETATM   23  C19 UNL     1      13.144  39.508  -8.321  1.00  0.00     0.004 C 
BRANCH  23  24
HETATM   24  C20 UNL     1      12.268  39.924  -7.166  1.00  0.00     0.000 C 
BRANCH  24  25
HETATM   25  C21 UNL     1      11.227  38.902  -6.853  1.00  0.00     0.002 C 
BRANCH  25  26
HETATM   26  C22 UNL     1      11.337  38.369  -5.440  1.00  0.00     0.034 C 
BRANCH  26  27
HETATM   27  C23 UNL     1      10.039  38.454  -4.693  1.00  0.00     0.149 C 
BRANCH  27  28
HETATM   28  O3  UNL     1       9.009  37.776  -5.343  1.00  0.00    -0.393 OA
ATOM     29  H3  UNL     1       8.874  38.089  -6.230  1.00  0.00     0.210 HD
ENDBRANCH  27  28
BRANCH  27  30
HETATM   30  C24 UNL     1      10.139  37.902  -3.297  1.00  0.00     0.181 C 
HETATM   31  O4  UNL     1       9.012  37.194  -2.899  1.00  0.00    -0.378 OA
HETATM   32  C25 UNL     1       9.305  36.904  -1.575  1.00  0.00     0.202 C 
HETATM   33  C26 UNL     1       9.654  38.274  -1.017  1.00  0.00     0.173 C 
HETATM   34  C27 UNL     1      10.285  38.945  -2.226  1.00  0.00     0.180 C 
BRANCH  33  35
HETATM   35  O5  UNL     1      10.561  38.079   0.012  1.00  0.00    -0.391 OA
ATOM     36  H5  UNL     1      10.062  38.015   0.818  1.00  0.00     0.210 HD
ENDBRANCH  33  35
BRANCH  34  37
HETATM   37  O6  UNL     1      11.638  39.148  -1.904  1.00  0.00    -0.390 OA
ATOM     38  H6  UNL     1      11.796  38.979  -0.983  1.00  0.00     0.210 HD
ENDBRANCH  34  37
ENDBRANCH  27  30
ENDBRANCH  26  27
ENDBRANCH  25  26
ENDBRANCH  24  25
ENDBRANCH  23  24
ENDBRANCH  22  23
ENDBRANCH  21  22
ENDBRANCH   1  20
TORSDOF 17
ENDMDL
MODEL 2
REMARK VINA RESULT: -8.413027168      0.972      1.346
REMARK  17 active torsions:
REMARK  status: ('A' for Active; 'I' for Inactive)
REMARK    1  A    between atoms: C4_4  and  C5_5 
REMARK    2  A    between atoms: C5_5  and  C7_7 
REMARK    3  A    between atoms: C8_8  and  C9_9 
REMARK    4  A    between atoms: C10_10  and  O1_11 
REMARK    5  A    between atoms: C12_14  and  O2_15 
REMARK    6  A    between atoms: C14_18  and  C15_19 
REMARK    7  A    between atoms: C15_19  and  C16_20 
REMARK    8  A    between atoms: C17_21  and  C18_22 
REMARK    9  A    between atoms: C18_22  and  C19_23 
REMARK   10  A    between atoms: C19_23  and  C20_24 
REMARK   11  A    between atoms: C20_24  and  C21_25 
REMARK   12  A    between atoms: C21_25  and  C22_26 
REMARK   13  A    between atoms: C22_26  and  C23_27 
REMARK   14  A    between atoms: C23_27  and  O3_28 
REMARK   15  A    between atoms: C23_27  and  C24_30 
REMARK   16  A    between atoms: C26_33  and  O5_34 
REMARK   17  A    between atoms: C27_36  and  O6_37 
ROOT
HETATM    1  C15 UNL     1      13.416  36.895 -10.811  1.00  0.00     0.032 C 
ENDROOT
BRANCH   1   2
HETATM    2  C14 UNL     1      13.606  37.819 -12.001  1.00  0.00     0.001 C 
HETATM    3  C9  UNL     1      14.700  38.795 -11.809  1.00  0.00     0.041 C 
HETATM    4  C10 UNL     1      15.729  38.816 -12.909  1.00  0.00     0.128 C 
HETATM    5  C11 UNL     1      16.028  37.538 -13.576  1.00  0.00     0.064 C 
HETATM    6  C12 UNL     1      15.085  36.406 -13.327  1.00  0.00     0.121 C 
HETATM    7  C13 UNL     1      13.693  36.995 -13.244  1.00  0.00     0.037 C 
BRANCH   3   8
HETATM    8  C8  UNL     1      14.180  40.163 -11.554  1.00  0.00    -0.022 C 
HETATM    9  C7  UNL     1      14.677  40.914 -10.600  1.00  0.00    -0.022 C 
BRANCH   9  10
HETATM   10  C5  UNL     1      14.231  42.284 -10.266  1.00  0.00     0.026 C 
HETATM   11  C6  UNL     1      12.997  42.674 -11.067  1.00  0.00     0.018 C 
BRANCH  10  12
HETATM   12  C4  UNL     1      13.892  42.447  -8.844  1.00  0.00    -0.017 C 
HETATM   13  C2  UNL     1      14.744  43.061  -8.034  1.00  0.00    -0.091 C 
HETATM   14  C1  UNL     1      14.435  43.244  -6.593  1.00  0.00     0.042 C 
HETATM   15  C3  UNL     1      16.049  43.596  -8.536  1.00  0.00     0.042 C 
ENDBRANCH  10  12
ENDBRANCH   9  10
ENDBRANCH   3   8
BRANCH   4  16
HETATM   16  O1  UNL     1      15.284  39.739 -13.856  1.00  0.00    -0.395 OA
ATOM     17  H1  UNL     1      15.955  39.787 -14.526  1.00  0.00     0.210 HD
ENDBRANCH   4  16
BRANCH   6  18
HETATM   18  O2  UNL     1      15.180  35.539 -14.430  1.00  0.00    -0.395 OA
ATOM     19  H2  UNL     1      14.527  34.860 -14.308  1.00  0.00     0.210 HD
ENDBRANCH   6  18
ENDBRANCH   1   2
BRANCH   1  20
HETATM   20  C16 UNL     1      14.255  37.229  -9.661  1.00  0.00    -0.030 C 
HETATM   21  C17 UNL     1      13.856  37.806  -8.569  1.00  0.00    -0.031 C 
BRANCH  21  22
HETATM   22  C18 UNL     1      12.464  38.223  -8.320  1.00  0.00     0.027 C 
BRANCH  22  23
HETATM   23  C19 UNL     1      12.543  39.624  -7.725  1.00  0.00     0.004 C 
BRANCH  23  24
HETATM   24  C20 UNL     1      11.602  39.813  -6.562  1.00  0.00     0.000 C 
BRANCH  24  25
HETATM   25  C21 UNL     1      11.051  38.518  -6.068  1.00  0.00     0.002 C 
BRANCH  25  26
HETATM   26  C22 UNL     1      10.838  38.505  -4.568  1.00  0.00     0.034 C 
BRANCH  26  27
HETATM   27  C23 UNL     1       9.397  38.678  -4.193  1.00  0.00     0.149 C 
BRANCH  27  28
HETATM   28  O3  UNL     1       8.567  37.769  -4.849  1.00  0.00    -0.393 OA
ATOM     29  H3  UNL     1       8.678  36.882  -4.527  1.00  0.00     0.210 HD
ENDBRANCH  27  28
BRANCH  27  30
HETATM   30  C24 UNL     1       9.163  38.523  -2.715  1.00  0.00     0.181 C 
HETATM   31  O4  UNL     1       9.868  39.437  -1.943  1.00  0.00    -0.378 OA
HETATM   32  C25 UNL     1       9.578  39.014  -0.655  1.00  0.00     0.202 C 
HETATM   33  C26 UNL     1       9.940  37.539  -0.714  1.00  0.00     0.173 C 
HETATM   34  C27 UNL     1       9.594  37.197  -2.154  1.00  0.00     0.180 C 
BRANCH  33  35
HETATM   35  O5  UNL     1       9.126  36.881   0.194  1.00  0.00    -0.391 OA
ATOM     36  H5  UNL     1       8.229  37.121  -0.007  1.00  0.00     0.210 HD
ENDBRANCH  33  35
BRANCH  34  37
HETATM   37  O6  UNL     1       8.514  36.300  -2.100  1.00  0.00    -0.390 OA
ATOM     38  H6  UNL     1       8.816  35.401  -2.163  1.00  0.00     0.210 HD
ENDBRANCH  34  37
ENDBRANCH  27  30
ENDBRANCH  26  27
ENDBRANCH  25  26
ENDBRANCH  24  25
ENDBRANCH  23  24
ENDBRANCH  22  23
ENDBRANCH  21  22
ENDBRANCH   1  20
TORSDOF 17
ENDMDL
MODEL 3
REMARK VINA RESULT: -8.330913311      1.036      1.250
REMARK  17 active torsions:
REMARK  status: ('A' for Active; 'I' for Inactive)
REMARK    1  A    between atoms: C4_4  and  C5_5 
REMARK    2  A    between atoms: C5_5  and  C7_7 
REMARK    3  A    between atoms: C8_8  and  C9_9 
REMARK    4  A    between atoms: C10_10  and  O1_11 
REMARK    5  A    between atoms: C12_14  and  O2_15 
REMARK    6  A    between atoms: C14_18  and  C15_19 
REMARK    7  A    between atoms: C15_19  and  C16_20 
REMARK    8  A    between atoms: C17_21  and  C18_22 
REMARK    9  A    between atoms: C18_22  and  C19_23 
REMARK   10  A    between atoms: C19_23  and  C20_24 
REMARK   11  A    between atoms: C20_24  and  C21_25 
REMARK   12  A    between atoms: C21_25  and  C22_26 
REMARK   13  A    between atoms: C22_26  and  C23_27 
REMARK   14  A    between atoms: C23_27  and  O3_28 
REMARK   15  A    between atoms: C23_27  and  C24_30 
REMARK   16  A    between atoms: C26_33  and  O5_34 
REMARK   17  A    between atoms: C27_36  and  O6_37 
ROOT
HETATM    1  C15 UNL     1      14.344  36.605 -12.147  1.00  0.00     0.032 C 
ENDROOT
BRANCH   1   2
HETATM    2  C14 UNL     1      14.164  37.462 -13.389  1.00  0.00     0.001 C 
HETATM    3  C9  UNL     1      15.243  38.457 -13.568  1.00  0.00     0.041 C 
HETATM    4  C10 UNL     1      15.915  38.425 -14.916  1.00  0.00     0.128 C 
HETATM    5  C11 UNL     1      16.043  37.115 -15.574  1.00  0.00     0.064 C 
HETATM    6  C12 UNL     1      15.239  35.990 -15.008  1.00  0.00     0.121 C 
HETATM    7  C13 UNL     1      13.914  36.570 -14.560  1.00  0.00     0.037 C 
BRANCH   3   8
HETATM    8  C8  UNL     1      14.783  39.832 -13.246  1.00  0.00    -0.022 C 
HETATM    9  C7  UNL     1      14.557  40.203 -12.008  1.00  0.00    -0.022 C 
BRANCH   9  10
HETATM   10  C5  UNL     1      14.098  41.544 -11.584  1.00  0.00     0.026 C 
HETATM   11  C6  UNL     1      13.116  42.134 -12.585  1.00  0.00     0.018 C 
BRANCH  10  12
HETATM   12  C4  UNL     1      13.426  41.534 -10.275  1.00  0.00    -0.017 C 
HETATM   13  C2  UNL     1      14.067  41.988  -9.206  1.00  0.00    -0.091 C 
HETATM   14  C1  UNL     1      13.421  41.993  -7.870  1.00  0.00     0.042 C 
HETATM   15  C3  UNL     1      15.466  42.514  -9.302  1.00  0.00     0.042 C 
ENDBRANCH  10  12
ENDBRANCH   9  10
ENDBRANCH   3   8
BRANCH   4  16
HETATM   16  O1  UNL     1      15.196  39.290 -15.742  1.00  0.00    -0.395 OA
ATOM     17  H1  UNL     1      15.683  39.359 -16.554  1.00  0.00     0.210 HD
ENDBRANCH   4  16
BRANCH   6  18
HETATM   18  O2  UNL     1      15.038  35.063 -16.045  1.00  0.00    -0.395 OA
ATOM     19  H2  UNL     1      15.874  34.645 -16.213  1.00  0.00     0.210 HD
ENDBRANCH   6  18
ENDBRANCH   1   2
BRANCH   1  20
HETATM   20  C16 UNL     1      13.171  36.570 -11.276  1.00  0.00    -0.030 C 
HETATM   21  C17 UNL     1      13.071  37.131 -10.110  1.00  0.00    -0.031 C 
BRANCH  21  22
HETATM   22  C18 UNL     1      14.153  37.904  -9.474  1.00  0.00     0.027 C 
BRANCH  22  23
HETATM   23  C19 UNL     1      13.646  38.274  -8.085  1.00  0.00     0.004 C 
BRANCH  23  24
HETATM   24  C20 UNL     1      12.140  38.321  -8.012  1.00  0.00     0.000 C 
BRANCH  24  25
HETATM   25  C21 UNL     1      11.659  39.086  -6.825  1.00  0.00     0.002 C 
BRANCH  25  26
HETATM   26  C22 UNL     1      11.530  38.226  -5.585  1.00  0.00     0.034 C 
BRANCH  26  27
HETATM   27  C23 UNL     1      10.234  38.449  -4.866  1.00  0.00     0.149 C 
BRANCH  27  28
HETATM   28  O3  UNL     1       9.156  37.851  -5.519  1.00  0.00    -0.393 OA
ATOM     29  H3  UNL     1       8.486  38.481  -5.758  1.00  0.00     0.210 HD
ENDBRANCH  27  28
BRANCH  27  30
HETATM   30  C24 UNL     1      10.259  37.924  -3.456  1.00  0.00     0.181 C 
HETATM   31  O4  UNL     1       9.093  37.267  -3.087  1.00  0.00    -0.378 OA
HETATM   32  C25 UNL     1       9.324  36.996  -1.747  1.00  0.00     0.202 C 
HETATM   33  C26 UNL     1       9.700  38.365  -1.204  1.00  0.00     0.173 C 
HETATM   34  C27 UNL     1      10.402  38.986  -2.402  1.00  0.00     0.180 C 
BRANCH  33  35
HETATM   35  O5  UNL     1      10.560  38.161  -0.137  1.00  0.00    -0.391 OA
ATOM     36  H5  UNL     1      10.633  38.987   0.327  1.00  0.00     0.210 HD
ENDBRANCH  33  35
BRANCH  34  37
HETATM   37  O6  UNL     1      11.748  39.147  -2.031  1.00  0.00    -0.390 OA
ATOM     38  H6  UNL     1      11.833  39.785  -1.331  1.00  0.00     0.210 HD
ENDBRANCH  34  37
ENDBRANCH  27  30
ENDBRANCH  26  27
ENDBRANCH  25  26
ENDBRANCH  24  25
ENDBRANCH  23  24
ENDBRANCH  22  23
ENDBRANCH  21  22
ENDBRANCH   1  20
TORSDOF 17
ENDMDL
MODEL 4
REMARK VINA RESULT: -8.181738379      1.540      2.063
REMARK  17 active torsions:
REMARK  status: ('A' for Active; 'I' for Inactive)
REMARK    1  A    between atoms: C4_4  and  C5_5 
REMARK    2  A    between atoms: C5_5  and  C7_7 
REMARK    3  A    between atoms: C8_8  and  C9_9 
REMARK    4  A    between atoms: C10_10  and  O1_11 
REMARK    5  A    between atoms: C12_14  and  O2_15 
REMARK    6  A    between atoms: C14_18  and  C15_19 
REMARK    7  A    between atoms: C15_19  and  C16_20 
REMARK    8  A    between atoms: C17_21  and  C18_22 
REMARK    9  A    between atoms: C18_22  and  C19_23 
REMARK   10  A    between atoms: C19_23  and  C20_24 
REMARK   11  A    between atoms: C20_24  and  C21_25 
REMARK   12  A    between atoms: C21_25  and  C22_26 
REMARK   13  A    between atoms: C22_26  and  C23_27 
REMARK   14  A    between atoms: C23_27  and  O3_28 
REMARK   15  A    between atoms: C23_27  and  C24_30 
REMARK   16  A    between atoms: C26_33  and  O5_34 
REMARK   17  A    between atoms: C27_36  and  O6_37 
ROOT
HETATM    1  C15 UNL     1      14.662  37.789 -10.111  1.00  0.00     0.032 C 
ENDROOT
BRANCH   1   2
HETATM    2  C14 UNL     1      13.981  37.919 -11.463  1.00  0.00     0.001 C 
HETATM    3  C9  UNL     1      14.917  38.273 -12.551  1.00  0.00     0.041 C 
HETATM    4  C10 UNL     1      14.873  37.356 -13.746  1.00  0.00     0.128 C 
HETATM    5  C11 UNL     1      14.584  35.935 -13.493  1.00  0.00     0.064 C 
HETATM    6  C12 UNL     1      14.062  35.578 -12.139  1.00  0.00     0.121 C 
HETATM    7  C13 UNL     1      13.148  36.703 -11.704  1.00  0.00     0.037 C 
BRANCH   3   8
HETATM    8  C8  UNL     1      14.761  39.688 -12.974  1.00  0.00    -0.022 C 
HETATM    9  C7  UNL     1      13.948  40.503 -12.343  1.00  0.00    -0.022 C 
BRANCH   9  10
HETATM   10  C5  UNL     1      13.722  41.924 -12.684  1.00  0.00     0.026 C 
HETATM   11  C6  UNL     1      13.562  42.113 -14.185  1.00  0.00     0.018 C 
BRANCH  10  12
HETATM   12  C4  UNL     1      12.519  42.483 -12.047  1.00  0.00    -0.017 C 
HETATM   13  C2  UNL     1      12.647  43.301 -11.011  1.00  0.00    -0.091 C 
HETATM   14  C1  UNL     1      11.456  43.884 -10.344  1.00  0.00     0.042 C 
HETATM   15  C3  UNL     1      13.994  43.670 -10.471  1.00  0.00     0.042 C 
ENDBRANCH  10  12
ENDBRANCH   9  10
ENDBRANCH   3   8
BRANCH   4  16
HETATM   16  O1  UNL     1      13.914  37.876 -14.615  1.00  0.00    -0.395 OA
ATOM     17  H1  UNL     1      14.357  38.517 -15.157  1.00  0.00     0.210 HD
ENDBRANCH   4  16
BRANCH   6  18
HETATM   18  O2  UNL     1      13.332  34.385 -12.278  1.00  0.00    -0.395 OA
ATOM     19  H2  UNL     1      12.417  34.600 -12.135  1.00  0.00     0.210 HD
ENDBRANCH   6  18
ENDBRANCH   1   2
BRANCH   1  20
HETATM   20  C16 UNL     1      13.733  37.714  -8.984  1.00  0.00    -0.030 C 
HETATM   21  C17 UNL     1      13.067  38.706  -8.479  1.00  0.00    -0.031 C 
BRANCH  21  22
HETATM   22  C18 UNL     1      13.152  40.092  -8.976  1.00  0.00     0.027 C 
BRANCH  22  23
HETATM   23  C19 UNL     1      12.022  40.854  -8.293  1.00  0.00     0.004 C 
BRANCH  23  24
HETATM   24  C20 UNL     1      12.179  40.902  -6.794  1.00  0.00     0.000 C 
BRANCH  24  25
HETATM   25  C21 UNL     1      10.939  40.468  -6.085  1.00  0.00     0.002 C 
BRANCH  25  26
HETATM   26  C22 UNL     1      11.079  39.104  -5.443  1.00  0.00     0.034 C 
BRANCH  26  27
HETATM   27  C23 UNL     1       9.825  38.669  -4.745  1.00  0.00     0.149 C 
BRANCH  27  28
HETATM   28  O3  UNL     1       9.077  37.775  -5.511  1.00  0.00    -0.393 OA
ATOM     29  H3  UNL     1       8.150  37.984  -5.506  1.00  0.00     0.210 HD
ENDBRANCH  27  28
BRANCH  27  30
HETATM   30  C24 UNL     1      10.100  38.013  -3.419  1.00  0.00     0.181 C 
HETATM   31  O4  UNL     1       9.068  37.194  -2.980  1.00  0.00    -0.378 OA
HETATM   32  C25 UNL     1       9.510  36.820  -1.721  1.00  0.00     0.202 C 
HETATM   33  C26 UNL     1       9.822  38.162  -1.079  1.00  0.00     0.173 C 
HETATM   34  C27 UNL     1      10.284  38.974  -2.279  1.00  0.00     0.180 C 
BRANCH  33  35
HETATM   35  O5  UNL     1      10.838  37.952  -0.162  1.00  0.00    -0.391 OA
ATOM     36  H5  UNL     1      11.651  37.893  -0.651  1.00  0.00     0.210 HD
ENDBRANCH  33  35
BRANCH  34  37
HETATM   37  O6  UNL     1      11.645  39.250  -2.069  1.00  0.00    -0.390 OA
ATOM     38  H6  UNL     1      11.755  39.951  -1.437  1.00  0.00     0.210 HD
ENDBRANCH  34  37
ENDBRANCH  27  30
ENDBRANCH  26  27
ENDBRANCH  25  26
ENDBRANCH  24  25
ENDBRANCH  23  24
ENDBRANCH  22  23
ENDBRANCH  21  22
ENDBRANCH   1  20
TORSDOF 17
ENDMDL
MODEL 5
REMARK VINA RESULT: -8.161491876      1.163      1.704
REMARK  17 active torsions:
REMARK  status: ('A' for Active; 'I' for Inactive)
REMARK    1  A    between atoms: C4_4  and  C5_5 
REMARK    2  A    between atoms: C5_5  and  C7_7 
REMARK    3  A    between atoms: C8_8  and  C9_9 
REMARK    4  A    between atoms: C10_10  and  O1_11 
REMARK    5  A    between atoms: C12_14  and  O2_15 
REMARK    6  A    between atoms: C14_18  and  C15_19 
REMARK    7  A    between atoms: C15_19  and  C16_20 
REMARK    8  A    between atoms: C17_21  and  C18_22 
REMARK    9  A    between atoms: C18_22  and  C19_23 
REMARK   10  A    between atoms: C19_23  and  C20_24 
REMARK   11  A    between atoms: C20_24  and  C21_25 
REMARK   12  A    between atoms: C21_25  and  C22_26 
REMARK   13  A    between atoms: C22_26  and  C23_27 
REMARK   14  A    between atoms: C23_27  and  O3_28 
REMARK   15  A    between atoms: C23_27  and  C24_30 
REMARK   16  A    between atoms: C26_33  and  O5_34 
REMARK   17  A    between atoms: C27_36  and  O6_37 
ROOT
HETATM    1  C15 UNL     1      13.332  36.676 -11.223  1.00  0.00     0.032 C 
ENDROOT
BRANCH   1   2
HETATM    2  C14 UNL     1      13.597  37.676 -12.335  1.00  0.00     0.001 C 
HETATM    3  C9  UNL     1      14.689  38.621 -12.017  1.00  0.00     0.041 C 
HETATM    4  C10 UNL     1      15.777  38.703 -13.056  1.00  0.00     0.128 C 
HETATM    5  C11 UNL     1      16.099  37.469 -13.791  1.00  0.00     0.064 C 
HETATM    6  C12 UNL     1      15.133  36.336 -13.672  1.00  0.00     0.121 C 
HETATM    7  C13 UNL     1      13.745  36.937 -13.625  1.00  0.00     0.037 C 
BRANCH   3   8
HETATM    8  C8  UNL     1      14.169  39.975 -11.698  1.00  0.00    -0.022 C 
HETATM    9  C7  UNL     1      14.527  40.601 -10.601  1.00  0.00    -0.022 C 
BRANCH   9  10
HETATM   10  C5  UNL     1      14.068  41.947 -10.192  1.00  0.00     0.026 C 
HETATM   11  C6  UNL     1      14.065  42.911 -11.370  1.00  0.00     0.018 C 
BRANCH  10  12
HETATM   12  C4  UNL     1      12.708  41.944  -9.633  1.00  0.00    -0.017 C 
HETATM   13  C2  UNL     1      12.531  42.189  -8.342  1.00  0.00    -0.091 C 
HETATM   14  C1  UNL     1      11.172  42.195  -7.742  1.00  0.00     0.042 C 
HETATM   15  C3  UNL     1      13.689  42.471  -7.435  1.00  0.00     0.042 C 
ENDBRANCH  10  12
ENDBRANCH   9  10
ENDBRANCH   3   8
BRANCH   4  16
HETATM   16  O1  UNL     1      15.395  39.694 -13.959  1.00  0.00    -0.395 OA
ATOM     17  H1  UNL     1      14.673  40.164 -13.559  1.00  0.00     0.210 HD
ENDBRANCH   4  16
BRANCH   6  18
HETATM   18  O2  UNL     1      15.280  35.545 -14.825  1.00  0.00    -0.395 OA
ATOM     19  H2  UNL     1      16.182  35.632 -15.111  1.00  0.00     0.210 HD
ENDBRANCH   6  18
ENDBRANCH   1   2
BRANCH   1  20
HETATM   20  C16 UNL     1      14.268  36.772 -10.103  1.00  0.00    -0.030 C 
HETATM   21  C17 UNL     1      14.065  37.414  -8.995  1.00  0.00    -0.031 C 
BRANCH  21  22
HETATM   22  C18 UNL     1      12.831  38.162  -8.691  1.00  0.00     0.027 C 
BRANCH  22  23
HETATM   23  C19 UNL     1      12.752  38.246  -7.171  1.00  0.00     0.004 C 
BRANCH  23  24
HETATM   24  C20 UNL     1      11.410  38.734  -6.687  1.00  0.00     0.000 C 
BRANCH  24  25
HETATM   25  C21 UNL     1      11.099  38.250  -5.310  1.00  0.00     0.002 C 
BRANCH  25  26
HETATM   26  C22 UNL     1      10.400  39.294  -4.465  1.00  0.00     0.034 C 
BRANCH  26  27
HETATM   27  C23 UNL     1       9.030  38.860  -4.036  1.00  0.00     0.149 C 
BRANCH  27  28
HETATM   28  O3  UNL     1       8.599  37.721  -4.715  1.00  0.00    -0.393 OA
ATOM     29  H3  UNL     1       8.123  37.123  -4.150  1.00  0.00     0.210 HD
ENDBRANCH  27  28
BRANCH  27  30
HETATM   30  C24 UNL     1       8.954  38.568  -2.562  1.00  0.00     0.181 C 
HETATM   31  O4  UNL     1       9.675  39.463  -1.781  1.00  0.00    -0.378 OA
HETATM   32  C25 UNL     1       9.540  38.916  -0.514  1.00  0.00     0.202 C 
HETATM   33  C26 UNL     1       9.985  37.479  -0.737  1.00  0.00     0.173 C 
HETATM   34  C27 UNL     1       9.520  37.234  -2.164  1.00  0.00     0.180 C 
BRANCH  33  35
HETATM   35  O5  UNL     1       9.307  36.693   0.181  1.00  0.00    -0.391 OA
ATOM     36  H5  UNL     1       9.828  35.910   0.319  1.00  0.00     0.210 HD
ENDBRANCH  33  35
BRANCH  34  37
HETATM   37  O6  UNL     1       8.508  36.262  -2.088  1.00  0.00    -0.390 OA
ATOM     38  H6  UNL     1       8.372  35.847  -2.932  1.00  0.00     0.210 HD
ENDBRANCH  34  37
ENDBRANCH  27  30
ENDBRANCH  26  27
ENDBRANCH  25  26
ENDBRANCH  24  25
ENDBRANCH  23  24
ENDBRANCH  22  23
ENDBRANCH  21  22
ENDBRANCH   1  20
TORSDOF 17
ENDMDL
