MODEL 1
REMARK VINA RESULT: -8.101397169      0.000      0.000
REMARK  14 active torsions:
REMARK  status: ('A' for Active; 'I' for Inactive)
REMARK    1  A    between atoms: C2_2  and  C3_3 
REMARK    2  A    between atoms: C3_3  and  C4_4 
REMARK    3  A    between atoms: C4_4  and  C5_5 
REMARK    4  A    between atoms: C5_5  and  C6_6 
REMARK    5  A    between atoms: C6_6  and  C7_7 
REMARK    6  A    between atoms: C7_7  and  N1_8 
REMARK    7  A    between atoms: N1_8  and  C8_10 
REMARK    8  A    between atoms: C9_11  and  O1_12 
REMARK    9  A    between atoms: C10_16  and  N3_17 
REMARK   10  A    between atoms: N3_17  and  C11_19 
REMARK   11  A    between atoms: C15_26  and  C16_27 
REMARK   12  A    between atoms: C16_27  and  C17_28 
REMARK   13  A    between atoms: C19_30  and  N5_31 
REMARK       I    between atoms: N5_31  and  C20_33 
REMARK   14  A    between atoms: C20_33  and  C21_35 
ROOT
HETATM    1  C8  UNL     1      11.884  39.604  -6.788  1.00  0.00     0.107 A 
HETATM    2  C9  UNL     1      12.415  38.351  -6.599  1.00  0.00     0.171 A 
HETATM    3  N2  UNL     1      13.222  37.775  -7.540  1.00  0.00    -0.321 N 
ATOM      4  H2  UNL     1      13.601  36.844  -7.368  1.00  0.00     0.169 HD
HETATM    5  C10 UNL     1      13.526  38.404  -8.683  1.00  0.00     0.112 A 
HETATM    6  C15 UNL     1      13.000  39.660  -8.880  1.00  0.00     0.015 A 
HETATM    7  C19 UNL     1      12.158  40.300  -7.931  1.00  0.00     0.075 A 
ENDROOT
BRANCH   7   8
HETATM    8  N5  UNL     1      11.818  41.459  -8.212  1.00  0.00    -0.324 N 
HETATM    9  C20 UNL     1      11.511  42.651  -7.662  1.00  0.00     0.233 C 
HETATM   10  O2  UNL     1      10.496  42.847  -6.952  1.00  0.00    -0.272 OA
ATOM     11  H5  UNL     1      11.742  41.539  -9.226  1.00  0.00     0.169 HD
BRANCH   9  12
HETATM   12  C21 UNL     1      12.368  43.890  -7.851  1.00  0.00     0.147 C 
HETATM   13  C22 UNL     1      12.655  44.032  -9.355  1.00  0.00     0.022 C 
HETATM   14  C23 UNL     1      13.880  44.921  -9.398  1.00  0.00     0.008 C 
HETATM   15  C24 UNL     1      14.546  44.778  -8.035  1.00  0.00     0.079 C 
HETATM   16  C25 UNL     1      13.732  43.711  -7.336  1.00  0.00     0.140 C 
HETATM   17  O3  UNL     1      14.251  42.960  -6.555  1.00  0.00    -0.297 OA
ENDBRANCH   9  12
ENDBRANCH   7   8
BRANCH   1  18
HETATM   18  N1  UNL     1      11.063  40.107  -5.757  1.00  0.00    -0.385 N 
ATOM     19  H1  UNL     1      11.090  41.108  -5.565  1.00  0.00     0.159 HD
BRANCH  18  20
HETATM   20  C7  UNL     1      10.190  39.285  -4.962  1.00  0.00     0.120 C 
BRANCH  20  21
HETATM   21  C6  UNL     1       9.256  39.974  -4.044  1.00  0.00     0.020 C 
BRANCH  21  22
HETATM   22  C5  UNL     1       8.605  38.864  -3.195  1.00  0.00     0.002 C 
BRANCH  22  23
HETATM   23  C4  UNL     1       9.579  37.725  -2.998  1.00  0.00     0.000 C 
BRANCH  23  24
HETATM   24  C3  UNL     1       9.626  37.251  -1.580  1.00  0.00    -0.000 C 
BRANCH  24  25
HETATM   25  C2  UNL     1      10.383  38.205  -0.677  1.00  0.00    -0.005 C 
HETATM   26  C1  UNL     1       9.584  38.520   0.569  1.00  0.00     0.005 C 
ENDBRANCH  24  25
ENDBRANCH  23  24
ENDBRANCH  22  23
ENDBRANCH  21  22
ENDBRANCH  20  21
ENDBRANCH  18  20
ENDBRANCH   1  18
BRANCH   6  27
HETATM   27  C16 UNL     1      13.359  40.387 -10.126  1.00  0.00     0.044 C 
BRANCH  27  28
HETATM   28  C17 UNL     1      14.679  41.124 -10.007  1.00  0.00     0.000 C 
HETATM   29  C18 UNL     1      15.616  40.755 -11.129  1.00  0.00     0.005 C 
ENDBRANCH  27  28
ENDBRANCH   6  27
BRANCH   2  30
HETATM   30  O1  UNL     1      12.156  37.623  -5.445  1.00  0.00    -0.344 OA
ATOM     31  H1  UNL     1      11.310  37.214  -5.297  1.00  0.00     0.219 HD
ENDBRANCH   2  30
BRANCH   5  32
HETATM   32  N3  UNL     1      14.327  37.756  -9.649  1.00  0.00    -0.369 N 
ATOM     33  H3  UNL     1      15.316  38.008  -9.629  1.00  0.00     0.161 HD
BRANCH  32  34
HETATM   34  C11 UNL     1      13.971  36.814 -10.639  1.00  0.00     0.110 C 
HETATM   35  C12 UNL     1      13.463  37.364 -11.936  1.00  0.00     0.054 C 
HETATM   36  C13 UNL     1      13.722  36.225 -12.897  1.00  0.00     0.234 C 
HETATM   37  N4  UNL     1      14.926  35.595 -12.458  1.00  0.00    -0.073 N 
HETATM   38  C14 UNL     1      14.999  35.814 -11.015  1.00  0.00     0.257 C 
ATOM     39  H42 UNL     1      14.988  34.612 -12.721  1.00  0.00     0.277 HD
ATOM     40  H41 UNL     1      15.756  35.912 -12.958  1.00  0.00     0.277 HD
ENDBRANCH  32  34
ENDBRANCH   5  32
TORSDOF 14
ENDMDL
MODEL 2
REMARK VINA RESULT: -7.985400000      1.197      1.365
REMARK  14 active torsions:
REMARK  status: ('A' for Active; 'I' for Inactive)
REMARK    1  A    between atoms: C2_2  and  C3_3 
REMARK    2  A    between atoms: C3_3  and  C4_4 
REMARK    3  A    between atoms: C4_4  and  C5_5 
REMARK    4  A    between atoms: C5_5  and  C6_6 
REMARK    5  A    between atoms: C6_6  and  C7_7 
REMARK    6  A    between atoms: C7_7  and  N1_8 
REMARK    7  A    between atoms: N1_8  and  C8_10 
REMARK    8  A    between atoms: C9_11  and  O1_12 
REMARK    9  A    between atoms: C10_16  and  N3_17 
REMARK   10  A    between atoms: N3_17  and  C11_19 
REMARK   11  A    between atoms: C15_26  and  C16_27 
REMARK   12  A    between atoms: C16_27  and  C17_28 
REMARK   13  A    between atoms: C19_30  and  N5_31 
REMARK       I    between atoms: N5_31  and  C20_33 
REMARK   14  A    between atoms: C20_33  and  C21_35 
ROOT
HETATM    1  C8  UNL     1      12.510  39.410  -7.317  1.00  0.00     0.107 A 
HETATM    2  C9  UNL     1      12.783  38.076  -7.132  1.00  0.00     0.171 A 
HETATM    3  N2  UNL     1      13.576  37.388  -8.007  1.00  0.00    -0.321 N 
ATOM      4  H2  UNL     1      13.760  36.399  -7.841  1.00  0.00     0.169 HD
HETATM    5  C10 UNL     1      14.118  37.983  -9.079  1.00  0.00     0.112 A 
HETATM    6  C15 UNL     1      13.852  39.319  -9.270  1.00  0.00     0.015 A 
HETATM    7  C19 UNL     1      13.035  40.075  -8.388  1.00  0.00     0.075 A 
ENDROOT
BRANCH   7   8
HETATM    8  N5  UNL     1      12.942  41.285  -8.648  1.00  0.00    -0.324 N 
HETATM    9  C20 UNL     1      12.930  42.507  -8.079  1.00  0.00     0.233 C 
HETATM   10  O2  UNL     1      12.017  42.909  -7.319  1.00  0.00    -0.272 OA
ATOM     11  H5  UNL     1      12.836  41.394  -9.657  1.00  0.00     0.169 HD
BRANCH   9  12
HETATM   12  C21 UNL     1      14.027  43.532  -8.307  1.00  0.00     0.147 C 
HETATM   13  C22 UNL     1      15.107  42.871  -9.181  1.00  0.00     0.022 C 
HETATM   14  C23 UNL     1      16.334  43.722  -8.926  1.00  0.00     0.008 C 
HETATM   15  C24 UNL     1      16.096  44.407  -7.587  1.00  0.00     0.079 C 
HETATM   16  C25 UNL     1      14.800  43.805  -7.088  1.00  0.00     0.140 C 
HETATM   17  O3  UNL     1      14.609  43.652  -5.912  1.00  0.00    -0.297 OA
ENDBRANCH   9  12
ENDBRANCH   7   8
BRANCH   1  18
HETATM   18  N1  UNL     1      11.679  40.026  -6.359  1.00  0.00    -0.385 N 
ATOM     19  H1  UNL     1      11.962  40.932  -5.986  1.00  0.00     0.159 HD
BRANCH  18  20
HETATM   20  C7  UNL     1      10.453  39.445  -5.877  1.00  0.00     0.120 C 
BRANCH  20  21
HETATM   21  C6  UNL     1      10.182  39.537  -4.425  1.00  0.00     0.020 C 
BRANCH  21  22
HETATM   22  C5  UNL     1       9.251  38.353  -4.097  1.00  0.00     0.002 C 
BRANCH  22  23
HETATM   23  C4  UNL     1       9.007  38.283  -2.607  1.00  0.00     0.000 C 
BRANCH  23  24
HETATM   24  C3  UNL     1       9.384  36.957  -2.025  1.00  0.00    -0.000 C 
BRANCH  24  25
HETATM   25  C2  UNL     1       9.212  36.918  -0.519  1.00  0.00    -0.005 C 
HETATM   26  C1  UNL     1       9.643  38.224   0.110  1.00  0.00     0.005 C 
ENDBRANCH  24  25
ENDBRANCH  23  24
ENDBRANCH  22  23
ENDBRANCH  21  22
ENDBRANCH  20  21
ENDBRANCH  18  20
ENDBRANCH   1  18
BRANCH   6  27
HETATM   27  C16 UNL     1      14.477  40.002 -10.433  1.00  0.00     0.044 C 
BRANCH  27  28
HETATM   28  C17 UNL     1      13.618  39.924 -11.681  1.00  0.00     0.000 C 
HETATM   29  C18 UNL     1      14.419  39.450 -12.868  1.00  0.00     0.005 C 
ENDBRANCH  27  28
ENDBRANCH   6  27
BRANCH   2  30
HETATM   30  O1  UNL     1      12.265  37.375  -6.051  1.00  0.00    -0.344 OA
ATOM     31  H1  UNL     1      12.808  37.142  -5.306  1.00  0.00     0.219 HD
ENDBRANCH   2  30
BRANCH   5  32
HETATM   32  N3  UNL     1      14.897  37.226  -9.982  1.00  0.00    -0.369 N 
ATOM     33  H3  UNL     1      15.891  37.454  -9.991  1.00  0.00     0.161 HD
BRANCH  32  34
HETATM   34  C11 UNL     1      14.511  36.202 -10.875  1.00  0.00     0.110 C 
HETATM   35  C12 UNL     1      13.144  36.317 -11.477  1.00  0.00     0.054 C 
HETATM   36  C13 UNL     1      13.265  35.474 -12.727  1.00  0.00     0.234 C 
HETATM   37  N4  UNL     1      14.603  35.642 -13.195  1.00  0.00    -0.073 N 
HETATM   38  C14 UNL     1      15.417  35.930 -12.016  1.00  0.00     0.257 C 
ATOM     39  H42 UNL     1      14.944  34.850 -13.739  1.00  0.00     0.277 HD
ATOM     40  H41 UNL     1      14.691  36.346 -13.929  1.00  0.00     0.277 HD
ENDBRANCH  32  34
ENDBRANCH   5  32
TORSDOF 14
ENDMDL
MODEL 3
REMARK VINA RESULT: -7.605464081      2.304      5.786
REMARK  14 active torsions:
REMARK  status: ('A' for Active; 'I' for Inactive)
REMARK    1  A    between atoms: C2_2  and  C3_3 
REMARK    2  A    between atoms: C3_3  and  C4_4 
REMARK    3  A    between atoms: C4_4  and  C5_5 
REMARK    4  A    between atoms: C5_5  and  C6_6 
REMARK    5  A    between atoms: C6_6  and  C7_7 
REMARK    6  A    between atoms: C7_7  and  N1_8 
REMARK    7  A    between atoms: N1_8  and  C8_10 
REMARK    8  A    between atoms: C9_11  and  O1_12 
REMARK    9  A    between atoms: C10_16  and  N3_17 
REMARK   10  A    between atoms: N3_17  and  C11_19 
REMARK   11  A    between atoms: C15_26  and  C16_27 
REMARK   12  A    between atoms: C16_27  and  C17_28 
REMARK   13  A    between atoms: C19_30  and  N5_31 
REMARK       I    between atoms: N5_31  and  C20_33 
REMARK   14  A    between atoms: C20_33  and  C21_35 
ROOT
HETATM    1  C8  UNL     1      12.106  40.242  -7.458  1.00  0.00     0.107 A 
HETATM    2  C9  UNL     1      11.317  41.277  -7.019  1.00  0.00     0.171 A 
HETATM    3  N2  UNL     1      11.201  42.433  -7.740  1.00  0.00    -0.321 N 
ATOM      4  H2  UNL     1      10.606  43.182  -7.387  1.00  0.00     0.169 HD
HETATM    5  C10 UNL     1      11.850  42.605  -8.899  1.00  0.00     0.112 A 
HETATM    6  C15 UNL     1      12.641  41.572  -9.347  1.00  0.00     0.015 A 
HETATM    7  C19 UNL     1      12.792  40.353  -8.634  1.00  0.00     0.075 A 
ENDROOT
BRANCH   7   8
HETATM    8  N5  UNL     1      13.480  39.485  -9.194  1.00  0.00    -0.324 N 
HETATM    9  C20 UNL     1      13.714  38.158  -9.229  1.00  0.00     0.233 C 
HETATM   10  O2  UNL     1      14.225  37.519  -8.280  1.00  0.00    -0.272 OA
ATOM     11  H5  UNL     1      14.088  39.941  -9.875  1.00  0.00     0.169 HD
BRANCH   9  12
HETATM   12  C21 UNL     1      13.384  37.295 -10.435  1.00  0.00     0.147 C 
HETATM   13  C22 UNL     1      14.431  36.170 -10.501  1.00  0.00     0.022 C 
HETATM   14  C23 UNL     1      14.358  35.706 -11.941  1.00  0.00     0.008 C 
HETATM   15  C24 UNL     1      13.762  36.869 -12.723  1.00  0.00     0.079 C 
HETATM   16  C25 UNL     1      13.651  37.983 -11.705  1.00  0.00     0.140 C 
HETATM   17  O3  UNL     1      13.780  39.130 -12.036  1.00  0.00    -0.297 OA
ENDBRANCH   9  12
ENDBRANCH   7   8
BRANCH   1  18
HETATM   18  N1  UNL     1      12.160  39.095  -6.640  1.00  0.00    -0.385 N 
ATOM     19  H1  UNL     1      13.076  38.724  -6.388  1.00  0.00     0.159 HD
BRANCH  18  20
HETATM   20  C7  UNL     1      10.991  38.418  -6.141  1.00  0.00     0.120 C 
BRANCH  20  21
HETATM   21  C6  UNL     1      10.915  38.179  -4.682  1.00  0.00     0.020 C 
BRANCH  21  22
HETATM   22  C5  UNL     1       9.417  38.230  -4.326  1.00  0.00     0.002 C 
BRANCH  22  23
HETATM   23  C4  UNL     1       9.242  38.309  -2.827  1.00  0.00     0.000 C 
BRANCH  23  24
HETATM   24  C3  UNL     1       9.459  36.991  -2.154  1.00  0.00    -0.000 C 
BRANCH  24  25
HETATM   25  C2  UNL     1       9.117  37.035  -0.677  1.00  0.00    -0.005 C 
HETATM   26  C1  UNL     1       9.800  38.200   0.004  1.00  0.00     0.005 C 
ENDBRANCH  24  25
ENDBRANCH  23  24
ENDBRANCH  22  23
ENDBRANCH  21  22
ENDBRANCH  20  21
ENDBRANCH  18  20
ENDBRANCH   1  18
BRANCH   6  27
HETATM   27  C16 UNL     1      13.338  41.733 -10.650  1.00  0.00     0.044 C 
BRANCH  27  28
HETATM   28  C17 UNL     1      14.629  42.519 -10.524  1.00  0.00     0.000 C 
HETATM   29  C18 UNL     1      15.833  41.623 -10.676  1.00  0.00     0.005 C 
ENDBRANCH  27  28
ENDBRANCH   6  27
BRANCH   2  30
HETATM   30  O1  UNL     1      10.606  41.191  -5.829  1.00  0.00    -0.344 OA
ATOM     31  H1  UNL     1      10.181  41.952  -5.450  1.00  0.00     0.219 HD
ENDBRANCH   2  30
BRANCH   5  32
HETATM   32  N3  UNL     1      11.738  43.831  -9.591  1.00  0.00    -0.369 N 
ATOM     33  H3  UNL     1      12.609  44.185  -9.987  1.00  0.00     0.161 HD
BRANCH  32  34
HETATM   34  C11 UNL     1      10.605  44.643  -9.819  1.00  0.00     0.110 C 
HETATM   35  C12 UNL     1      10.682  45.590 -10.977  1.00  0.00     0.054 C 
HETATM   36  C13 UNL     1       9.223  45.850 -11.283  1.00  0.00     0.234 C 
HETATM   37  N4  UNL     1       8.532  44.632 -11.006  1.00  0.00    -0.073 N 
HETATM   38  C14 UNL     1       9.302  43.952  -9.966  1.00  0.00     0.257 C 
ATOM     39  H42 UNL     1       7.553  44.769 -10.760  1.00  0.00     0.277 HD
ATOM     40  H41 UNL     1       8.375  44.057 -11.834  1.00  0.00     0.277 HD
ENDBRANCH  32  34
ENDBRANCH   5  32
TORSDOF 14
ENDMDL
MODEL 4
REMARK VINA RESULT: -7.554351630      1.322      1.699
REMARK  14 active torsions:
REMARK  status: ('A' for Active; 'I' for Inactive)
REMARK    1  A    between atoms: C2_2  and  C3_3 
REMARK    2  A    between atoms: C3_3  and  C4_4 
REMARK    3  A    between atoms: C4_4  and  C5_5 
REMARK    4  A    between atoms: C5_5  and  C6_6 
REMARK    5  A    between atoms: C6_6  and  C7_7 
REMARK    6  A    between atoms: C7_7  and  N1_8 
REMARK    7  A    between atoms: N1_8  and  C8_10 
REMARK    8  A    between atoms: C9_11  and  O1_12 
REMARK    9  A    between atoms: C10_16  and  N3_17 
REMARK   10  A    between atoms: N3_17  and  C11_19 
REMARK   11  A    between atoms: C15_26  and  C16_27 
REMARK   12  A    between atoms: C16_27  and  C17_28 
REMARK   13  A    between atoms: C19_30  and  N5_31 
REMARK       I    between atoms: N5_31  and  C20_33 
REMARK   14  A    between atoms: C20_33  and  C21_35 
ROOT
HETATM    1  C8  UNL     1      12.036  39.473  -7.009  1.00  0.00     0.107 A 
HETATM    2  C9  UNL     1      12.445  38.168  -6.874  1.00  0.00     0.171 A 
HETATM    3  N2  UNL     1      13.275  37.588  -7.793  1.00  0.00    -0.321 N 
ATOM      4  H2  UNL     1      13.560  36.618  -7.662  1.00  0.00     0.169 HD
HETATM    5  C10 UNL     1      13.722  38.264  -8.859  1.00  0.00     0.112 A 
HETATM    6  C15 UNL     1      13.319  39.572  -9.001  1.00  0.00     0.015 A 
HETATM    7  C19 UNL     1      12.459  40.218  -8.073  1.00  0.00     0.075 A 
ENDROOT
BRANCH   7   8
HETATM    8  N5  UNL     1      12.240  41.419  -8.291  1.00  0.00    -0.324 N 
HETATM    9  C20 UNL     1      11.343  42.264  -8.838  1.00  0.00     0.233 C 
HETATM   10  O2  UNL     1      11.087  42.306 -10.065  1.00  0.00    -0.272 OA
ATOM     11  H5  UNL     1      13.020  41.965  -7.925  1.00  0.00     0.169 HD
BRANCH   9  12
HETATM   12  C21 UNL     1      10.548  43.265  -8.018  1.00  0.00     0.147 C 
HETATM   13  C22 UNL     1       9.545  43.948  -8.963  1.00  0.00     0.022 C 
HETATM   14  C23 UNL     1       9.190  45.228  -8.235  1.00  0.00     0.008 C 
HETATM   15  C24 UNL     1      10.344  45.495  -7.277  1.00  0.00     0.079 C 
HETATM   16  C25 UNL     1      11.357  44.421  -7.607  1.00  0.00     0.140 C 
HETATM   17  O3  UNL     1      12.533  44.636  -7.502  1.00  0.00    -0.297 OA
ENDBRANCH   9  12
ENDBRANCH   7   8
BRANCH   1  18
HETATM   18  N1  UNL     1      11.178  39.975  -6.008  1.00  0.00    -0.385 N 
ATOM     19  H1  UNL     1      11.006  40.980  -5.981  1.00  0.00     0.159 HD
BRANCH  18  20
HETATM   20  C7  UNL     1      10.533  39.147  -5.024  1.00  0.00     0.120 C 
BRANCH  20  21
HETATM   21  C6  UNL     1       9.425  39.750  -4.250  1.00  0.00     0.020 C 
BRANCH  21  22
HETATM   22  C5  UNL     1       8.802  38.596  -3.440  1.00  0.00     0.002 C 
BRANCH  22  23
HETATM   23  C4  UNL     1       9.849  37.960  -2.555  1.00  0.00     0.000 C 
BRANCH  23  24
HETATM   24  C3  UNL     1       9.351  36.726  -1.872  1.00  0.00    -0.000 C 
BRANCH  24  25
HETATM   25  C2  UNL     1       8.922  36.991  -0.442  1.00  0.00    -0.005 C 
HETATM   26  C1  UNL     1       9.661  38.179   0.135  1.00  0.00     0.005 C 
ENDBRANCH  24  25
ENDBRANCH  23  24
ENDBRANCH  22  23
ENDBRANCH  21  22
ENDBRANCH  20  21
ENDBRANCH  18  20
ENDBRANCH   1  18
BRANCH   6  27
HETATM   27  C16 UNL     1      13.838  40.347 -10.159  1.00  0.00     0.044 C 
BRANCH  27  28
HETATM   28  C17 UNL     1      15.295  40.733  -9.991  1.00  0.00     0.000 C 
HETATM   29  C18 UNL     1      15.432  42.136  -9.455  1.00  0.00     0.005 C 
ENDBRANCH  27  28
ENDBRANCH   6  27
BRANCH   2  30
HETATM   30  O1  UNL     1      12.033  37.389  -5.801  1.00  0.00    -0.344 OA
ATOM     31  H1  UNL     1      11.120  37.150  -5.684  1.00  0.00     0.219 HD
ENDBRANCH   2  30
BRANCH   5  32
HETATM   32  N3  UNL     1      14.543  37.615  -9.808  1.00  0.00    -0.369 N 
ATOM     33  H3  UNL     1      15.458  38.043  -9.952  1.00  0.00     0.161 HD
BRANCH  32  34
HETATM   34  C11 UNL     1      14.292  36.465 -10.588  1.00  0.00     0.110 C 
HETATM   35  C12 UNL     1      13.048  36.479 -11.423  1.00  0.00     0.054 C 
HETATM   36  C13 UNL     1      13.361  35.456 -12.492  1.00  0.00     0.234 C 
HETATM   37  N4  UNL     1      14.762  35.559 -12.748  1.00  0.00    -0.073 N 
HETATM   38  C14 UNL     1      15.372  36.028 -11.505  1.00  0.00     0.257 C 
ATOM     39  H42 UNL     1      15.174  34.696 -13.100  1.00  0.00     0.277 HD
ATOM     40  H41 UNL     1      14.985  36.144 -13.553  1.00  0.00     0.277 HD
ENDBRANCH  32  34
ENDBRANCH   5  32
TORSDOF 14
ENDMDL
MODEL 5
REMARK VINA RESULT: -7.500762040      3.801      6.170
REMARK  14 active torsions:
REMARK  status: ('A' for Active; 'I' for Inactive)
REMARK    1  A    between atoms: C2_2  and  C3_3 
REMARK    2  A    between atoms: C3_3  and  C4_4 
REMARK    3  A    between atoms: C4_4  and  C5_5 
REMARK    4  A    between atoms: C5_5  and  C6_6 
REMARK    5  A    between atoms: C6_6  and  C7_7 
REMARK    6  A    between atoms: C7_7  and  N1_8 
REMARK    7  A    between atoms: N1_8  and  C8_10 
REMARK    8  A    between atoms: C9_11  and  O1_12 
REMARK    9  A    between atoms: C10_16  and  N3_17 
REMARK   10  A    between atoms: N3_17  and  C11_19 
REMARK   11  A    between atoms: C15_26  and  C16_27 
REMARK   12  A    between atoms: C16_27  and  C17_28 
REMARK   13  A    between atoms: C19_30  and  N5_31 
REMARK       I    between atoms: N5_31  and  C20_33 
REMARK   14  A    between atoms: C20_33  and  C21_35 
ROOT
HETATM    1  C8  UNL     1      13.569  36.872 -12.409  1.00  0.00     0.107 A 
HETATM    2  C9  UNL     1      13.271  35.671 -13.006  1.00  0.00     0.171 A 
HETATM    3  N2  UNL     1      13.486  35.472 -14.341  1.00  0.00    -0.321 N 
ATOM      4  H2  UNL     1      13.254  34.568 -14.752  1.00  0.00     0.169 HD
HETATM    5  C10 UNL     1      13.993  36.436 -15.121  1.00  0.00     0.112 A 
HETATM    6  C15 UNL     1      14.297  37.641 -14.531  1.00  0.00     0.015 A 
HETATM    7  C19 UNL     1      14.092  37.894 -13.148  1.00  0.00     0.075 A 
ENDROOT
BRANCH   7   8
HETATM    8  N5  UNL     1      14.479  39.001 -12.742  1.00  0.00    -0.324 N 
HETATM    9  C20 UNL     1      14.049  40.239 -12.429  1.00  0.00     0.233 C 
HETATM   10  O2  UNL     1      13.587  41.047 -13.269  1.00  0.00    -0.272 OA
ATOM     11  H5  UNL     1      15.487  38.958 -12.593  1.00  0.00     0.169 HD
BRANCH   9  12
HETATM   12  C21 UNL     1      14.086  40.790 -11.014  1.00  0.00     0.147 C 
HETATM   13  C22 UNL     1      13.599  42.248 -11.070  1.00  0.00     0.022 C 
HETATM   14  C23 UNL     1      14.145  42.851  -9.792  1.00  0.00     0.008 C 
HETATM   15  C24 UNL     1      15.317  41.969  -9.384  1.00  0.00     0.079 C 
HETATM   16  C25 UNL     1      15.458  40.987 -10.526  1.00  0.00     0.140 C 
HETATM   17  O3  UNL     1      16.537  40.559 -10.835  1.00  0.00    -0.297 OA
ENDBRANCH   9  12
ENDBRANCH   7   8
BRANCH   1  18
HETATM   18  N1  UNL     1      13.307  36.975 -11.027  1.00  0.00    -0.385 N 
ATOM     19  H1  UNL     1      12.350  37.163 -10.730  1.00  0.00     0.159 HD
BRANCH  18  20
HETATM   20  C7  UNL     1      14.318  36.830 -10.012  1.00  0.00     0.120 C 
BRANCH  20  21
HETATM   21  C6  UNL     1      14.324  37.820  -8.912  1.00  0.00     0.020 C 
BRANCH  21  22
HETATM   22  C5  UNL     1      12.853  38.236  -8.714  1.00  0.00     0.002 C 
BRANCH  22  23
HETATM   23  C4  UNL     1      12.516  38.265  -7.241  1.00  0.00     0.000 C 
BRANCH  23  24
HETATM   24  C3  UNL     1      11.693  39.456  -6.864  1.00  0.00    -0.000 C 
BRANCH  24  25
HETATM   25  C2  UNL     1      12.390  40.764  -7.182  1.00  0.00    -0.005 C 
HETATM   26  C1  UNL     1      11.392  41.824  -7.593  1.00  0.00     0.005 C 
ENDBRANCH  24  25
ENDBRANCH  23  24
ENDBRANCH  22  23
ENDBRANCH  21  22
ENDBRANCH  20  21
ENDBRANCH  18  20
ENDBRANCH   1  18
BRANCH   6  27
HETATM   27  C16 UNL     1      14.897  38.707 -15.375  1.00  0.00     0.044 C 
BRANCH  27  28
HETATM   28  C17 UNL     1      16.413  38.656 -15.382  1.00  0.00     0.000 C 
HETATM   29  C18 UNL     1      17.007  40.018 -15.122  1.00  0.00     0.005 C 
ENDBRANCH  27  28
ENDBRANCH   6  27
BRANCH   2  30
HETATM   30  O1  UNL     1      12.741  34.614 -12.278  1.00  0.00    -0.344 OA
ATOM     31  H1  UNL     1      12.280  33.901 -12.705  1.00  0.00     0.219 HD
ENDBRANCH   2  30
BRANCH   5  32
HETATM   32  N3  UNL     1      14.159  36.204 -16.504  1.00  0.00    -0.369 N 
ATOM     33  H3  UNL     1      13.528  36.731 -17.109  1.00  0.00     0.161 HD
BRANCH  32  34
HETATM   34  C11 UNL     1      15.064  35.355 -17.179  1.00  0.00     0.110 C 
HETATM   35  C12 UNL     1      16.368  35.084 -16.494  1.00  0.00     0.054 C 
HETATM   36  C13 UNL     1      16.809  33.786 -17.133  1.00  0.00     0.234 C 
HETATM   37  N4  UNL     1      15.619  33.041 -17.392  1.00  0.00    -0.073 N 
HETATM   38  C14 UNL     1      14.556  34.025 -17.591  1.00  0.00     0.257 C 
ATOM     39  H42 UNL     1      15.712  32.384 -18.165  1.00  0.00     0.277 HD
ATOM     40  H41 UNL     1      15.404  32.355 -16.668  1.00  0.00     0.277 HD
ENDBRANCH  32  34
ENDBRANCH   5  32
TORSDOF 14
ENDMDL
