MODEL 1
REMARK VINA RESULT: -7.322924361      0.000      0.000
REMARK  13 active torsions:
REMARK  status: ('A' for Active; 'I' for Inactive)
REMARK    1  A    between atoms: C2_2  and  C3_3 
REMARK    2  A    between atoms: C3_3  and  C4_4 
REMARK    3  A    between atoms: C4_4  and  C5_5 
REMARK    4  A    between atoms: C5_5  and  C6_6 
REMARK    5  A    between atoms: C6_6  and  C7_7 
REMARK    6  A    between atoms: C7_7  and  C8_8 
REMARK    7  A    between atoms: C8_8  and  C9_9 
REMARK    8  A    between atoms: C9_9  and  C10_10 
REMARK    9  A    between atoms: N3_16  and  C12_17 
REMARK   10  A    between atoms: C13_19  and  C14_20 
REMARK   11  A    between atoms: C14_20  and  O2_21 
REMARK   12  A    between atoms: C15_23  and  O3_24 
REMARK   13  A    between atoms: C16_26  and  O4_27 
ROOT
HETATM    1  C10 UNL     1      12.165  38.745  -7.432  1.00  0.00     0.084 A 
HETATM    2  N1  UNL     1      11.414  39.809  -7.174  1.00  0.00    -0.328 N 
ATOM      3  H1  UNL     1      11.248  40.583  -7.817  1.00  0.00     0.169 HD
HETATM    4  C11 UNL     1      10.905  39.707  -5.933  1.00  0.00     0.168 A 
HETATM    5  N2  UNL     1      10.255  39.905  -4.774  1.00  0.00    -0.276 N 
ATOM      6  H2  UNL     1       9.651  40.645  -4.418  1.00  0.00     0.189 HD
HETATM    7  N3  UNL     1      10.704  38.766  -4.273  1.00  0.00    -0.239 N 
HETATM    8  C17 UNL     1      11.373  38.526  -5.422  1.00  0.00     0.172 A 
HETATM    9  N4  UNL     1      12.144  37.960  -6.368  1.00  0.00    -0.328 N 
ATOM     10  H4  UNL     1      12.633  37.069  -6.278  1.00  0.00     0.169 HD
ENDROOT
BRANCH   7  11
HETATM   11  C12 UNL     1      10.586  38.015  -3.041  1.00  0.00     0.278 C 
HETATM   12  O1  UNL     1      10.661  38.861  -1.917  1.00  0.00    -0.352 OA
HETATM   13  C13 UNL     1      10.195  38.056  -0.876  1.00  0.00     0.179 C 
HETATM   14  C15 UNL     1       9.038  37.275  -1.432  1.00  0.00     0.182 C 
HETATM   15  C16 UNL     1       9.186  37.496  -2.935  1.00  0.00     0.200 C 
BRANCH  13  16
HETATM   16  C14 UNL     1       9.742  38.844   0.316  1.00  0.00     0.198 C 
BRANCH  16  17
HETATM   17  O2  UNL     1       8.958  38.029   1.104  1.00  0.00    -0.398 OA
ATOM     18  H2  UNL     1       9.004  38.343   1.999  1.00  0.00     0.209 HD
ENDBRANCH  16  17
ENDBRANCH  13  16
BRANCH  14  19
HETATM   19  O3  UNL     1       9.281  35.921  -1.128  1.00  0.00    -0.390 OA
ATOM     20  H3  UNL     1       9.252  35.448  -1.951  1.00  0.00     0.210 HD
ENDBRANCH  14  19
BRANCH  15  21
HETATM   21  O4  UNL     1       8.291  38.443  -3.403  1.00  0.00    -0.388 OA
ATOM     22  H4  UNL     1       7.972  38.976  -2.683  1.00  0.00     0.210 HD
ENDBRANCH  15  21
ENDBRANCH   7  11
BRANCH   1  23
HETATM   23  C9  UNL     1      12.876  38.558  -8.741  1.00  0.00     0.076 C 
BRANCH  23  24
HETATM   24  C8  UNL     1      14.017  37.590  -8.604  1.00  0.00     0.007 C 
BRANCH  24  25
HETATM   25  C7  UNL     1      14.349  36.893  -9.894  1.00  0.00     0.000 C 
BRANCH  25  26
HETATM   26  C6  UNL     1      13.164  36.920 -10.836  1.00  0.00     0.000 C 
BRANCH  26  27
HETATM   27  C5  UNL     1      13.587  37.257 -12.248  1.00  0.00     0.000 C 
BRANCH  27  28
HETATM   28  C4  UNL     1      14.678  38.295 -12.245  1.00  0.00     0.000 C 
BRANCH  28  29
HETATM   29  C3  UNL     1      14.136  39.644 -12.631  1.00  0.00    -0.000 C 
BRANCH  29  30
HETATM   30  C2  UNL     1      14.256  40.594 -11.485  1.00  0.00    -0.005 C 
HETATM   31  C1  UNL     1      15.535  40.376 -10.699  1.00  0.00     0.005 C 
ENDBRANCH  29  30
ENDBRANCH  28  29
ENDBRANCH  27  28
ENDBRANCH  26  27
ENDBRANCH  25  26
ENDBRANCH  24  25
ENDBRANCH  23  24
ENDBRANCH   1  23
TORSDOF 13
ENDMDL
MODEL 2
REMARK VINA RESULT: -7.271730984      1.302      1.715
REMARK  13 active torsions:
REMARK  status: ('A' for Active; 'I' for Inactive)
REMARK    1  A    between atoms: C2_2  and  C3_3 
REMARK    2  A    between atoms: C3_3  and  C4_4 
REMARK    3  A    between atoms: C4_4  and  C5_5 
REMARK    4  A    between atoms: C5_5  and  C6_6 
REMARK    5  A    between atoms: C6_6  and  C7_7 
REMARK    6  A    between atoms: C7_7  and  C8_8 
REMARK    7  A    between atoms: C8_8  and  C9_9 
REMARK    8  A    between atoms: C9_9  and  C10_10 
REMARK    9  A    between atoms: N3_16  and  C12_17 
REMARK   10  A    between atoms: C13_19  and  C14_20 
REMARK   11  A    between atoms: C14_20  and  O2_21 
REMARK   12  A    between atoms: C15_23  and  O3_24 
REMARK   13  A    between atoms: C16_26  and  O4_27 
ROOT
HETATM    1  C10 UNL     1      12.582  39.045  -8.346  1.00  0.00     0.084 A 
HETATM    2  N1  UNL     1      12.035  40.210  -8.022  1.00  0.00    -0.328 N 
ATOM      3  H1  UNL     1      12.054  41.051  -8.600  1.00  0.00     0.169 HD
HETATM    4  C11 UNL     1      11.451  40.111  -6.815  1.00  0.00     0.168 A 
HETATM    5  N2  UNL     1      10.790  40.339  -5.667  1.00  0.00    -0.276 N 
ATOM      6  H2  UNL     1      10.320  41.152  -5.270  1.00  0.00     0.189 HD
HETATM    7  N3  UNL     1      10.986  39.099  -5.253  1.00  0.00    -0.239 N 
HETATM    8  C17 UNL     1      11.657  38.824  -6.393  1.00  0.00     0.172 A 
HETATM    9  N4  UNL     1      12.355  38.196  -7.356  1.00  0.00    -0.328 N 
ATOM     10  H4  UNL     1      12.659  37.224  -7.328  1.00  0.00     0.169 HD
ENDROOT
BRANCH   7  11
HETATM   11  C12 UNL     1      10.661  38.289  -4.097  1.00  0.00     0.278 C 
HETATM   12  O1  UNL     1      10.996  38.949  -2.899  1.00  0.00    -0.352 OA
HETATM   13  C13 UNL     1      10.322  38.213  -1.924  1.00  0.00     0.179 C 
HETATM   14  C15 UNL     1       8.979  37.873  -2.507  1.00  0.00     0.182 C 
HETATM   15  C16 UNL     1       9.171  38.199  -3.986  1.00  0.00     0.200 C 
BRANCH  13  16
HETATM   16  C14 UNL     1      10.136  38.968  -0.643  1.00  0.00     0.198 C 
BRANCH  16  17
HETATM   17  O2  UNL     1       9.493  38.146   0.258  1.00  0.00    -0.398 OA
ATOM     18  H2  UNL     1      10.141  37.787   0.853  1.00  0.00     0.209 HD
ENDBRANCH  16  17
ENDBRANCH  13  16
BRANCH  14  19
HETATM   19  O3  UNL     1       8.809  36.483  -2.348  1.00  0.00    -0.390 OA
ATOM     20  H3  UNL     1       8.042  36.243  -2.855  1.00  0.00     0.210 HD
ENDBRANCH  14  19
BRANCH  15  21
HETATM   21  O4  UNL     1       8.595  39.413  -4.320  1.00  0.00    -0.388 OA
ATOM     22  H4  UNL     1       7.737  39.489  -3.919  1.00  0.00     0.210 HD
ENDBRANCH  15  21
ENDBRANCH   7  11
BRANCH   1  23
HETATM   23  C9  UNL     1      13.313  38.827  -9.638  1.00  0.00     0.076 C 
BRANCH  23  24
HETATM   24  C8  UNL     1      13.133  37.421 -10.133  1.00  0.00     0.007 C 
BRANCH  24  25
HETATM   25  C7  UNL     1      14.413  36.633 -10.130  1.00  0.00     0.000 C 
BRANCH  25  26
HETATM   26  C6  UNL     1      14.569  35.860 -11.422  1.00  0.00     0.000 C 
BRANCH  26  27
HETATM   27  C5  UNL     1      13.249  35.712 -12.142  1.00  0.00     0.000 C 
BRANCH  27  28
HETATM   28  C4  UNL     1      13.411  35.985 -13.615  1.00  0.00     0.000 C 
BRANCH  28  29
HETATM   29  C3  UNL     1      14.646  36.802 -13.877  1.00  0.00    -0.000 C 
BRANCH  29  30
HETATM   30  C2  UNL     1      14.270  38.161 -14.369  1.00  0.00    -0.005 C 
HETATM   31  C1  UNL     1      14.261  39.187 -13.253  1.00  0.00     0.005 C 
ENDBRANCH  29  30
ENDBRANCH  28  29
ENDBRANCH  27  28
ENDBRANCH  26  27
ENDBRANCH  25  26
ENDBRANCH  24  25
ENDBRANCH  23  24
ENDBRANCH   1  23
TORSDOF 13
ENDMDL
MODEL 3
REMARK VINA RESULT: -7.255133692      0.807      2.093
REMARK  13 active torsions:
REMARK  status: ('A' for Active; 'I' for Inactive)
REMARK    1  A    between atoms: C2_2  and  C3_3 
REMARK    2  A    between atoms: C3_3  and  C4_4 
REMARK    3  A    between atoms: C4_4  and  C5_5 
REMARK    4  A    between atoms: C5_5  and  C6_6 
REMARK    5  A    between atoms: C6_6  and  C7_7 
REMARK    6  A    between atoms: C7_7  and  C8_8 
REMARK    7  A    between atoms: C8_8  and  C9_9 
REMARK    8  A    between atoms: C9_9  and  C10_10 
REMARK    9  A    between atoms: N3_16  and  C12_17 
REMARK   10  A    between atoms: C13_19  and  C14_20 
REMARK   11  A    between atoms: C14_20  and  O2_21 
REMARK   12  A    between atoms: C15_23  and  O3_24 
REMARK   13  A    between atoms: C16_26  and  O4_27 
ROOT
HETATM    1  C10 UNL     1      12.239  38.651  -7.129  1.00  0.00     0.084 A 
HETATM    2  N1  UNL     1      11.455  39.697  -6.900  1.00  0.00    -0.328 N 
ATOM      3  H1  UNL     1      11.307  40.474  -7.544  1.00  0.00     0.169 HD
HETATM    4  C11 UNL     1      10.886  39.574  -5.688  1.00  0.00     0.168 A 
HETATM    5  N2  UNL     1      10.175  39.749  -4.561  1.00  0.00    -0.276 N 
ATOM      6  H2  UNL     1       9.539  40.474  -4.231  1.00  0.00     0.189 HD
HETATM    7  N3  UNL     1      10.619  38.614  -4.048  1.00  0.00    -0.239 N 
HETATM    8  C17 UNL     1      11.350  38.397  -5.163  1.00  0.00     0.172 A 
HETATM    9  N4  UNL     1      12.179  37.855  -6.073  1.00  0.00    -0.328 N 
ATOM     10  H4  UNL     1      12.680  36.973  -5.967  1.00  0.00     0.169 HD
ENDROOT
BRANCH   7  11
HETATM   11  C12 UNL     1      10.453  37.849  -2.830  1.00  0.00     0.278 C 
HETATM   12  O1  UNL     1      10.574  38.668  -1.691  1.00  0.00    -0.352 OA
HETATM   13  C13 UNL     1      10.059  37.874  -0.666  1.00  0.00     0.179 C 
HETATM   14  C15 UNL     1       8.860  37.172  -1.239  1.00  0.00     0.182 C 
HETATM   15  C16 UNL     1       9.025  37.411  -2.737  1.00  0.00     0.200 C 
BRANCH  13  16
HETATM   16  C14 UNL     1       9.648  38.665   0.540  1.00  0.00     0.198 C 
BRANCH  16  17
HETATM   17  O2  UNL     1       8.689  37.950   1.224  1.00  0.00    -0.398 OA
ATOM     18  H2  UNL     1       8.926  37.934   2.144  1.00  0.00     0.209 HD
ENDBRANCH  16  17
ENDBRANCH  13  16
BRANCH  14  19
HETATM   19  O3  UNL     1       9.022  35.800  -0.958  1.00  0.00    -0.390 OA
ATOM     20  H3  UNL     1       8.178  35.391  -1.107  1.00  0.00     0.210 HD
ENDBRANCH  14  19
BRANCH  15  21
HETATM   21  O4  UNL     1       8.189  38.417  -3.189  1.00  0.00    -0.388 OA
ATOM     22  H4  UNL     1       8.214  39.156  -2.593  1.00  0.00     0.210 HD
ENDBRANCH  15  21
ENDBRANCH   7  11
BRANCH   1  23
HETATM   23  C9  UNL     1      13.019  38.489  -8.401  1.00  0.00     0.076 C 
BRANCH  23  24
HETATM   24  C8  UNL     1      12.972  39.742  -9.229  1.00  0.00     0.007 C 
BRANCH  24  25
HETATM   25  C7  UNL     1      14.306  40.096  -9.827  1.00  0.00     0.000 C 
BRANCH  25  26
HETATM   26  C6  UNL     1      14.261  39.988 -11.336  1.00  0.00     0.000 C 
BRANCH  26  27
HETATM   27  C5  UNL     1      14.802  38.661 -11.813  1.00  0.00     0.000 C 
BRANCH  27  28
HETATM   28  C4  UNL     1      13.726  37.860 -12.498  1.00  0.00     0.000 C 
BRANCH  28  29
HETATM   29  C3  UNL     1      13.345  36.660 -11.675  1.00  0.00    -0.000 C 
BRANCH  29  30
HETATM   30  C2  UNL     1      13.338  35.433 -12.528  1.00  0.00    -0.005 C 
HETATM   31  C1  UNL     1      13.362  35.769 -14.006  1.00  0.00     0.005 C 
ENDBRANCH  29  30
ENDBRANCH  28  29
ENDBRANCH  27  28
ENDBRANCH  26  27
ENDBRANCH  25  26
ENDBRANCH  24  25
ENDBRANCH  23  24
ENDBRANCH   1  23
TORSDOF 13
ENDMDL
MODEL 4
REMARK VINA RESULT: -7.243717255      1.405      2.922
REMARK  13 active torsions:
REMARK  status: ('A' for Active; 'I' for Inactive)
REMARK    1  A    between atoms: C2_2  and  C3_3 
REMARK    2  A    between atoms: C3_3  and  C4_4 
REMARK    3  A    between atoms: C4_4  and  C5_5 
REMARK    4  A    between atoms: C5_5  and  C6_6 
REMARK    5  A    between atoms: C6_6  and  C7_7 
REMARK    6  A    between atoms: C7_7  and  C8_8 
REMARK    7  A    between atoms: C8_8  and  C9_9 
REMARK    8  A    between atoms: C9_9  and  C10_10 
REMARK    9  A    between atoms: N3_16  and  C12_17 
REMARK   10  A    between atoms: C13_19  and  C14_20 
REMARK   11  A    between atoms: C14_20  and  O2_21 
REMARK   12  A    between atoms: C15_23  and  O3_24 
REMARK   13  A    between atoms: C16_26  and  O4_27 
ROOT
HETATM    1  C10 UNL     1      12.070  40.147  -7.688  1.00  0.00     0.084 A 
HETATM    2  N1  UNL     1      12.577  38.945  -7.446  1.00  0.00    -0.328 N 
ATOM      3  H1  UNL     1      13.274  38.473  -8.021  1.00  0.00     0.169 HD
HETATM    4  C11 UNL     1      12.028  38.444  -6.325  1.00  0.00     0.168 A 
HETATM    5  N2  UNL     1      11.683  37.680  -5.275  1.00  0.00    -0.276 N 
ATOM      6  H2  UNL     1      11.967  36.757  -4.947  1.00  0.00     0.189 HD
HETATM    7  N3  UNL     1      10.832  38.591  -4.831  1.00  0.00    -0.239 N 
HETATM    8  C17 UNL     1      11.150  39.393  -5.871  1.00  0.00     0.172 A 
HETATM    9  N4  UNL     1      11.200  40.426  -6.731  1.00  0.00    -0.328 N 
ATOM     10  H4  UNL     1      10.655  41.284  -6.657  1.00  0.00     0.169 HD
ENDROOT
BRANCH   7  11
HETATM   11  C12 UNL     1       9.915  38.753  -3.723  1.00  0.00     0.278 C 
HETATM   12  O1  UNL     1       9.552  37.508  -3.173  1.00  0.00    -0.352 OA
HETATM   13  C13 UNL     1       8.973  37.852  -1.950  1.00  0.00     0.179 C 
HETATM   14  C15 UNL     1       9.814  38.960  -1.382  1.00  0.00     0.182 C 
HETATM   15  C16 UNL     1      10.655  39.382  -2.584  1.00  0.00     0.200 C 
BRANCH  13  16
HETATM   16  C14 UNL     1       8.928  36.709  -0.981  1.00  0.00     0.198 C 
BRANCH  16  17
HETATM   17  O2  UNL     1       8.436  35.601  -1.636  1.00  0.00    -0.398 OA
ATOM     18  H2  UNL     1       7.769  35.202  -1.091  1.00  0.00     0.209 HD
ENDBRANCH  16  17
ENDBRANCH  13  16
BRANCH  14  19
HETATM   19  O3  UNL     1       8.930  40.002  -1.036  1.00  0.00    -0.390 OA
ATOM     20  H3  UNL     1       9.301  40.802  -1.388  1.00  0.00     0.210 HD
ENDBRANCH  14  19
BRANCH  15  21
HETATM   21  O4  UNL     1      11.940  38.872  -2.512  1.00  0.00    -0.388 OA
ATOM     22  H4  UNL     1      11.961  38.117  -1.934  1.00  0.00     0.210 HD
ENDBRANCH  15  21
ENDBRANCH   7  11
BRANCH   1  23
HETATM   23  C9  UNL     1      12.481  40.973  -8.872  1.00  0.00     0.076 C 
BRANCH  23  24
HETATM   24  C8  UNL     1      13.782  40.490  -9.446  1.00  0.00     0.007 C 
BRANCH  24  25
HETATM   25  C7  UNL     1      13.740  40.339 -10.941  1.00  0.00     0.000 C 
BRANCH  25  26
HETATM   26  C6  UNL     1      14.240  38.971 -11.354  1.00  0.00     0.000 C 
BRANCH  26  27
HETATM   27  C5  UNL     1      13.387  37.870 -10.771  1.00  0.00     0.000 C 
BRANCH  27  28
HETATM   28  C4  UNL     1      14.231  36.676 -10.408  1.00  0.00     0.000 C 
BRANCH  28  29
HETATM   29  C3  UNL     1      14.563  35.862 -11.628  1.00  0.00    -0.000 C 
BRANCH  29  30
HETATM   30  C2  UNL     1      13.314  35.508 -12.367  1.00  0.00    -0.005 C 
HETATM   31  C1  UNL     1      13.408  35.854 -13.841  1.00  0.00     0.005 C 
ENDBRANCH  29  30
ENDBRANCH  28  29
ENDBRANCH  27  28
ENDBRANCH  26  27
ENDBRANCH  25  26
ENDBRANCH  24  25
ENDBRANCH  23  24
ENDBRANCH   1  23
TORSDOF 13
ENDMDL
MODEL 5
REMARK VINA RESULT: -7.231539253      0.715      1.081
REMARK  13 active torsions:
REMARK  status: ('A' for Active; 'I' for Inactive)
REMARK    1  A    between atoms: C2_2  and  C3_3 
REMARK    2  A    between atoms: C3_3  and  C4_4 
REMARK    3  A    between atoms: C4_4  and  C5_5 
REMARK    4  A    between atoms: C5_5  and  C6_6 
REMARK    5  A    between atoms: C6_6  and  C7_7 
REMARK    6  A    between atoms: C7_7  and  C8_8 
REMARK    7  A    between atoms: C8_8  and  C9_9 
REMARK    8  A    between atoms: C9_9  and  C10_10 
REMARK    9  A    between atoms: N3_16  and  C12_17 
REMARK   10  A    between atoms: C13_19  and  C14_20 
REMARK   11  A    between atoms: C14_20  and  O2_21 
REMARK   12  A    between atoms: C15_23  and  O3_24 
REMARK   13  A    between atoms: C16_26  and  O4_27 
ROOT
HETATM    1  C10 UNL     1      12.208  38.696  -7.492  1.00  0.00     0.084 A 
HETATM    2  N1  UNL     1      11.460  39.766  -7.255  1.00  0.00    -0.328 N 
ATOM      3  H1  UNL     1      11.302  40.531  -7.910  1.00  0.00     0.169 HD
HETATM    4  C11 UNL     1      10.943  39.686  -6.016  1.00  0.00     0.168 A 
HETATM    5  N2  UNL     1      10.287  39.904  -4.864  1.00  0.00    -0.276 N 
ATOM      6  H2  UNL     1       9.684  40.652  -4.523  1.00  0.00     0.189 HD
HETATM    7  N3  UNL     1      10.727  38.770  -4.343  1.00  0.00    -0.239 N 
HETATM    8  C17 UNL     1      11.402  38.509  -5.484  1.00  0.00     0.172 A 
HETATM    9  N4  UNL     1      12.176  37.926  -6.416  1.00  0.00    -0.328 N 
ATOM     10  H4  UNL     1      12.660  37.035  -6.310  1.00  0.00     0.169 HD
ENDROOT
BRANCH   7  11
HETATM   11  C12 UNL     1      10.597  38.038  -3.100  1.00  0.00     0.278 C 
HETATM   12  O1  UNL     1      10.676  38.899  -1.989  1.00  0.00    -0.352 OA
HETATM   13  C13 UNL     1      10.199  38.114  -0.938  1.00  0.00     0.179 C 
HETATM   14  C15 UNL     1       9.037  37.336  -1.487  1.00  0.00     0.182 C 
HETATM   15  C16 UNL     1       9.192  37.534  -2.993  1.00  0.00     0.200 C 
BRANCH  13  16
HETATM   16  C14 UNL     1       9.748  38.923   0.241  1.00  0.00     0.198 C 
BRANCH  16  17
HETATM   17  O2  UNL     1       9.019  38.106   1.077  1.00  0.00    -0.398 OA
ATOM     18  H2  UNL     1       8.870  38.567   1.893  1.00  0.00     0.209 HD
ENDBRANCH  16  17
ENDBRANCH  13  16
BRANCH  14  19
HETATM   19  O3  UNL     1       9.266  35.984  -1.163  1.00  0.00    -0.390 OA
ATOM     20  H3  UNL     1       9.254  35.502  -1.981  1.00  0.00     0.210 HD
ENDBRANCH  14  19
BRANCH  15  21
HETATM   21  O4  UNL     1       8.308  38.482  -3.477  1.00  0.00    -0.388 OA
ATOM     22  H4  UNL     1       7.467  38.399  -3.040  1.00  0.00     0.210 HD
ENDBRANCH  15  21
ENDBRANCH   7  11
BRANCH   1  23
HETATM   23  C9  UNL     1      12.927  38.485  -8.793  1.00  0.00     0.076 C 
BRANCH  23  24
HETATM   24  C8  UNL     1      14.085  37.543  -8.627  1.00  0.00     0.007 C 
BRANCH  24  25
HETATM   25  C7  UNL     1      14.451  36.838  -9.903  1.00  0.00     0.000 C 
BRANCH  25  26
HETATM   26  C6  UNL     1      13.283  36.834 -10.866  1.00  0.00     0.000 C 
BRANCH  26  27
HETATM   27  C5  UNL     1      13.490  35.840 -11.985  1.00  0.00     0.000 C 
BRANCH  27  28
HETATM   28  C4  UNL     1      13.446  36.527 -13.325  1.00  0.00     0.000 C 
BRANCH  28  29
HETATM   29  C3  UNL     1      14.619  37.454 -13.492  1.00  0.00    -0.000 C 
BRANCH  29  30
HETATM   30  C2  UNL     1      14.148  38.811 -13.902  1.00  0.00    -0.005 C 
HETATM   31  C1  UNL     1      14.186  39.797 -12.750  1.00  0.00     0.005 C 
ENDBRANCH  29  30
ENDBRANCH  28  29
ENDBRANCH  27  28
ENDBRANCH  26  27
ENDBRANCH  25  26
ENDBRANCH  24  25
ENDBRANCH  23  24
ENDBRANCH   1  23
TORSDOF 13
ENDMDL
