MODEL 1
REMARK VINA RESULT: -7.027948182      0.000      0.000
REMARK  14 active torsions:
REMARK  status: ('A' for Active; 'I' for Inactive)
REMARK    1  A    between atoms: C2_2  and  C3_3 
REMARK    2  A    between atoms: C3_3  and  C4_4 
REMARK    3  A    between atoms: C4_4  and  C5_5 
REMARK    4  A    between atoms: C8_8  and  C9_9 
REMARK    5  A    between atoms: C9_9  and  O1_10 
REMARK    6  A    between atoms: C10_12  and  C11_13 
REMARK    7  A    between atoms: C11_13  and  C12_14 
REMARK    8  A    between atoms: C12_14  and  C13_15 
REMARK    9  A    between atoms: C13_15  and  C14_16 
REMARK   10  A    between atoms: C15_18  and  C16_19 
REMARK   11  A    between atoms: C16_19  and  O3_20 
REMARK   12  A    between atoms: C17_22  and  O4_23 
REMARK   13  A    between atoms: C18_25  and  O5_26 
REMARK   14  A    between atoms: C19_28  and  O6_29 
ROOT
HETATM    1  C14 UNL     1      13.114  40.097  -9.570  1.00  0.00     0.153 C 
HETATM    2  O2  UNL     1      12.405  39.256  -8.738  1.00  0.00    -0.373 OA
HETATM    3  C15 UNL     1      12.581  39.499  -7.396  1.00  0.00     0.176 C 
HETATM    4  C17 UNL     1      12.026  40.853  -7.014  1.00  0.00     0.180 C 
HETATM    5  C18 UNL     1      11.846  41.707  -8.253  1.00  0.00     0.180 C 
HETATM    6  C19 UNL     1      13.109  41.541  -9.082  1.00  0.00     0.178 C 
ENDROOT
BRANCH   1   7
HETATM    7  C13 UNL     1      14.528  39.614  -9.682  1.00  0.00     0.035 C 
BRANCH   7   8
HETATM    8  C12 UNL     1      14.858  39.516 -11.185  1.00  0.00     0.003 C 
BRANCH   8   9
HETATM    9  C11 UNL     1      13.663  38.910 -11.822  1.00  0.00     0.005 C 
BRANCH   9  10
HETATM   10  C10 UNL     1      13.917  37.722 -12.712  1.00  0.00    -0.004 C 
HETATM   11  C5  UNL     1      15.437  37.677 -12.897  1.00  0.00    -0.010 C 
HETATM   12  C6  UNL     1      15.876  36.338 -12.348  1.00  0.00     0.005 C 
HETATM   13  C7  UNL     1      14.751  35.923 -11.398  1.00  0.00     0.007 C 
HETATM   14  C8  UNL     1      13.492  36.473 -12.038  1.00  0.00     0.014 C 
BRANCH  11  15
HETATM   15  C4  UNL     1      15.821  37.860 -14.334  1.00  0.00     0.005 C 
BRANCH  15  16
HETATM   16  C3  UNL     1      14.609  37.966 -15.232  1.00  0.00     0.000 C 
BRANCH  16  17
HETATM   17  C2  UNL     1      14.721  37.059 -16.430  1.00  0.00    -0.005 C 
HETATM   18  C1  UNL     1      15.157  35.690 -15.997  1.00  0.00     0.005 C 
ENDBRANCH  16  17
ENDBRANCH  15  16
ENDBRANCH  11  15
BRANCH  14  19
HETATM   19  C9  UNL     1      13.011  35.402 -12.992  1.00  0.00     0.169 C 
BRANCH  19  20
HETATM   20  O1  UNL     1      13.039  34.195 -12.279  1.00  0.00    -0.400 OA
ATOM     21  H1  UNL     1      12.691  33.531 -12.862  1.00  0.00     0.209 HD
ENDBRANCH  19  20
ENDBRANCH  14  19
ENDBRANCH   9  10
ENDBRANCH   8   9
ENDBRANCH   7   8
ENDBRANCH   1   7
BRANCH   6  22
HETATM   22  O6  UNL     1      13.095  42.367 -10.190  1.00  0.00    -0.390 OA
ATOM     23  H6  UNL     1      13.951  42.773 -10.265  1.00  0.00     0.210 HD
ENDBRANCH   6  22
BRANCH   3  24
HETATM   24  C16 UNL     1      11.815  38.408  -6.644  1.00  0.00     0.198 C 
BRANCH  24  25
HETATM   25  O3  UNL     1      10.546  38.248  -7.195  1.00  0.00    -0.398 OA
ATOM     26  H3  UNL     1       9.999  37.736  -6.612  1.00  0.00     0.209 HD
ENDBRANCH  24  25
ENDBRANCH   3  24
BRANCH   5  27
HETATM   27  O5  UNL     1      11.609  43.026  -7.917  1.00  0.00    -0.390 OA
ATOM     28  H5  UNL     1      11.336  43.528  -8.676  1.00  0.00     0.210 HD
ENDBRANCH   5  27
BRANCH   4  29
HETATM   29  O4  UNL     1      12.940  41.499  -6.180  1.00  0.00    -0.390 OA
ATOM     30  H4  UNL     1      12.986  41.033  -5.353  1.00  0.00     0.210 HD
ENDBRANCH   4  29
TORSDOF 14
ENDMDL
MODEL 2
REMARK VINA RESULT: -7.011881383      0.697      1.183
REMARK  14 active torsions:
REMARK  status: ('A' for Active; 'I' for Inactive)
REMARK    1  A    between atoms: C2_2  and  C3_3 
REMARK    2  A    between atoms: C3_3  and  C4_4 
REMARK    3  A    between atoms: C4_4  and  C5_5 
REMARK    4  A    between atoms: C8_8  and  C9_9 
REMARK    5  A    between atoms: C9_9  and  O1_10 
REMARK    6  A    between atoms: C10_12  and  C11_13 
REMARK    7  A    between atoms: C11_13  and  C12_14 
REMARK    8  A    between atoms: C12_14  and  C13_15 
REMARK    9  A    between atoms: C13_15  and  C14_16 
REMARK   10  A    between atoms: C15_18  and  C16_19 
REMARK   11  A    between atoms: C16_19  and  O3_20 
REMARK   12  A    between atoms: C17_22  and  O4_23 
REMARK   13  A    between atoms: C18_25  and  O5_26 
REMARK   14  A    between atoms: C19_28  and  O6_29 
ROOT
HETATM    1  C14 UNL     1      13.075  40.312  -9.471  1.00  0.00     0.153 C 
HETATM    2  O2  UNL     1      12.369  39.424  -8.686  1.00  0.00    -0.373 OA
HETATM    3  C15 UNL     1      12.582  39.562  -7.335  1.00  0.00     0.176 C 
HETATM    4  C17 UNL     1      12.063  40.894  -6.840  1.00  0.00     0.180 C 
HETATM    5  C18 UNL     1      11.870  41.841  -8.006  1.00  0.00     0.180 C 
HETATM    6  C19 UNL     1      13.110  41.715  -8.877  1.00  0.00     0.178 C 
ENDROOT
BRANCH   1   7
HETATM    7  C13 UNL     1      14.476  39.814  -9.653  1.00  0.00     0.035 C 
BRANCH   7   8
HETATM    8  C12 UNL     1      14.692  39.603 -11.166  1.00  0.00     0.003 C 
BRANCH   8   9
HETATM    9  C11 UNL     1      13.540  38.789 -11.627  1.00  0.00     0.005 C 
BRANCH   9  10
HETATM   10  C10 UNL     1      13.858  37.686 -12.602  1.00  0.00    -0.004 C 
HETATM   11  C5  UNL     1      15.370  37.777 -12.834  1.00  0.00    -0.010 C 
HETATM   12  C6  UNL     1      15.932  36.446 -12.389  1.00  0.00     0.005 C 
HETATM   13  C7  UNL     1      14.877  35.880 -11.437  1.00  0.00     0.007 C 
HETATM   14  C8  UNL     1      13.557  36.366 -12.001  1.00  0.00     0.014 C 
BRANCH  11  15
HETATM   15  C4  UNL     1      15.688  38.083 -14.266  1.00  0.00     0.005 C 
BRANCH  15  16
HETATM   16  C3  UNL     1      14.437  38.241 -15.101  1.00  0.00     0.000 C 
BRANCH  16  17
HETATM   17  C2  UNL     1      14.403  39.570 -15.809  1.00  0.00    -0.005 C 
HETATM   18  C1  UNL     1      13.652  40.573 -14.985  1.00  0.00     0.005 C 
ENDBRANCH  16  17
ENDBRANCH  15  16
ENDBRANCH  11  15
BRANCH  14  19
HETATM   19  C9  UNL     1      13.130  35.323 -13.011  1.00  0.00     0.169 C 
BRANCH  19  20
HETATM   20  O1  UNL     1      13.010  34.116 -12.307  1.00  0.00    -0.400 OA
ATOM     21  H1  UNL     1      12.936  33.431 -12.960  1.00  0.00     0.209 HD
ENDBRANCH  19  20
ENDBRANCH  14  19
ENDBRANCH   9  10
ENDBRANCH   8   9
ENDBRANCH   7   8
ENDBRANCH   1   7
BRANCH   6  22
HETATM   22  O6  UNL     1      13.087  42.622  -9.919  1.00  0.00    -0.390 OA
ATOM     23  H6  UNL     1      13.799  43.237  -9.790  1.00  0.00     0.210 HD
ENDBRANCH   6  22
BRANCH   3  24
HETATM   24  C16 UNL     1      11.812  38.433  -6.647  1.00  0.00     0.198 C 
BRANCH  24  25
HETATM   25  O3  UNL     1      10.593  38.225  -7.288  1.00  0.00    -0.398 OA
ATOM     26  H3  UNL     1      10.405  37.295  -7.337  1.00  0.00     0.209 HD
ENDBRANCH  24  25
ENDBRANCH   3  24
BRANCH   5  27
HETATM   27  O5  UNL     1      11.667  43.136  -7.568  1.00  0.00    -0.390 OA
ATOM     28  H5  UNL     1      10.809  43.452  -7.822  1.00  0.00     0.210 HD
ENDBRANCH   5  27
BRANCH   4  29
HETATM   29  O4  UNL     1      13.008  41.459  -5.982  1.00  0.00    -0.390 OA
ATOM     30  H4  UNL     1      13.014  42.401  -6.106  1.00  0.00     0.210 HD
ENDBRANCH   4  29
TORSDOF 14
ENDMDL
MODEL 3
REMARK VINA RESULT: -6.936951483      1.642      3.024
REMARK  14 active torsions:
REMARK  status: ('A' for Active; 'I' for Inactive)
REMARK    1  A    between atoms: C2_2  and  C3_3 
REMARK    2  A    between atoms: C3_3  and  C4_4 
REMARK    3  A    between atoms: C4_4  and  C5_5 
REMARK    4  A    between atoms: C8_8  and  C9_9 
REMARK    5  A    between atoms: C9_9  and  O1_10 
REMARK    6  A    between atoms: C10_12  and  C11_13 
REMARK    7  A    between atoms: C11_13  and  C12_14 
REMARK    8  A    between atoms: C12_14  and  C13_15 
REMARK    9  A    between atoms: C13_15  and  C14_16 
REMARK   10  A    between atoms: C15_18  and  C16_19 
REMARK   11  A    between atoms: C16_19  and  O3_20 
REMARK   12  A    between atoms: C17_22  and  O4_23 
REMARK   13  A    between atoms: C18_25  and  O5_26 
REMARK   14  A    between atoms: C19_28  and  O6_29 
ROOT
HETATM    1  C14 UNL     1      13.751  39.437  -9.233  1.00  0.00     0.153 C 
HETATM    2  O2  UNL     1      13.267  40.540  -8.561  1.00  0.00    -0.373 OA
HETATM    3  C15 UNL     1      11.952  40.441  -8.173  1.00  0.00     0.176 C 
HETATM    4  C17 UNL     1      11.773  39.348  -7.143  1.00  0.00     0.180 C 
HETATM    5  C18 UNL     1      12.966  38.414  -7.165  1.00  0.00     0.180 C 
HETATM    6  C19 UNL     1      13.264  38.125  -8.628  1.00  0.00     0.178 C 
ENDROOT
BRANCH   1   7
HETATM    7  C13 UNL     1      13.334  39.505 -10.670  1.00  0.00     0.035 C 
BRANCH   7   8
HETATM    8  C12 UNL     1      14.599  39.273 -11.523  1.00  0.00     0.003 C 
BRANCH   8   9
HETATM    9  C11 UNL     1      14.112  38.885 -12.869  1.00  0.00     0.005 C 
BRANCH   9  10
HETATM   10  C10 UNL     1      14.651  37.591 -13.420  1.00  0.00    -0.004 C 
HETATM   11  C5  UNL     1      15.498  36.995 -12.292  1.00  0.00    -0.010 C 
HETATM   12  C6  UNL     1      14.868  35.659 -11.970  1.00  0.00     0.005 C 
HETATM   13  C7  UNL     1      13.433  35.775 -12.486  1.00  0.00     0.007 C 
HETATM   14  C8  UNL     1      13.541  36.655 -13.714  1.00  0.00     0.014 C 
BRANCH  11  15
HETATM   15  C4  UNL     1      16.936  36.869 -12.693  1.00  0.00     0.005 C 
BRANCH  15  16
HETATM   16  C3  UNL     1      17.180  37.394 -14.090  1.00  0.00     0.000 C 
BRANCH  16  17
HETATM   17  C2  UNL     1      18.283  38.420 -14.115  1.00  0.00    -0.005 C 
HETATM   18  C1  UNL     1      17.994  39.509 -13.126  1.00  0.00     0.005 C 
ENDBRANCH  16  17
ENDBRANCH  15  16
ENDBRANCH  11  15
BRANCH  14  19
HETATM   19  C9  UNL     1      13.825  35.721 -14.870  1.00  0.00     0.169 C 
BRANCH  19  20
HETATM   20  O1  UNL     1      12.708  34.881 -14.984  1.00  0.00    -0.400 OA
ATOM     21  H1  UNL     1      12.993  34.017 -14.711  1.00  0.00     0.209 HD
ENDBRANCH  19  20
ENDBRANCH  14  19
ENDBRANCH   9  10
ENDBRANCH   8   9
ENDBRANCH   7   8
ENDBRANCH   1   7
BRANCH   6  22
HETATM   22  O6  UNL     1      14.274  37.192  -8.760  1.00  0.00    -0.390 OA
ATOM     23  H6  UNL     1      14.871  37.299  -8.029  1.00  0.00     0.210 HD
ENDBRANCH   6  22
BRANCH   3  24
HETATM   24  C16 UNL     1      11.571  41.787  -7.552  1.00  0.00     0.198 C 
BRANCH  24  25
HETATM   25  O3  UNL     1      10.934  41.587  -6.330  1.00  0.00    -0.398 OA
ATOM     26  H3  UNL     1      10.262  42.245  -6.200  1.00  0.00     0.209 HD
ENDBRANCH  24  25
ENDBRANCH   3  24
BRANCH   5  27
HETATM   27  O5  UNL     1      12.711  37.264  -6.444  1.00  0.00    -0.390 OA
ATOM     28  H5  UNL     1      13.079  36.501  -6.876  1.00  0.00     0.210 HD
ENDBRANCH   5  27
BRANCH   4  29
HETATM   29  O4  UNL     1      10.640  38.600  -7.467  1.00  0.00    -0.390 OA
ATOM     30  H4  UNL     1      10.854  37.676  -7.415  1.00  0.00     0.210 HD
ENDBRANCH   4  29
TORSDOF 14
ENDMDL
MODEL 4
REMARK VINA RESULT: -6.903655849      1.603      2.327
REMARK  14 active torsions:
REMARK  status: ('A' for Active; 'I' for Inactive)
REMARK    1  A    between atoms: C2_2  and  C3_3 
REMARK    2  A    between atoms: C3_3  and  C4_4 
REMARK    3  A    between atoms: C4_4  and  C5_5 
REMARK    4  A    between atoms: C8_8  and  C9_9 
REMARK    5  A    between atoms: C9_9  and  O1_10 
REMARK    6  A    between atoms: C10_12  and  C11_13 
REMARK    7  A    between atoms: C11_13  and  C12_14 
REMARK    8  A    between atoms: C12_14  and  C13_15 
REMARK    9  A    between atoms: C13_15  and  C14_16 
REMARK   10  A    between atoms: C15_18  and  C16_19 
REMARK   11  A    between atoms: C16_19  and  O3_20 
REMARK   12  A    between atoms: C17_22  and  O4_23 
REMARK   13  A    between atoms: C18_25  and  O5_26 
REMARK   14  A    between atoms: C19_28  and  O6_29 
ROOT
HETATM    1  C14 UNL     1      12.824  38.790  -8.997  1.00  0.00     0.153 C 
HETATM    2  O2  UNL     1      12.037  38.282  -7.985  1.00  0.00    -0.373 OA
HETATM    3  C15 UNL     1      12.220  38.885  -6.762  1.00  0.00     0.176 C 
HETATM    4  C17 UNL     1      11.779  40.332  -6.802  1.00  0.00     0.180 C 
HETATM    5  C18 UNL     1      11.686  40.806  -8.238  1.00  0.00     0.180 C 
HETATM    6  C19 UNL     1      12.939  40.309  -8.941  1.00  0.00     0.178 C 
ENDROOT
BRANCH   1   7
HETATM    7  C13 UNL     1      14.193  38.185  -8.917  1.00  0.00     0.035 C 
BRANCH   7   8
HETATM    8  C12 UNL     1      14.205  36.960  -9.854  1.00  0.00     0.003 C 
BRANCH   8   9
HETATM    9  C11 UNL     1      13.707  37.449 -11.163  1.00  0.00     0.005 C 
BRANCH   9  10
HETATM   10  C10 UNL     1      14.673  37.355 -12.315  1.00  0.00    -0.004 C 
HETATM   11  C5  UNL     1      13.797  37.229 -13.566  1.00  0.00    -0.010 C 
HETATM   12  C6  UNL     1      14.140  38.423 -14.427  1.00  0.00     0.005 C 
HETATM   13  C7  UNL     1      14.737  39.442 -13.454  1.00  0.00     0.007 C 
HETATM   14  C8  UNL     1      15.465  38.602 -12.425  1.00  0.00     0.014 C 
BRANCH  11  15
HETATM   15  C4  UNL     1      14.031  35.928 -14.270  1.00  0.00     0.005 C 
BRANCH  15  16
HETATM   16  C3  UNL     1      14.124  36.107 -15.769  1.00  0.00     0.000 C 
BRANCH  16  17
HETATM   17  C2  UNL     1      15.302  35.367 -16.347  1.00  0.00    -0.005 C 
HETATM   18  C1  UNL     1      16.581  35.931 -15.802  1.00  0.00     0.005 C 
ENDBRANCH  16  17
ENDBRANCH  15  16
ENDBRANCH  11  15
BRANCH  14  19
HETATM   19  C9  UNL     1      16.859  38.390 -12.974  1.00  0.00     0.169 C 
BRANCH  19  20
HETATM   20  O1  UNL     1      17.288  37.143 -12.495  1.00  0.00    -0.400 OA
ATOM     21  H1  UNL     1      17.247  37.192 -11.548  1.00  0.00     0.209 HD
ENDBRANCH  19  20
ENDBRANCH  14  19
ENDBRANCH   9  10
ENDBRANCH   8   9
ENDBRANCH   7   8
ENDBRANCH   1   7
BRANCH   6  22
HETATM   22  O6  UNL     1      13.007  40.781 -10.238  1.00  0.00    -0.390 OA
ATOM     23  H6  UNL     1      13.243  41.700 -10.205  1.00  0.00     0.210 HD
ENDBRANCH   6  22
BRANCH   3  24
HETATM   24  C16 UNL     1      11.355  38.121  -5.757  1.00  0.00     0.198 C 
BRANCH  24  25
HETATM   25  O3  UNL     1      10.016  38.179  -6.137  1.00  0.00    -0.398 OA
ATOM     26  H3  UNL     1       9.559  37.401  -5.840  1.00  0.00     0.209 HD
ENDBRANCH  24  25
ENDBRANCH   3  24
BRANCH   5  27
HETATM   27  O5  UNL     1      11.560  42.180  -8.301  1.00  0.00    -0.390 OA
ATOM     28  H5  UNL     1      11.088  42.445  -9.082  1.00  0.00     0.210 HD
ENDBRANCH   5  27
BRANCH   4  29
HETATM   29  O4  UNL     1      12.736  41.116  -6.155  1.00  0.00    -0.390 OA
ATOM     30  H4  UNL     1      13.028  40.663  -5.372  1.00  0.00     0.210 HD
ENDBRANCH   4  29
TORSDOF 14
ENDMDL
MODEL 5
REMARK VINA RESULT: -6.864156193      0.985      1.725
REMARK  14 active torsions:
REMARK  status: ('A' for Active; 'I' for Inactive)
REMARK    1  A    between atoms: C2_2  and  C3_3 
REMARK    2  A    between atoms: C3_3  and  C4_4 
REMARK    3  A    between atoms: C4_4  and  C5_5 
REMARK    4  A    between atoms: C8_8  and  C9_9 
REMARK    5  A    between atoms: C9_9  and  O1_10 
REMARK    6  A    between atoms: C10_12  and  C11_13 
REMARK    7  A    between atoms: C11_13  and  C12_14 
REMARK    8  A    between atoms: C12_14  and  C13_15 
REMARK    9  A    between atoms: C13_15  and  C14_16 
REMARK   10  A    between atoms: C15_18  and  C16_19 
REMARK   11  A    between atoms: C16_19  and  O3_20 
REMARK   12  A    between atoms: C17_22  and  O4_23 
REMARK   13  A    between atoms: C18_25  and  O5_26 
REMARK   14  A    between atoms: C19_28  and  O6_29 
ROOT
HETATM    1  C14 UNL     1      13.102  40.084  -9.546  1.00  0.00     0.153 C 
HETATM    2  O2  UNL     1      12.373  39.266  -8.710  1.00  0.00    -0.373 OA
HETATM    3  C15 UNL     1      12.556  39.510  -7.369  1.00  0.00     0.176 C 
HETATM    4  C17 UNL     1      12.036  40.881  -6.993  1.00  0.00     0.180 C 
HETATM    5  C18 UNL     1      11.877  41.733  -8.236  1.00  0.00     0.180 C 
HETATM    6  C19 UNL     1      13.135  41.530  -9.065  1.00  0.00     0.178 C 
ENDROOT
BRANCH   1   7
HETATM    7  C13 UNL     1      14.504  39.565  -9.656  1.00  0.00     0.035 C 
BRANCH   7   8
HETATM    8  C12 UNL     1      14.868  39.550 -11.155  1.00  0.00     0.003 C 
BRANCH   8   9
HETATM    9  C11 UNL     1      13.708  38.933 -11.844  1.00  0.00     0.005 C 
BRANCH   9  10
HETATM   10  C10 UNL     1      14.013  37.743 -12.716  1.00  0.00    -0.004 C 
HETATM   11  C5  UNL     1      15.542  37.672 -12.780  1.00  0.00    -0.010 C 
HETATM   12  C6  UNL     1      15.913  36.325 -12.202  1.00  0.00     0.005 C 
HETATM   13  C7  UNL     1      14.708  35.927 -11.347  1.00  0.00     0.007 C 
HETATM   14  C8  UNL     1      13.515  36.500 -12.083  1.00  0.00     0.014 C 
BRANCH  11  15
HETATM   15  C4  UNL     1      16.042  37.852 -14.180  1.00  0.00     0.005 C 
BRANCH  15  16
HETATM   16  C3  UNL     1      16.893  39.095 -14.320  1.00  0.00     0.000 C 
BRANCH  16  17
HETATM   17  C2  UNL     1      18.068  39.075 -13.377  1.00  0.00    -0.005 C 
HETATM   18  C1  UNL     1      18.174  40.389 -12.662  1.00  0.00     0.005 C 
ENDBRANCH  16  17
ENDBRANCH  15  16
ENDBRANCH  11  15
BRANCH  14  19
HETATM   19  C9  UNL     1      13.093  35.440 -13.077  1.00  0.00     0.169 C 
BRANCH  19  20
HETATM   20  O1  UNL     1      12.949  34.250 -12.349  1.00  0.00    -0.400 OA
ATOM     21  H1  UNL     1      12.022  34.045 -12.349  1.00  0.00     0.209 HD
ENDBRANCH  19  20
ENDBRANCH  14  19
ENDBRANCH   9  10
ENDBRANCH   8   9
ENDBRANCH   7   8
ENDBRANCH   1   7
BRANCH   6  22
HETATM   22  O6  UNL     1      13.141  42.351 -10.177  1.00  0.00    -0.390 OA
ATOM     23  H6  UNL     1      14.044  42.483 -10.440  1.00  0.00     0.210 HD
ENDBRANCH   6  22
BRANCH   3  24
HETATM   24  C16 UNL     1      11.763  38.444  -6.611  1.00  0.00     0.198 C 
BRANCH  24  25
HETATM   25  O3  UNL     1      10.527  38.243  -7.220  1.00  0.00    -0.398 OA
ATOM     26  H3  UNL     1      10.364  37.314  -7.329  1.00  0.00     0.209 HD
ENDBRANCH  24  25
ENDBRANCH   3  24
BRANCH   5  27
HETATM   27  O5  UNL     1      11.673  43.059  -7.907  1.00  0.00    -0.390 OA
ATOM     28  H5  UNL     1      10.943  43.424  -8.393  1.00  0.00     0.210 HD
ENDBRANCH   5  27
BRANCH   4  29
HETATM   29  O4  UNL     1      12.966  41.507  -6.162  1.00  0.00    -0.390 OA
ATOM     30  H4  UNL     1      12.682  42.399  -5.998  1.00  0.00     0.210 HD
ENDBRANCH   4  29
TORSDOF 14
ENDMDL
