MODEL 1
REMARK VINA RESULT: -7.467386146      0.000      0.000
REMARK  14 active torsions:
REMARK  status: ('A' for Active; 'I' for Inactive)
REMARK    1  A    between atoms: C2_2  and  C3_3 
REMARK    2  A    between atoms: C3_3  and  C4_4 
REMARK    3  A    between atoms: C4_4  and  C5_5 
REMARK    4  A    between atoms: C5_5  and  C6_6 
REMARK    5  A    between atoms: C6_6  and  C7_7 
REMARK    6  A    between atoms: C7_7  and  C8_8 
REMARK    7  A    between atoms: C8_8  and  C9_9 
REMARK    8  A    between atoms: C9_9  and  C10_10 
REMARK    9  A    between atoms: C10_10  and  C11_11 
REMARK   10  A    between atoms: C11_11  and  C12_12 
REMARK   11  A    between atoms: C15_17  and  O1_18 
REMARK   12  A    between atoms: C16_20  and  O2_21 
REMARK   13  A    between atoms: C17_23  and  O3_24 
REMARK   14  A    between atoms: C18_26  and  O4_27 
ROOT
HETATM    1  C12 UNL     1      14.128  38.708  -9.639  1.00  0.00     0.220 C 
HETATM    2  N1  UNL     1      14.795  37.468  -9.557  1.00  0.00    -0.376 N 
ATOM      3  H1  UNL     1      15.661  37.375  -9.027  1.00  0.00     0.161 HD
HETATM    4  C13 UNL     1      14.236  36.364 -10.223  1.00  0.00     0.068 C 
HETATM    5  C14 UNL     1      13.386  36.758 -11.384  1.00  0.00     0.087 C 
HETATM    6  C15 UNL     1      13.410  35.767 -12.495  1.00  0.00     0.161 C 
HETATM    7  C16 UNL     1      13.852  36.316 -13.814  1.00  0.00     0.178 C 
HETATM    8  C17 UNL     1      15.135  37.095 -13.618  1.00  0.00     0.180 C 
HETATM    9  C18 UNL     1      14.863  38.278 -12.752  1.00  0.00     0.179 C 
HETATM   10  C19 UNL     1      13.666  38.158 -11.870  1.00  0.00     0.167 C 
HETATM   11  O5  UNL     1      13.715  39.095 -10.895  1.00  0.00    -0.358 OA
ENDROOT
BRANCH   1  12
HETATM   12  C11 UNL     1      12.989  38.704  -8.640  1.00  0.00     0.054 C 
BRANCH  12  13
HETATM   13  C10 UNL     1      12.664  40.061  -8.127  1.00  0.00     0.004 C 
BRANCH  13  14
HETATM   14  C9  UNL     1      11.871  40.014  -6.866  1.00  0.00     0.000 C 
BRANCH  14  15
HETATM   15  C8  UNL     1      11.268  38.623  -6.705  1.00  0.00     0.000 C 
BRANCH  15  16
HETATM   16  C7  UNL     1      11.176  38.245  -5.250  1.00  0.00     0.000 C 
BRANCH  16  17
HETATM   17  C6  UNL     1      10.058  39.006  -4.601  1.00  0.00     0.000 C 
BRANCH  17  18
HETATM   18  C5  UNL     1       9.482  38.247  -3.458  1.00  0.00     0.000 C 
BRANCH  18  19
HETATM   19  C4  UNL     1       9.798  38.900  -2.119  1.00  0.00     0.000 C 
BRANCH  19  20
HETATM   20  C3  UNL     1      10.023  37.867  -1.032  1.00  0.00    -0.000 C 
BRANCH  20  21
HETATM   21  C2  UNL     1       9.925  36.465  -1.567  1.00  0.00    -0.005 C 
HETATM   22  C1  UNL     1       8.926  35.622  -0.830  1.00  0.00     0.005 C 
ENDBRANCH  20  21
ENDBRANCH  19  20
ENDBRANCH  18  19
ENDBRANCH  17  18
ENDBRANCH  16  17
ENDBRANCH  15  16
ENDBRANCH  14  15
ENDBRANCH  13  14
ENDBRANCH  12  13
ENDBRANCH   1  12
BRANCH   9  23
HETATM   23  O4  UNL     1      16.013  38.671 -12.034  1.00  0.00    -0.390 OA
ATOM     24  H4  UNL     1      16.428  39.429 -12.429  1.00  0.00     0.210 HD
ENDBRANCH   9  23
BRANCH   6  25
HETATM   25  O1  UNL     1      14.253  34.698 -12.117  1.00  0.00    -0.392 OA
ATOM     26  H1  UNL     1      14.946  34.622 -12.762  1.00  0.00     0.210 HD
ENDBRANCH   6  25
BRANCH   8  27
HETATM   27  O3  UNL     1      16.148  36.296 -13.130  1.00  0.00    -0.390 OA
ATOM     28  H3  UNL     1      16.510  36.640 -12.322  1.00  0.00     0.210 HD
ENDBRANCH   8  27
BRANCH   7  29
HETATM   29  O2  UNL     1      14.089  35.268 -14.681  1.00  0.00    -0.390 OA
ATOM     30  H2  UNL     1      14.776  34.720 -14.322  1.00  0.00     0.210 HD
ENDBRANCH   7  29
TORSDOF 14
ENDMDL
MODEL 2
REMARK VINA RESULT: -7.279132733      3.776      5.538
REMARK  14 active torsions:
REMARK  status: ('A' for Active; 'I' for Inactive)
REMARK    1  A    between atoms: C2_2  and  C3_3 
REMARK    2  A    between atoms: C3_3  and  C4_4 
REMARK    3  A    between atoms: C4_4  and  C5_5 
REMARK    4  A    between atoms: C5_5  and  C6_6 
REMARK    5  A    between atoms: C6_6  and  C7_7 
REMARK    6  A    between atoms: C7_7  and  C8_8 
REMARK    7  A    between atoms: C8_8  and  C9_9 
REMARK    8  A    between atoms: C9_9  and  C10_10 
REMARK    9  A    between atoms: C10_10  and  C11_11 
REMARK   10  A    between atoms: C11_11  and  C12_12 
REMARK   11  A    between atoms: C15_17  and  O1_18 
REMARK   12  A    between atoms: C16_20  and  O2_21 
REMARK   13  A    between atoms: C17_23  and  O3_24 
REMARK   14  A    between atoms: C18_26  and  O4_27 
ROOT
HETATM    1  C12 UNL     1      14.129  38.815  -9.879  1.00  0.00     0.220 C 
HETATM    2  N1  UNL     1      14.701  37.537  -9.716  1.00  0.00    -0.376 N 
ATOM      3  H1  UNL     1      15.523  37.403  -9.126  1.00  0.00     0.161 HD
HETATM    4  C13 UNL     1      14.113  36.451 -10.387  1.00  0.00     0.068 C 
HETATM    5  C14 UNL     1      13.371  36.862 -11.613  1.00  0.00     0.087 C 
HETATM    6  C15 UNL     1      13.399  35.835 -12.691  1.00  0.00     0.161 C 
HETATM    7  C16 UNL     1      13.965  36.309 -13.993  1.00  0.00     0.178 C 
HETATM    8  C17 UNL     1      15.283  37.006 -13.732  1.00  0.00     0.180 C 
HETATM    9  C18 UNL     1      15.036  38.233 -12.921  1.00  0.00     0.179 C 
HETATM   10  C19 UNL     1      13.778  38.223 -12.120  1.00  0.00     0.167 C 
HETATM   11  O5  UNL     1      13.827  39.186 -11.170  1.00  0.00    -0.358 OA
ENDROOT
BRANCH   1  12
HETATM   12  C11 UNL     1      12.928  38.920  -8.960  1.00  0.00     0.054 C 
BRANCH  12  13
HETATM   13  C10 UNL     1      12.907  40.185  -8.180  1.00  0.00     0.004 C 
BRANCH  13  14
HETATM   14  C9  UNL     1      12.316  41.315  -8.950  1.00  0.00     0.000 C 
BRANCH  14  15
HETATM   15  C8  UNL     1      12.703  42.631  -8.285  1.00  0.00     0.000 C 
BRANCH  15  16
HETATM   16  C7  UNL     1      13.455  42.382  -7.004  1.00  0.00     0.000 C 
BRANCH  16  17
HETATM   17  C6  UNL     1      14.412  43.510  -6.754  1.00  0.00     0.000 C 
BRANCH  17  18
HETATM   18  C5  UNL     1      14.927  44.073  -8.032  1.00  0.00     0.000 C 
BRANCH  18  19
HETATM   19  C4  UNL     1      16.443  43.979  -8.130  1.00  0.00     0.000 C 
BRANCH  19  20
HETATM   20  C3  UNL     1      16.882  43.378  -9.451  1.00  0.00    -0.000 C 
BRANCH  20  21
HETATM   21  C2  UNL     1      16.092  42.146  -9.793  1.00  0.00    -0.005 C 
HETATM   22  C1  UNL     1      15.470  42.204 -11.157  1.00  0.00     0.005 C 
ENDBRANCH  20  21
ENDBRANCH  19  20
ENDBRANCH  18  19
ENDBRANCH  17  18
ENDBRANCH  16  17
ENDBRANCH  15  16
ENDBRANCH  14  15
ENDBRANCH  13  14
ENDBRANCH  12  13
ENDBRANCH   1  12
BRANCH   9  23
HETATM   23  O4  UNL     1      16.161  38.572 -12.138  1.00  0.00    -0.390 OA
ATOM     24  H4  UNL     1      15.940  38.625 -11.216  1.00  0.00     0.210 HD
ENDBRANCH   9  23
BRANCH   6  25
HETATM   25  O1  UNL     1      14.140  34.725 -12.226  1.00  0.00    -0.392 OA
ATOM     26  H1  UNL     1      13.674  33.933 -12.468  1.00  0.00     0.210 HD
ENDBRANCH   6  25
BRANCH   8  27
HETATM   27  O3  UNL     1      16.203  36.158 -13.153  1.00  0.00    -0.390 OA
ATOM     28  H3  UNL     1      16.840  36.632 -12.631  1.00  0.00     0.210 HD
ENDBRANCH   8  27
BRANCH   7  29
HETATM   29  O2  UNL     1      14.185  35.219 -14.811  1.00  0.00    -0.390 OA
ATOM     30  H2  UNL     1      15.102  34.976 -14.761  1.00  0.00     0.210 HD
ENDBRANCH   7  29
TORSDOF 14
ENDMDL
MODEL 3
REMARK VINA RESULT: -7.200355874      3.478      5.810
REMARK  14 active torsions:
REMARK  status: ('A' for Active; 'I' for Inactive)
REMARK    1  A    between atoms: C2_2  and  C3_3 
REMARK    2  A    between atoms: C3_3  and  C4_4 
REMARK    3  A    between atoms: C4_4  and  C5_5 
REMARK    4  A    between atoms: C5_5  and  C6_6 
REMARK    5  A    between atoms: C6_6  and  C7_7 
REMARK    6  A    between atoms: C7_7  and  C8_8 
REMARK    7  A    between atoms: C8_8  and  C9_9 
REMARK    8  A    between atoms: C9_9  and  C10_10 
REMARK    9  A    between atoms: C10_10  and  C11_11 
REMARK   10  A    between atoms: C11_11  and  C12_12 
REMARK   11  A    between atoms: C15_17  and  O1_18 
REMARK   12  A    between atoms: C16_20  and  O2_21 
REMARK   13  A    between atoms: C17_23  and  O3_24 
REMARK   14  A    between atoms: C18_26  and  O4_27 
ROOT
HETATM    1  C12 UNL     1      14.278  38.874  -9.911  1.00  0.00     0.220 C 
HETATM    2  N1  UNL     1      14.806  37.579  -9.736  1.00  0.00    -0.376 N 
ATOM      3  H1  UNL     1      15.630  37.424  -9.155  1.00  0.00     0.161 HD
HETATM    4  C13 UNL     1      14.168  36.504 -10.380  1.00  0.00     0.068 C 
HETATM    5  C14 UNL     1      13.424  36.923 -11.603  1.00  0.00     0.087 C 
HETATM    6  C15 UNL     1      13.399  35.879 -12.664  1.00  0.00     0.161 C 
HETATM    7  C16 UNL     1      13.963  36.311 -13.981  1.00  0.00     0.178 C 
HETATM    8  C17 UNL     1      15.309  36.963 -13.750  1.00  0.00     0.180 C 
HETATM    9  C18 UNL     1      15.119  38.211 -12.956  1.00  0.00     0.179 C 
HETATM   10  C19 UNL     1      13.874  38.260 -12.137  1.00  0.00     0.167 C 
HETATM   11  O5  UNL     1      13.971  39.236 -11.204  1.00  0.00    -0.358 OA
ENDROOT
BRANCH   1  12
HETATM   12  C11 UNL     1      13.096  39.038  -8.978  1.00  0.00     0.054 C 
BRANCH  12  13
HETATM   13  C10 UNL     1      12.522  40.409  -9.006  1.00  0.00     0.004 C 
BRANCH  13  14
HETATM   14  C9  UNL     1      11.794  40.744  -7.750  1.00  0.00     0.000 C 
BRANCH  14  15
HETATM   15  C8  UNL     1      12.723  41.519  -6.824  1.00  0.00     0.000 C 
BRANCH  15  16
HETATM   16  C7  UNL     1      13.193  42.791  -7.480  1.00  0.00     0.000 C 
BRANCH  16  17
HETATM   17  C6  UNL     1      14.364  43.345  -6.723  1.00  0.00     0.000 C 
BRANCH  17  18
HETATM   18  C5  UNL     1      15.441  43.792  -7.648  1.00  0.00     0.000 C 
BRANCH  18  19
HETATM   19  C4  UNL     1      15.555  42.895  -8.872  1.00  0.00     0.000 C 
BRANCH  19  20
HETATM   20  C3  UNL     1      16.849  43.136  -9.624  1.00  0.00    -0.000 C 
BRANCH  20  21
HETATM   21  C2  UNL     1      17.582  44.340  -9.100  1.00  0.00    -0.005 C 
HETATM   22  C1  UNL     1      19.021  44.383  -9.520  1.00  0.00     0.005 C 
ENDBRANCH  20  21
ENDBRANCH  19  20
ENDBRANCH  18  19
ENDBRANCH  17  18
ENDBRANCH  16  17
ENDBRANCH  15  16
ENDBRANCH  14  15
ENDBRANCH  13  14
ENDBRANCH  12  13
ENDBRANCH   1  12
BRANCH   9  23
HETATM   23  O4  UNL     1      16.267  38.521 -12.194  1.00  0.00    -0.390 OA
ATOM     24  H4  UNL     1      16.164  39.341 -11.727  1.00  0.00     0.210 HD
ENDBRANCH   9  23
BRANCH   6  25
HETATM   25  O1  UNL     1      14.105  34.750 -12.192  1.00  0.00    -0.392 OA
ATOM     26  H1  UNL     1      14.310  34.194 -12.934  1.00  0.00     0.210 HD
ENDBRANCH   6  25
BRANCH   8  27
HETATM   27  O3  UNL     1      16.206  36.091 -13.171  1.00  0.00    -0.390 OA
ATOM     28  H3  UNL     1      17.036  36.081 -13.633  1.00  0.00     0.210 HD
ENDBRANCH   8  27
BRANCH   7  29
HETATM   29  O2  UNL     1      14.131  35.201 -14.784  1.00  0.00    -0.390 OA
ATOM     30  H2  UNL     1      13.528  35.256 -15.516  1.00  0.00     0.210 HD
ENDBRANCH   7  29
TORSDOF 14
ENDMDL
MODEL 4
REMARK VINA RESULT: -7.191560012      0.754      1.012
REMARK  14 active torsions:
REMARK  status: ('A' for Active; 'I' for Inactive)
REMARK    1  A    between atoms: C2_2  and  C3_3 
REMARK    2  A    between atoms: C3_3  and  C4_4 
REMARK    3  A    between atoms: C4_4  and  C5_5 
REMARK    4  A    between atoms: C5_5  and  C6_6 
REMARK    5  A    between atoms: C6_6  and  C7_7 
REMARK    6  A    between atoms: C7_7  and  C8_8 
REMARK    7  A    between atoms: C8_8  and  C9_9 
REMARK    8  A    between atoms: C9_9  and  C10_10 
REMARK    9  A    between atoms: C10_10  and  C11_11 
REMARK   10  A    between atoms: C11_11  and  C12_12 
REMARK   11  A    between atoms: C15_17  and  O1_18 
REMARK   12  A    between atoms: C16_20  and  O2_21 
REMARK   13  A    between atoms: C17_23  and  O3_24 
REMARK   14  A    between atoms: C18_26  and  O4_27 
ROOT
HETATM    1  C12 UNL     1      14.134  38.970 -10.096  1.00  0.00     0.220 C 
HETATM    2  N1  UNL     1      14.551  37.645  -9.852  1.00  0.00    -0.376 N 
ATOM      3  H1  UNL     1      15.265  37.443  -9.152  1.00  0.00     0.161 HD
HETATM    4  C13 UNL     1      13.960  36.610 -10.596  1.00  0.00     0.068 C 
HETATM    5  C14 UNL     1      13.440  37.072 -11.916  1.00  0.00     0.087 C 
HETATM    6  C15 UNL     1      13.519  36.029 -12.976  1.00  0.00     0.161 C 
HETATM    7  C16 UNL     1      14.304  36.426 -14.187  1.00  0.00     0.178 C 
HETATM    8  C17 UNL     1      15.634  36.998 -13.744  1.00  0.00     0.180 C 
HETATM    9  C18 UNL     1      15.397  38.255 -12.979  1.00  0.00     0.179 C 
HETATM   10  C19 UNL     1      14.045  38.379 -12.363  1.00  0.00     0.167 C 
HETATM   11  O5  UNL     1      14.054  39.348 -11.418  1.00  0.00    -0.358 OA
ENDROOT
BRANCH   1  12
HETATM   12  C11 UNL     1      12.833  39.204  -9.356  1.00  0.00     0.054 C 
BRANCH  12  13
HETATM   13  C10 UNL     1      12.970  39.050  -7.883  1.00  0.00     0.004 C 
BRANCH  13  14
HETATM   14  C9  UNL     1      12.531  40.267  -7.144  1.00  0.00     0.000 C 
BRANCH  14  15
HETATM   15  C8  UNL     1      11.279  39.940  -6.338  1.00  0.00     0.000 C 
BRANCH  15  16
HETATM   16  C7  UNL     1      11.218  38.468  -6.021  1.00  0.00     0.000 C 
BRANCH  16  17
HETATM   17  C6  UNL     1      10.857  38.279  -4.577  1.00  0.00     0.000 C 
BRANCH  17  18
HETATM   18  C5  UNL     1       9.640  39.057  -4.219  1.00  0.00     0.000 C 
BRANCH  18  19
HETATM   19  C4  UNL     1       9.101  38.680  -2.846  1.00  0.00     0.000 C 
BRANCH  19  20
HETATM   20  C3  UNL     1       9.631  37.336  -2.386  1.00  0.00    -0.000 C 
BRANCH  20  21
HETATM   21  C2  UNL     1       9.622  37.217  -0.888  1.00  0.00    -0.005 C 
HETATM   22  C1  UNL     1       9.846  38.526  -0.191  1.00  0.00     0.005 C 
ENDBRANCH  20  21
ENDBRANCH  19  20
ENDBRANCH  18  19
ENDBRANCH  17  18
ENDBRANCH  16  17
ENDBRANCH  15  16
ENDBRANCH  14  15
ENDBRANCH  13  14
ENDBRANCH  12  13
ENDBRANCH   1  12
BRANCH   9  23
HETATM   23  O4  UNL     1      16.429  38.498 -12.046  1.00  0.00    -0.390 OA
ATOM     24  H4  UNL     1      16.092  38.555 -11.160  1.00  0.00     0.210 HD
ENDBRANCH   9  23
BRANCH   6  25
HETATM   25  O1  UNL     1      14.076  34.861 -12.410  1.00  0.00    -0.392 OA
ATOM     26  H1  UNL     1      14.162  34.209 -13.095  1.00  0.00     0.210 HD
ENDBRANCH   6  25
BRANCH   8  27
HETATM   27  O3  UNL     1      16.378  36.075 -13.041  1.00  0.00    -0.390 OA
ATOM     28  H3  UNL     1      17.159  35.816 -13.515  1.00  0.00     0.210 HD
ENDBRANCH   8  27
BRANCH   7  29
HETATM   29  O2  UNL     1      14.529  35.308 -14.963  1.00  0.00    -0.390 OA
ATOM     30  H2  UNL     1      15.008  35.564 -15.743  1.00  0.00     0.210 HD
ENDBRANCH   7  29
TORSDOF 14
ENDMDL
MODEL 5
REMARK VINA RESULT: -7.095104575      3.518      5.505
REMARK  14 active torsions:
REMARK  status: ('A' for Active; 'I' for Inactive)
REMARK    1  A    between atoms: C2_2  and  C3_3 
REMARK    2  A    between atoms: C3_3  and  C4_4 
REMARK    3  A    between atoms: C4_4  and  C5_5 
REMARK    4  A    between atoms: C5_5  and  C6_6 
REMARK    5  A    between atoms: C6_6  and  C7_7 
REMARK    6  A    between atoms: C7_7  and  C8_8 
REMARK    7  A    between atoms: C8_8  and  C9_9 
REMARK    8  A    between atoms: C9_9  and  C10_10 
REMARK    9  A    between atoms: C10_10  and  C11_11 
REMARK   10  A    between atoms: C11_11  and  C12_12 
REMARK   11  A    between atoms: C15_17  and  O1_18 
REMARK   12  A    between atoms: C16_20  and  O2_21 
REMARK   13  A    between atoms: C17_23  and  O3_24 
REMARK   14  A    between atoms: C18_26  and  O4_27 
ROOT
HETATM    1  C12 UNL     1      14.214  38.806  -9.735  1.00  0.00     0.220 C 
HETATM    2  N1  UNL     1      14.802  37.532  -9.596  1.00  0.00    -0.376 N 
ATOM      3  H1  UNL     1      15.659  37.408  -9.056  1.00  0.00     0.161 HD
HETATM    4  C13 UNL     1      14.179  36.436 -10.219  1.00  0.00     0.068 C 
HETATM    5  C14 UNL     1      13.361  36.833 -11.401  1.00  0.00     0.087 C 
HETATM    6  C15 UNL     1      13.328  35.795 -12.469  1.00  0.00     0.161 C 
HETATM    7  C16 UNL     1      13.810  36.259 -13.808  1.00  0.00     0.178 C 
HETATM    8  C17 UNL     1      15.138  36.965 -13.635  1.00  0.00     0.180 C 
HETATM    9  C18 UNL     1      14.935  38.198 -12.822  1.00  0.00     0.179 C 
HETATM   10  C19 UNL     1      13.729  38.190 -11.945  1.00  0.00     0.167 C 
HETATM   11  O5  UNL     1      13.831  39.163 -11.009  1.00  0.00    -0.358 OA
ENDROOT
BRANCH   1  12
HETATM   12  C11 UNL     1      13.072  38.914  -8.745  1.00  0.00     0.054 C 
BRANCH  12  13
HETATM   13  C10 UNL     1      12.484  40.278  -8.688  1.00  0.00     0.004 C 
BRANCH  13  14
HETATM   14  C9  UNL     1      12.592  40.885  -7.331  1.00  0.00     0.000 C 
BRANCH  14  15
HETATM   15  C8  UNL     1      12.737  42.396  -7.468  1.00  0.00     0.000 C 
BRANCH  15  16
HETATM   16  C7  UNL     1      14.142  42.830  -7.144  1.00  0.00     0.000 C 
BRANCH  16  17
HETATM   17  C6  UNL     1      14.774  43.438  -8.362  1.00  0.00     0.000 C 
BRANCH  17  18
HETATM   18  C5  UNL     1      15.534  42.421  -9.139  1.00  0.00     0.000 C 
BRANCH  18  19
HETATM   19  C4  UNL     1      15.119  42.390 -10.603  1.00  0.00     0.000 C 
BRANCH  19  20
HETATM   20  C3  UNL     1      13.970  43.338 -10.879  1.00  0.00    -0.000 C 
BRANCH  20  21
HETATM   21  C2  UNL     1      12.788  42.624 -11.473  1.00  0.00    -0.005 C 
HETATM   22  C1  UNL     1      11.477  43.075 -10.899  1.00  0.00     0.005 C 
ENDBRANCH  20  21
ENDBRANCH  19  20
ENDBRANCH  18  19
ENDBRANCH  17  18
ENDBRANCH  16  17
ENDBRANCH  15  16
ENDBRANCH  14  15
ENDBRANCH  13  14
ENDBRANCH  12  13
ENDBRANCH   1  12
BRANCH   9  23
HETATM   23  O4  UNL     1      16.104  38.551 -12.113  1.00  0.00    -0.390 OA
ATOM     24  H4  UNL     1      16.048  38.296 -11.200  1.00  0.00     0.210 HD
ENDBRANCH   9  23
BRANCH   6  25
HETATM   25  O1  UNL     1      14.102  34.693 -12.040  1.00  0.00    -0.392 OA
ATOM     26  H1  UNL     1      14.426  34.239 -12.809  1.00  0.00     0.210 HD
ENDBRANCH   6  25
BRANCH   8  27
HETATM   27  O3  UNL     1      16.097  36.127 -13.106  1.00  0.00    -0.390 OA
ATOM     28  H3  UNL     1      16.300  35.409 -13.695  1.00  0.00     0.210 HD
ENDBRANCH   8  27
BRANCH   7  29
HETATM   29  O2  UNL     1      13.985  35.162 -14.627  1.00  0.00    -0.390 OA
ATOM     30  H2  UNL     1      14.125  34.393 -14.088  1.00  0.00     0.210 HD
ENDBRANCH   7  29
TORSDOF 14
ENDMDL
