MODEL 1
REMARK VINA RESULT: -7.220821457      0.000      0.000
REMARK  17 active torsions:
REMARK  status: ('A' for Active; 'I' for Inactive)
REMARK    1  A    between atoms: C4_8  and  N4_9 
REMARK    2  A    between atoms: N4_9  and  C5_10 
REMARK    3  A    between atoms: C5_10  and  O1_11 
REMARK    4  A    between atoms: C5_10  and  N5_13 
REMARK    5  A    between atoms: N5_13  and  C6_14 
REMARK    6  A    between atoms: C6_14  and  C7_15 
REMARK    7  A    between atoms: C7_15  and  C8_16 
REMARK    8  A    between atoms: C8_16  and  C9_17 
REMARK    9  A    between atoms: C9_17  and  C10_18 
REMARK   10  A    between atoms: C10_18  and  C11_19 
REMARK   11  A    between atoms: C11_19  and  C12_20 
REMARK   12  A    between atoms: C12_20  and  C13_21 
REMARK   13  A    between atoms: C13_21  and  C14_22 
REMARK   14  A    between atoms: C14_22  and  C15_23 
REMARK   15  A    between atoms: C15_23  and  C16_24 
REMARK   16  A    between atoms: C16_24  and  N6_25 
REMARK   17  A    between atoms: C17_31  and  C18_32 
ROOT
HETATM    1  N1  UNL     1       8.704  37.368  -2.067  1.00  0.00    -0.190 NA
HETATM    2  C1  UNL     1       9.207  37.974  -2.894  1.00  0.00     0.120 C 
HETATM    3  C2  UNL     1       9.832  38.683  -4.001  1.00  0.00     0.142 A 
HETATM    4  N2  UNL     1      10.721  38.004  -4.758  1.00  0.00    -0.330 N 
ATOM      5  H2  UNL     1      10.936  37.032  -4.535  1.00  0.00     0.168 HD
HETATM    6  C3  UNL     1      11.314  38.588  -5.787  1.00  0.00     0.176 A 
HETATM    7  N3  UNL     1      12.249  37.872  -6.629  1.00  0.00    -0.077 NA
HETATM    8  C4  UNL     1      11.005  39.919  -6.061  1.00  0.00     0.226 A 
HETATM    9  N7  UNL     1      10.094  40.546  -5.273  1.00  0.00    -0.326 N 
ATOM     10  H7  UNL     1       9.867  41.515  -5.499  1.00  0.00     0.169 HD
HETATM   11  C17 UNL     1       9.466  39.995  -4.221  1.00  0.00     0.075 A 
ENDROOT
BRANCH  11  12
HETATM   12  C18 UNL     1       8.649  40.819  -3.305  1.00  0.00    -0.047 C 
HETATM   13  C19 UNL     1       7.217  40.977  -3.509  1.00  0.00     0.056 C 
HETATM   14  C20 UNL     1       6.668  42.256  -2.933  1.00  0.00     0.118 C 
HETATM   15  N8  UNL     1       7.716  43.025  -2.386  1.00  0.00    -0.421 N 
HETATM   16  C21 UNL     1       8.574  42.411  -1.459  1.00  0.00     0.118 C 
ATOM     17  H8  UNL     1       7.848  43.999  -2.657  1.00  0.00     0.153 HD
HETATM   18  C22 UNL     1       9.126  41.033  -1.923  1.00  0.00     0.056 C 
ENDBRANCH  11  12
BRANCH   8  19
HETATM   19  N4  UNL     1      11.637  40.494  -6.903  1.00  0.00    -0.331 NA
BRANCH  19  20
HETATM   20  C5  UNL     1      12.135  41.220  -7.898  1.00  0.00     0.373 C 
BRANCH  20  21
HETATM   21  O1  UNL     1      11.448  41.108  -9.033  1.00  0.00    -0.310 OA
ATOM     22  H1  UNL     1      11.940  41.372  -9.802  1.00  0.00     0.223 HD
ENDBRANCH  20  21
BRANCH  20  23
HETATM   23  N5  UNL     1      13.257  42.093  -7.924  1.00  0.00    -0.398 NA
BRANCH  23  24
HETATM   24  C6  UNL     1      14.305  42.897  -7.980  1.00  0.00     0.223 C 
BRANCH  24  25
HETATM   25  C7  UNL     1      15.327  42.462  -9.041  1.00  0.00     0.033 C 
BRANCH  25  26
HETATM   26  C8  UNL     1      14.770  41.717 -10.209  1.00  0.00     0.002 C 
BRANCH  26  27
HETATM   27  C9  UNL     1      15.475  40.345 -10.179  1.00  0.00     0.000 C 
BRANCH  27  28
HETATM   28  C10 UNL     1      14.636  39.242  -9.783  1.00  0.00     0.000 C 
BRANCH  28  29
HETATM   29  C11 UNL     1      13.606  38.804 -10.853  1.00  0.00     0.000 C 
BRANCH  29  30
HETATM   30  C12 UNL     1      13.273  37.363 -10.450  1.00  0.00     0.000 C 
BRANCH  30  31
HETATM   31  C13 UNL     1      14.473  36.490 -10.471  1.00  0.00     0.000 C 
BRANCH  31  32
HETATM   32  C14 UNL     1      14.582  35.729 -11.775  1.00  0.00     0.002 C 
BRANCH  32  33
HETATM   33  C15 UNL     1      13.228  35.502 -12.388  1.00  0.00     0.027 C 
BRANCH  33  34
HETATM   34  C16 UNL     1      13.442  35.856 -13.883  1.00  0.00     0.229 C 
BRANCH  34  35
HETATM   35  N6  UNL     1      14.846  35.766 -14.182  1.00  0.00    -0.079 N 
ATOM     36  H63 UNL     1      15.261  36.676 -14.381  1.00  0.00     0.274 HD
ATOM     37  H62 UNL     1      15.406  35.532 -13.363  1.00  0.00     0.274 HD
ATOM     38  H61 UNL     1      14.976  35.102 -14.946  1.00  0.00     0.274 HD
ENDBRANCH  34  35
ENDBRANCH  33  34
ENDBRANCH  32  33
ENDBRANCH  31  32
ENDBRANCH  30  31
ENDBRANCH  29  30
ENDBRANCH  28  29
ENDBRANCH  27  28
ENDBRANCH  26  27
ENDBRANCH  25  26
ENDBRANCH  24  25
ENDBRANCH  23  24
ENDBRANCH  20  23
ENDBRANCH  19  20
ENDBRANCH   8  19
TORSDOF 17
ENDMDL
MODEL 2
REMARK VINA RESULT: -7.205702253      1.015      1.648
REMARK  17 active torsions:
REMARK  status: ('A' for Active; 'I' for Inactive)
REMARK    1  A    between atoms: C4_8  and  N4_9 
REMARK    2  A    between atoms: N4_9  and  C5_10 
REMARK    3  A    between atoms: C5_10  and  O1_11 
REMARK    4  A    between atoms: C5_10  and  N5_13 
REMARK    5  A    between atoms: N5_13  and  C6_14 
REMARK    6  A    between atoms: C6_14  and  C7_15 
REMARK    7  A    between atoms: C7_15  and  C8_16 
REMARK    8  A    between atoms: C8_16  and  C9_17 
REMARK    9  A    between atoms: C9_17  and  C10_18 
REMARK   10  A    between atoms: C10_18  and  C11_19 
REMARK   11  A    between atoms: C11_19  and  C12_20 
REMARK   12  A    between atoms: C12_20  and  C13_21 
REMARK   13  A    between atoms: C13_21  and  C14_22 
REMARK   14  A    between atoms: C14_22  and  C15_23 
REMARK   15  A    between atoms: C15_23  and  C16_24 
REMARK   16  A    between atoms: C16_24  and  N6_25 
REMARK   17  A    between atoms: C17_31  and  C18_32 
ROOT
HETATM    1  N1  UNL     1       8.715  37.245  -2.310  1.00  0.00    -0.190 NA
HETATM    2  C1  UNL     1       9.248  37.890  -3.087  1.00  0.00     0.120 C 
HETATM    3  C2  UNL     1       9.914  38.652  -4.133  1.00  0.00     0.142 A 
HETATM    4  N2  UNL     1      10.842  38.013  -4.879  1.00  0.00    -0.330 N 
ATOM      5  H2  UNL     1      11.056  37.034  -4.689  1.00  0.00     0.168 HD
HETATM    6  C3  UNL     1      11.474  38.646  -5.854  1.00  0.00     0.176 A 
HETATM    7  N3  UNL     1      12.452  37.975  -6.683  1.00  0.00    -0.077 NA
HETATM    8  C4  UNL     1      11.166  39.986  -6.083  1.00  0.00     0.226 A 
HETATM    9  N7  UNL     1      10.215  40.570  -5.310  1.00  0.00    -0.326 N 
ATOM     10  H7  UNL     1       9.989  41.547  -5.503  1.00  0.00     0.169 HD
HETATM   11  C17 UNL     1       9.546  39.969  -4.312  1.00  0.00     0.075 A 
ENDROOT
BRANCH  11  12
HETATM   12  C18 UNL     1       8.682  40.747  -3.398  1.00  0.00    -0.047 C 
HETATM   13  C19 UNL     1       7.257  40.890  -3.651  1.00  0.00     0.056 C 
HETATM   14  C20 UNL     1       6.666  42.139  -3.050  1.00  0.00     0.118 C 
HETATM   15  N8  UNL     1       7.680  42.902  -2.435  1.00  0.00    -0.421 N 
HETATM   16  C21 UNL     1       8.511  42.267  -1.499  1.00  0.00     0.118 C 
ATOM     17  H8  UNL     1       7.805  43.888  -2.664  1.00  0.00     0.153 HD
HETATM   18  C22 UNL     1       9.103  40.916  -1.992  1.00  0.00     0.056 C 
ENDBRANCH  11  12
BRANCH   8  19
HETATM   19  N4  UNL     1      11.829  40.602  -6.870  1.00  0.00    -0.331 NA
BRANCH  19  20
HETATM   20  C5  UNL     1      12.585  41.437  -7.573  1.00  0.00     0.373 C 
BRANCH  20  21
HETATM   21  O1  UNL     1      13.192  42.360  -6.829  1.00  0.00    -0.310 OA
ATOM     22  H1  UNL     1      13.133  43.237  -7.190  1.00  0.00     0.223 HD
ENDBRANCH  20  21
BRANCH  20  23
HETATM   23  N5  UNL     1      12.850  41.480  -8.970  1.00  0.00    -0.398 NA
BRANCH  23  24
HETATM   24  C6  UNL     1      13.102  41.553 -10.266  1.00  0.00     0.223 C 
BRANCH  24  25
HETATM   25  C7  UNL     1      14.457  40.933 -10.640  1.00  0.00     0.033 C 
BRANCH  25  26
HETATM   26  C8  UNL     1      14.662  39.518 -10.211  1.00  0.00     0.002 C 
BRANCH  26  27
HETATM   27  C9  UNL     1      13.619  38.706 -11.007  1.00  0.00     0.000 C 
BRANCH  27  28
HETATM   28  C10 UNL     1      13.321  37.404 -10.463  1.00  0.00     0.000 C 
BRANCH  28  29
HETATM   29  C11 UNL     1      14.549  36.472 -10.323  1.00  0.00     0.000 C 
BRANCH  29  30
HETATM   30  C12 UNL     1      14.778  35.976 -11.755  1.00  0.00     0.000 C 
BRANCH  30  31
HETATM   31  C13 UNL     1      13.582  35.290 -12.303  1.00  0.00     0.000 C 
BRANCH  31  32
HETATM   32  C14 UNL     1      13.302  35.716 -13.727  1.00  0.00     0.002 C 
BRANCH  32  33
HETATM   33  C15 UNL     1      14.529  36.300 -14.372  1.00  0.00     0.027 C 
BRANCH  33  34
HETATM   34  C16 UNL     1      14.492  35.723 -15.811  1.00  0.00     0.229 C 
BRANCH  34  35
HETATM   35  N6  UNL     1      13.339  34.872 -15.938  1.00  0.00    -0.079 N 
ATOM     36  H63 UNL     1      13.248  34.474 -16.873  1.00  0.00     0.274 HD
ATOM     37  H62 UNL     1      13.440  33.998 -15.423  1.00  0.00     0.274 HD
ATOM     38  H61 UNL     1      12.511  35.397 -15.656  1.00  0.00     0.274 HD
ENDBRANCH  34  35
ENDBRANCH  33  34
ENDBRANCH  32  33
ENDBRANCH  31  32
ENDBRANCH  30  31
ENDBRANCH  29  30
ENDBRANCH  28  29
ENDBRANCH  27  28
ENDBRANCH  26  27
ENDBRANCH  25  26
ENDBRANCH  24  25
ENDBRANCH  23  24
ENDBRANCH  20  23
ENDBRANCH  19  20
ENDBRANCH   8  19
TORSDOF 17
ENDMDL
MODEL 3
REMARK VINA RESULT: -6.983246923      1.610      2.420
REMARK  17 active torsions:
REMARK  status: ('A' for Active; 'I' for Inactive)
REMARK    1  A    between atoms: C4_8  and  N4_9 
REMARK    2  A    between atoms: N4_9  and  C5_10 
REMARK    3  A    between atoms: C5_10  and  O1_11 
REMARK    4  A    between atoms: C5_10  and  N5_13 
REMARK    5  A    between atoms: N5_13  and  C6_14 
REMARK    6  A    between atoms: C6_14  and  C7_15 
REMARK    7  A    between atoms: C7_15  and  C8_16 
REMARK    8  A    between atoms: C8_16  and  C9_17 
REMARK    9  A    between atoms: C9_17  and  C10_18 
REMARK   10  A    between atoms: C10_18  and  C11_19 
REMARK   11  A    between atoms: C11_19  and  C12_20 
REMARK   12  A    between atoms: C12_20  and  C13_21 
REMARK   13  A    between atoms: C13_21  and  C14_22 
REMARK   14  A    between atoms: C14_22  and  C15_23 
REMARK   15  A    between atoms: C15_23  and  C16_24 
REMARK   16  A    between atoms: C16_24  and  N6_25 
REMARK   17  A    between atoms: C17_31  and  C18_32 
ROOT
HETATM    1  N1  UNL     1       8.488  37.454  -1.987  1.00  0.00    -0.190 NA
HETATM    2  C1  UNL     1       9.031  38.039  -2.803  1.00  0.00     0.120 C 
HETATM    3  C2  UNL     1       9.707  38.724  -3.896  1.00  0.00     0.142 A 
HETATM    4  N2  UNL     1      10.604  38.017  -4.617  1.00  0.00    -0.330 N 
ATOM      5  H2  UNL     1      10.791  37.043  -4.378  1.00  0.00     0.168 HD
HETATM    6  C3  UNL     1      11.243  38.577  -5.632  1.00  0.00     0.176 A 
HETATM    7  N3  UNL     1      12.189  37.832  -6.436  1.00  0.00    -0.077 NA
HETATM    8  C4  UNL     1      10.973  39.912  -5.929  1.00  0.00     0.226 A 
HETATM    9  N7  UNL     1      10.051  40.566  -5.178  1.00  0.00    -0.326 N 
ATOM     10  H7  UNL     1       9.853  41.538  -5.420  1.00  0.00     0.169 HD
HETATM   11  C17 UNL     1       9.377  40.040  -4.141  1.00  0.00     0.075 A 
ENDROOT
BRANCH  11  12
HETATM   12  C18 UNL     1       8.549  40.892  -3.260  1.00  0.00    -0.047 C 
HETATM   13  C19 UNL     1       7.130  41.082  -3.515  1.00  0.00     0.056 C 
HETATM   14  C20 UNL     1       6.593  42.379  -2.968  1.00  0.00     0.118 C 
HETATM   15  N8  UNL     1       7.640  43.127  -2.392  1.00  0.00    -0.421 N 
HETATM   16  C21 UNL     1       8.449  42.501  -1.431  1.00  0.00     0.118 C 
ATOM     17  H8  UNL     1       7.804  44.096  -2.664  1.00  0.00     0.153 HD
HETATM   18  C22 UNL     1       8.984  41.106  -1.865  1.00  0.00     0.056 C 
ENDBRANCH  11  12
BRANCH   8  19
HETATM   19  N4  UNL     1      11.644  40.464  -6.755  1.00  0.00    -0.331 NA
BRANCH  19  20
HETATM   20  C5  UNL     1      12.523  41.131  -7.495  1.00  0.00     0.373 C 
BRANCH  20  21
HETATM   21  O1  UNL     1      13.147  42.103  -6.832  1.00  0.00    -0.310 OA
ATOM     22  H1  UNL     1      12.670  42.925  -6.827  1.00  0.00     0.223 HD
ENDBRANCH  20  21
BRANCH  20  23
HETATM   23  N5  UNL     1      12.901  40.952  -8.855  1.00  0.00    -0.398 NA
BRANCH  23  24
HETATM   24  C6  UNL     1      13.276  40.809 -10.114  1.00  0.00     0.223 C 
BRANCH  24  25
HETATM   25  C7  UNL     1      13.578  39.347 -10.477  1.00  0.00     0.033 C 
BRANCH  25  26
HETATM   26  C8  UNL     1      14.334  38.569  -9.452  1.00  0.00     0.002 C 
BRANCH  26  27
HETATM   27  C9  UNL     1      14.090  37.089  -9.816  1.00  0.00     0.000 C 
BRANCH  27  28
HETATM   28  C10 UNL     1      13.237  36.880 -10.958  1.00  0.00     0.000 C 
BRANCH  28  29
HETATM   29  C11 UNL     1      13.726  35.779 -11.931  1.00  0.00     0.000 C 
BRANCH  29  30
HETATM   30  C12 UNL     1      13.594  36.442 -13.307  1.00  0.00     0.000 C 
BRANCH  30  31
HETATM   31  C13 UNL     1      14.901  36.546 -14.001  1.00  0.00     0.000 C 
BRANCH  31  32
HETATM   32  C14 UNL     1      15.632  37.816 -13.621  1.00  0.00     0.002 C 
BRANCH  32  33
HETATM   33  C15 UNL     1      17.076  37.538 -13.305  1.00  0.00     0.027 C 
BRANCH  33  34
HETATM   34  C16 UNL     1      17.663  38.946 -13.022  1.00  0.00     0.229 C 
BRANCH  34  35
HETATM   35  N6  UNL     1      16.972  39.516 -11.896  1.00  0.00    -0.079 N 
ATOM     36  H63 UNL     1      17.231  39.073 -11.015  1.00  0.00     0.274 HD
ATOM     37  H62 UNL     1      17.292  40.460 -11.679  1.00  0.00     0.274 HD
ATOM     38  H61 UNL     1      15.968  39.476 -12.073  1.00  0.00     0.274 HD
ENDBRANCH  34  35
ENDBRANCH  33  34
ENDBRANCH  32  33
ENDBRANCH  31  32
ENDBRANCH  30  31
ENDBRANCH  29  30
ENDBRANCH  28  29
ENDBRANCH  27  28
ENDBRANCH  26  27
ENDBRANCH  25  26
ENDBRANCH  24  25
ENDBRANCH  23  24
ENDBRANCH  20  23
ENDBRANCH  19  20
ENDBRANCH   8  19
TORSDOF 17
ENDMDL
MODEL 4
REMARK VINA RESULT: -6.978614694      2.388     10.030
REMARK  17 active torsions:
REMARK  status: ('A' for Active; 'I' for Inactive)
REMARK    1  A    between atoms: C4_8  and  N4_9 
REMARK    2  A    between atoms: N4_9  and  C5_10 
REMARK    3  A    between atoms: C5_10  and  O1_11 
REMARK    4  A    between atoms: C5_10  and  N5_13 
REMARK    5  A    between atoms: N5_13  and  C6_14 
REMARK    6  A    between atoms: C6_14  and  C7_15 
REMARK    7  A    between atoms: C7_15  and  C8_16 
REMARK    8  A    between atoms: C8_16  and  C9_17 
REMARK    9  A    between atoms: C9_17  and  C10_18 
REMARK   10  A    between atoms: C10_18  and  C11_19 
REMARK   11  A    between atoms: C11_19  and  C12_20 
REMARK   12  A    between atoms: C12_20  and  C13_21 
REMARK   13  A    between atoms: C13_21  and  C14_22 
REMARK   14  A    between atoms: C14_22  and  C15_23 
REMARK   15  A    between atoms: C15_23  and  C16_24 
REMARK   16  A    between atoms: C16_24  and  N6_25 
REMARK   17  A    between atoms: C17_31  and  C18_32 
ROOT
HETATM    1  N1  UNL     1      13.241  43.119 -11.212  1.00  0.00    -0.190 NA
HETATM    2  C1  UNL     1      12.933  42.388 -10.391  1.00  0.00     0.120 C 
HETATM    3  C2  UNL     1      12.465  41.485  -9.350  1.00  0.00     0.142 A 
HETATM    4  N2  UNL     1      11.717  42.011  -8.356  1.00  0.00    -0.330 N 
ATOM      5  H2  UNL     1      11.511  43.010  -8.352  1.00  0.00     0.168 HD
HETATM    6  C3  UNL     1      11.248  41.241  -7.387  1.00  0.00     0.176 A 
HETATM    7  N3  UNL     1      10.423  41.777  -6.325  1.00  0.00    -0.077 NA
HETATM    8  C4  UNL     1      11.555  39.882  -7.414  1.00  0.00     0.226 A 
HETATM    9  N7  UNL     1      12.299  39.409  -8.447  1.00  0.00    -0.326 N 
ATOM     10  H7  UNL     1      12.499  38.408  -8.460  1.00  0.00     0.169 HD
HETATM   11  C17 UNL     1      12.793  40.149  -9.452  1.00  0.00     0.075 A 
ENDROOT
BRANCH  11  12
HETATM   12  C18 UNL     1      13.761  39.579 -10.414  1.00  0.00    -0.047 C 
HETATM   13  C19 UNL     1      15.147  40.021 -10.437  1.00  0.00     0.056 C 
HETATM   14  C20 UNL     1      15.808  39.845 -11.779  1.00  0.00     0.118 C 
HETATM   15  N8  UNL     1      14.876  39.344 -12.711  1.00  0.00    -0.421 N 
HETATM   16  C21 UNL     1      14.159  38.185 -12.374  1.00  0.00     0.118 C 
ATOM     17  H8  UNL     1      14.726  39.811 -13.606  1.00  0.00     0.153 HD
HETATM   18  C22 UNL     1      13.510  38.231 -10.962  1.00  0.00     0.056 C 
ENDBRANCH  11  12
BRANCH   8  19
HETATM   19  N4  UNL     1      11.252  39.205  -6.472  1.00  0.00    -0.331 NA
BRANCH  19  20
HETATM   20  C5  UNL     1      11.059  38.301  -5.518  1.00  0.00     0.373 C 
BRANCH  20  21
HETATM   21  O1  UNL     1      11.749  37.177  -5.703  1.00  0.00    -0.310 OA
ATOM     22  H1  UNL     1      12.322  36.959  -4.977  1.00  0.00     0.223 HD
ENDBRANCH  20  21
BRANCH  20  23
HETATM   23  N5  UNL     1      10.257  38.361  -4.345  1.00  0.00    -0.398 NA
BRANCH  23  24
HETATM   24  C6  UNL     1       9.529  38.444  -3.245  1.00  0.00     0.223 C 
BRANCH  24  25
HETATM   25  C7  UNL     1      10.385  38.633  -1.983  1.00  0.00     0.033 C 
BRANCH  25  26
HETATM   26  C8  UNL     1      10.122  39.878  -1.203  1.00  0.00     0.002 C 
BRANCH  26  27
HETATM   27  C9  UNL     1       9.015  40.612  -1.987  1.00  0.00     0.000 C 
BRANCH  27  28
HETATM   28  C10 UNL     1       8.715  41.939  -1.510  1.00  0.00     0.000 C 
BRANCH  28  29
HETATM   29  C11 UNL     1       7.484  42.598  -2.179  1.00  0.00     0.000 C 
BRANCH  29  30
HETATM   30  C12 UNL     1       7.160  41.643  -3.335  1.00  0.00     0.000 C 
BRANCH  30  31
HETATM   31  C13 UNL     1       6.026  42.133  -4.157  1.00  0.00     0.000 C 
BRANCH  31  32
HETATM   32  C14 UNL     1       4.759  42.255  -3.337  1.00  0.00     0.002 C 
BRANCH  32  33
HETATM   33  C15 UNL     1       3.537  42.132  -4.204  1.00  0.00     0.027 C 
BRANCH  33  34
HETATM   34  C16 UNL     1       2.561  41.291  -3.339  1.00  0.00     0.229 C 
BRANCH  34  35
HETATM   35  N6  UNL     1       1.289  41.228  -4.008  1.00  0.00    -0.079 N 
ATOM     36  H63 UNL     1       0.523  41.014  -3.369  1.00  0.00     0.274 HD
ATOM     37  H62 UNL     1       0.964  42.145  -4.314  1.00  0.00     0.274 HD
ATOM     38  H61 UNL     1       1.355  40.560  -4.776  1.00  0.00     0.274 HD
ENDBRANCH  34  35
ENDBRANCH  33  34
ENDBRANCH  32  33
ENDBRANCH  31  32
ENDBRANCH  30  31
ENDBRANCH  29  30
ENDBRANCH  28  29
ENDBRANCH  27  28
ENDBRANCH  26  27
ENDBRANCH  25  26
ENDBRANCH  24  25
ENDBRANCH  23  24
ENDBRANCH  20  23
ENDBRANCH  19  20
ENDBRANCH   8  19
TORSDOF 17
ENDMDL
MODEL 5
REMARK VINA RESULT: -6.956091387      2.211      9.720
REMARK  17 active torsions:
REMARK  status: ('A' for Active; 'I' for Inactive)
REMARK    1  A    between atoms: C4_8  and  N4_9 
REMARK    2  A    between atoms: N4_9  and  C5_10 
REMARK    3  A    between atoms: C5_10  and  O1_11 
REMARK    4  A    between atoms: C5_10  and  N5_13 
REMARK    5  A    between atoms: N5_13  and  C6_14 
REMARK    6  A    between atoms: C6_14  and  C7_15 
REMARK    7  A    between atoms: C7_15  and  C8_16 
REMARK    8  A    between atoms: C8_16  and  C9_17 
REMARK    9  A    between atoms: C9_17  and  C10_18 
REMARK   10  A    between atoms: C10_18  and  C11_19 
REMARK   11  A    between atoms: C11_19  and  C12_20 
REMARK   12  A    between atoms: C12_20  and  C13_21 
REMARK   13  A    between atoms: C13_21  and  C14_22 
REMARK   14  A    between atoms: C14_22  and  C15_23 
REMARK   15  A    between atoms: C15_23  and  C16_24 
REMARK   16  A    between atoms: C16_24  and  N6_25 
REMARK   17  A    between atoms: C17_31  and  C18_32 
ROOT
HETATM    1  N1  UNL     1      13.281  43.583 -10.793  1.00  0.00    -0.190 NA
HETATM    2  C1  UNL     1      12.951  42.781 -10.050  1.00  0.00     0.120 C 
HETATM    3  C2  UNL     1      12.453  41.787  -9.111  1.00  0.00     0.142 A 
HETATM    4  N2  UNL     1      11.642  42.215  -8.119  1.00  0.00    -0.330 N 
ATOM      5  H2  UNL     1      11.410  43.205  -8.047  1.00  0.00     0.168 HD
HETATM    6  C3  UNL     1      11.145  41.359  -7.240  1.00  0.00     0.176 A 
HETATM    7  N3  UNL     1      10.252  41.789  -6.185  1.00  0.00    -0.077 NA
HETATM    8  C4  UNL     1      11.487  40.013  -7.359  1.00  0.00     0.226 A 
HETATM    9  N7  UNL     1      12.295  39.641  -8.385  1.00  0.00    -0.326 N 
ATOM     10  H7  UNL     1      12.521  38.649  -8.468  1.00  0.00     0.169 HD
HETATM   11  C17 UNL     1      12.821  40.471  -9.301  1.00  0.00     0.075 A 
ENDROOT
BRANCH  11  12
HETATM   12  C18 UNL     1      13.851  40.001 -10.252  1.00  0.00    -0.047 C 
HETATM   13  C19 UNL     1      15.259  40.307 -10.047  1.00  0.00     0.056 C 
HETATM   14  C20 UNL     1      16.059  40.323 -11.323  1.00  0.00     0.118 C 
HETATM   15  N8  UNL     1      15.209  40.095 -12.425  1.00  0.00    -0.421 N 
HETATM   16  C21 UNL     1      14.375  38.966 -12.396  1.00  0.00     0.118 C 
ATOM     17  H8  UNL     1      15.201  40.733 -13.221  1.00  0.00     0.153 HD
HETATM   18  C22 UNL     1      13.569  38.809 -11.076  1.00  0.00     0.056 C 
ENDBRANCH  11  12
BRANCH   8  19
HETATM   19  N4  UNL     1      11.154  39.256  -6.491  1.00  0.00    -0.331 NA
BRANCH  19  20
HETATM   20  C5  UNL     1      10.965  38.293  -5.596  1.00  0.00     0.373 C 
BRANCH  20  21
HETATM   21  O1  UNL     1      11.808  37.270  -5.729  1.00  0.00    -0.310 OA
ATOM     22  H1  UNL     1      11.542  36.494  -5.249  1.00  0.00     0.223 HD
ENDBRANCH  20  21
BRANCH  20  23
HETATM   23  N5  UNL     1      10.029  38.203  -4.529  1.00  0.00    -0.398 NA
BRANCH  23  24
HETATM   24  C6  UNL     1       9.179  38.138  -3.518  1.00  0.00     0.223 C 
BRANCH  24  25
HETATM   25  C7  UNL     1       9.782  37.454  -2.282  1.00  0.00     0.033 C 
BRANCH  25  26
HETATM   26  C8  UNL     1      10.642  38.318  -1.420  1.00  0.00     0.002 C 
BRANCH  26  27
HETATM   27  C9  UNL     1       9.657  39.251  -0.684  1.00  0.00     0.000 C 
BRANCH  27  28
HETATM   28  C10 UNL     1       9.872  40.658  -0.910  1.00  0.00     0.000 C 
BRANCH  28  29
HETATM   29  C11 UNL     1       8.872  41.309  -1.896  1.00  0.00     0.000 C 
BRANCH  29  30
HETATM   30  C12 UNL     1       8.893  42.788  -1.491  1.00  0.00     0.000 C 
BRANCH  30  31
HETATM   31  C13 UNL     1       7.533  43.379  -1.479  1.00  0.00     0.000 C 
BRANCH  31  32
HETATM   32  C14 UNL     1       6.692  42.860  -2.626  1.00  0.00     0.002 C 
BRANCH  32  33
HETATM   33  C15 UNL     1       6.279  43.976  -3.546  1.00  0.00     0.027 C 
BRANCH  33  34
HETATM   34  C16 UNL     1       6.437  43.358  -4.960  1.00  0.00     0.229 C 
BRANCH  34  35
HETATM   35  N6  UNL     1       7.469  42.356  -4.913  1.00  0.00    -0.079 N 
ATOM     36  H63 UNL     1       8.390  42.754  -4.727  1.00  0.00     0.274 HD
ATOM     37  H62 UNL     1       7.401  41.764  -4.086  1.00  0.00     0.274 HD
ATOM     38  H61 UNL     1       7.444  41.820  -5.781  1.00  0.00     0.274 HD
ENDBRANCH  34  35
ENDBRANCH  33  34
ENDBRANCH  32  33
ENDBRANCH  31  32
ENDBRANCH  30  31
ENDBRANCH  29  30
ENDBRANCH  28  29
ENDBRANCH  27  28
ENDBRANCH  26  27
ENDBRANCH  25  26
ENDBRANCH  24  25
ENDBRANCH  23  24
ENDBRANCH  20  23
ENDBRANCH  19  20
ENDBRANCH   8  19
TORSDOF 17
ENDMDL
