MODEL 1
REMARK VINA RESULT: -6.597186214      0.000      0.000
REMARK  12 active torsions:
REMARK  status: ('A' for Active; 'I' for Inactive)
REMARK    1  A    between atoms: C2_2  and  C3_3 
REMARK    2  A    between atoms: C3_3  and  C4_4 
REMARK    3  A    between atoms: C4_4  and  N1_5 
REMARK    4  A    between atoms: N1_5  and  C5_6 
REMARK    5  A    between atoms: N1_5  and  C15_30 
REMARK    6  A    between atoms: C5_6  and  C6_7 
REMARK    7  A    between atoms: C7_8  and  C8_9 
REMARK    8  A    between atoms: C15_30  and  C16_31 
REMARK    9  A    between atoms: C16_31  and  C17_32 
REMARK   10  A    between atoms: C17_32  and  C18_33 
REMARK   11  A    between atoms: C18_33  and  C19_34 
REMARK   12  A    between atoms: C19_34  and  N7_35 
ROOT
HETATM    1  C8  UNL     1      12.927  40.669  -9.261  1.00  0.00     0.150 C 
HETATM    2  N2  UNL     1      11.765  40.562  -8.418  1.00  0.00    -0.342 N 
ATOM      3  H2  UNL     1      10.969  41.139  -8.689  1.00  0.00     0.163 HD
HETATM    4  C9  UNL     1      11.576  39.766  -7.263  1.00  0.00     0.286 C 
HETATM    5  O1  UNL     1      10.633  40.060  -6.491  1.00  0.00    -0.264 OA
HETATM    6  C10 UNL     1      12.401  38.611  -6.889  1.00  0.00     0.169 C 
HETATM    7  N3  UNL     1      12.197  38.085  -5.729  1.00  0.00    -0.381 N 
ATOM      8  H31 UNL     1      12.770  37.282  -5.469  1.00  0.00     0.157 HD
ATOM      9  H32 UNL     1      11.468  38.550  -5.187  1.00  0.00     0.157 HD
HETATM   10  N4  UNL     1      13.422  37.960  -7.647  1.00  0.00    -0.324 N 
ATOM     11  H4  UNL     1      14.030  37.302  -7.159  1.00  0.00     0.169 HD
HETATM   12  C11 UNL     1      13.653  38.170  -9.053  1.00  0.00     0.123 A 
HETATM   13  N5  UNL     1      14.121  37.055  -9.660  1.00  0.00    -0.318 N 
ATOM     14  H5  UNL     1      14.283  36.203  -9.121  1.00  0.00     0.170 HD
HETATM   15  C12 UNL     1      14.368  37.084 -10.978  1.00  0.00     0.180 A 
HETATM   16  S1  UNL     1      14.935  35.733 -11.710  1.00  0.00    -0.040 SA
HETATM   17  N6  UNL     1      14.143  38.220 -11.652  1.00  0.00    -0.299 N 
ATOM     18  H6  UNL     1      14.333  38.233 -12.654  1.00  0.00     0.171 HD
HETATM   19  C13 UNL     1      13.679  39.344 -11.079  1.00  0.00     0.260 A 
HETATM   20  O2  UNL     1      13.491  40.376 -11.794  1.00  0.00    -0.267 OA
HETATM   21  C14 UNL     1      13.415  39.353  -9.728  1.00  0.00     0.080 A 
ENDROOT
BRANCH   1  22
HETATM   22  C7  UNL     1      13.975  41.425  -8.532  1.00  0.00     0.001 C 
HETATM   23  C6  UNL     1      14.503  42.575  -8.917  1.00  0.00    -0.009 C 
BRANCH  23  24
HETATM   24  C5  UNL     1      15.548  43.224  -8.088  1.00  0.00     0.144 C 
BRANCH  24  25
HETATM   25  N1  UNL     1      16.666  43.694  -8.838  1.00  0.00    -0.409 N 
BRANCH  25  26
HETATM   26  C4  UNL     1      16.886  45.092  -8.697  1.00  0.00     0.117 C 
BRANCH  26  27
HETATM   27  C3  UNL     1      18.154  45.423  -7.942  1.00  0.00     0.019 C 
BRANCH  27  28
HETATM   28  C2  UNL     1      19.216  45.984  -8.867  1.00  0.00    -0.003 C 
HETATM   29  C1  UNL     1      20.428  45.079  -8.805  1.00  0.00     0.005 C 
ENDBRANCH  27  28
ENDBRANCH  26  27
ENDBRANCH  25  26
BRANCH  25  30
HETATM   30  C15 UNL     1      16.777  43.181 -10.159  1.00  0.00     0.117 C 
BRANCH  30  31
HETATM   31  C16 UNL     1      18.200  42.841 -10.537  1.00  0.00     0.020 C 
BRANCH  31  32
HETATM   32  C17 UNL     1      18.366  41.388 -10.926  1.00  0.00     0.007 C 
BRANCH  32  33
HETATM   33  C18 UNL     1      17.125  40.715 -11.365  1.00  0.00     0.044 C 
BRANCH  33  34
HETATM   34  C19 UNL     1      17.148  39.901 -12.595  1.00  0.00     0.055 C 
BRANCH  34  35
HETATM   35  N7  UNL     1      17.469  38.543 -12.538  1.00  0.00    -0.406 N 
HETATM   36  C20 UNL     1      17.651  37.756 -13.684  1.00  0.00     0.145 C 
ATOM     37  H7  UNL     1      17.575  38.105 -11.623  1.00  0.00     0.158 HD
ENDBRANCH  34  35
ENDBRANCH  33  34
ENDBRANCH  32  33
ENDBRANCH  31  32
ENDBRANCH  30  31
ENDBRANCH  25  30
ENDBRANCH  24  25
ENDBRANCH  23  24
ENDBRANCH   1  22
TORSDOF 12
ENDMDL
MODEL 2
REMARK VINA RESULT: -6.569345490      2.870      6.457
REMARK  12 active torsions:
REMARK  status: ('A' for Active; 'I' for Inactive)
REMARK    1  A    between atoms: C2_2  and  C3_3 
REMARK    2  A    between atoms: C3_3  and  C4_4 
REMARK    3  A    between atoms: C4_4  and  N1_5 
REMARK    4  A    between atoms: N1_5  and  C5_6 
REMARK    5  A    between atoms: N1_5  and  C15_30 
REMARK    6  A    between atoms: C5_6  and  C6_7 
REMARK    7  A    between atoms: C7_8  and  C8_9 
REMARK    8  A    between atoms: C15_30  and  C16_31 
REMARK    9  A    between atoms: C16_31  and  C17_32 
REMARK   10  A    between atoms: C17_32  and  C18_33 
REMARK   11  A    between atoms: C18_33  and  C19_34 
REMARK   12  A    between atoms: C19_34  and  N7_35 
ROOT
HETATM    1  C8  UNL     1      14.564  38.755 -10.898  1.00  0.00     0.150 C 
HETATM    2  N2  UNL     1      15.835  39.431 -10.873  1.00  0.00    -0.342 N 
ATOM      3  H2  UNL     1      16.437  39.209 -10.080  1.00  0.00     0.163 HD
HETATM    4  C9  UNL     1      16.363  40.362 -11.799  1.00  0.00     0.286 C 
HETATM    5  O1  UNL     1      17.326  41.078 -11.432  1.00  0.00    -0.264 OA
HETATM    6  C10 UNL     1      15.874  40.563 -13.168  1.00  0.00     0.169 C 
HETATM    7  N3  UNL     1      16.360  41.556 -13.833  1.00  0.00    -0.381 N 
ATOM      8  H31 UNL     1      16.020  41.695 -14.785  1.00  0.00     0.157 HD
ATOM      9  H32 UNL     1      17.044  42.106 -13.314  1.00  0.00     0.157 HD
HETATM   10  N4  UNL     1      14.916  39.792 -13.895  1.00  0.00    -0.324 N 
ATOM     11  H4  UNL     1      14.546  40.188 -14.760  1.00  0.00     0.169 HD
HETATM   12  C11 UNL     1      14.436  38.496 -13.492  1.00  0.00     0.123 A 
HETATM   13  N5  UNL     1      14.135  37.716 -14.556  1.00  0.00    -0.318 N 
ATOM     14  H5  UNL     1      14.244  38.073 -15.506  1.00  0.00     0.170 HD
HETATM   15  C12 UNL     1      13.692  36.467 -14.345  1.00  0.00     0.180 A 
HETATM   16  S1  UNL     1      13.328  35.525 -15.634  1.00  0.00    -0.040 SA
HETATM   17  N6  UNL     1      13.562  36.033 -13.083  1.00  0.00    -0.299 N 
ATOM     18  H6  UNL     1      13.224  35.082 -12.933  1.00  0.00     0.171 HD
HETATM   19  C13 UNL     1      13.852  36.783 -12.007  1.00  0.00     0.260 A 
HETATM   20  O2  UNL     1      13.702  36.290 -10.846  1.00  0.00    -0.267 OA
HETATM   21  C14 UNL     1      14.308  38.069 -12.184  1.00  0.00     0.080 A 
ENDROOT
BRANCH   1  22
HETATM   22  C7  UNL     1      13.499  39.734 -10.567  1.00  0.00     0.001 C 
HETATM   23  C6  UNL     1      13.514  40.569  -9.541  1.00  0.00    -0.009 C 
BRANCH  23  24
HETATM   24  C5  UNL     1      12.377  41.499  -9.328  1.00  0.00     0.144 C 
BRANCH  24  25
HETATM   25  N1  UNL     1      12.358  42.092  -8.032  1.00  0.00    -0.409 N 
BRANCH  25  26
HETATM   26  C4  UNL     1      13.094  43.307  -7.961  1.00  0.00     0.117 C 
BRANCH  26  27
HETATM   27  C3  UNL     1      14.311  43.217  -7.068  1.00  0.00     0.019 C 
BRANCH  27  28
HETATM   28  C2  UNL     1      15.496  43.941  -7.676  1.00  0.00    -0.003 C 
HETATM   29  C1  UNL     1      15.948  43.173  -8.900  1.00  0.00     0.005 C 
ENDBRANCH  27  28
ENDBRANCH  26  27
ENDBRANCH  25  26
BRANCH  25  30
HETATM   30  C15 UNL     1      12.539  41.196  -6.944  1.00  0.00     0.117 C 
BRANCH  30  31
HETATM   31  C16 UNL     1      11.345  40.298  -6.720  1.00  0.00     0.020 C 
BRANCH  31  32
HETATM   32  C17 UNL     1      11.700  38.828  -6.795  1.00  0.00     0.007 C 
BRANCH  32  33
HETATM   33  C18 UNL     1      11.390  38.051  -5.577  1.00  0.00     0.044 C 
BRANCH  33  34
HETATM   34  C19 UNL     1      10.629  38.696  -4.489  1.00  0.00     0.055 C 
BRANCH  34  35
HETATM   35  N7  UNL     1      11.250  39.002  -3.277  1.00  0.00    -0.406 N 
HETATM   36  C20 UNL     1      10.609  38.860  -2.038  1.00  0.00     0.145 C 
ATOM     37  H7  UNL     1      12.211  39.342  -3.294  1.00  0.00     0.158 HD
ENDBRANCH  34  35
ENDBRANCH  33  34
ENDBRANCH  32  33
ENDBRANCH  31  32
ENDBRANCH  30  31
ENDBRANCH  25  30
ENDBRANCH  24  25
ENDBRANCH  23  24
ENDBRANCH   1  22
TORSDOF 12
ENDMDL
MODEL 3
REMARK VINA RESULT: -6.566690581      1.421      2.463
REMARK  12 active torsions:
REMARK  status: ('A' for Active; 'I' for Inactive)
REMARK    1  A    between atoms: C2_2  and  C3_3 
REMARK    2  A    between atoms: C3_3  and  C4_4 
REMARK    3  A    between atoms: C4_4  and  N1_5 
REMARK    4  A    between atoms: N1_5  and  C5_6 
REMARK    5  A    between atoms: N1_5  and  C15_30 
REMARK    6  A    between atoms: C5_6  and  C6_7 
REMARK    7  A    between atoms: C7_8  and  C8_9 
REMARK    8  A    between atoms: C15_30  and  C16_31 
REMARK    9  A    between atoms: C16_31  and  C17_32 
REMARK   10  A    between atoms: C17_32  and  C18_33 
REMARK   11  A    between atoms: C18_33  and  C19_34 
REMARK   12  A    between atoms: C19_34  and  N7_35 
ROOT
HETATM    1  C8  UNL     1      12.816  40.618  -9.263  1.00  0.00     0.150 C 
HETATM    2  N2  UNL     1      11.675  40.379  -8.418  1.00  0.00    -0.342 N 
ATOM      3  H2  UNL     1      10.826  40.884  -8.671  1.00  0.00     0.163 HD
HETATM    4  C9  UNL     1      11.570  39.538  -7.285  1.00  0.00     0.286 C 
HETATM    5  O1  UNL     1      10.608  39.720  -6.501  1.00  0.00    -0.264 OA
HETATM    6  C10 UNL     1      12.504  38.457  -6.945  1.00  0.00     0.169 C 
HETATM    7  N3  UNL     1      12.357  37.883  -5.799  1.00  0.00    -0.381 N 
ATOM      8  H31 UNL     1      13.006  37.132  -5.563  1.00  0.00     0.157 HD
ATOM      9  H32 UNL     1      11.591  38.262  -5.242  1.00  0.00     0.157 HD
HETATM   10  N4  UNL     1      13.577  37.927  -7.724  1.00  0.00    -0.324 N 
ATOM     11  H4  UNL     1      14.248  37.317  -7.257  1.00  0.00     0.169 HD
HETATM   12  C11 UNL     1      13.778  38.196  -9.126  1.00  0.00     0.123 A 
HETATM   13  N5  UNL     1      14.346  37.147  -9.763  1.00  0.00    -0.318 N 
ATOM     14  H5  UNL     1      14.592  36.300  -9.249  1.00  0.00     0.170 HD
HETATM   15  C12 UNL     1      14.581  37.234 -11.082  1.00  0.00     0.180 A 
HETATM   16  S1  UNL     1      15.270  35.963 -11.852  1.00  0.00    -0.040 SA
HETATM   17  N6  UNL     1      14.244  38.361 -11.724  1.00  0.00    -0.299 N 
ATOM     18  H6  UNL     1      14.427  38.419 -12.726  1.00  0.00     0.171 HD
HETATM   19  C13 UNL     1      13.679  39.420 -11.119  1.00  0.00     0.260 A 
HETATM   20  O2  UNL     1      13.389  40.449 -11.805  1.00  0.00    -0.267 OA
HETATM   21  C14 UNL     1      13.424  39.367  -9.767  1.00  0.00     0.080 A 
ENDROOT
BRANCH   1  22
HETATM   22  C7  UNL     1      13.792  41.451  -8.517  1.00  0.00     0.001 C 
HETATM   23  C6  UNL     1      13.525  42.602  -7.921  1.00  0.00    -0.009 C 
BRANCH  23  24
HETATM   24  C5  UNL     1      14.601  43.332  -7.208  1.00  0.00     0.144 C 
BRANCH  24  25
HETATM   25  N1  UNL     1      14.700  44.707  -7.574  1.00  0.00    -0.409 N 
BRANCH  25  26
HETATM   26  C4  UNL     1      13.504  45.220  -8.149  1.00  0.00     0.117 C 
BRANCH  26  27
HETATM   27  C3  UNL     1      13.731  45.931  -9.464  1.00  0.00     0.019 C 
BRANCH  27  28
HETATM   28  C2  UNL     1      12.880  45.333 -10.568  1.00  0.00    -0.003 C 
HETATM   29  C1  UNL     1      13.658  44.207 -11.212  1.00  0.00     0.005 C 
ENDBRANCH  27  28
ENDBRANCH  26  27
ENDBRANCH  25  26
BRANCH  25  30
HETATM   30  C15 UNL     1      15.907  45.085  -8.221  1.00  0.00     0.117 C 
BRANCH  30  31
HETATM   31  C16 UNL     1      16.880  43.936  -8.360  1.00  0.00     0.020 C 
BRANCH  31  32
HETATM   32  C17 UNL     1      17.224  43.638  -9.804  1.00  0.00     0.007 C 
BRANCH  32  33
HETATM   33  C18 UNL     1      16.743  42.333 -10.302  1.00  0.00     0.044 C 
BRANCH  33  34
HETATM   34  C19 UNL     1      17.707  41.403 -10.922  1.00  0.00     0.055 C 
BRANCH  34  35
HETATM   35  N7  UNL     1      17.292  40.146 -11.365  1.00  0.00    -0.406 N 
HETATM   36  C20 UNL     1      17.646  39.627 -12.619  1.00  0.00     0.145 C 
ATOM     37  H7  UNL     1      16.706  39.582 -10.751  1.00  0.00     0.158 HD
ENDBRANCH  34  35
ENDBRANCH  33  34
ENDBRANCH  32  33
ENDBRANCH  31  32
ENDBRANCH  30  31
ENDBRANCH  25  30
ENDBRANCH  24  25
ENDBRANCH  23  24
ENDBRANCH   1  22
TORSDOF 12
ENDMDL
MODEL 4
REMARK VINA RESULT: -6.538286940      4.502      7.402
REMARK  12 active torsions:
REMARK  status: ('A' for Active; 'I' for Inactive)
REMARK    1  A    between atoms: C2_2  and  C3_3 
REMARK    2  A    between atoms: C3_3  and  C4_4 
REMARK    3  A    between atoms: C4_4  and  N1_5 
REMARK    4  A    between atoms: N1_5  and  C5_6 
REMARK    5  A    between atoms: N1_5  and  C15_30 
REMARK    6  A    between atoms: C5_6  and  C6_7 
REMARK    7  A    between atoms: C7_8  and  C8_9 
REMARK    8  A    between atoms: C15_30  and  C16_31 
REMARK    9  A    between atoms: C16_31  and  C17_32 
REMARK   10  A    between atoms: C17_32  and  C18_33 
REMARK   11  A    between atoms: C18_33  and  C19_34 
REMARK   12  A    between atoms: C19_34  and  N7_35 
ROOT
HETATM    1  C8  UNL     1      14.916  39.400 -11.759  1.00  0.00     0.150 C 
HETATM    2  N2  UNL     1      15.839  38.348 -12.098  1.00  0.00    -0.342 N 
ATOM      3  H2  UNL     1      16.813  38.633 -12.201  1.00  0.00     0.163 HD
HETATM    4  C9  UNL     1      15.580  36.973 -12.307  1.00  0.00     0.286 C 
HETATM    5  O1  UNL     1      16.444  36.295 -12.912  1.00  0.00    -0.264 OA
HETATM    6  C10 UNL     1      14.370  36.265 -11.871  1.00  0.00     0.169 C 
HETATM    7  N3  UNL     1      14.215  35.049 -12.273  1.00  0.00    -0.381 N 
ATOM      8  H31 UNL     1      13.375  34.557 -11.969  1.00  0.00     0.157 HD
ATOM      9  H32 UNL     1      14.971  34.712 -12.869  1.00  0.00     0.157 HD
HETATM   10  N4  UNL     1      13.312  36.738 -11.035  1.00  0.00    -0.324 N 
ATOM     11  H4  UNL     1      12.455  36.186 -10.997  1.00  0.00     0.169 HD
HETATM   12  C11 UNL     1      13.372  37.940 -10.244  1.00  0.00     0.123 A 
HETATM   13  N5  UNL     1      12.651  37.830  -9.104  1.00  0.00    -0.318 N 
ATOM     14  H5  UNL     1      12.136  36.973  -8.899  1.00  0.00     0.170 HD
HETATM   15  C12 UNL     1      12.623  38.863  -8.248  1.00  0.00     0.180 A 
HETATM   16  S1  UNL     1      11.749  38.728  -6.870  1.00  0.00    -0.040 SA
HETATM   17  N6  UNL     1      13.312  39.972  -8.552  1.00  0.00    -0.299 N 
ATOM     18  H6  UNL     1      13.284  40.752  -7.895  1.00  0.00     0.171 HD
HETATM   19  C13 UNL     1      14.037  40.111  -9.674  1.00  0.00     0.260 A 
HETATM   20  O2  UNL     1      14.662  41.197  -9.882  1.00  0.00    -0.267 OA
HETATM   21  C14 UNL     1      14.089  39.074 -10.577  1.00  0.00     0.080 A 
ENDROOT
BRANCH   1  22
HETATM   22  C7  UNL     1      14.088  39.707 -12.952  1.00  0.00     0.001 C 
HETATM   23  C6  UNL     1      14.532  40.231 -14.082  1.00  0.00    -0.009 C 
BRANCH  23  24
HETATM   24  C5  UNL     1      13.589  40.487 -15.199  1.00  0.00     0.144 C 
BRANCH  24  25
HETATM   25  N1  UNL     1      14.141  40.222 -16.487  1.00  0.00    -0.409 N 
BRANCH  25  26
HETATM   26  C4  UNL     1      13.227  40.469 -17.549  1.00  0.00     0.117 C 
BRANCH  26  27
HETATM   27  C3  UNL     1      12.018  41.272 -17.121  1.00  0.00     0.019 C 
BRANCH  27  28
HETATM   28  C2  UNL     1      11.085  41.528 -18.288  1.00  0.00    -0.003 C 
HETATM   29  C1  UNL     1      10.983  40.257 -19.104  1.00  0.00     0.005 C 
ENDBRANCH  27  28
ENDBRANCH  26  27
ENDBRANCH  25  26
BRANCH  25  30
HETATM   30  C15 UNL     1      14.902  39.027 -16.594  1.00  0.00     0.117 C 
BRANCH  30  31
HETATM   31  C16 UNL     1      14.042  37.800 -16.788  1.00  0.00     0.020 C 
BRANCH  31  32
HETATM   32  C17 UNL     1      14.137  36.834 -15.626  1.00  0.00     0.007 C 
BRANCH  32  33
HETATM   33  C18 UNL     1      13.598  35.484 -15.893  1.00  0.00     0.044 C 
BRANCH  33  34
HETATM   34  C19 UNL     1      13.877  34.847 -17.195  1.00  0.00     0.055 C 
BRANCH  34  35
HETATM   35  N7  UNL     1      13.901  33.455 -17.309  1.00  0.00    -0.406 N 
HETATM   36  C20 UNL     1      15.023  32.750 -17.767  1.00  0.00     0.145 C 
ATOM     37  H7  UNL     1      13.067  32.930 -17.049  1.00  0.00     0.158 HD
ENDBRANCH  34  35
ENDBRANCH  33  34
ENDBRANCH  32  33
ENDBRANCH  31  32
ENDBRANCH  30  31
ENDBRANCH  25  30
ENDBRANCH  24  25
ENDBRANCH  23  24
ENDBRANCH   1  22
TORSDOF 12
ENDMDL
MODEL 5
REMARK VINA RESULT: -6.488381089      1.867      3.329
REMARK  12 active torsions:
REMARK  status: ('A' for Active; 'I' for Inactive)
REMARK    1  A    between atoms: C2_2  and  C3_3 
REMARK    2  A    between atoms: C3_3  and  C4_4 
REMARK    3  A    between atoms: C4_4  and  N1_5 
REMARK    4  A    between atoms: N1_5  and  C5_6 
REMARK    5  A    between atoms: N1_5  and  C15_30 
REMARK    6  A    between atoms: C5_6  and  C6_7 
REMARK    7  A    between atoms: C7_8  and  C8_9 
REMARK    8  A    between atoms: C15_30  and  C16_31 
REMARK    9  A    between atoms: C16_31  and  C17_32 
REMARK   10  A    between atoms: C17_32  and  C18_33 
REMARK   11  A    between atoms: C18_33  and  C19_34 
REMARK   12  A    between atoms: C19_34  and  N7_35 
ROOT
HETATM    1  C8  UNL     1      12.812  40.558  -9.225  1.00  0.00     0.150 C 
HETATM    2  N2  UNL     1      11.662  40.372  -8.379  1.00  0.00    -0.342 N 
ATOM      3  H2  UNL     1      10.824  40.883  -8.655  1.00  0.00     0.163 HD
HETATM    4  C9  UNL     1      11.536  39.577  -7.214  1.00  0.00     0.286 C 
HETATM    5  O1  UNL     1      10.573  39.807  -6.444  1.00  0.00    -0.264 OA
HETATM    6  C10 UNL     1      12.448  38.493  -6.829  1.00  0.00     0.169 C 
HETATM    7  N3  UNL     1      12.285  37.967  -5.662  1.00  0.00    -0.381 N 
ATOM      8  H31 UNL     1      12.919  37.213  -5.394  1.00  0.00     0.157 HD
ATOM      9  H32 UNL     1      11.524  38.380  -5.125  1.00  0.00     0.157 HD
HETATM   10  N4  UNL     1      13.515  37.914  -7.581  1.00  0.00    -0.324 N 
ATOM     11  H4  UNL     1      14.172  37.310  -7.087  1.00  0.00     0.169 HD
HETATM   12  C11 UNL     1      13.728  38.125  -8.990  1.00  0.00     0.123 A 
HETATM   13  N5  UNL     1      14.280  37.042  -9.584  1.00  0.00    -0.318 N 
ATOM     14  H5  UNL     1      14.508  36.212  -9.036  1.00  0.00     0.170 HD
HETATM   15  C12 UNL     1      14.523  37.075 -10.903  1.00  0.00     0.180 A 
HETATM   16  S1  UNL     1      15.191  35.762 -11.621  1.00  0.00    -0.040 SA
HETATM   17  N6  UNL     1      14.210  38.182 -11.590  1.00  0.00    -0.299 N 
ATOM     18  H6  UNL     1      14.399  38.198 -12.593  1.00  0.00     0.171 HD
HETATM   19  C13 UNL     1      13.662  39.273 -11.029  1.00  0.00     0.260 A 
HETATM   20  O2  UNL     1      13.395  40.280 -11.756  1.00  0.00    -0.267 OA
HETATM   21  C14 UNL     1      13.399  39.277  -9.678  1.00  0.00     0.080 A 
ENDROOT
BRANCH   1  22
HETATM   22  C7  UNL     1      13.800  41.400  -8.506  1.00  0.00     0.001 C 
HETATM   23  C6  UNL     1      13.540  42.555  -7.915  1.00  0.00    -0.009 C 
BRANCH  23  24
HETATM   24  C5  UNL     1      14.627  43.296  -7.230  1.00  0.00     0.144 C 
BRANCH  24  25
HETATM   25  N1  UNL     1      15.254  44.281  -8.049  1.00  0.00    -0.409 N 
BRANCH  25  26
HETATM   26  C4  UNL     1      16.672  44.173  -8.068  1.00  0.00     0.117 C 
BRANCH  26  27
HETATM   27  C3  UNL     1      17.237  43.973  -9.456  1.00  0.00     0.019 C 
BRANCH  27  28
HETATM   28  C2  UNL     1      16.914  42.592  -9.990  1.00  0.00    -0.003 C 
HETATM   29  C1  UNL     1      16.047  42.748 -11.221  1.00  0.00     0.005 C 
ENDBRANCH  27  28
ENDBRANCH  26  27
ENDBRANCH  25  26
BRANCH  25  30
HETATM   30  C15 UNL     1      14.736  45.599  -7.927  1.00  0.00     0.117 C 
BRANCH  30  31
HETATM   31  C16 UNL     1      14.323  46.190  -9.255  1.00  0.00     0.020 C 
BRANCH  31  32
HETATM   32  C17 UNL     1      12.996  45.650  -9.743  1.00  0.00     0.007 C 
BRANCH  32  33
HETATM   33  C18 UNL     1      13.074  44.814 -10.960  1.00  0.00     0.044 C 
BRANCH  33  34
HETATM   34  C19 UNL     1      12.103  43.717 -11.139  1.00  0.00     0.055 C 
BRANCH  34  35
HETATM   35  N7  UNL     1      12.102  42.959 -12.311  1.00  0.00    -0.406 N 
HETATM   36  C20 UNL     1      12.772  43.359 -13.476  1.00  0.00     0.145 C 
ATOM     37  H7  UNL     1      11.591  42.076 -12.320  1.00  0.00     0.158 HD
ENDBRANCH  34  35
ENDBRANCH  33  34
ENDBRANCH  32  33
ENDBRANCH  31  32
ENDBRANCH  30  31
ENDBRANCH  25  30
ENDBRANCH  24  25
ENDBRANCH  23  24
ENDBRANCH   1  22
TORSDOF 12
ENDMDL
