MODEL 1
REMARK VINA RESULT: -8.478026939      0.000      0.000
REMARK  14 active torsions:
REMARK  status: ('A' for Active; 'I' for Inactive)
REMARK    1  A    between atoms: C4_8  and  C5_9 
REMARK    2  A    between atoms: C5_9  and  C6_10 
REMARK    3  A    between atoms: C6_10  and  C7_11 
REMARK    4  A    between atoms: C7_11  and  C8_12 
REMARK    5  A    between atoms: C8_12  and  C9_13 
REMARK    6  A    between atoms: C10_14  and  C11_15 
REMARK    7  A    between atoms: C13_20  and  C14_21 
REMARK    8  A    between atoms: C14_21  and  C15_22 
REMARK    9  A    between atoms: C15_22  and  C16_23 
REMARK   10  A    between atoms: C16_23  and  C17_24 
REMARK   11  A    between atoms: C17_24  and  C18_25 
REMARK   12  A    between atoms: C18_25  and  C19_26 
REMARK   13  A    between atoms: C19_26  and  O3_27 
REMARK   14  A    between atoms: N3_29  and  O4_31 
ROOT
HETATM    1  C11 UNL     1      14.956  37.478 -14.073  1.00  0.00     0.199 C 
HETATM    2  N2  UNL     1      13.743  36.921 -13.577  1.00  0.00    -0.343 N 
ATOM      3  H2  UNL     1      12.846  37.266 -13.920  1.00  0.00     0.163 HD
HETATM    4  C12 UNL     1      13.779  35.891 -12.608  1.00  0.00     0.241 C 
HETATM    5  O2  UNL     1      12.868  35.040 -12.520  1.00  0.00    -0.271 OA
HETATM    6  C13 UNL     1      14.916  35.820 -11.679  1.00  0.00     0.176 C 
HETATM    7  N4  UNL     1      16.143  36.298 -12.228  1.00  0.00    -0.346 N 
ATOM      8  H4  UNL     1      17.032  35.901 -11.923  1.00  0.00     0.163 HD
HETATM    9  C20 UNL     1      16.118  37.328 -13.201  1.00  0.00     0.244 C 
HETATM   10  O5  UNL     1      17.089  38.134 -13.339  1.00  0.00    -0.271 OA
ENDROOT
BRANCH   1  11
HETATM   11  C10 UNL     1      14.757  38.961 -14.271  1.00  0.00     0.003 C 
HETATM   12  C9  UNL     1      14.239  39.663 -13.272  1.00  0.00    -0.028 C 
BRANCH  12  13
HETATM   13  C8  UNL     1      14.043  41.142 -13.474  1.00  0.00     0.027 C 
BRANCH  13  14
HETATM   14  C7  UNL     1      15.009  41.877 -12.561  1.00  0.00     0.004 C 
BRANCH  14  15
HETATM   15  C6  UNL     1      14.383  41.947 -11.186  1.00  0.00     0.005 C 
BRANCH  15  16
HETATM   16  C5  UNL     1      15.449  41.642 -10.160  1.00  0.00     0.048 C 
BRANCH  16  17
HETATM   17  C4  UNL     1      15.294  42.654  -9.055  1.00  0.00     0.010 A 
HETATM   18  C2  UNL     1      16.170  43.633  -8.675  1.00  0.00     0.022 A 
HETATM   19  C1  UNL     1      17.494  43.793  -9.407  1.00  0.00     0.069 C 
HETATM   20  N1  UNL     1      15.822  44.401  -7.676  1.00  0.00    -0.321 N 
HETATM   21  C3  UNL     1      14.647  44.195  -7.088  1.00  0.00     0.288 A 
ATOM     22  H1  UNL     1      16.440  45.146  -7.354  1.00  0.00     0.169 HD
HETATM   23  O1  UNL     1      14.143  44.845  -6.103  1.00  0.00    -0.260 OA
HETATM   24  S1  UNL     1      14.002  42.881  -7.958  1.00  0.00    -0.032 SA
ENDBRANCH  16  17
ENDBRANCH  15  16
ENDBRANCH  14  15
ENDBRANCH  13  14
ENDBRANCH  12  13
ENDBRANCH   1  11
BRANCH   6  25
HETATM   25  C14 UNL     1      14.627  36.592 -10.397  1.00  0.00     0.035 C 
BRANCH  25  26
HETATM   26  C15 UNL     1      13.285  37.282 -10.606  1.00  0.00     0.002 C 
BRANCH  26  27
HETATM   27  C16 UNL     1      13.288  38.652  -9.979  1.00  0.00     0.001 C 
BRANCH  27  28
HETATM   28  C17 UNL     1      13.651  38.542  -8.526  1.00  0.00     0.008 C 
BRANCH  28  29
HETATM   29  C18 UNL     1      12.910  39.500  -7.657  1.00  0.00     0.086 C 
BRANCH  29  30
HETATM   30  C19 UNL     1      11.917  38.721  -6.844  1.00  0.00     0.135 C 
HETATM   31  N3  UNL     1      12.148  38.337  -5.654  1.00  0.00    -0.251 N 
ATOM     32  H3  UNL     1      13.042  38.560  -5.216  1.00  0.00     0.196 HD
BRANCH  30  33
HETATM   33  O3  UNL     1      10.710  38.428  -7.455  1.00  0.00    -0.348 OA
ATOM     34  H3  UNL     1      10.711  37.709  -8.076  1.00  0.00     0.219 HD
ENDBRANCH  30  33
BRANCH  31  35
HETATM   35  O4  UNL     1      11.219  37.636  -4.960  1.00  0.00    -0.288 OA
ATOM     36  H4  UNL     1      11.300  37.519  -4.021  1.00  0.00     0.244 HD
ENDBRANCH  31  35
ENDBRANCH  29  30
ENDBRANCH  28  29
ENDBRANCH  27  28
ENDBRANCH  26  27
ENDBRANCH  25  26
ENDBRANCH   6  25
TORSDOF 14
ENDMDL
MODEL 2
REMARK VINA RESULT: -8.392962121      1.136      1.408
REMARK  14 active torsions:
REMARK  status: ('A' for Active; 'I' for Inactive)
REMARK    1  A    between atoms: C4_8  and  C5_9 
REMARK    2  A    between atoms: C5_9  and  C6_10 
REMARK    3  A    between atoms: C6_10  and  C7_11 
REMARK    4  A    between atoms: C7_11  and  C8_12 
REMARK    5  A    between atoms: C8_12  and  C9_13 
REMARK    6  A    between atoms: C10_14  and  C11_15 
REMARK    7  A    between atoms: C13_20  and  C14_21 
REMARK    8  A    between atoms: C14_21  and  C15_22 
REMARK    9  A    between atoms: C15_22  and  C16_23 
REMARK   10  A    between atoms: C16_23  and  C17_24 
REMARK   11  A    between atoms: C17_24  and  C18_25 
REMARK   12  A    between atoms: C18_25  and  C19_26 
REMARK   13  A    between atoms: C19_26  and  O3_27 
REMARK   14  A    between atoms: N3_29  and  O4_31 
ROOT
HETATM    1  C11 UNL     1      15.078  37.615 -13.995  1.00  0.00     0.199 C 
HETATM    2  N2  UNL     1      13.835  37.063 -13.570  1.00  0.00    -0.343 N 
ATOM      3  H2  UNL     1      12.960  37.447 -13.927  1.00  0.00     0.163 HD
HETATM    4  C12 UNL     1      13.812  35.986 -12.656  1.00  0.00     0.241 C 
HETATM    5  O2  UNL     1      12.880  35.153 -12.644  1.00  0.00    -0.271 OA
HETATM    6  C13 UNL     1      14.913  35.839 -11.693  1.00  0.00     0.176 C 
HETATM    7  N4  UNL     1      16.170  36.314 -12.172  1.00  0.00    -0.346 N 
ATOM      8  H4  UNL     1      17.038  35.881 -11.856  1.00  0.00     0.163 HD
HETATM    9  C20 UNL     1      16.204  37.392 -13.091  1.00  0.00     0.244 C 
HETATM   10  O5  UNL     1      17.197  38.181 -13.152  1.00  0.00    -0.271 OA
ENDROOT
BRANCH   1  11
HETATM   11  C10 UNL     1      14.920  39.111 -14.122  1.00  0.00     0.003 C 
HETATM   12  C9  UNL     1      14.170  39.741 -13.228  1.00  0.00    -0.028 C 
BRANCH  12  13
HETATM   13  C8  UNL     1      14.015  41.233 -13.359  1.00  0.00     0.027 C 
BRANCH  13  14
HETATM   14  C7  UNL     1      13.707  41.800 -11.984  1.00  0.00     0.004 C 
BRANCH  14  15
HETATM   15  C6  UNL     1      15.007  42.289 -11.385  1.00  0.00     0.005 C 
BRANCH  15  16
HETATM   16  C5  UNL     1      15.092  41.794  -9.959  1.00  0.00     0.048 C 
BRANCH  16  17
HETATM   17  C4  UNL     1      15.706  42.904  -9.147  1.00  0.00     0.010 A 
HETATM   18  C2  UNL     1      15.235  43.471  -7.996  1.00  0.00     0.022 A 
HETATM   19  C1  UNL     1      13.931  42.980  -7.385  1.00  0.00     0.069 C 
HETATM   20  N1  UNL     1      15.942  44.432  -7.462  1.00  0.00    -0.321 N 
HETATM   21  C3  UNL     1      17.071  44.806  -8.058  1.00  0.00     0.288 A 
ATOM     22  H1  UNL     1      15.634  44.888  -6.603  1.00  0.00     0.169 HD
HETATM   23  O1  UNL     1      17.886  45.722  -7.682  1.00  0.00    -0.260 OA
HETATM   24  S1  UNL     1      17.151  43.779  -9.414  1.00  0.00    -0.032 SA
ENDBRANCH  16  17
ENDBRANCH  15  16
ENDBRANCH  14  15
ENDBRANCH  13  14
ENDBRANCH  12  13
ENDBRANCH   1  11
BRANCH   6  25
HETATM   25  C14 UNL     1      14.595  36.552 -10.383  1.00  0.00     0.035 C 
BRANCH  25  26
HETATM   26  C15 UNL     1      13.277  37.282 -10.603  1.00  0.00     0.002 C 
BRANCH  26  27
HETATM   27  C16 UNL     1      13.312  38.646  -9.962  1.00  0.00     0.001 C 
BRANCH  27  28
HETATM   28  C17 UNL     1      13.659  38.512  -8.508  1.00  0.00     0.008 C 
BRANCH  28  29
HETATM   29  C18 UNL     1      12.939  39.484  -7.636  1.00  0.00     0.086 C 
BRANCH  29  30
HETATM   30  C19 UNL     1      11.927  38.725  -6.829  1.00  0.00     0.135 C 
HETATM   31  N3  UNL     1      12.126  38.373  -5.623  1.00  0.00    -0.251 N 
ATOM     32  H3  UNL     1      13.009  38.609  -5.168  1.00  0.00     0.196 HD
BRANCH  30  33
HETATM   33  O3  UNL     1      10.736  38.413  -7.463  1.00  0.00    -0.348 OA
ATOM     34  H3  UNL     1      10.767  37.717  -8.109  1.00  0.00     0.219 HD
ENDBRANCH  30  33
BRANCH  31  35
HETATM   35  O4  UNL     1      11.180  37.689  -4.935  1.00  0.00    -0.288 OA
ATOM     36  H4  UNL     1      10.859  38.010  -4.101  1.00  0.00     0.244 HD
ENDBRANCH  31  35
ENDBRANCH  29  30
ENDBRANCH  28  29
ENDBRANCH  27  28
ENDBRANCH  26  27
ENDBRANCH  25  26
ENDBRANCH   6  25
TORSDOF 14
ENDMDL
MODEL 3
REMARK VINA RESULT: -8.256806888      1.450      1.755
REMARK  14 active torsions:
REMARK  status: ('A' for Active; 'I' for Inactive)
REMARK    1  A    between atoms: C4_8  and  C5_9 
REMARK    2  A    between atoms: C5_9  and  C6_10 
REMARK    3  A    between atoms: C6_10  and  C7_11 
REMARK    4  A    between atoms: C7_11  and  C8_12 
REMARK    5  A    between atoms: C8_12  and  C9_13 
REMARK    6  A    between atoms: C10_14  and  C11_15 
REMARK    7  A    between atoms: C13_20  and  C14_21 
REMARK    8  A    between atoms: C14_21  and  C15_22 
REMARK    9  A    between atoms: C15_22  and  C16_23 
REMARK   10  A    between atoms: C16_23  and  C17_24 
REMARK   11  A    between atoms: C17_24  and  C18_25 
REMARK   12  A    between atoms: C18_25  and  C19_26 
REMARK   13  A    between atoms: C19_26  and  O3_27 
REMARK   14  A    between atoms: N3_29  and  O4_31 
ROOT
HETATM    1  C11 UNL     1      15.267  36.856 -14.042  1.00  0.00     0.199 C 
HETATM    2  N2  UNL     1      13.993  36.257 -13.818  1.00  0.00    -0.343 N 
ATOM      3  H2  UNL     1      13.289  36.269 -14.556  1.00  0.00     0.163 HD
HETATM    4  C12 UNL     1      13.705  35.648 -12.576  1.00  0.00     0.241 C 
HETATM    5  O2  UNL     1      12.890  34.705 -12.480  1.00  0.00    -0.271 OA
HETATM    6  C13 UNL     1      14.379  36.135 -11.364  1.00  0.00     0.176 C 
HETATM    7  N4  UNL     1      15.691  36.646 -11.596  1.00  0.00    -0.346 N 
ATOM      8  H4  UNL     1      16.407  36.572 -10.874  1.00  0.00     0.163 HD
HETATM    9  C20 UNL     1      15.991  37.257 -12.839  1.00  0.00     0.244 C 
HETATM   10  O5  UNL     1      16.883  38.155 -12.938  1.00  0.00    -0.271 OA
ENDROOT
BRANCH   1  11
HETATM   11  C10 UNL     1      15.070  38.108 -14.862  1.00  0.00     0.003 C 
HETATM   12  C9  UNL     1      14.196  39.009 -14.432  1.00  0.00    -0.028 C 
BRANCH  12  13
HETATM   13  C8  UNL     1      14.004  40.256 -15.253  1.00  0.00     0.027 C 
BRANCH  13  14
HETATM   14  C7  UNL     1      13.722  41.409 -14.305  1.00  0.00     0.004 C 
BRANCH  14  15
HETATM   15  C6  UNL     1      13.987  40.922 -12.897  1.00  0.00     0.005 C 
BRANCH  15  16
HETATM   16  C5  UNL     1      14.853  41.942 -12.194  1.00  0.00     0.048 C 
BRANCH  16  17
HETATM   17  C4  UNL     1      14.041  42.489 -11.049  1.00  0.00     0.010 A 
HETATM   18  C2  UNL     1      14.466  42.821  -9.793  1.00  0.00     0.022 A 
HETATM   19  C1  UNL     1      15.930  42.650  -9.416  1.00  0.00     0.069 C 
HETATM   20  N1  UNL     1      13.574  43.280  -8.954  1.00  0.00    -0.321 N 
HETATM   21  C3  UNL     1      12.313  43.399  -9.360  1.00  0.00     0.288 A 
ATOM     22  H1  UNL     1      13.841  43.542  -8.005  1.00  0.00     0.169 HD
HETATM   23  O1  UNL     1      11.312  43.826  -8.682  1.00  0.00    -0.260 OA
HETATM   24  S1  UNL     1      12.372  42.852 -10.972  1.00  0.00    -0.032 SA
ENDBRANCH  16  17
ENDBRANCH  15  16
ENDBRANCH  14  15
ENDBRANCH  13  14
ENDBRANCH  12  13
ENDBRANCH   1  11
BRANCH   6  25
HETATM   25  C14 UNL     1      13.554  37.215 -10.674  1.00  0.00     0.035 C 
BRANCH  25  26
HETATM   26  C15 UNL     1      14.356  37.651  -9.454  1.00  0.00     0.002 C 
BRANCH  26  27
HETATM   27  C16 UNL     1      14.299  39.148  -9.287  1.00  0.00     0.001 C 
BRANCH  27  28
HETATM   28  C17 UNL     1      12.893  39.568  -8.970  1.00  0.00     0.008 C 
BRANCH  28  29
HETATM   29  C18 UNL     1      12.706  39.985  -7.551  1.00  0.00     0.086 C 
BRANCH  29  30
HETATM   30  C19 UNL     1      11.916  38.919  -6.851  1.00  0.00     0.135 C 
HETATM   31  N3  UNL     1      12.172  38.533  -5.666  1.00  0.00    -0.251 N 
ATOM     32  H3  UNL     1      12.946  38.958  -5.154  1.00  0.00     0.196 HD
BRANCH  30  33
HETATM   33  O3  UNL     1      10.871  38.354  -7.562  1.00  0.00    -0.348 OA
ATOM     34  H3  UNL     1      10.587  37.491  -7.286  1.00  0.00     0.219 HD
ENDBRANCH  30  33
BRANCH  31  35
HETATM   35  O4  UNL     1      11.429  37.566  -5.076  1.00  0.00    -0.288 OA
ATOM     36  H4  UNL     1      10.522  37.431  -5.324  1.00  0.00     0.244 HD
ENDBRANCH  31  35
ENDBRANCH  29  30
ENDBRANCH  28  29
ENDBRANCH  27  28
ENDBRANCH  26  27
ENDBRANCH  25  26
ENDBRANCH   6  25
TORSDOF 14
ENDMDL
MODEL 4
REMARK VINA RESULT: -8.209848093      1.596      1.889
REMARK  14 active torsions:
REMARK  status: ('A' for Active; 'I' for Inactive)
REMARK    1  A    between atoms: C4_8  and  C5_9 
REMARK    2  A    between atoms: C5_9  and  C6_10 
REMARK    3  A    between atoms: C6_10  and  C7_11 
REMARK    4  A    between atoms: C7_11  and  C8_12 
REMARK    5  A    between atoms: C8_12  and  C9_13 
REMARK    6  A    between atoms: C10_14  and  C11_15 
REMARK    7  A    between atoms: C13_20  and  C14_21 
REMARK    8  A    between atoms: C14_21  and  C15_22 
REMARK    9  A    between atoms: C15_22  and  C16_23 
REMARK   10  A    between atoms: C16_23  and  C17_24 
REMARK   11  A    between atoms: C17_24  and  C18_25 
REMARK   12  A    between atoms: C18_25  and  C19_26 
REMARK   13  A    between atoms: C19_26  and  O3_27 
REMARK   14  A    between atoms: N3_29  and  O4_31 
ROOT
HETATM    1  C11 UNL     1      15.451  37.739 -14.546  1.00  0.00     0.199 C 
HETATM    2  N2  UNL     1      14.117  37.298 -14.783  1.00  0.00    -0.343 N 
ATOM      3  H2  UNL     1      13.529  37.796 -15.452  1.00  0.00     0.163 HD
HETATM    4  C12 UNL     1      13.608  36.174 -14.094  1.00  0.00     0.241 C 
HETATM    5  O2  UNL     1      12.719  35.448 -14.588  1.00  0.00    -0.271 OA
HETATM    6  C13 UNL     1      14.137  35.850 -12.761  1.00  0.00     0.176 C 
HETATM    7  N4  UNL     1      15.503  36.216 -12.575  1.00  0.00    -0.346 N 
ATOM      8  H4  UNL     1      16.100  35.674 -11.951  1.00  0.00     0.163 HD
HETATM    9  C20 UNL     1      16.024  37.340 -13.262  1.00  0.00     0.244 C 
HETATM   10  O5  UNL     1      16.986  38.020 -12.790  1.00  0.00    -0.271 OA
ENDROOT
BRANCH   1  11
HETATM   11  C10 UNL     1      15.470  39.248 -14.573  1.00  0.00     0.003 C 
HETATM   12  C9  UNL     1      14.440  39.898 -14.048  1.00  0.00    -0.028 C 
BRANCH  12  13
HETATM   13  C8  UNL     1      14.463  41.403 -14.077  1.00  0.00     0.027 C 
BRANCH  13  14
HETATM   14  C7  UNL     1      14.688  41.901 -12.660  1.00  0.00     0.004 C 
BRANCH  14  15
HETATM   15  C6  UNL     1      13.383  41.756 -11.908  1.00  0.00     0.005 C 
BRANCH  15  16
HETATM   16  C5  UNL     1      13.157  43.012 -11.098  1.00  0.00     0.048 C 
BRANCH  16  17
HETATM   17  C4  UNL     1      12.871  42.575  -9.685  1.00  0.00     0.010 A 
HETATM   18  C2  UNL     1      13.751  42.437  -8.647  1.00  0.00     0.022 A 
HETATM   19  C1  UNL     1      15.226  42.744  -8.856  1.00  0.00     0.069 C 
HETATM   20  N1  UNL     1      13.272  42.037  -7.498  1.00  0.00    -0.321 N 
HETATM   21  C3  UNL     1      11.969  41.788  -7.398  1.00  0.00     0.288 A 
ATOM     22  H1  UNL     1      13.887  41.919  -6.693  1.00  0.00     0.169 HD
HETATM   23  O1  UNL     1      11.329  41.392  -6.359  1.00  0.00    -0.260 OA
HETATM   24  S1  UNL     1      11.389  42.124  -8.963  1.00  0.00    -0.032 SA
ENDBRANCH  16  17
ENDBRANCH  15  16
ENDBRANCH  14  15
ENDBRANCH  13  14
ENDBRANCH  12  13
ENDBRANCH   1  11
BRANCH   6  25
HETATM   25  C14 UNL     1      13.306  36.509 -11.666  1.00  0.00     0.035 C 
BRANCH  25  26
HETATM   26  C15 UNL     1      14.296  37.032 -10.634  1.00  0.00     0.002 C 
BRANCH  26  27
HETATM   27  C16 UNL     1      14.095  38.507 -10.403  1.00  0.00     0.001 C 
BRANCH  27  28
HETATM   28  C17 UNL     1      13.065  38.716  -9.331  1.00  0.00     0.008 C 
BRANCH  28  29
HETATM   29  C18 UNL     1      13.464  38.148  -8.011  1.00  0.00     0.086 C 
BRANCH  29  30
HETATM   30  C19 UNL     1      12.314  38.324  -7.062  1.00  0.00     0.135 C 
HETATM   31  N3  UNL     1      12.462  38.383  -5.800  1.00  0.00    -0.251 N 
ATOM     32  H3  UNL     1      13.397  38.308  -5.398  1.00  0.00     0.196 HD
BRANCH  30  33
HETATM   33  O3  UNL     1      11.054  38.423  -7.626  1.00  0.00    -0.348 OA
ATOM     34  H3  UNL     1      10.350  37.971  -7.176  1.00  0.00     0.219 HD
ENDBRANCH  30  33
BRANCH  31  35
HETATM   35  O4  UNL     1      11.393  38.544  -4.984  1.00  0.00    -0.288 OA
ATOM     36  H4  UNL     1      11.371  39.245  -4.343  1.00  0.00     0.244 HD
ENDBRANCH  31  35
ENDBRANCH  29  30
ENDBRANCH  28  29
ENDBRANCH  27  28
ENDBRANCH  26  27
ENDBRANCH  25  26
ENDBRANCH   6  25
TORSDOF 14
ENDMDL
MODEL 5
REMARK VINA RESULT: -7.963105640      1.399      1.814
REMARK  14 active torsions:
REMARK  status: ('A' for Active; 'I' for Inactive)
REMARK    1  A    between atoms: C4_8  and  C5_9 
REMARK    2  A    between atoms: C5_9  and  C6_10 
REMARK    3  A    between atoms: C6_10  and  C7_11 
REMARK    4  A    between atoms: C7_11  and  C8_12 
REMARK    5  A    between atoms: C8_12  and  C9_13 
REMARK    6  A    between atoms: C10_14  and  C11_15 
REMARK    7  A    between atoms: C13_20  and  C14_21 
REMARK    8  A    between atoms: C14_21  and  C15_22 
REMARK    9  A    between atoms: C15_22  and  C16_23 
REMARK   10  A    between atoms: C16_23  and  C17_24 
REMARK   11  A    between atoms: C17_24  and  C18_25 
REMARK   12  A    between atoms: C18_25  and  C19_26 
REMARK   13  A    between atoms: C19_26  and  O3_27 
REMARK   14  A    between atoms: N3_29  and  O4_31 
ROOT
HETATM    1  C11 UNL     1      15.439  37.885 -14.594  1.00  0.00     0.199 C 
HETATM    2  N2  UNL     1      14.127  37.378 -14.825  1.00  0.00    -0.343 N 
ATOM      3  H2  UNL     1      13.502  37.860 -15.472  1.00  0.00     0.163 HD
HETATM    4  C12 UNL     1      13.691  36.210 -14.160  1.00  0.00     0.241 C 
HETATM    5  O2  UNL     1      12.836  35.449 -14.661  1.00  0.00    -0.271 OA
HETATM    6  C13 UNL     1      14.257  35.880 -12.844  1.00  0.00     0.176 C 
HETATM    7  N4  UNL     1      15.604  36.317 -12.666  1.00  0.00    -0.346 N 
ATOM      8  H4  UNL     1      16.239  35.791 -12.066  1.00  0.00     0.163 HD
HETATM    9  C20 UNL     1      16.052  37.486 -13.330  1.00  0.00     0.244 C 
HETATM   10  O5  UNL     1      16.983  38.205 -12.852  1.00  0.00    -0.271 OA
ENDROOT
BRANCH   1  11
HETATM   11  C10 UNL     1      15.374  39.393 -14.581  1.00  0.00     0.003 C 
HETATM   12  C9  UNL     1      14.330  39.972 -14.002  1.00  0.00    -0.028 C 
BRANCH  12  13
HETATM   13  C8  UNL     1      14.270  41.476 -13.991  1.00  0.00     0.027 C 
BRANCH  13  14
HETATM   14  C7  UNL     1      15.046  41.973 -12.784  1.00  0.00     0.004 C 
BRANCH  14  15
HETATM   15  C6  UNL     1      14.055  42.577 -11.814  1.00  0.00     0.005 C 
BRANCH  15  16
HETATM   16  C5  UNL     1      13.686  41.526 -10.793  1.00  0.00     0.048 C 
BRANCH  16  17
HETATM   17  C4  UNL     1      13.721  42.197  -9.444  1.00  0.00     0.010 A 
HETATM   18  C2  UNL     1      12.696  42.362  -8.554  1.00  0.00     0.022 A 
HETATM   19  C1  UNL     1      11.309  41.832  -8.885  1.00  0.00     0.069 C 
HETATM   20  N1  UNL     1      12.962  42.985  -7.435  1.00  0.00    -0.321 N 
HETATM   21  C3  UNL     1      14.200  43.420  -7.222  1.00  0.00     0.288 A 
ATOM     22  H1  UNL     1      12.232  43.134  -6.738  1.00  0.00     0.169 HD
HETATM   23  O1  UNL     1      14.641  44.044  -6.192  1.00  0.00    -0.260 OA
HETATM   24  S1  UNL     1      15.027  42.944  -8.632  1.00  0.00    -0.032 SA
ENDBRANCH  16  17
ENDBRANCH  15  16
ENDBRANCH  14  15
ENDBRANCH  13  14
ENDBRANCH  12  13
ENDBRANCH   1  11
BRANCH   6  25
HETATM   25  C14 UNL     1      13.408  36.463 -11.720  1.00  0.00     0.035 C 
BRANCH  25  26
HETATM   26  C15 UNL     1      14.366  36.772 -10.576  1.00  0.00     0.002 C 
BRANCH  26  27
HETATM   27  C16 UNL     1      14.144  38.170 -10.059  1.00  0.00     0.001 C 
BRANCH  27  28
HETATM   28  C17 UNL     1      12.945  38.189  -9.155  1.00  0.00     0.008 C 
BRANCH  28  29
HETATM   29  C18 UNL     1      13.244  38.703  -7.788  1.00  0.00     0.086 C 
BRANCH  29  30
HETATM   30  C19 UNL     1      12.061  38.412  -6.911  1.00  0.00     0.135 C 
HETATM   31  N3  UNL     1      12.163  38.183  -5.664  1.00  0.00    -0.251 N 
ATOM     32  H3  UNL     1      13.083  38.194  -5.223  1.00  0.00     0.196 HD
BRANCH  30  33
HETATM   33  O3  UNL     1      10.821  38.401  -7.527  1.00  0.00    -0.348 OA
ATOM     34  H3  UNL     1      10.512  39.229  -7.876  1.00  0.00     0.219 HD
ENDBRANCH  30  33
BRANCH  31  35
HETATM   35  O4  UNL     1      11.064  37.926  -4.915  1.00  0.00    -0.288 OA
ATOM     36  H4  UNL     1      11.119  37.895  -3.966  1.00  0.00     0.244 HD
ENDBRANCH  31  35
ENDBRANCH  29  30
ENDBRANCH  28  29
ENDBRANCH  27  28
ENDBRANCH  26  27
ENDBRANCH  25  26
ENDBRANCH   6  25
TORSDOF 14
ENDMDL
