MODEL 1
REMARK VINA RESULT: -7.872422113      0.000      0.000
REMARK  13 active torsions:
REMARK  status: ('A' for Active; 'I' for Inactive)
REMARK    1  A    between atoms: N1_1  and  C1_5 
REMARK    2  A    between atoms: C4_8  and  C5_9 
REMARK    3  A    between atoms: C5_9  and  C6_10 
REMARK    4  A    between atoms: C6_10  and  C7_11 
REMARK    5  A    between atoms: C7_11  and  C8_12 
REMARK    6  A    between atoms: C8_12  and  C9_13 
REMARK    7  A    between atoms: C9_13  and  C10_14 
REMARK    8  A    between atoms: C10_14  and  C11_15 
REMARK    9  A    between atoms: C11_15  and  C12_16 
REMARK   10  A    between atoms: C12_16  and  C13_17 
REMARK   11  A    between atoms: C13_17  and  C14_18 
REMARK   12  A    between atoms: C14_18  and  O1_19 
REMARK   13  A    between atoms: O1_19  and  C15_20 
ROOT
HETATM    1  C9  UNL     1      12.536  42.706  -9.210  1.00  0.00     0.000 C 
ENDROOT
BRANCH   1   2
HETATM    2  C8  UNL     1      13.309  42.094 -10.358  1.00  0.00     0.000 C 
BRANCH   2   3
HETATM    3  C7  UNL     1      14.759  42.020  -9.948  1.00  0.00     0.000 C 
BRANCH   3   4
HETATM    4  C6  UNL     1      15.154  40.585  -9.591  1.00  0.00     0.000 C 
BRANCH   4   5
HETATM    5  C5  UNL     1      14.269  39.591 -10.236  1.00  0.00     0.007 C 
BRANCH   5   6
HETATM    6  C4  UNL     1      14.732  38.890 -11.430  1.00  0.00     0.013 C 
HETATM    7  C3  UNL     1      14.138  39.280 -12.751  1.00  0.00     0.011 C 
HETATM    8  C2  UNL     1      14.545  38.120 -13.667  1.00  0.00     0.064 C 
HETATM    9  C1  UNL     1      15.309  37.130 -12.813  1.00  0.00     0.220 C 
HETATM   10  C21 UNL     1      14.693  37.385 -11.417  1.00  0.00     0.146 C 
HETATM   11  N6  UNL     1      14.931  35.769 -13.030  1.00  0.00    -0.308 N 
HETATM   12  N5  UNL     1      13.405  36.805 -11.620  1.00  0.00    -0.334 N 
HETATM   13  C22 UNL     1      13.667  35.593 -12.362  1.00  0.00     0.318 C 
ATOM     14  H5  UNL     1      12.503  37.165 -11.311  1.00  0.00     0.164 HD
HETATM   15  O3  UNL     1      12.946  34.569 -12.429  1.00  0.00    -0.247 OA
ATOM     16  H6  UNL     1      15.450  35.064 -13.552  1.00  0.00     0.166 HD
BRANCH   9  17
HETATM   17  N1  UNL     1      16.716  37.373 -12.766  1.00  0.00    -0.051 N 
ATOM     18  H13 UNL     1      17.230  36.589 -13.168  1.00  0.00     0.277 HD
ATOM     19  H12 UNL     1      16.976  38.105 -13.427  1.00  0.00     0.277 HD
ATOM     20  H11 UNL     1      17.066  37.591 -11.833  1.00  0.00     0.277 HD
ENDBRANCH   9  17
ENDBRANCH   5   6
ENDBRANCH   4   5
ENDBRANCH   3   4
ENDBRANCH   2   3
ENDBRANCH   1   2
BRANCH   1  21
HETATM   21  C10 UNL     1      11.393  41.869  -8.736  1.00  0.00     0.000 C 
BRANCH  21  22
HETATM   22  C11 UNL     1      11.463  41.694  -7.235  1.00  0.00     0.000 C 
BRANCH  22  23
HETATM   23  C12 UNL     1      12.438  40.596  -6.875  1.00  0.00     0.002 C 
BRANCH  23  24
HETATM   24  C13 UNL     1      11.812  39.281  -7.355  1.00  0.00     0.027 C 
BRANCH  24  25
HETATM   25  C14 UNL     1      11.630  38.418  -6.155  1.00  0.00     0.177 C 
BRANCH  25  26
HETATM   26  O1  UNL     1      10.359  38.545  -5.626  1.00  0.00    -0.334 OA
BRANCH  26  27
HETATM   27  C15 UNL     1       9.928  39.228  -4.530  1.00  0.00     0.172 A 
HETATM   28  N2  UNL     1       9.522  40.487  -4.355  1.00  0.00    -0.343 N 
HETATM   29  C16 UNL     1       9.192  40.693  -3.061  1.00  0.00     0.122 A 
ATOM     30  H2  UNL     1       9.468  41.191  -5.091  1.00  0.00     0.167 HD
HETATM   31  C17 UNL     1       9.387  39.529  -2.357  1.00  0.00     0.079 A 
HETATM   32  N3  UNL     1       9.231  39.155  -1.075  1.00  0.00    -0.358 N 
HETATM   33  C20 UNL     1       9.845  38.617  -3.270  1.00  0.00     0.115 A 
HETATM   34  C18 UNL     1       9.514  37.906  -0.671  1.00  0.00     0.163 A 
ATOM     35  H3  UNL     1       8.890  39.835  -0.395  1.00  0.00     0.165 HD
HETATM   36  C19 UNL     1       9.977  36.968  -1.571  1.00  0.00     0.261 A 
HETATM   37  O2  UNL     1      10.235  35.805  -1.168  1.00  0.00    -0.267 OA
HETATM   38  N4  UNL     1      10.125  37.367  -2.846  1.00  0.00    -0.317 N 
ATOM     39  H4  UNL     1      10.466  36.689  -3.528  1.00  0.00     0.169 HD
ENDBRANCH  26  27
ENDBRANCH  25  26
ENDBRANCH  24  25
ENDBRANCH  23  24
ENDBRANCH  22  23
ENDBRANCH  21  22
ENDBRANCH   1  21
TORSDOF 13
ENDMDL
MODEL 2
REMARK VINA RESULT: -7.678229456      1.320      1.814
REMARK  13 active torsions:
REMARK  status: ('A' for Active; 'I' for Inactive)
REMARK    1  A    between atoms: N1_1  and  C1_5 
REMARK    2  A    between atoms: C4_8  and  C5_9 
REMARK    3  A    between atoms: C5_9  and  C6_10 
REMARK    4  A    between atoms: C6_10  and  C7_11 
REMARK    5  A    between atoms: C7_11  and  C8_12 
REMARK    6  A    between atoms: C8_12  and  C9_13 
REMARK    7  A    between atoms: C9_13  and  C10_14 
REMARK    8  A    between atoms: C10_14  and  C11_15 
REMARK    9  A    between atoms: C11_15  and  C12_16 
REMARK   10  A    between atoms: C12_16  and  C13_17 
REMARK   11  A    between atoms: C13_17  and  C14_18 
REMARK   12  A    between atoms: C14_18  and  O1_19 
REMARK   13  A    between atoms: O1_19  and  C15_20 
ROOT
HETATM    1  C9  UNL     1      12.564  42.438  -9.404  1.00  0.00     0.000 C 
ENDROOT
BRANCH   1   2
HETATM    2  C8  UNL     1      13.293  41.634 -10.457  1.00  0.00     0.000 C 
BRANCH   2   3
HETATM    3  C7  UNL     1      14.616  41.203  -9.873  1.00  0.00     0.000 C 
BRANCH   3   4
HETATM    4  C6  UNL     1      14.767  39.681  -9.925  1.00  0.00     0.000 C 
BRANCH   4   5
HETATM    5  C5  UNL     1      13.647  39.039 -10.647  1.00  0.00     0.007 C 
BRANCH   5   6
HETATM    6  C4  UNL     1      13.894  37.816 -11.406  1.00  0.00     0.013 C 
HETATM    7  C3  UNL     1      14.318  36.591 -10.649  1.00  0.00     0.011 C 
HETATM    8  C2  UNL     1      14.845  35.670 -11.755  1.00  0.00     0.064 C 
HETATM    9  C1  UNL     1      14.726  36.430 -13.058  1.00  0.00     0.220 C 
HETATM   10  C21 UNL     1      14.840  37.894 -12.574  1.00  0.00     0.146 C 
HETATM   11  N6  UNL     1      15.883  36.331 -13.891  1.00  0.00    -0.308 N 
HETATM   12  N5  UNL     1      16.227  37.922 -12.237  1.00  0.00    -0.334 N 
HETATM   13  C22 UNL     1      16.873  37.197 -13.307  1.00  0.00     0.318 C 
ATOM     14  H5  UNL     1      16.663  38.356 -11.424  1.00  0.00     0.164 HD
HETATM   15  O3  UNL     1      18.069  37.287 -13.675  1.00  0.00    -0.247 OA
ATOM     16  H6  UNL     1      15.987  35.761 -14.731  1.00  0.00     0.166 HD
BRANCH   9  17
HETATM   17  N1  UNL     1      13.476  36.243 -13.724  1.00  0.00    -0.051 N 
ATOM     18  H13 UNL     1      13.592  35.650 -14.546  1.00  0.00     0.277 HD
ATOM     19  H12 UNL     1      12.859  35.649 -13.170  1.00  0.00     0.277 HD
ATOM     20  H11 UNL     1      13.007  37.114 -13.972  1.00  0.00     0.277 HD
ENDBRANCH   9  17
ENDBRANCH   5   6
ENDBRANCH   4   5
ENDBRANCH   3   4
ENDBRANCH   2   3
ENDBRANCH   1   2
BRANCH   1  21
HETATM   21  C10 UNL     1      11.371  41.745  -8.831  1.00  0.00     0.000 C 
BRANCH  21  22
HETATM   22  C11 UNL     1      11.468  41.702  -7.322  1.00  0.00     0.000 C 
BRANCH  22  23
HETATM   23  C12 UNL     1      12.383  40.582  -6.882  1.00  0.00     0.002 C 
BRANCH  23  24
HETATM   24  C13 UNL     1      11.738  39.276  -7.360  1.00  0.00     0.027 C 
BRANCH  24  25
HETATM   25  C14 UNL     1      11.548  38.416  -6.159  1.00  0.00     0.177 C 
BRANCH  25  26
HETATM   26  O1  UNL     1      10.293  38.587  -5.605  1.00  0.00    -0.334 OA
BRANCH  26  27
HETATM   27  C15 UNL     1       9.911  39.274  -4.493  1.00  0.00     0.172 A 
HETATM   28  N2  UNL     1       9.551  40.543  -4.297  1.00  0.00    -0.343 N 
HETATM   29  C16 UNL     1       9.258  40.747  -2.994  1.00  0.00     0.122 A 
ATOM     30  H2  UNL     1       9.504  41.256  -5.025  1.00  0.00     0.167 HD
HETATM   31  C17 UNL     1       9.431  39.570  -2.305  1.00  0.00     0.079 A 
HETATM   32  N3  UNL     1       9.292  39.190  -1.023  1.00  0.00    -0.358 N 
HETATM   33  C20 UNL     1       9.838  38.653  -3.237  1.00  0.00     0.115 A 
HETATM   34  C18 UNL     1       9.543  37.927  -0.638  1.00  0.00     0.163 A 
ATOM     35  H3  UNL     1       8.990  39.874  -0.329  1.00  0.00     0.165 HD
HETATM   36  C19 UNL     1       9.953  36.984  -1.557  1.00  0.00     0.261 A 
HETATM   37  O2  UNL     1      10.182  35.809  -1.170  1.00  0.00    -0.267 OA
HETATM   38  N4  UNL     1      10.085  37.390  -2.831  1.00  0.00    -0.317 N 
ATOM     39  H4  UNL     1      10.388  36.708  -3.527  1.00  0.00     0.169 HD
ENDBRANCH  26  27
ENDBRANCH  25  26
ENDBRANCH  24  25
ENDBRANCH  23  24
ENDBRANCH  22  23
ENDBRANCH  21  22
ENDBRANCH   1  21
TORSDOF 13
ENDMDL
MODEL 3
REMARK VINA RESULT: -7.663286901      1.336      2.488
REMARK  13 active torsions:
REMARK  status: ('A' for Active; 'I' for Inactive)
REMARK    1  A    between atoms: N1_1  and  C1_5 
REMARK    2  A    between atoms: C4_8  and  C5_9 
REMARK    3  A    between atoms: C5_9  and  C6_10 
REMARK    4  A    between atoms: C6_10  and  C7_11 
REMARK    5  A    between atoms: C7_11  and  C8_12 
REMARK    6  A    between atoms: C8_12  and  C9_13 
REMARK    7  A    between atoms: C9_13  and  C10_14 
REMARK    8  A    between atoms: C10_14  and  C11_15 
REMARK    9  A    between atoms: C11_15  and  C12_16 
REMARK   10  A    between atoms: C12_16  and  C13_17 
REMARK   11  A    between atoms: C13_17  and  C14_18 
REMARK   12  A    between atoms: C14_18  and  O1_19 
REMARK   13  A    between atoms: O1_19  and  C15_20 
ROOT
HETATM    1  C9  UNL     1      13.386  42.697  -8.603  1.00  0.00     0.000 C 
ENDROOT
BRANCH   1   2
HETATM    2  C8  UNL     1      14.895  42.710  -8.697  1.00  0.00     0.000 C 
BRANCH   2   3
HETATM    3  C7  UNL     1      15.298  41.738  -9.779  1.00  0.00     0.000 C 
BRANCH   3   4
HETATM    4  C6  UNL     1      14.071  41.216 -10.529  1.00  0.00     0.000 C 
BRANCH   4   5
HETATM    5  C5  UNL     1      13.988  39.740 -10.495  1.00  0.00     0.007 C 
BRANCH   5   6
HETATM    6  C4  UNL     1      14.584  38.965 -11.581  1.00  0.00     0.013 C 
HETATM    7  C3  UNL     1      14.112  39.235 -12.980  1.00  0.00     0.011 C 
HETATM    8  C2  UNL     1      14.636  38.023 -13.759  1.00  0.00     0.064 C 
HETATM    9  C1  UNL     1      15.338  37.127 -12.761  1.00  0.00     0.220 C 
HETATM   10  C21 UNL     1      14.582  37.466 -11.455  1.00  0.00     0.146 C 
HETATM   11  N6  UNL     1      15.016  35.741 -12.906  1.00  0.00    -0.308 N 
HETATM   12  N5  UNL     1      13.335  36.830 -11.734  1.00  0.00    -0.334 N 
HETATM   13  C22 UNL     1      13.698  35.575 -12.351  1.00  0.00     0.318 C 
ATOM     14  H5  UNL     1      12.398  37.183 -11.542  1.00  0.00     0.164 HD
HETATM   15  O3  UNL     1      13.013  34.526 -12.406  1.00  0.00    -0.247 OA
ATOM     16  H6  UNL     1      15.602  35.016 -13.319  1.00  0.00     0.166 HD
BRANCH   9  17
HETATM   17  N1  UNL     1      16.726  37.418 -12.599  1.00  0.00    -0.051 N 
ATOM     18  H13 UNL     1      16.941  38.351 -12.951  1.00  0.00     0.277 HD
ATOM     19  H12 UNL     1      16.952  37.552 -11.613  1.00  0.00     0.277 HD
ATOM     20  H11 UNL     1      17.345  36.725 -13.017  1.00  0.00     0.277 HD
ENDBRANCH   9  17
ENDBRANCH   5   6
ENDBRANCH   4   5
ENDBRANCH   3   4
ENDBRANCH   2   3
ENDBRANCH   1   2
BRANCH   1  21
HETATM   21  C10 UNL     1      12.867  42.539  -7.211  1.00  0.00     0.000 C 
BRANCH  21  22
HETATM   22  C11 UNL     1      12.796  41.073  -6.845  1.00  0.00     0.000 C 
BRANCH  22  23
HETATM   23  C12 UNL     1      11.662  40.396  -7.581  1.00  0.00     0.002 C 
BRANCH  23  24
HETATM   24  C13 UNL     1      11.995  38.900  -7.618  1.00  0.00     0.027 C 
BRANCH  24  25
HETATM   25  C14 UNL     1      11.884  38.391  -6.223  1.00  0.00     0.177 C 
BRANCH  25  26
HETATM   26  O1  UNL     1      10.583  38.465  -5.758  1.00  0.00    -0.334 OA
BRANCH  26  27
HETATM   27  C15 UNL     1      10.111  38.710  -4.505  1.00  0.00     0.172 A 
HETATM   28  N2  UNL     1      10.032  37.955  -3.408  1.00  0.00    -0.343 N 
HETATM   29  C16 UNL     1       9.475  38.659  -2.398  1.00  0.00     0.122 A 
ATOM     30  H2  UNL     1      10.346  36.987  -3.342  1.00  0.00     0.167 HD
HETATM   31  C17 UNL     1       9.176  39.924  -2.845  1.00  0.00     0.079 A 
HETATM   32  N3  UNL     1       8.626  41.021  -2.295  1.00  0.00    -0.358 N 
HETATM   33  C20 UNL     1       9.571  39.957  -4.155  1.00  0.00     0.115 A 
HETATM   34  C18 UNL     1       8.456  42.149  -3.006  1.00  0.00     0.163 A 
ATOM     35  H3  UNL     1       8.331  40.996  -1.319  1.00  0.00     0.165 HD
HETATM   36  C19 UNL     1       8.846  42.208  -4.328  1.00  0.00     0.261 A 
HETATM   37  O2  UNL     1       8.676  43.275  -4.971  1.00  0.00    -0.267 OA
HETATM   38  N4  UNL     1       9.392  41.098  -4.853  1.00  0.00    -0.317 N 
ATOM     39  H4  UNL     1       9.687  41.120  -5.829  1.00  0.00     0.169 HD
ENDBRANCH  26  27
ENDBRANCH  25  26
ENDBRANCH  24  25
ENDBRANCH  23  24
ENDBRANCH  22  23
ENDBRANCH  21  22
ENDBRANCH   1  21
TORSDOF 13
ENDMDL
MODEL 4
REMARK VINA RESULT: -7.492465757      3.376      8.818
REMARK  13 active torsions:
REMARK  status: ('A' for Active; 'I' for Inactive)
REMARK    1  A    between atoms: N1_1  and  C1_5 
REMARK    2  A    between atoms: C4_8  and  C5_9 
REMARK    3  A    between atoms: C5_9  and  C6_10 
REMARK    4  A    between atoms: C6_10  and  C7_11 
REMARK    5  A    between atoms: C7_11  and  C8_12 
REMARK    6  A    between atoms: C8_12  and  C9_13 
REMARK    7  A    between atoms: C9_13  and  C10_14 
REMARK    8  A    between atoms: C10_14  and  C11_15 
REMARK    9  A    between atoms: C11_15  and  C12_16 
REMARK   10  A    between atoms: C12_16  and  C13_17 
REMARK   11  A    between atoms: C13_17  and  C14_18 
REMARK   12  A    between atoms: C14_18  and  O1_19 
REMARK   13  A    between atoms: O1_19  and  C15_20 
ROOT
HETATM    1  C9  UNL     1       6.125  43.981  -2.824  1.00  0.00     0.000 C 
ENDROOT
BRANCH   1   2
HETATM    2  C8  UNL     1       6.932  43.675  -1.581  1.00  0.00     0.000 C 
BRANCH   2   3
HETATM    3  C7  UNL     1       8.382  43.953  -1.894  1.00  0.00     0.000 C 
BRANCH   3   4
HETATM    4  C6  UNL     1       9.268  42.782  -1.466  1.00  0.00     0.000 C 
BRANCH   4   5
HETATM    5  C5  UNL     1       8.575  41.483  -1.609  1.00  0.00     0.007 C 
BRANCH   5   6
HETATM    6  C4  UNL     1       9.191  40.428  -2.409  1.00  0.00     0.013 C 
HETATM    7  C3  UNL     1       8.416  39.886  -3.575  1.00  0.00     0.011 C 
HETATM    8  C2  UNL     1       9.164  38.591  -3.911  1.00  0.00     0.064 C 
HETATM    9  C1  UNL     1      10.287  38.455  -2.906  1.00  0.00     0.220 C 
HETATM   10  C21 UNL     1       9.705  39.211  -1.688  1.00  0.00     0.146 C 
HETATM   11  N6  UNL     1      10.420  37.138  -2.365  1.00  0.00    -0.308 N 
HETATM   12  N5  UNL     1       8.709  38.273  -1.283  1.00  0.00    -0.334 N 
HETATM   13  C22 UNL     1       9.351  36.985  -1.413  1.00  0.00     0.318 C 
ATOM     14  H5  UNL     1       7.758  38.468  -0.972  1.00  0.00     0.164 HD
HETATM   15  O3  UNL     1       9.052  35.921  -0.820  1.00  0.00    -0.247 OA
ATOM     16  H6  UNL     1      11.130  36.446  -2.605  1.00  0.00     0.166 HD
BRANCH   9  17
HETATM   17  N1  UNL     1      11.507  39.074  -3.314  1.00  0.00    -0.051 N 
ATOM     18  H13 UNL     1      11.933  39.577  -2.535  1.00  0.00     0.277 HD
ATOM     19  H12 UNL     1      12.229  38.372  -3.478  1.00  0.00     0.277 HD
ATOM     20  H11 UNL     1      11.409  39.684  -4.125  1.00  0.00     0.277 HD
ENDBRANCH   9  17
ENDBRANCH   5   6
ENDBRANCH   4   5
ENDBRANCH   3   4
ENDBRANCH   2   3
ENDBRANCH   1   2
BRANCH   1  21
HETATM   21  C10 UNL     1       5.848  42.786  -3.676  1.00  0.00     0.000 C 
BRANCH  21  22
HETATM   22  C11 UNL     1       6.608  42.889  -4.980  1.00  0.00     0.000 C 
BRANCH  22  23
HETATM   23  C12 UNL     1       7.020  44.320  -5.242  1.00  0.00     0.002 C 
BRANCH  23  24
HETATM   24  C13 UNL     1       8.433  44.266  -5.835  1.00  0.00     0.027 C 
BRANCH  24  25
HETATM   25  C14 UNL     1       8.832  42.832  -5.887  1.00  0.00     0.177 C 
BRANCH  25  26
HETATM   26  O1  UNL     1      10.198  42.691  -6.056  1.00  0.00    -0.334 OA
BRANCH  26  27
HETATM   27  C15 UNL     1      10.912  42.320  -7.154  1.00  0.00     0.172 A 
HETATM   28  N2  UNL     1      11.316  42.989  -8.235  1.00  0.00    -0.343 N 
HETATM   29  C16 UNL     1      12.006  42.170  -9.058  1.00  0.00     0.122 A 
ATOM     30  H2  UNL     1      11.130  43.976  -8.414  1.00  0.00     0.167 HD
HETATM   31  C17 UNL     1      12.061  40.915  -8.499  1.00  0.00     0.079 A 
HETATM   32  N3  UNL     1      12.599  39.736  -8.859  1.00  0.00    -0.358 N 
HETATM   33  C20 UNL     1      11.380  41.007  -7.315  1.00  0.00     0.115 A 
HETATM   34  C18 UNL     1      12.483  38.648  -8.080  1.00  0.00     0.163 A 
ATOM     35  H3  UNL     1      13.105  39.668  -9.742  1.00  0.00     0.165 HD
HETATM   36  C19 UNL     1      11.803  38.714  -6.882  1.00  0.00     0.261 A 
HETATM   37  O2  UNL     1      11.708  37.681  -6.171  1.00  0.00    -0.267 OA
HETATM   38  N4  UNL     1      11.274  39.903  -6.546  1.00  0.00    -0.317 N 
ATOM     39  H4  UNL     1      10.766  39.975  -5.664  1.00  0.00     0.169 HD
ENDBRANCH  26  27
ENDBRANCH  25  26
ENDBRANCH  24  25
ENDBRANCH  23  24
ENDBRANCH  22  23
ENDBRANCH  21  22
ENDBRANCH   1  21
TORSDOF 13
ENDMDL
MODEL 5
REMARK VINA RESULT: -7.368071476      2.317      3.666
REMARK  13 active torsions:
REMARK  status: ('A' for Active; 'I' for Inactive)
REMARK    1  A    between atoms: N1_1  and  C1_5 
REMARK    2  A    between atoms: C4_8  and  C5_9 
REMARK    3  A    between atoms: C5_9  and  C6_10 
REMARK    4  A    between atoms: C6_10  and  C7_11 
REMARK    5  A    between atoms: C7_11  and  C8_12 
REMARK    6  A    between atoms: C8_12  and  C9_13 
REMARK    7  A    between atoms: C9_13  and  C10_14 
REMARK    8  A    between atoms: C10_14  and  C11_15 
REMARK    9  A    between atoms: C11_15  and  C12_16 
REMARK   10  A    between atoms: C12_16  and  C13_17 
REMARK   11  A    between atoms: C13_17  and  C14_18 
REMARK   12  A    between atoms: C14_18  and  O1_19 
REMARK   13  A    between atoms: O1_19  and  C15_20 
ROOT
HETATM    1  C9  UNL     1      13.521  37.399 -10.519  1.00  0.00     0.000 C 
ENDROOT
BRANCH   1   2
HETATM    2  C8  UNL     1      14.725  36.484 -10.564  1.00  0.00     0.000 C 
BRANCH   2   3
HETATM    3  C7  UNL     1      14.583  35.594 -11.774  1.00  0.00     0.000 C 
BRANCH   3   4
HETATM    4  C6  UNL     1      13.243  35.833 -12.474  1.00  0.00     0.000 C 
BRANCH   4   5
HETATM    5  C5  UNL     1      13.404  35.996 -13.935  1.00  0.00     0.007 C 
BRANCH   5   6
HETATM    6  C4  UNL     1      14.681  36.465 -14.466  1.00  0.00     0.013 C 
HETATM    7  C3  UNL     1      14.921  37.946 -14.516  1.00  0.00     0.011 C 
HETATM    8  C2  UNL     1      16.130  38.065 -15.452  1.00  0.00     0.064 C 
HETATM    9  C1  UNL     1      16.480  36.664 -15.903  1.00  0.00     0.220 C 
HETATM   10  C21 UNL     1      15.106  35.959 -15.818  1.00  0.00     0.146 C 
HETATM   11  N6  UNL     1      16.749  36.560 -17.303  1.00  0.00    -0.308 N 
HETATM   12  N5  UNL     1      14.458  36.572 -16.932  1.00  0.00    -0.334 N 
HETATM   13  C22 UNL     1      15.470  36.610 -17.963  1.00  0.00     0.318 C 
ATOM     14  H5  UNL     1      13.497  36.908 -16.988  1.00  0.00     0.164 HD
HETATM   15  O3  UNL     1      15.294  36.677 -19.203  1.00  0.00    -0.247 OA
ATOM     16  H6  UNL     1      17.663  36.468 -17.746  1.00  0.00     0.166 HD
BRANCH   9  17
HETATM   17  N1  UNL     1      17.412  35.998 -15.050  1.00  0.00    -0.051 N 
ATOM     18  H13 UNL     1      17.856  35.221 -15.541  1.00  0.00     0.277 HD
ATOM     19  H12 UNL     1      18.229  36.585 -14.884  1.00  0.00     0.277 HD
ATOM     20  H11 UNL     1      17.011  35.683 -14.168  1.00  0.00     0.277 HD
ENDBRANCH   9  17
ENDBRANCH   5   6
ENDBRANCH   4   5
ENDBRANCH   3   4
ENDBRANCH   2   3
ENDBRANCH   1   2
BRANCH   1  21
HETATM   21  C10 UNL     1      13.865  38.848 -10.414  1.00  0.00     0.000 C 
BRANCH  21  22
HETATM   22  C11 UNL     1      13.025  39.506  -9.341  1.00  0.00     0.000 C 
BRANCH  22  23
HETATM   23  C12 UNL     1      12.753  38.537  -8.212  1.00  0.00     0.002 C 
BRANCH  23  24
HETATM   24  C13 UNL     1      11.943  39.306  -7.162  1.00  0.00     0.027 C 
BRANCH  24  25
HETATM   25  C14 UNL     1      11.609  38.343  -6.075  1.00  0.00     0.177 C 
BRANCH  25  26
HETATM   26  O1  UNL     1      10.328  38.543  -5.595  1.00  0.00    -0.334 OA
BRANCH  26  27
HETATM   27  C15 UNL     1       9.899  39.219  -4.494  1.00  0.00     0.172 A 
HETATM   28  N2  UNL     1       9.486  40.474  -4.311  1.00  0.00    -0.343 N 
HETATM   29  C16 UNL     1       9.161  40.673  -3.015  1.00  0.00     0.122 A 
ATOM     30  H2  UNL     1       9.425  41.181  -5.044  1.00  0.00     0.167 HD
HETATM   31  C17 UNL     1       9.367  39.506  -2.317  1.00  0.00     0.079 A 
HETATM   32  N3  UNL     1       9.218  39.126  -1.036  1.00  0.00    -0.358 N 
HETATM   33  C20 UNL     1       9.826  38.601  -3.236  1.00  0.00     0.115 A 
HETATM   34  C18 UNL     1       9.510  37.876  -0.639  1.00  0.00     0.163 A 
ATOM     35  H3  UNL     1       8.877  39.801  -0.351  1.00  0.00     0.165 HD
HETATM   36  C19 UNL     1       9.974  36.945  -1.546  1.00  0.00     0.261 A 
HETATM   37  O2  UNL     1      10.241  35.782  -1.149  1.00  0.00    -0.267 OA
HETATM   38  N4  UNL     1      10.114  37.351  -2.819  1.00  0.00    -0.317 N 
ATOM     39  H4  UNL     1      10.456  36.678  -3.506  1.00  0.00     0.169 HD
ENDBRANCH  26  27
ENDBRANCH  25  26
ENDBRANCH  24  25
ENDBRANCH  23  24
ENDBRANCH  22  23
ENDBRANCH  21  22
ENDBRANCH   1  21
TORSDOF 13
ENDMDL
