MODEL 1
REMARK VINA RESULT: -7.537482507      0.000      0.000
REMARK  14 active torsions:
REMARK  status: ('A' for Active; 'I' for Inactive)
REMARK    1  A    between atoms: C9_11  and  N2_12 
REMARK    2  A    between atoms: C10_17  and  N4_18 
REMARK    3  A    between atoms: N4_18  and  C11_20 
REMARK    4  A    between atoms: C11_20  and  C12_21 
REMARK    5  A    between atoms: C12_21  and  C13_22 
REMARK    6  A    between atoms: C13_22  and  C14_23 
REMARK    7  A    between atoms: C14_23  and  C15_24 
REMARK    8  A    between atoms: C15_24  and  C16_25 
REMARK    9  A    between atoms: C16_25  and  C17_26 
REMARK   10  A    between atoms: C17_26  and  N5_27 
REMARK   11  A    between atoms: N5_27  and  C18_30 
REMARK   12  A    between atoms: C18_30  and  C19_31 
REMARK   13  A    between atoms: C19_31  and  C20_32 
REMARK   14  A    between atoms: C20_32  and  N6_33 
ROOT
HETATM    1  C1  UNL     1      18.453  41.243 -11.812  1.00  0.00     0.011 C 
HETATM    2  C2  UNL     1      17.512  41.645 -10.718  1.00  0.00    -0.000 C 
HETATM    3  C3  UNL     1      17.842  43.000 -10.193  1.00  0.00     0.008 C 
HETATM    4  C4  UNL     1      16.653  43.809  -9.760  1.00  0.00     0.026 C 
HETATM    5  C5  UNL     1      15.698  42.891  -9.028  1.00  0.00     0.088 C 
HETATM    6  C6  UNL     1      14.484  43.595  -8.529  1.00  0.00     0.031 C 
HETATM    7  C7  UNL     1      13.811  43.019  -7.340  1.00  0.00     0.061 C 
HETATM    8  C8  UNL     1      13.210  41.681  -7.526  1.00  0.00     0.046 A 
HETATM    9  N1  UNL     1      12.439  41.370  -6.465  1.00  0.00    -0.195 N 
ATOM     10  H1  UNL     1      12.326  42.027  -5.693  1.00  0.00     0.184 HD
HETATM   11  C9  UNL     1      11.825  40.179  -6.445  1.00  0.00     0.677 A 
HETATM   12  N3  UNL     1      11.973  39.312  -7.460  1.00  0.00    -0.176 N 
ATOM     13  H3  UNL     1      11.489  38.415  -7.409  1.00  0.00     0.186 HD
HETATM   14  C10 UNL     1      12.736  39.573  -8.553  1.00  0.00     0.134 A 
HETATM   15  C21 UNL     1      13.362  40.794  -8.574  1.00  0.00     0.099 A 
HETATM   16  C22 UNL     1      14.113  41.073  -9.818  1.00  0.00     0.259 C 
HETATM   17  O1  UNL     1      13.596  40.525 -10.825  1.00  0.00    -0.267 OA
HETATM   18  N7  UNL     1      15.288  41.858  -9.954  1.00  0.00    -0.343 N 
HETATM   19  C23 UNL     1      16.044  41.513 -11.129  1.00  0.00     0.130 C 
ENDROOT
BRANCH  14  20
HETATM   20  N4  UNL     1      12.994  38.635  -9.548  1.00  0.00    -0.375 N 
ATOM     21  H4  UNL     1      12.518  38.683 -10.450  1.00  0.00     0.161 HD
BRANCH  20  22
HETATM   22  C11 UNL     1      13.972  37.571  -9.265  1.00  0.00     0.121 C 
BRANCH  22  23
HETATM   23  C12 UNL     1      14.407  36.839 -10.494  1.00  0.00     0.020 C 
BRANCH  23  24
HETATM   24  C13 UNL     1      13.388  36.980 -11.592  1.00  0.00     0.002 C 
BRANCH  24  25
HETATM   25  C14 UNL     1      13.209  35.703 -12.408  1.00  0.00     0.000 C 
BRANCH  25  26
HETATM   26  C15 UNL     1      13.407  36.080 -13.841  1.00  0.00     0.002 C 
BRANCH  26  27
HETATM   27  C16 UNL     1      14.174  37.361 -13.990  1.00  0.00     0.027 C 
BRANCH  27  28
HETATM   28  C17 UNL     1      15.443  37.173 -14.731  1.00  0.00     0.232 C 
BRANCH  28  29
HETATM   29  N5  UNL     1      15.569  35.827 -15.245  1.00  0.00    -0.075 N 
ATOM     30  H52 UNL     1      16.152  35.253 -14.634  1.00  0.00     0.277 HD
ATOM     31  H51 UNL     1      14.691  35.317 -15.160  1.00  0.00     0.277 HD
BRANCH  29  32
HETATM   32  C18 UNL     1      16.054  35.802 -16.595  1.00  0.00     0.233 C 
BRANCH  32  33
HETATM   33  C19 UNL     1      15.779  34.544 -17.348  1.00  0.00     0.055 C 
BRANCH  33  34
HETATM   34  C20 UNL     1      14.367  34.382 -17.812  1.00  0.00     0.231 C 
BRANCH  34  35
HETATM   35  N6  UNL     1      13.626  33.436 -17.017  1.00  0.00    -0.079 N 
ATOM     36  H63 UNL     1      12.636  33.678 -16.989  1.00  0.00     0.274 HD
ATOM     37  H62 UNL     1      13.562  32.533 -17.487  1.00  0.00     0.274 HD
ATOM     38  H61 UNL     1      14.005  33.333 -16.076  1.00  0.00     0.274 HD
ENDBRANCH  34  35
ENDBRANCH  33  34
ENDBRANCH  32  33
ENDBRANCH  29  32
ENDBRANCH  28  29
ENDBRANCH  27  28
ENDBRANCH  26  27
ENDBRANCH  25  26
ENDBRANCH  24  25
ENDBRANCH  23  24
ENDBRANCH  22  23
ENDBRANCH  20  22
ENDBRANCH  14  20
BRANCH  11  39
HETATM   39  N2  UNL     1      11.067  39.856  -5.419  1.00  0.00    -0.234 N 
ATOM     40  H22 UNL     1      11.497  39.478  -4.574  1.00  0.00     0.174 HD
ATOM     41  H21 UNL     1      10.057  39.983  -5.479  1.00  0.00     0.174 HD
ENDBRANCH  11  39
TORSDOF 14
ENDMDL
MODEL 2
REMARK VINA RESULT: -7.450211408      1.460      2.395
REMARK  14 active torsions:
REMARK  status: ('A' for Active; 'I' for Inactive)
REMARK    1  A    between atoms: C9_11  and  N2_12 
REMARK    2  A    between atoms: C10_17  and  N4_18 
REMARK    3  A    between atoms: N4_18  and  C11_20 
REMARK    4  A    between atoms: C11_20  and  C12_21 
REMARK    5  A    between atoms: C12_21  and  C13_22 
REMARK    6  A    between atoms: C13_22  and  C14_23 
REMARK    7  A    between atoms: C14_23  and  C15_24 
REMARK    8  A    between atoms: C15_24  and  C16_25 
REMARK    9  A    between atoms: C16_25  and  C17_26 
REMARK   10  A    between atoms: C17_26  and  N5_27 
REMARK   11  A    between atoms: N5_27  and  C18_30 
REMARK   12  A    between atoms: C18_30  and  C19_31 
REMARK   13  A    between atoms: C19_31  and  C20_32 
REMARK   14  A    between atoms: C20_32  and  N6_33 
ROOT
HETATM    1  C1  UNL     1      18.243  42.355 -11.218  1.00  0.00     0.011 C 
HETATM    2  C2  UNL     1      17.180  42.397 -10.163  1.00  0.00    -0.000 C 
HETATM    3  C3  UNL     1      17.200  43.693  -9.429  1.00  0.00     0.008 C 
HETATM    4  C4  UNL     1      15.850  44.183  -8.991  1.00  0.00     0.026 C 
HETATM    5  C5  UNL     1      15.061  42.999  -8.477  1.00  0.00     0.088 C 
HETATM    6  C6  UNL     1      13.703  43.372  -7.991  1.00  0.00     0.031 C 
HETATM    7  C7  UNL     1      13.095  42.503  -6.955  1.00  0.00     0.061 C 
HETATM    8  C8  UNL     1      12.788  41.119  -7.376  1.00  0.00     0.046 A 
HETATM    9  N1  UNL     1      12.038  40.507  -6.438  1.00  0.00    -0.195 N 
ATOM     10  H1  UNL     1      11.751  41.004  -5.595  1.00  0.00     0.184 HD
HETATM   11  C9  UNL     1      11.677  39.232  -6.636  1.00  0.00     0.677 A 
HETATM   12  N3  UNL     1      12.054  38.575  -7.746  1.00  0.00    -0.176 N 
ATOM     13  H3  UNL     1      11.759  37.605  -7.860  1.00  0.00     0.186 HD
HETATM   14  C10 UNL     1      12.809  39.142  -8.722  1.00  0.00     0.134 A 
HETATM   15  C21 UNL     1      13.175  40.448  -8.520  1.00  0.00     0.099 A 
HETATM   16  C22 UNL     1      13.923  41.053  -9.644  1.00  0.00     0.259 C 
HETATM   17  O1  UNL     1      13.584  40.577 -10.759  1.00  0.00    -0.267 OA
HETATM   18  N7  UNL     1      14.920  42.060  -9.570  1.00  0.00    -0.343 N 
HETATM   19  C23 UNL     1      15.795  42.050 -10.713  1.00  0.00     0.130 C 
ENDROOT
BRANCH  14  20
HETATM   20  N4  UNL     1      13.306  38.434  -9.813  1.00  0.00    -0.375 N 
ATOM     21  H4  UNL     1      12.992  38.644 -10.760  1.00  0.00     0.161 HD
BRANCH  20  22
HETATM   22  C11 UNL     1      14.297  37.374  -9.561  1.00  0.00     0.121 C 
BRANCH  22  23
HETATM   23  C12 UNL     1      14.584  36.547 -10.772  1.00  0.00     0.020 C 
BRANCH  23  24
HETATM   24  C13 UNL     1      13.629  36.877 -11.887  1.00  0.00     0.002 C 
BRANCH  24  25
HETATM   25  C14 UNL     1      13.235  35.658 -12.716  1.00  0.00     0.000 C 
BRANCH  25  26
HETATM   26  C15 UNL     1      13.425  36.038 -14.150  1.00  0.00     0.002 C 
BRANCH  26  27
HETATM   27  C16 UNL     1      14.218  37.302 -14.302  1.00  0.00     0.027 C 
BRANCH  27  28
HETATM   28  C17 UNL     1      15.384  37.129 -15.201  1.00  0.00     0.232 C 
BRANCH  28  29
HETATM   29  N5  UNL     1      16.362  36.224 -14.642  1.00  0.00    -0.075 N 
ATOM     30  H52 UNL     1      15.923  35.359 -14.323  1.00  0.00     0.277 HD
ATOM     31  H51 UNL     1      16.967  35.842 -15.369  1.00  0.00     0.277 HD
BRANCH  29  32
HETATM   32  C18 UNL     1      17.132  36.831 -13.594  1.00  0.00     0.233 C 
BRANCH  32  33
HETATM   33  C19 UNL     1      17.973  37.990 -14.011  1.00  0.00     0.055 C 
BRANCH  33  34
HETATM   34  C20 UNL     1      17.810  39.221 -13.178  1.00  0.00     0.231 C 
BRANCH  34  35
HETATM   35  N6  UNL     1      16.805  39.071 -12.157  1.00  0.00    -0.079 N 
ATOM     36  H63 UNL     1      16.831  38.135 -11.753  1.00  0.00     0.274 HD
ATOM     37  H62 UNL     1      17.042  39.616 -11.328  1.00  0.00     0.274 HD
ATOM     38  H61 UNL     1      15.869  39.300 -12.490  1.00  0.00     0.274 HD
ENDBRANCH  34  35
ENDBRANCH  33  34
ENDBRANCH  32  33
ENDBRANCH  29  32
ENDBRANCH  28  29
ENDBRANCH  27  28
ENDBRANCH  26  27
ENDBRANCH  25  26
ENDBRANCH  24  25
ENDBRANCH  23  24
ENDBRANCH  22  23
ENDBRANCH  20  22
ENDBRANCH  14  20
BRANCH  11  39
HETATM   39  N2  UNL     1      10.944  38.616  -5.733  1.00  0.00    -0.234 N 
ATOM     40  H22 UNL     1      10.195  39.123  -5.261  1.00  0.00     0.174 HD
ATOM     41  H21 UNL     1      11.132  37.639  -5.513  1.00  0.00     0.174 HD
ENDBRANCH  11  39
TORSDOF 14
ENDMDL
MODEL 3
REMARK VINA RESULT: -7.341055971      1.091      1.963
REMARK  14 active torsions:
REMARK  status: ('A' for Active; 'I' for Inactive)
REMARK    1  A    between atoms: C9_11  and  N2_12 
REMARK    2  A    between atoms: C10_17  and  N4_18 
REMARK    3  A    between atoms: N4_18  and  C11_20 
REMARK    4  A    between atoms: C11_20  and  C12_21 
REMARK    5  A    between atoms: C12_21  and  C13_22 
REMARK    6  A    between atoms: C13_22  and  C14_23 
REMARK    7  A    between atoms: C14_23  and  C15_24 
REMARK    8  A    between atoms: C15_24  and  C16_25 
REMARK    9  A    between atoms: C16_25  and  C17_26 
REMARK   10  A    between atoms: C17_26  and  N5_27 
REMARK   11  A    between atoms: N5_27  and  C18_30 
REMARK   12  A    between atoms: C18_30  and  C19_31 
REMARK   13  A    between atoms: C19_31  and  C20_32 
REMARK   14  A    between atoms: C20_32  and  N6_33 
ROOT
HETATM    1  C1  UNL     1      18.344  41.127 -11.790  1.00  0.00     0.011 C 
HETATM    2  C2  UNL     1      17.413  41.558 -10.699  1.00  0.00    -0.000 C 
HETATM    3  C3  UNL     1      17.751  42.923 -10.208  1.00  0.00     0.008 C 
HETATM    4  C4  UNL     1      16.568  43.746  -9.785  1.00  0.00     0.026 C 
HETATM    5  C5  UNL     1      15.616  42.848  -9.024  1.00  0.00     0.088 C 
HETATM    6  C6  UNL     1      14.408  43.567  -8.533  1.00  0.00     0.031 C 
HETATM    7  C7  UNL     1      13.741  43.021  -7.326  1.00  0.00     0.061 C 
HETATM    8  C8  UNL     1      13.134  41.681  -7.477  1.00  0.00     0.046 A 
HETATM    9  N1  UNL     1      12.371  41.396  -6.403  1.00  0.00    -0.195 N 
ATOM     10  H1  UNL     1      12.265  42.072  -5.646  1.00  0.00     0.184 HD
HETATM   11  C9  UNL     1      11.754  40.209  -6.351  1.00  0.00     0.677 A 
HETATM   12  N3  UNL     1      11.891  39.318  -7.348  1.00  0.00    -0.176 N 
ATOM     13  H3  UNL     1      11.405  38.424  -7.272  1.00  0.00     0.186 HD
HETATM   14  C10 UNL     1      12.647  39.552  -8.451  1.00  0.00     0.134 A 
HETATM   15  C21 UNL     1      13.277  40.770  -8.505  1.00  0.00     0.099 A 
HETATM   16  C22 UNL     1      14.019  41.017  -9.761  1.00  0.00     0.259 C 
HETATM   17  O1  UNL     1      13.493  40.448 -10.751  1.00  0.00    -0.267 OA
HETATM   18  N7  UNL     1      15.195  41.795  -9.924  1.00  0.00    -0.343 N 
HETATM   19  C23 UNL     1      15.941  41.420 -11.096  1.00  0.00     0.130 C 
ENDROOT
BRANCH  14  20
HETATM   20  N4  UNL     1      12.895  38.590  -9.427  1.00  0.00    -0.375 N 
ATOM     21  H4  UNL     1      12.325  38.542 -10.272  1.00  0.00     0.161 HD
BRANCH  20  22
HETATM   22  C11 UNL     1      14.001  37.643  -9.206  1.00  0.00     0.121 C 
BRANCH  22  23
HETATM   23  C12 UNL     1      14.379  36.893 -10.442  1.00  0.00     0.020 C 
BRANCH  23  24
HETATM   24  C13 UNL     1      13.251  36.893 -11.438  1.00  0.00     0.002 C 
BRANCH  24  25
HETATM   25  C14 UNL     1      13.721  37.109 -12.873  1.00  0.00     0.000 C 
BRANCH  25  26
HETATM   26  C15 UNL     1      13.627  35.782 -13.557  1.00  0.00     0.002 C 
BRANCH  26  27
HETATM   27  C16 UNL     1      13.332  35.919 -15.022  1.00  0.00     0.027 C 
BRANCH  27  28
HETATM   28  C17 UNL     1      14.485  36.462 -15.778  1.00  0.00     0.232 C 
BRANCH  28  29
HETATM   29  N5  UNL     1      15.711  35.767 -15.459  1.00  0.00    -0.075 N 
ATOM     30  H52 UNL     1      15.668  35.353 -14.527  1.00  0.00     0.277 HD
ATOM     31  H51 UNL     1      15.806  34.915 -16.011  1.00  0.00     0.277 HD
BRANCH  29  32
HETATM   32  C18 UNL     1      16.867  36.606 -15.600  1.00  0.00     0.233 C 
BRANCH  32  33
HETATM   33  C19 UNL     1      16.796  37.914 -14.886  1.00  0.00     0.055 C 
BRANCH  33  34
HETATM   34  C20 UNL     1      17.721  38.049 -13.720  1.00  0.00     0.231 C 
BRANCH  34  35
HETATM   35  N6  UNL     1      17.301  37.268 -12.585  1.00  0.00    -0.079 N 
ATOM     36  H63 UNL     1      16.297  37.092 -12.613  1.00  0.00     0.274 HD
ATOM     37  H62 UNL     1      17.639  36.308 -12.656  1.00  0.00     0.274 HD
ATOM     38  H61 UNL     1      17.574  37.687 -11.697  1.00  0.00     0.274 HD
ENDBRANCH  34  35
ENDBRANCH  33  34
ENDBRANCH  32  33
ENDBRANCH  29  32
ENDBRANCH  28  29
ENDBRANCH  27  28
ENDBRANCH  26  27
ENDBRANCH  25  26
ENDBRANCH  24  25
ENDBRANCH  23  24
ENDBRANCH  22  23
ENDBRANCH  20  22
ENDBRANCH  14  20
BRANCH  11  39
HETATM   39  N2  UNL     1      11.002  39.911  -5.313  1.00  0.00    -0.234 N 
ATOM     40  H22 UNL     1      10.383  40.620  -4.919  1.00  0.00     0.174 HD
ATOM     41  H21 UNL     1      11.048  38.976  -4.910  1.00  0.00     0.174 HD
ENDBRANCH  11  39
TORSDOF 14
ENDMDL
MODEL 4
REMARK VINA RESULT: -7.310827230      0.857      1.273
REMARK  14 active torsions:
REMARK  status: ('A' for Active; 'I' for Inactive)
REMARK    1  A    between atoms: C9_11  and  N2_12 
REMARK    2  A    between atoms: C10_17  and  N4_18 
REMARK    3  A    between atoms: N4_18  and  C11_20 
REMARK    4  A    between atoms: C11_20  and  C12_21 
REMARK    5  A    between atoms: C12_21  and  C13_22 
REMARK    6  A    between atoms: C13_22  and  C14_23 
REMARK    7  A    between atoms: C14_23  and  C15_24 
REMARK    8  A    between atoms: C15_24  and  C16_25 
REMARK    9  A    between atoms: C16_25  and  C17_26 
REMARK   10  A    between atoms: C17_26  and  N5_27 
REMARK   11  A    between atoms: N5_27  and  C18_30 
REMARK   12  A    between atoms: C18_30  and  C19_31 
REMARK   13  A    between atoms: C19_31  and  C20_32 
REMARK   14  A    between atoms: C20_32  and  N6_33 
ROOT
HETATM    1  C1  UNL     1      18.464  41.227 -11.839  1.00  0.00     0.011 C 
HETATM    2  C2  UNL     1      17.531  41.632 -10.738  1.00  0.00    -0.000 C 
HETATM    3  C3  UNL     1      17.874  42.982 -10.209  1.00  0.00     0.008 C 
HETATM    4  C4  UNL     1      16.694  43.798  -9.766  1.00  0.00     0.026 C 
HETATM    5  C5  UNL     1      15.736  42.884  -9.033  1.00  0.00     0.088 C 
HETATM    6  C6  UNL     1      14.530  43.595  -8.525  1.00  0.00     0.031 C 
HETATM    7  C7  UNL     1      13.858  43.019  -7.335  1.00  0.00     0.061 C 
HETATM    8  C8  UNL     1      13.246  41.686  -7.524  1.00  0.00     0.046 A 
HETATM    9  N1  UNL     1      12.478  41.376  -6.460  1.00  0.00    -0.195 N 
ATOM     10  H1  UNL     1      12.374  42.031  -5.685  1.00  0.00     0.184 HD
HETATM   11  C9  UNL     1      11.856  40.190  -6.441  1.00  0.00     0.677 A 
HETATM   12  N3  UNL     1      11.992  39.326  -7.462  1.00  0.00    -0.176 N 
ATOM     13  H3  UNL     1      11.502  38.433  -7.411  1.00  0.00     0.186 HD
HETATM   14  C10 UNL     1      12.751  39.587  -8.557  1.00  0.00     0.134 A 
HETATM   15  C21 UNL     1      13.387  40.802  -8.576  1.00  0.00     0.099 A 
HETATM   16  C22 UNL     1      14.133  41.081  -9.823  1.00  0.00     0.259 C 
HETATM   17  O1  UNL     1      13.607  40.541 -10.830  1.00  0.00    -0.267 OA
HETATM   18  N7  UNL     1      15.313  41.858  -9.962  1.00  0.00    -0.343 N 
HETATM   19  C23 UNL     1      16.060  41.512 -11.142  1.00  0.00     0.130 C 
ENDROOT
BRANCH  14  20
HETATM   20  N4  UNL     1      12.997  38.651  -9.558  1.00  0.00    -0.375 N 
ATOM     21  H4  UNL     1      12.489  38.684 -10.442  1.00  0.00     0.161 HD
BRANCH  20  22
HETATM   22  C11 UNL     1      14.009  37.611  -9.306  1.00  0.00     0.121 C 
BRANCH  22  23
HETATM   23  C12 UNL     1      14.395  36.864 -10.541  1.00  0.00     0.020 C 
BRANCH  23  24
HETATM   24  C13 UNL     1      13.282  36.886 -11.553  1.00  0.00     0.002 C 
BRANCH  24  25
HETATM   25  C14 UNL     1      13.755  37.259 -12.954  1.00  0.00     0.000 C 
BRANCH  25  26
HETATM   26  C15 UNL     1      13.623  36.027 -13.792  1.00  0.00     0.002 C 
BRANCH  26  27
HETATM   27  C16 UNL     1      14.379  36.134 -15.082  1.00  0.00     0.027 C 
BRANCH  27  28
HETATM   28  C17 UNL     1      13.521  35.863 -16.260  1.00  0.00     0.232 C 
BRANCH  28  29
HETATM   29  N5  UNL     1      13.534  34.464 -16.622  1.00  0.00    -0.075 N 
ATOM     30  H52 UNL     1      13.885  33.889 -15.855  1.00  0.00     0.277 HD
ATOM     31  H51 UNL     1      12.587  34.091 -16.685  1.00  0.00     0.277 HD
BRANCH  29  32
HETATM   32  C18 UNL     1      14.269  34.219 -17.830  1.00  0.00     0.233 C 
BRANCH  32  33
HETATM   33  C19 UNL     1      15.126  32.999 -17.819  1.00  0.00     0.055 C 
BRANCH  33  34
HETATM   34  C20 UNL     1      16.597  33.260 -17.866  1.00  0.00     0.231 C 
BRANCH  34  35
HETATM   35  N6  UNL     1      16.981  34.415 -17.096  1.00  0.00    -0.079 N 
ATOM     36  H63 UNL     1      17.533  35.062 -17.658  1.00  0.00     0.274 HD
ATOM     37  H62 UNL     1      16.176  35.010 -16.902  1.00  0.00     0.274 HD
ATOM     38  H61 UNL     1      17.470  34.168 -16.235  1.00  0.00     0.274 HD
ENDBRANCH  34  35
ENDBRANCH  33  34
ENDBRANCH  32  33
ENDBRANCH  29  32
ENDBRANCH  28  29
ENDBRANCH  27  28
ENDBRANCH  26  27
ENDBRANCH  25  26
ENDBRANCH  24  25
ENDBRANCH  23  24
ENDBRANCH  22  23
ENDBRANCH  20  22
ENDBRANCH  14  20
BRANCH  11  39
HETATM   39  N2  UNL     1      11.101  39.868  -5.413  1.00  0.00    -0.234 N 
ATOM     40  H22 UNL     1      10.087  39.962  -5.483  1.00  0.00     0.174 HD
ATOM     41  H21 UNL     1      11.536  39.528  -4.556  1.00  0.00     0.174 HD
ENDBRANCH  11  39
TORSDOF 14
ENDMDL
MODEL 5
REMARK VINA RESULT: -7.284486637      1.815      2.403
REMARK  14 active torsions:
REMARK  status: ('A' for Active; 'I' for Inactive)
REMARK    1  A    between atoms: C9_11  and  N2_12 
REMARK    2  A    between atoms: C10_17  and  N4_18 
REMARK    3  A    between atoms: N4_18  and  C11_20 
REMARK    4  A    between atoms: C11_20  and  C12_21 
REMARK    5  A    between atoms: C12_21  and  C13_22 
REMARK    6  A    between atoms: C13_22  and  C14_23 
REMARK    7  A    between atoms: C14_23  and  C15_24 
REMARK    8  A    between atoms: C15_24  and  C16_25 
REMARK    9  A    between atoms: C16_25  and  C17_26 
REMARK   10  A    between atoms: C17_26  and  N5_27 
REMARK   11  A    between atoms: N5_27  and  C18_30 
REMARK   12  A    between atoms: C18_30  and  C19_31 
REMARK   13  A    between atoms: C19_31  and  C20_32 
REMARK   14  A    between atoms: C20_32  and  N6_33 
ROOT
HETATM    1  C1  UNL     1      18.637  42.413 -11.678  1.00  0.00     0.011 C 
HETATM    2  C2  UNL     1      17.620  42.445 -10.578  1.00  0.00    -0.000 C 
HETATM    3  C3  UNL     1      17.768  43.670  -9.742  1.00  0.00     0.008 C 
HETATM    4  C4  UNL     1      16.477  44.220  -9.207  1.00  0.00     0.026 C 
HETATM    5  C5  UNL     1      15.617  43.058  -8.759  1.00  0.00     0.088 C 
HETATM    6  C6  UNL     1      14.312  43.489  -8.185  1.00  0.00     0.031 C 
HETATM    7  C7  UNL     1      13.676  42.583  -7.198  1.00  0.00     0.061 C 
HETATM    8  C8  UNL     1      13.247  41.267  -7.718  1.00  0.00     0.046 A 
HETATM    9  N1  UNL     1      12.486  40.635  -6.801  1.00  0.00    -0.195 N 
ATOM     10  H1  UNL     1      12.270  41.079  -5.908  1.00  0.00     0.184 HD
HETATM   11  C9  UNL     1      12.021  39.412  -7.086  1.00  0.00     0.677 A 
HETATM   12  N3  UNL     1      12.304  38.825  -8.261  1.00  0.00    -0.176 N 
ATOM     13  H3  UNL     1      11.931  37.893  -8.442  1.00  0.00     0.186 HD
HETATM   14  C10 UNL     1      13.064  39.415  -9.220  1.00  0.00     0.134 A 
HETATM   15  C21 UNL     1      13.539  40.668  -8.928  1.00  0.00     0.099 A 
HETATM   16  C22 UNL     1      14.289  41.309 -10.030  1.00  0.00     0.259 C 
HETATM   17  O1  UNL     1      13.874  40.955 -11.164  1.00  0.00    -0.267 OA
HETATM   18  N7  UNL     1      15.364  42.229  -9.917  1.00  0.00    -0.343 N 
HETATM   19  C23 UNL     1      16.193  42.250 -11.094  1.00  0.00     0.130 C 
ENDROOT
BRANCH  14  20
HETATM   20  N4  UNL     1      13.465  38.767 -10.385  1.00  0.00    -0.375 N 
ATOM     21  H4  UNL     1      13.905  39.283 -11.147  1.00  0.00     0.161 HD
BRANCH  20  22
HETATM   22  C11 UNL     1      13.235  37.315 -10.488  1.00  0.00     0.121 C 
BRANCH  22  23
HETATM   23  C12 UNL     1      14.484  36.548 -10.777  1.00  0.00     0.020 C 
BRANCH  23  24
HETATM   24  C13 UNL     1      14.320  35.696 -12.006  1.00  0.00     0.002 C 
BRANCH  24  25
HETATM   25  C14 UNL     1      13.378  36.310 -13.038  1.00  0.00     0.000 C 
BRANCH  25  26
HETATM   26  C15 UNL     1      14.091  36.259 -14.351  1.00  0.00     0.002 C 
BRANCH  26  27
HETATM   27  C16 UNL     1      14.393  37.627 -14.886  1.00  0.00     0.027 C 
BRANCH  27  28
HETATM   28  C17 UNL     1      14.152  38.689 -13.881  1.00  0.00     0.232 C 
BRANCH  28  29
HETATM   29  N5  UNL     1      15.318  39.522 -13.691  1.00  0.00    -0.075 N 
ATOM     30  H52 UNL     1      15.759  39.747 -14.584  1.00  0.00     0.277 HD
ATOM     31  H51 UNL     1      15.055  40.462 -13.397  1.00  0.00     0.277 HD
BRANCH  29  32
HETATM   32  C18 UNL     1      16.262  38.940 -12.780  1.00  0.00     0.233 C 
BRANCH  32  33
HETATM   33  C19 UNL     1      17.675  38.915 -13.256  1.00  0.00     0.055 C 
BRANCH  33  34
HETATM   34  C20 UNL     1      18.044  37.719 -14.075  1.00  0.00     0.231 C 
BRANCH  34  35
HETATM   35  N6  UNL     1      17.541  36.489 -13.519  1.00  0.00    -0.079 N 
ATOM     36  H63 UNL     1      18.206  35.728 -13.654  1.00  0.00     0.274 HD
ATOM     37  H62 UNL     1      17.535  36.524 -12.499  1.00  0.00     0.274 HD
ATOM     38  H61 UNL     1      16.622  36.241 -13.883  1.00  0.00     0.274 HD
ENDBRANCH  34  35
ENDBRANCH  33  34
ENDBRANCH  32  33
ENDBRANCH  29  32
ENDBRANCH  28  29
ENDBRANCH  27  28
ENDBRANCH  26  27
ENDBRANCH  25  26
ENDBRANCH  24  25
ENDBRANCH  23  24
ENDBRANCH  22  23
ENDBRANCH  20  22
ENDBRANCH  14  20
BRANCH  11  39
HETATM   39  N2  UNL     1      11.276  38.778  -6.206  1.00  0.00    -0.234 N 
ATOM     40  H22 UNL     1      10.753  39.312  -5.511  1.00  0.00     0.174 HD
ATOM     41  H21 UNL     1      11.228  37.760  -6.226  1.00  0.00     0.174 HD
ENDBRANCH  11  39
TORSDOF 14
ENDMDL
