MODEL 1
REMARK VINA RESULT: -6.318355026      0.000      0.000
REMARK  5 active torsions:
REMARK  status: ('A' for Active; 'I' for Inactive)
REMARK    1  A    between atoms: C4_4  and  C5_5 
REMARK    2  A    between atoms: N1_8  and  C6_9 
REMARK    3  A    between atoms: C7_10  and  O3_11 
REMARK    4  A    between atoms: C7_10  and  N2_13 
REMARK       I    between atoms: N2_13  and  C8_15 
REMARK       I    between atoms: C8_15  and  N3_16 
REMARK       I    between atoms: C8_15  and  N4_20 
REMARK    5  A    between atoms: C15_30  and  C16_31 
ROOT
HETATM    1  C1  UNL     1     106.386  22.650   8.344  1.00  0.00     0.036 C 
HETATM    2  C2  UNL     1     106.362  22.102   9.703  1.00  0.00    -0.025 C 
HETATM    3  C3  UNL     1     107.470  21.750  10.536  1.00  0.00    -0.039 C 
HETATM    4  C4  UNL     1     106.733  21.281  11.860  1.00  0.00     0.215 C 
HETATM    5  N1  UNL     1     107.307  20.116  12.230  1.00  0.00    -0.362 N 
HETATM    6  C9  UNL     1     108.596  19.970  11.576  1.00  0.00     0.099 C 
HETATM    7  C10 UNL     1     109.590  20.262  12.617  1.00  0.00     0.027 C 
HETATM    8  C11 UNL     1     110.181  21.554  12.258  1.00  0.00     0.012 C 
HETATM    9  C12 UNL     1     109.938  21.732  10.754  1.00  0.00    -0.033 C 
HETATM   10  C13 UNL     1     111.220  21.460  10.122  1.00  0.00     0.016 C 
HETATM   11  C14 UNL     1     109.802  23.242  10.608  1.00  0.00     0.016 C 
HETATM   12  C15 UNL     1     108.672  20.950  10.422  1.00  0.00     0.019 C 
ENDROOT
BRANCH   5  13
HETATM   13  C6  UNL     1     106.630  18.905  12.398  1.00  0.00     0.143 C 
HETATM   14  C7  UNL     1     105.746  18.581  13.457  1.00  0.00     0.154 C 
BRANCH  14  15
HETATM   15  O3  UNL     1     105.225  17.374  13.373  1.00  0.00    -0.345 OA
ATOM     16  H3  UNL     1     105.104  16.944  14.211  1.00  0.00     0.219 HD
ENDBRANCH  14  15
BRANCH  14  17
HETATM   17  N2  UNL     1     105.302  19.275  14.589  1.00  0.00    -0.321 N 
HETATM   18  C8  UNL     1     103.891  19.245  15.017  1.00  0.00     0.482 C 
HETATM   19  N3  UNL     1     103.377  20.596  14.867  1.00  0.00    -0.033 N 
HETATM   20  N4  UNL     1     103.760  18.874  16.404  1.00  0.00    -0.033 N 
ATOM     21  H33 UNL     1     103.933  21.294  15.361  1.00  0.00     0.278 HD
ATOM     22  H32 UNL     1     103.504  20.972  13.928  1.00  0.00     0.278 HD
ATOM     23  H31 UNL     1     102.402  20.575  15.163  1.00  0.00     0.278 HD
ATOM     24  H43 UNL     1     104.226  17.988  16.597  1.00  0.00     0.278 HD
ATOM     25  H42 UNL     1     104.318  19.482  17.005  1.00  0.00     0.278 HD
ATOM     26  H41 UNL     1     102.785  18.853  16.700  1.00  0.00     0.278 HD
ATOM     27  H2  UNL     1     105.974  19.818  15.132  1.00  0.00     0.165 HD
ENDBRANCH  14  17
ENDBRANCH   5  13
BRANCH   4  28
HETATM   28  C5  UNL     1     106.702  22.342  12.855  1.00  0.00     0.201 C 
HETATM   29  O1  UNL     1     107.395  23.390  12.891  1.00  0.00    -0.646 OA
HETATM   30  O2  UNL     1     105.808  22.270  13.962  1.00  0.00    -0.646 OA
ENDBRANCH   4  28
BRANCH  12  31
HETATM   31  C16 UNL     1     108.943  20.072   9.211  1.00  0.00    -0.037 C 
HETATM   32  C17 UNL     1     109.260  20.738   7.926  1.00  0.00     0.015 C 
HETATM   33  C18 UNL     1     109.926  18.961   9.421  1.00  0.00     0.015 C 
HETATM   34  C19 UNL     1     107.669  19.249   8.857  1.00  0.00     0.015 C 
ENDBRANCH  12  31
TORSDOF 5
ENDMDL
MODEL 2
REMARK VINA RESULT: -6.173396219      3.931      6.409
REMARK  5 active torsions:
REMARK  status: ('A' for Active; 'I' for Inactive)
REMARK    1  A    between atoms: C4_4  and  C5_5 
REMARK    2  A    between atoms: N1_8  and  C6_9 
REMARK    3  A    between atoms: C7_10  and  O3_11 
REMARK    4  A    between atoms: C7_10  and  N2_13 
REMARK       I    between atoms: N2_13  and  C8_15 
REMARK       I    between atoms: C8_15  and  N3_16 
REMARK       I    between atoms: C8_15  and  N4_20 
REMARK    5  A    between atoms: C15_30  and  C16_31 
ROOT
HETATM    1  C1  UNL     1     109.519  23.757  12.989  1.00  0.00     0.036 C 
HETATM    2  C2  UNL     1     110.229  22.747  12.200  1.00  0.00    -0.025 C 
HETATM    3  C3  UNL     1     109.716  21.915  11.156  1.00  0.00    -0.039 C 
HETATM    4  C4  UNL     1     111.015  21.117  10.720  1.00  0.00     0.215 C 
HETATM    5  N1  UNL     1     110.659  19.817  10.634  1.00  0.00    -0.362 N 
HETATM    6  C9  UNL     1     109.214  19.705  10.539  1.00  0.00     0.099 C 
HETATM    7  C10 UNL     1     108.944  19.399   9.128  1.00  0.00     0.027 C 
HETATM    8  C11 UNL     1     108.329  20.604   8.566  1.00  0.00     0.012 C 
HETATM    9  C12 UNL     1     107.744  21.379   9.754  1.00  0.00    -0.033 C 
HETATM   10  C13 UNL     1     106.309  21.146   9.698  1.00  0.00     0.016 C 
HETATM   11  C14 UNL     1     107.869  22.830   9.306  1.00  0.00     0.016 C 
HETATM   12  C15 UNL     1     108.593  21.020  10.968  1.00  0.00     0.019 C 
ENDROOT
BRANCH   5  13
HETATM   13  C6  UNL     1     111.250  18.773  11.351  1.00  0.00     0.143 C 
HETATM   14  C7  UNL     1     112.623  18.422  11.338  1.00  0.00     0.154 C 
BRANCH  14  15
HETATM   15  O3  UNL     1     112.926  17.405  12.117  1.00  0.00    -0.345 OA
ATOM     16  H3  UNL     1     113.088  16.593  11.651  1.00  0.00     0.219 HD
ENDBRANCH  14  15
BRANCH  14  17
HETATM   17  N2  UNL     1     113.741  18.929  10.665  1.00  0.00    -0.321 N 
HETATM   18  C8  UNL     1     114.880  19.527  11.389  1.00  0.00     0.482 C 
HETATM   19  N3  UNL     1     114.915  20.934  11.027  1.00  0.00    -0.033 N 
HETATM   20  N4  UNL     1     116.134  18.938  10.993  1.00  0.00    -0.033 N 
ATOM     21  H33 UNL     1     114.952  21.090  10.019  1.00  0.00     0.278 HD
ATOM     22  H32 UNL     1     114.032  21.415  11.198  1.00  0.00     0.278 HD
ATOM     23  H31 UNL     1     115.702  21.347  11.527  1.00  0.00     0.278 HD
ATOM     24  H43 UNL     1     116.119  17.924  11.099  1.00  0.00     0.278 HD
ATOM     25  H42 UNL     1     116.267  18.991   9.982  1.00  0.00     0.278 HD
ATOM     26  H41 UNL     1     116.921  19.351  11.493  1.00  0.00     0.278 HD
ATOM     27  H2  UNL     1     113.769  18.885   9.647  1.00  0.00     0.165 HD
ENDBRANCH  14  17
ENDBRANCH   5  13
BRANCH   4  28
HETATM   28  C5  UNL     1     111.631  21.707   9.542  1.00  0.00     0.201 C 
HETATM   29  O1  UNL     1     111.299  22.759   8.939  1.00  0.00    -0.646 OA
HETATM   30  O2  UNL     1     112.756  21.087   8.926  1.00  0.00    -0.646 OA
ENDBRANCH   4  28
BRANCH  12  31
HETATM   31  C16 UNL     1     107.669  20.634  12.113  1.00  0.00    -0.037 C 
HETATM   32  C17 UNL     1     106.701  21.647  12.596  1.00  0.00     0.015 C 
HETATM   33  C18 UNL     1     106.948  19.330  11.955  1.00  0.00     0.015 C 
HETATM   34  C19 UNL     1     108.507  20.334  13.391  1.00  0.00     0.015 C 
ENDBRANCH  12  31
TORSDOF 5
ENDMDL
MODEL 3
REMARK VINA RESULT: -6.163205601      1.683      2.056
REMARK  5 active torsions:
REMARK  status: ('A' for Active; 'I' for Inactive)
REMARK    1  A    between atoms: C4_4  and  C5_5 
REMARK    2  A    between atoms: N1_8  and  C6_9 
REMARK    3  A    between atoms: C7_10  and  O3_11 
REMARK    4  A    between atoms: C7_10  and  N2_13 
REMARK       I    between atoms: N2_13  and  C8_15 
REMARK       I    between atoms: C8_15  and  N3_16 
REMARK       I    between atoms: C8_15  and  N4_20 
REMARK    5  A    between atoms: C15_30  and  C16_31 
ROOT
HETATM    1  C1  UNL     1     108.148  23.315   8.374  1.00  0.00     0.036 C 
HETATM    2  C2  UNL     1     108.060  22.747   9.721  1.00  0.00    -0.025 C 
HETATM    3  C3  UNL     1     109.027  21.952  10.413  1.00  0.00    -0.039 C 
HETATM    4  C4  UNL     1     108.313  21.732  11.812  1.00  0.00     0.215 C 
HETATM    5  N1  UNL     1     108.427  20.418  12.102  1.00  0.00    -0.362 N 
HETATM    6  C9  UNL     1     109.479  19.823  11.297  1.00  0.00     0.099 C 
HETATM    7  C10 UNL     1     110.615  19.656  12.214  1.00  0.00     0.027 C 
HETATM    8  C11 UNL     1     111.618  20.639  11.797  1.00  0.00     0.012 C 
HETATM    9  C12 UNL     1     111.303  20.975  10.334  1.00  0.00    -0.033 C 
HETATM   10  C13 UNL     1     112.303  20.266   9.551  1.00  0.00     0.016 C 
HETATM   11  C14 UNL     1     111.748  22.428  10.217  1.00  0.00     0.016 C 
HETATM   12  C15 UNL     1     109.805  20.759  10.150  1.00  0.00     0.019 C 
ENDROOT
BRANCH   5  13
HETATM   13  C6  UNL     1     107.355  19.553  12.340  1.00  0.00     0.143 C 
HETATM   14  C7  UNL     1     106.600  19.466  13.537  1.00  0.00     0.154 C 
BRANCH  14  15
HETATM   15  O3  UNL     1     105.630  18.577  13.498  1.00  0.00    -0.345 OA
ATOM     16  H3  UNL     1     104.759  18.954  13.461  1.00  0.00     0.219 HD
ENDBRANCH  14  15
BRANCH  14  17
HETATM   17  N2  UNL     1     106.665  20.131  14.767  1.00  0.00    -0.321 N 
HETATM   18  C8  UNL     1     107.496  19.631  15.880  1.00  0.00     0.482 C 
HETATM   19  N3  UNL     1     106.584  19.247  16.945  1.00  0.00    -0.033 N 
HETATM   20  N4  UNL     1     108.371  20.653  16.395  1.00  0.00    -0.033 N 
ATOM     21  H33 UNL     1     105.950  19.997  17.221  1.00  0.00     0.278 HD
ATOM     22  H32 UNL     1     105.872  18.582  16.644  1.00  0.00     0.278 HD
ATOM     23  H31 UNL     1     107.158  18.902  17.713  1.00  0.00     0.278 HD
ATOM     24  H43 UNL     1     108.946  21.058  15.656  1.00  0.00     0.278 HD
ATOM     25  H42 UNL     1     107.850  21.487  16.667  1.00  0.00     0.278 HD
ATOM     26  H41 UNL     1     108.945  20.308  17.164  1.00  0.00     0.278 HD
ATOM     27  H2  UNL     1     106.122  20.985  14.898  1.00  0.00     0.165 HD
ENDBRANCH  14  17
ENDBRANCH   5  13
BRANCH   4  28
HETATM   28  C5  UNL     1     108.802  22.669  12.812  1.00  0.00     0.201 C 
HETATM   29  O1  UNL     1     109.736  23.503  12.700  1.00  0.00    -0.646 OA
HETATM   30  O2  UNL     1     108.212  22.719  14.107  1.00  0.00    -0.646 OA
ENDBRANCH   4  28
BRANCH  12  31
HETATM   31  C16 UNL     1     109.583  19.910   8.908  1.00  0.00    -0.037 C 
HETATM   32  C17 UNL     1     109.956  20.487   7.596  1.00  0.00     0.015 C 
HETATM   33  C18 UNL     1     110.111  18.510   8.976  1.00  0.00     0.015 C 
HETATM   34  C19 UNL     1     108.062  19.623   8.728  1.00  0.00     0.015 C 
ENDBRANCH  12  31
TORSDOF 5
ENDMDL
MODEL 4
REMARK VINA RESULT: -5.950942109      1.407      1.640
REMARK  5 active torsions:
REMARK  status: ('A' for Active; 'I' for Inactive)
REMARK    1  A    between atoms: C4_4  and  C5_5 
REMARK    2  A    between atoms: N1_8  and  C6_9 
REMARK    3  A    between atoms: C7_10  and  O3_11 
REMARK    4  A    between atoms: C7_10  and  N2_13 
REMARK       I    between atoms: N2_13  and  C8_15 
REMARK       I    between atoms: C8_15  and  N3_16 
REMARK       I    between atoms: C8_15  and  N4_20 
REMARK    5  A    between atoms: C15_30  and  C16_31 
ROOT
HETATM    1  C1  UNL     1     105.972  22.299   9.104  1.00  0.00     0.036 C 
HETATM    2  C2  UNL     1     105.696  21.707  10.416  1.00  0.00    -0.025 C 
HETATM    3  C3  UNL     1     106.594  21.527  11.514  1.00  0.00    -0.039 C 
HETATM    4  C4  UNL     1     105.636  20.889  12.605  1.00  0.00     0.215 C 
HETATM    5  N1  UNL     1     106.293  19.831  13.126  1.00  0.00    -0.362 N 
HETATM    6  C9  UNL     1     107.712  19.938  12.834  1.00  0.00     0.099 C 
HETATM    7  C10 UNL     1     108.333  20.364  14.095  1.00  0.00     0.027 C 
HETATM    8  C11 UNL     1     108.755  21.751  13.887  1.00  0.00     0.012 C 
HETATM    9  C12 UNL     1     108.883  21.936  12.370  1.00  0.00    -0.033 C 
HETATM   10  C13 UNL     1     110.312  21.917  12.099  1.00  0.00     0.016 C 
HETATM   11  C14 UNL     1     108.521  23.403  12.175  1.00  0.00     0.016 C 
HETATM   12  C15 UNL     1     107.908  20.956  11.728  1.00  0.00     0.019 C 
ENDROOT
BRANCH   5  13
HETATM   13  C6  UNL     1     105.824  18.514  13.126  1.00  0.00     0.143 C 
HETATM   14  C7  UNL     1     104.775  18.000  13.928  1.00  0.00     0.154 C 
BRANCH  14  15
HETATM   15  O3  UNL     1     104.517  16.725  13.723  1.00  0.00    -0.345 OA
ATOM     16  H3  UNL     1     104.133  16.282  14.471  1.00  0.00     0.219 HD
ENDBRANCH  14  15
BRANCH  14  17
HETATM   17  N2  UNL     1     103.943  18.563  14.904  1.00  0.00    -0.321 N 
HETATM   18  C8  UNL     1     102.495  18.285  14.946  1.00  0.00     0.482 C 
HETATM   19  N3  UNL     1     101.819  19.541  14.667  1.00  0.00    -0.033 N 
HETATM   20  N4  UNL     1     102.074  17.837  16.250  1.00  0.00    -0.033 N 
ATOM     21  H33 UNL     1     102.102  20.297  15.290  1.00  0.00     0.278 HD
ATOM     22  H32 UNL     1     102.120  19.974  13.795  1.00  0.00     0.278 HD
ATOM     23  H31 UNL     1     100.817  19.349  14.697  1.00  0.00     0.278 HD
ATOM     24  H43 UNL     1     102.615  17.029  16.558  1.00  0.00     0.278 HD
ATOM     25  H42 UNL     1     102.346  18.499  16.976  1.00  0.00     0.278 HD
ATOM     26  H41 UNL     1     101.072  17.645  16.279  1.00  0.00     0.278 HD
ATOM     27  H2  UNL     1     104.351  19.182  15.605  1.00  0.00     0.165 HD
ENDBRANCH  14  17
ENDBRANCH   5  13
BRANCH   4  28
HETATM   28  C5  UNL     1     105.157  21.892  13.544  1.00  0.00     0.201 C 
HETATM   29  O1  UNL     1     105.493  23.101  13.623  1.00  0.00    -0.646 OA
HETATM   30  O2  UNL     1     104.190  21.554  14.533  1.00  0.00    -0.646 OA
ENDBRANCH   4  28
BRANCH  12  31
HETATM   31  C16 UNL     1     108.637  20.182  10.641  1.00  0.00    -0.037 C 
HETATM   32  C17 UNL     1     109.233  20.950   9.522  1.00  0.00     0.015 C 
HETATM   33  C18 UNL     1     109.647  19.185  11.119  1.00  0.00     0.015 C 
HETATM   34  C19 UNL     1     107.641  19.236   9.906  1.00  0.00     0.015 C 
ENDBRANCH  12  31
TORSDOF 5
ENDMDL
MODEL 5
REMARK VINA RESULT: -5.858273616      3.950      6.100
REMARK  5 active torsions:
REMARK  status: ('A' for Active; 'I' for Inactive)
REMARK    1  A    between atoms: C4_4  and  C5_5 
REMARK    2  A    between atoms: N1_8  and  C6_9 
REMARK    3  A    between atoms: C7_10  and  O3_11 
REMARK    4  A    between atoms: C7_10  and  N2_13 
REMARK       I    between atoms: N2_13  and  C8_15 
REMARK       I    between atoms: C8_15  and  N3_16 
REMARK       I    between atoms: C8_15  and  N4_20 
REMARK    5  A    between atoms: C15_30  and  C16_31 
ROOT
HETATM    1  C1  UNL     1     107.250  22.340  13.161  1.00  0.00     0.036 C 
HETATM    2  C2  UNL     1     108.648  21.955  12.952  1.00  0.00    -0.025 C 
HETATM    3  C3  UNL     1     109.440  22.096  11.770  1.00  0.00    -0.039 C 
HETATM    4  C4  UNL     1     110.840  21.533  12.257  1.00  0.00     0.215 C 
HETATM    5  N1  UNL     1     111.270  20.684  11.298  1.00  0.00    -0.362 N 
HETATM    6  C9  UNL     1     110.554  20.934  10.059  1.00  0.00     0.099 C 
HETATM    7  C10 UNL     1     111.506  21.656   9.205  1.00  0.00     0.027 C 
HETATM    8  C11 UNL     1     111.006  23.031   9.119  1.00  0.00     0.012 C 
HETATM    9  C12 UNL     1     109.510  22.963   9.449  1.00  0.00    -0.033 C 
HETATM   10  C13 UNL     1     108.827  23.095   8.172  1.00  0.00     0.016 C 
HETATM   11  C14 UNL     1     109.248  24.308  10.114  1.00  0.00     0.016 C 
HETATM   12  C15 UNL     1     109.320  21.760  10.366  1.00  0.00     0.019 C 
ENDROOT
BRANCH   5  13
HETATM   13  C6  UNL     1     111.578  19.335  11.499  1.00  0.00     0.143 C 
HETATM   14  C7  UNL     1     112.854  18.807  11.814  1.00  0.00     0.154 C 
BRANCH  14  15
HETATM   15  O3  UNL     1     112.872  17.499  11.968  1.00  0.00    -0.345 OA
ATOM     16  H3  UNL     1     113.499  17.051  11.411  1.00  0.00     0.219 HD
ENDBRANCH  14  15
BRANCH  14  17
HETATM   17  N2  UNL     1     114.117  19.383  12.000  1.00  0.00    -0.321 N 
HETATM   18  C8  UNL     1     114.950  19.816  10.862  1.00  0.00     0.482 C 
HETATM   19  N3  UNL     1     116.128  18.965  10.856  1.00  0.00    -0.033 N 
HETATM   20  N4  UNL     1     115.391  21.180  11.010  1.00  0.00    -0.033 N 
ATOM     21  H33 UNL     1     116.629  18.966  11.745  1.00  0.00     0.278 HD
ATOM     22  H32 UNL     1     115.905  17.970  10.836  1.00  0.00     0.278 HD
ATOM     23  H31 UNL     1     116.704  19.264  10.070  1.00  0.00     0.278 HD
ATOM     24  H43 UNL     1     114.603  21.812  11.154  1.00  0.00     0.278 HD
ATOM     25  H42 UNL     1     115.874  21.320  11.897  1.00  0.00     0.278 HD
ATOM     26  H41 UNL     1     115.967  21.479  10.223  1.00  0.00     0.278 HD
ATOM     27  H2  UNL     1     114.470  19.506  12.949  1.00  0.00     0.165 HD
ENDBRANCH  14  17
ENDBRANCH   5  13
BRANCH   4  28
HETATM   28  C5  UNL     1     111.744  22.608  12.634  1.00  0.00     0.201 C 
HETATM   29  O1  UNL     1     111.449  23.771  13.008  1.00  0.00    -0.646 OA
HETATM   30  O2  UNL     1     113.154  22.411  12.607  1.00  0.00    -0.646 OA
ENDBRANCH   4  28
BRANCH  12  31
HETATM   31  C16 UNL     1     108.172  20.917   9.834  1.00  0.00    -0.037 C 
HETATM   32  C17 UNL     1     106.826  21.535   9.773  1.00  0.00     0.015 C 
HETATM   33  C18 UNL     1     108.428  20.214   8.536  1.00  0.00     0.015 C 
HETATM   34  C19 UNL     1     107.937  19.692  10.769  1.00  0.00     0.015 C 
ENDBRANCH  12  31
TORSDOF 5
ENDMDL
