MODEL 1
REMARK VINA RESULT: -5.769038389      0.000      0.000
REMARK  11 active torsions:
REMARK  status: ('A' for Active; 'I' for Inactive)
REMARK    1  A    between atoms: C7_7  and  O1_8 
REMARK    2  A    between atoms: C8_10  and  C9_11 
REMARK    3  A    between atoms: C9_11  and  O2_12 
REMARK    4  A    between atoms: C14_18  and  C15_19 
REMARK    5  A    between atoms: C14_18  and  C16_22 
REMARK    6  A    between atoms: C16_22  and  O5_23 
REMARK    7  A    between atoms: C16_22  and  C17_25 
REMARK    8  A    between atoms: C17_25  and  C18_26 
REMARK    9  A    between atoms: C18_26  and  C19_27 
REMARK   10  A    between atoms: C19_27  and  C20_28 
REMARK   11  A    between atoms: C20_28  and  O6_29 
ROOT
HETATM    1  C1  UNL     1     103.624  19.580  13.090  1.00  0.00     0.017 C 
HETATM    2  C2  UNL     1     104.474  19.830  14.279  1.00  0.00    -0.016 C 
HETATM    3  C3  UNL     1     104.112  21.137  14.859  1.00  0.00     0.012 C 
HETATM    4  C4  UNL     1     104.334  22.119  13.691  1.00  0.00     0.006 C 
HETATM    5  C5  UNL     1     105.714  22.206  13.220  1.00  0.00     0.002 A 
HETATM    6  C6  UNL     1     105.917  22.303  11.704  1.00  0.00     0.038 A 
HETATM    7  C7  UNL     1     106.723  21.024  11.804  1.00  0.00     0.130 A 
HETATM    8  C8  UNL     1     106.559  20.934  13.265  1.00  0.00     0.019 A 
HETATM    9  C10 UNL     1     105.981  19.833  14.010  1.00  0.00    -0.023 C 
HETATM   10  C11 UNL     1     106.737  19.720  15.330  1.00  0.00     0.017 C 
HETATM   11  C12 UNL     1     106.025  18.426  13.486  1.00  0.00     0.012 C 
HETATM   12  C13 UNL     1     105.177  17.657  14.522  1.00  0.00     0.025 C 
HETATM   13  C14 UNL     1     104.230  18.611  15.143  1.00  0.00     0.082 C 
ENDROOT
BRANCH  13  14
HETATM   14  C15 UNL     1     102.840  18.025  14.887  1.00  0.00     0.185 C 
HETATM   15  O3  UNL     1     102.666  16.784  14.771  1.00  0.00    -0.647 OA
HETATM   16  O4  UNL     1     101.711  18.803  14.771  1.00  0.00    -0.647 OA
ENDBRANCH  13  14
BRANCH  13  17
HETATM   17  C16 UNL     1     104.143  18.787  16.581  1.00  0.00     0.138 C 
BRANCH  17  18
HETATM   18  O5  UNL     1     102.905  18.272  17.021  1.00  0.00    -0.394 OA
ATOM     19  H5  UNL     1     102.476  18.932  17.555  1.00  0.00     0.210 HD
ENDBRANCH  17  18
BRANCH  17  20
HETATM   20  C17 UNL     1     105.191  17.868  17.250  1.00  0.00     0.033 C 
BRANCH  20  21
HETATM   21  C18 UNL     1     105.260  18.152  18.714  1.00  0.00     0.004 C 
BRANCH  21  22
HETATM   22  C19 UNL     1     106.557  18.723  19.127  1.00  0.00     0.026 C 
BRANCH  22  23
HETATM   23  C20 UNL     1     106.870  18.797  20.578  1.00  0.00     0.164 C 
BRANCH  23  24
HETATM   24  O6  UNL     1     105.875  18.478  21.450  1.00  0.00    -0.401 OA
ATOM     25  H6  UNL     1     106.000  18.715  22.361  1.00  0.00     0.209 HD
ENDBRANCH  23  24
ENDBRANCH  22  23
ENDBRANCH  21  22
ENDBRANCH  20  21
ENDBRANCH  17  20
ENDBRANCH  13  17
BRANCH   8  26
HETATM   26  C9  UNL     1     107.936  21.429  13.822  1.00  0.00     0.177 C 
BRANCH  26  27
HETATM   27  O2  UNL     1     108.930  20.559  13.297  1.00  0.00    -0.400 OA
ATOM     28  H2  UNL     1     109.525  20.358  14.010  1.00  0.00     0.209 HD
ENDBRANCH  26  27
ENDBRANCH   8  26
BRANCH   7  29
HETATM   29  O1  UNL     1     106.378  19.991  10.962  1.00  0.00    -0.395 OA
ATOM     30  H1  UNL     1     107.019  19.301  10.831  1.00  0.00     0.210 HD
ENDBRANCH   7  29
TORSDOF 11
ENDMDL
MODEL 2
REMARK VINA RESULT: -5.682338486      4.882      8.208
REMARK  11 active torsions:
REMARK  status: ('A' for Active; 'I' for Inactive)
REMARK    1  A    between atoms: C7_7  and  O1_8 
REMARK    2  A    between atoms: C8_10  and  C9_11 
REMARK    3  A    between atoms: C9_11  and  O2_12 
REMARK    4  A    between atoms: C14_18  and  C15_19 
REMARK    5  A    between atoms: C14_18  and  C16_22 
REMARK    6  A    between atoms: C16_22  and  O5_23 
REMARK    7  A    between atoms: C16_22  and  C17_25 
REMARK    8  A    between atoms: C17_25  and  C18_26 
REMARK    9  A    between atoms: C18_26  and  C19_27 
REMARK   10  A    between atoms: C19_27  and  C20_28 
REMARK   11  A    between atoms: C20_28  and  O6_29 
ROOT
HETATM    1  C1  UNL     1     110.014  21.381   8.820  1.00  0.00     0.017 C 
HETATM    2  C2  UNL     1     109.667  20.300   9.773  1.00  0.00    -0.016 C 
HETATM    3  C3  UNL     1     108.905  19.258   9.057  1.00  0.00     0.012 C 
HETATM    4  C4  UNL     1     107.696  20.028   8.489  1.00  0.00     0.006 C 
HETATM    5  C5  UNL     1     106.815  20.612   9.498  1.00  0.00     0.002 A 
HETATM    6  C6  UNL     1     106.266  22.012   9.200  1.00  0.00     0.038 A 
HETATM    7  C7  UNL     1     106.945  22.469  10.475  1.00  0.00     0.130 A 
HETATM    8  C8  UNL     1     107.456  21.123  10.787  1.00  0.00     0.019 A 
HETATM    9  C10 UNL     1     108.841  20.742  10.983  1.00  0.00    -0.023 C 
HETATM   10  C11 UNL     1     108.874  19.654  12.051  1.00  0.00     0.017 C 
HETATM   11  C12 UNL     1     109.859  21.725  11.486  1.00  0.00     0.012 C 
HETATM   12  C13 UNL     1     111.174  20.924  11.389  1.00  0.00     0.025 C 
HETATM   13  C14 UNL     1     111.010  19.892  10.340  1.00  0.00     0.082 C 
ENDROOT
BRANCH  13  14
HETATM   14  C15 UNL     1     112.133  20.155   9.335  1.00  0.00     0.185 C 
HETATM   15  O3  UNL     1     113.232  20.652   9.699  1.00  0.00    -0.647 OA
HETATM   16  O4  UNL     1     112.019  19.870   7.993  1.00  0.00    -0.647 OA
ENDBRANCH  13  14
BRANCH  13  17
HETATM   17  C16 UNL     1     111.257  18.485  10.595  1.00  0.00     0.138 C 
BRANCH  17  18
HETATM   18  O5  UNL     1     112.359  18.074   9.815  1.00  0.00    -0.394 OA
ATOM     19  H5  UNL     1     113.058  18.709   9.922  1.00  0.00     0.210 HD
ENDBRANCH  17  18
BRANCH  17  20
HETATM   20  C17 UNL     1     111.749  18.332  12.052  1.00  0.00     0.033 C 
BRANCH  20  21
HETATM   21  C18 UNL     1     113.140  17.790  12.067  1.00  0.00     0.004 C 
BRANCH  21  22
HETATM   22  C19 UNL     1     114.112  18.720  12.675  1.00  0.00     0.026 C 
BRANCH  22  23
HETATM   23  C20 UNL     1     115.403  18.954  11.978  1.00  0.00     0.164 C 
BRANCH  23  24
HETATM   24  O6  UNL     1     115.380  19.002  10.618  1.00  0.00    -0.401 OA
ATOM     25  H6  UNL     1     114.914  19.725  10.214  1.00  0.00     0.209 HD
ENDBRANCH  23  24
ENDBRANCH  22  23
ENDBRANCH  21  22
ENDBRANCH  20  21
ENDBRANCH  17  20
ENDBRANCH  13  17
BRANCH   8  26
HETATM   26  C9  UNL     1     106.487  20.611  11.905  1.00  0.00     0.177 C 
BRANCH  26  27
HETATM   27  O2  UNL     1     106.534  21.563  12.960  1.00  0.00    -0.400 OA
ATOM     28  H2  UNL     1     107.114  21.209  13.624  1.00  0.00     0.209 HD
ENDBRANCH  26  27
ENDBRANCH   8  26
BRANCH   7  29
HETATM   29  O1  UNL     1     107.771  23.567  10.393  1.00  0.00    -0.395 OA
ATOM     30  H1  UNL     1     107.494  24.357  10.842  1.00  0.00     0.210 HD
ENDBRANCH   7  29
TORSDOF 11
ENDMDL
MODEL 3
REMARK VINA RESULT: -5.569656292      1.401      1.615
REMARK  11 active torsions:
REMARK  status: ('A' for Active; 'I' for Inactive)
REMARK    1  A    between atoms: C7_7  and  O1_8 
REMARK    2  A    between atoms: C8_10  and  C9_11 
REMARK    3  A    between atoms: C9_11  and  O2_12 
REMARK    4  A    between atoms: C14_18  and  C15_19 
REMARK    5  A    between atoms: C14_18  and  C16_22 
REMARK    6  A    between atoms: C16_22  and  O5_23 
REMARK    7  A    between atoms: C16_22  and  C17_25 
REMARK    8  A    between atoms: C17_25  and  C18_26 
REMARK    9  A    between atoms: C18_26  and  C19_27 
REMARK   10  A    between atoms: C19_27  and  C20_28 
REMARK   11  A    between atoms: C20_28  and  O6_29 
ROOT
HETATM    1  C1  UNL     1     104.109  19.791  12.755  1.00  0.00     0.017 C 
HETATM    2  C2  UNL     1     105.038  20.048  13.881  1.00  0.00    -0.016 C 
HETATM    3  C3  UNL     1     104.870  21.444  14.330  1.00  0.00     0.012 C 
HETATM    4  C4  UNL     1     105.159  22.265  13.057  1.00  0.00     0.006 C 
HETATM    5  C5  UNL     1     106.517  22.123  12.534  1.00  0.00     0.002 A 
HETATM    6  C6  UNL     1     106.659  22.037  11.011  1.00  0.00     0.038 A 
HETATM    7  C7  UNL     1     107.301  20.681  11.220  1.00  0.00     0.130 A 
HETATM    8  C8  UNL     1     107.196  20.763  12.687  1.00  0.00     0.019 A 
HETATM    9  C10 UNL     1     106.518  19.828  13.564  1.00  0.00    -0.023 C 
HETATM   10  C11 UNL     1     107.315  19.752  14.863  1.00  0.00     0.017 C 
HETATM   11  C12 UNL     1     106.361  18.382  13.192  1.00  0.00     0.012 C 
HETATM   12  C13 UNL     1     105.472  17.839  14.331  1.00  0.00     0.025 C 
HETATM   13  C14 UNL     1     104.683  18.966  14.878  1.00  0.00     0.082 C 
ENDROOT
BRANCH  13  14
HETATM   14  C15 UNL     1     103.219  18.543  14.732  1.00  0.00     0.185 C 
HETATM   15  O3  UNL     1     102.883  17.330  14.768  1.00  0.00    -0.647 OA
HETATM   16  O4  UNL     1     102.194  19.445  14.557  1.00  0.00    -0.647 OA
ENDBRANCH  13  14
BRANCH  13  17
HETATM   17  C16 UNL     1     104.684  19.297  16.291  1.00  0.00     0.138 C 
BRANCH  17  18
HETATM   18  O5  UNL     1     103.456  18.885  16.851  1.00  0.00    -0.394 OA
ATOM     19  H5  UNL     1     103.602  18.086  17.344  1.00  0.00     0.210 HD
ENDBRANCH  17  18
BRANCH  17  20
HETATM   20  C17 UNL     1     105.736  18.412  16.999  1.00  0.00     0.033 C 
BRANCH  20  21
HETATM   21  C18 UNL     1     105.304  18.124  18.398  1.00  0.00     0.004 C 
BRANCH  21  22
HETATM   22  C19 UNL     1     105.280  16.681  18.706  1.00  0.00     0.026 C 
BRANCH  22  23
HETATM   23  C20 UNL     1     103.974  15.971  18.680  1.00  0.00     0.164 C 
BRANCH  23  24
HETATM   24  O6  UNL     1     103.164  16.190  17.608  1.00  0.00    -0.401 OA
ATOM     25  H6  UNL     1     103.316  15.664  16.832  1.00  0.00     0.209 HD
ENDBRANCH  23  24
ENDBRANCH  22  23
ENDBRANCH  21  22
ENDBRANCH  20  21
ENDBRANCH  17  20
ENDBRANCH  13  17
BRANCH   8  26
HETATM   26  C9  UNL     1     108.649  21.129  13.143  1.00  0.00     0.177 C 
BRANCH  26  27
HETATM   27  O2  UNL     1     109.475  20.019  12.816  1.00  0.00    -0.400 OA
ATOM     28  H2  UNL     1     109.288  19.340  13.453  1.00  0.00     0.209 HD
ENDBRANCH  26  27
ENDBRANCH   8  26
BRANCH   7  29
HETATM   29  O1  UNL     1     106.791  19.622  10.505  1.00  0.00    -0.395 OA
ATOM     30  H1  UNL     1     106.524  19.787   9.609  1.00  0.00     0.210 HD
ENDBRANCH   7  29
TORSDOF 11
ENDMDL
MODEL 4
REMARK VINA RESULT: -5.538578439      4.879      8.564
REMARK  11 active torsions:
REMARK  status: ('A' for Active; 'I' for Inactive)
REMARK    1  A    between atoms: C7_7  and  O1_8 
REMARK    2  A    between atoms: C8_10  and  C9_11 
REMARK    3  A    between atoms: C9_11  and  O2_12 
REMARK    4  A    between atoms: C14_18  and  C15_19 
REMARK    5  A    between atoms: C14_18  and  C16_22 
REMARK    6  A    between atoms: C16_22  and  O5_23 
REMARK    7  A    between atoms: C16_22  and  C17_25 
REMARK    8  A    between atoms: C17_25  and  C18_26 
REMARK    9  A    between atoms: C18_26  and  C19_27 
REMARK   10  A    between atoms: C19_27  and  C20_28 
REMARK   11  A    between atoms: C20_28  and  O6_29 
ROOT
HETATM    1  C1  UNL     1     110.411  21.452   8.876  1.00  0.00     0.017 C 
HETATM    2  C2  UNL     1     110.451  20.403   9.923  1.00  0.00    -0.016 C 
HETATM    3  C3  UNL     1     110.105  19.105   9.313  1.00  0.00     0.012 C 
HETATM    4  C4  UNL     1     108.709  19.357   8.706  1.00  0.00     0.006 C 
HETATM    5  C5  UNL     1     107.671  19.685   9.681  1.00  0.00     0.002 A 
HETATM    6  C6  UNL     1     106.673  20.777   9.278  1.00  0.00     0.038 A 
HETATM    7  C7  UNL     1     107.139  21.548  10.495  1.00  0.00     0.130 A 
HETATM    8  C8  UNL     1     108.081  20.494  10.909  1.00  0.00     0.019 A 
HETATM    9  C10 UNL     1     109.510  20.635  11.108  1.00  0.00    -0.023 C 
HETATM   10  C11 UNL     1     109.908  19.721  12.263  1.00  0.00     0.017 C 
HETATM   11  C12 UNL     1     110.119  21.949  11.506  1.00  0.00     0.012 C 
HETATM   12  C13 UNL     1     111.632  21.647  11.451  1.00  0.00     0.025 C 
HETATM   13  C14 UNL     1     111.846  20.536  10.496  1.00  0.00     0.082 C 
ENDROOT
BRANCH  13  14
HETATM   14  C15 UNL     1     112.819  21.084   9.449  1.00  0.00     0.185 C 
HETATM   15  O3  UNL     1     113.696  21.934   9.756  1.00  0.00    -0.647 OA
HETATM   16  O4  UNL     1     112.799  20.691   8.131  1.00  0.00    -0.647 OA
ENDBRANCH  13  14
BRANCH  13  17
HETATM   17  C16 UNL     1     112.563  19.328  10.862  1.00  0.00     0.138 C 
BRANCH  17  18
HETATM   18  O5  UNL     1     113.711  19.223  10.048  1.00  0.00    -0.394 OA
ATOM     19  H5  UNL     1     113.939  18.304   9.966  1.00  0.00     0.210 HD
ENDBRANCH  17  18
BRANCH  17  20
HETATM   20  C17 UNL     1     113.129  19.511  12.289  1.00  0.00     0.033 C 
BRANCH  20  21
HETATM   21  C18 UNL     1     114.581  19.168  12.311  1.00  0.00     0.004 C 
BRANCH  21  22
HETATM   22  C19 UNL     1     115.401  20.183  13.001  1.00  0.00     0.026 C 
BRANCH  22  23
HETATM   23  C20 UNL     1     115.002  21.611  12.892  1.00  0.00     0.164 C 
BRANCH  23  24
HETATM   24  O6  UNL     1     115.010  22.352  14.034  1.00  0.00    -0.401 OA
ATOM     25  H6  UNL     1     115.287  23.258  13.965  1.00  0.00     0.209 HD
ENDBRANCH  23  24
ENDBRANCH  22  23
ENDBRANCH  21  22
ENDBRANCH  20  21
ENDBRANCH  17  20
ENDBRANCH  13  17
BRANCH   8  26
HETATM   26  C9  UNL     1     107.339  19.776  12.086  1.00  0.00     0.177 C 
BRANCH  26  27
HETATM   27  O2  UNL     1     107.068  20.767  13.068  1.00  0.00    -0.400 OA
ATOM     28  H2  UNL     1     106.758  20.310  13.841  1.00  0.00     0.209 HD
ENDBRANCH  26  27
ENDBRANCH   8  26
BRANCH   7  29
HETATM   29  O1  UNL     1     107.534  22.853  10.305  1.00  0.00    -0.395 OA
ATOM     30  H1  UNL     1     108.362  23.119  10.687  1.00  0.00     0.210 HD
ENDBRANCH   7  29
TORSDOF 11
ENDMDL
MODEL 5
REMARK VINA RESULT: -5.381904718      5.475      8.762
REMARK  11 active torsions:
REMARK  status: ('A' for Active; 'I' for Inactive)
REMARK    1  A    between atoms: C7_7  and  O1_8 
REMARK    2  A    between atoms: C8_10  and  C9_11 
REMARK    3  A    between atoms: C9_11  and  O2_12 
REMARK    4  A    between atoms: C14_18  and  C15_19 
REMARK    5  A    between atoms: C14_18  and  C16_22 
REMARK    6  A    between atoms: C16_22  and  O5_23 
REMARK    7  A    between atoms: C16_22  and  C17_25 
REMARK    8  A    between atoms: C17_25  and  C18_26 
REMARK    9  A    between atoms: C18_26  and  C19_27 
REMARK   10  A    between atoms: C19_27  and  C20_28 
REMARK   11  A    between atoms: C20_28  and  O6_29 
ROOT
HETATM    1  C1  UNL     1     112.529  19.396   9.536  1.00  0.00     0.017 C 
HETATM    2  C2  UNL     1     112.289  20.712  10.175  1.00  0.00    -0.016 C 
HETATM    3  C3  UNL     1     112.718  21.778   9.249  1.00  0.00     0.012 C 
HETATM    4  C4  UNL     1     114.203  21.449   8.991  1.00  0.00     0.006 C 
HETATM    5  C5  UNL     1     115.057  21.513  10.174  1.00  0.00     0.002 A 
HETATM    6  C6  UNL     1     116.127  20.423  10.308  1.00  0.00     0.038 A 
HETATM    7  C7  UNL     1     115.464  20.036  11.614  1.00  0.00     0.130 A 
HETATM    8  C8  UNL     1     114.447  21.097  11.512  1.00  0.00     0.019 A 
HETATM    9  C10 UNL     1     113.008  20.926  11.509  1.00  0.00    -0.023 C 
HETATM   10  C11 UNL     1     112.398  22.123  12.233  1.00  0.00     0.017 C 
HETATM   11  C12 UNL     1     112.358  19.761  12.198  1.00  0.00     0.012 C 
HETATM   12  C13 UNL     1     110.875  19.924  11.803  1.00  0.00     0.025 C 
HETATM   13  C14 UNL     1     110.816  20.666  10.523  1.00  0.00     0.082 C 
ENDROOT
BRANCH  13  14
HETATM   14  C15 UNL     1     110.053  19.753   9.561  1.00  0.00     0.185 C 
HETATM   15  O3  UNL     1     109.135  18.995   9.971  1.00  0.00    -0.647 OA
HETATM   16  O4  UNL     1     110.314  19.704   8.211  1.00  0.00    -0.647 OA
ENDBRANCH  13  14
BRANCH  13  17
HETATM   17  C16 UNL     1     110.029  21.875  10.365  1.00  0.00     0.138 C 
BRANCH  17  18
HETATM   18  O5  UNL     1     109.157  21.702   9.269  1.00  0.00    -0.394 OA
ATOM     19  H5  UNL     1     109.342  22.377   8.626  1.00  0.00     0.210 HD
ENDBRANCH  17  18
BRANCH  17  20
HETATM   20  C17 UNL     1     109.082  22.002  11.581  1.00  0.00     0.033 C 
BRANCH  20  21
HETATM   21  C18 UNL     1     107.668  22.119  11.118  1.00  0.00     0.004 C 
BRANCH  21  22
HETATM   22  C19 UNL     1     106.768  21.152  11.777  1.00  0.00     0.026 C 
BRANCH  22  23
HETATM   23  C20 UNL     1     107.338  20.232  12.796  1.00  0.00     0.164 C 
BRANCH  23  24
HETATM   24  O6  UNL     1     107.507  18.930  12.438  1.00  0.00    -0.401 OA
ATOM     25  H6  UNL     1     107.798  18.755  11.551  1.00  0.00     0.209 HD
ENDBRANCH  23  24
ENDBRANCH  22  23
ENDBRANCH  21  22
ENDBRANCH  20  21
ENDBRANCH  17  20
ENDBRANCH  13  17
BRANCH   8  26
HETATM   26  C9  UNL     1     114.958  22.195  12.504  1.00  0.00     0.177 C 
BRANCH  26  27
HETATM   27  O2  UNL     1     115.367  21.523  13.688  1.00  0.00    -0.400 OA
ATOM     28  H2  UNL     1     115.362  22.167  14.386  1.00  0.00     0.209 HD
ENDBRANCH  26  27
ENDBRANCH   8  26
BRANCH   7  29
HETATM   29  O1  UNL     1     115.127  18.712  11.786  1.00  0.00    -0.395 OA
ATOM     30  H1  UNL     1     114.516  18.332  11.165  1.00  0.00     0.210 HD
ENDBRANCH   7  29
TORSDOF 11
ENDMDL
