MODEL 1
REMARK VINA RESULT: -6.823960781      0.000      0.000
REMARK  8 active torsions:
REMARK  status: ('A' for Active; 'I' for Inactive)
REMARK       I    between atoms: C2_2  and  N1_4 
REMARK    1  A    between atoms: N1_4  and  C3_6 
REMARK    2  A    between atoms: C3_6  and  C4_7 
REMARK    3  A    between atoms: C3_6  and  C13_30 
REMARK    4  A    between atoms: C4_7  and  O2_8 
REMARK    5  A    between atoms: C4_7  and  N2_10 
REMARK    6  A    between atoms: C6_15  and  C7_16 
REMARK    7  A    between atoms: C9_19  and  N4_20 
REMARK    8  A    between atoms: C11_26  and  C12_27 
ROOT
HETATM    1  N2  UNL     1     105.225  19.514  14.612  1.00  0.00    -0.300 N 
HETATM    2  C5  UNL     1     106.380  19.897  13.924  1.00  0.00     0.090 C 
HETATM    3  N3  UNL     1     107.511  19.323  13.802  1.00  0.00    -0.388 N 
ATOM      4  H31 UNL     1     108.353  19.603  13.301  1.00  0.00     0.157 HD
ATOM      5  H32 UNL     1     107.691  18.438  14.278  1.00  0.00     0.157 HD
HETATM    6  C6  UNL     1     106.108  21.234  13.206  1.00  0.00     0.106 C 
HETATM    7  C10 UNL     1     104.650  21.095  12.946  1.00  0.00     0.055 C 
HETATM    8  C11 UNL     1     104.201  20.477  14.275  1.00  0.00     0.195 C 
ENDROOT
BRANCH   1   9
HETATM    9  C4  UNL     1     105.068  18.383  15.481  1.00  0.00     0.168 C 
BRANCH   9  10
HETATM   10  C3  UNL     1     105.088  18.272  16.933  1.00  0.00     0.067 C 
BRANCH  10  11
HETATM   11  N1  UNL     1     106.173  18.705  17.719  1.00  0.00    -0.327 N 
HETATM   12  C2  UNL     1     107.393  19.262  17.819  1.00  0.00     0.218 C 
HETATM   13  C1  UNL     1     108.137  19.322  19.169  1.00  0.00     0.117 C 
HETATM   14  O1  UNL     1     108.069  19.762  16.902  1.00  0.00    -0.274 OA
ATOM     15  H1  UNL     1     105.901  18.496  18.679  1.00  0.00     0.168 HD
ENDBRANCH  10  11
BRANCH  10  16
HETATM   16  C13 UNL     1     104.423  17.102  17.596  1.00  0.00     0.032 C 
HETATM   17  C14 UNL     1     105.028  16.502  18.762  1.00  0.00     0.016 C 
HETATM   18  C15 UNL     1     102.975  17.512  17.894  1.00  0.00     0.016 C 
ENDBRANCH  10  16
ENDBRANCH   9  10
BRANCH   9  19
HETATM   19  O2  UNL     1     104.869  17.312  14.742  1.00  0.00    -0.344 OA
ATOM     20  H2  UNL     1     104.697  17.401  13.811  1.00  0.00     0.219 HD
ENDBRANCH   9  19
ENDBRANCH   1   9
BRANCH   8  21
HETATM   21  C12 UNL     1     102.863  19.954  14.050  1.00  0.00     0.197 C 
HETATM   22  O3  UNL     1     102.279  19.010  14.591  1.00  0.00    -0.646 OA
HETATM   23  O4  UNL     1     102.084  20.623  13.062  1.00  0.00    -0.646 OA
ENDBRANCH   8  21
BRANCH   6  24
HETATM   24  C7  UNL     1     106.976  21.181  11.940  1.00  0.00     0.029 A 
HETATM   25  C8  UNL     1     108.080  21.986  11.856  1.00  0.00     0.079 A 
HETATM   26  S1  UNL     1     108.740  21.555  10.349  1.00  0.00    -0.064 SA
HETATM   27  C9  UNL     1     107.588  20.382   9.912  1.00  0.00     0.142 A 
HETATM   28  N5  UNL     1     106.739  20.364  10.932  1.00  0.00    -0.339 N 
ATOM     29  H5  UNL     1     105.932  19.740  10.937  1.00  0.00     0.168 HD
BRANCH  27  30
HETATM   30  N4  UNL     1     107.534  19.601   8.834  1.00  0.00    -0.380 N 
ATOM     31  H42 UNL     1     107.004  19.789   7.982  1.00  0.00     0.158 HD
ATOM     32  H41 UNL     1     107.958  18.689   8.668  1.00  0.00     0.158 HD
ENDBRANCH  27  30
ENDBRANCH   6  24
TORSDOF 8
ENDMDL
MODEL 2
REMARK VINA RESULT: -6.716999460      1.303      1.548
REMARK  8 active torsions:
REMARK  status: ('A' for Active; 'I' for Inactive)
REMARK       I    between atoms: C2_2  and  N1_4 
REMARK    1  A    between atoms: N1_4  and  C3_6 
REMARK    2  A    between atoms: C3_6  and  C4_7 
REMARK    3  A    between atoms: C3_6  and  C13_30 
REMARK    4  A    between atoms: C4_7  and  O2_8 
REMARK    5  A    between atoms: C4_7  and  N2_10 
REMARK    6  A    between atoms: C6_15  and  C7_16 
REMARK    7  A    between atoms: C9_19  and  N4_20 
REMARK    8  A    between atoms: C11_26  and  C12_27 
ROOT
HETATM    1  N2  UNL     1     104.986  19.512  14.015  1.00  0.00    -0.300 N 
HETATM    2  C5  UNL     1     106.195  19.519  13.313  1.00  0.00     0.090 C 
HETATM    3  N3  UNL     1     106.948  18.564  12.933  1.00  0.00    -0.388 N 
ATOM      4  H31 UNL     1     107.829  18.569  12.421  1.00  0.00     0.157 HD
ATOM      5  H32 UNL     1     106.706  17.599  13.161  1.00  0.00     0.157 HD
HETATM    6  C6  UNL     1     106.559  20.977  12.970  1.00  0.00     0.106 C 
HETATM    7  C10 UNL     1     105.197  21.562  12.850  1.00  0.00     0.055 C 
HETATM    8  C11 UNL     1     104.508  20.875  14.034  1.00  0.00     0.195 C 
ENDROOT
BRANCH   1   9
HETATM    9  C4  UNL     1     104.330  18.378  14.602  1.00  0.00     0.168 C 
BRANCH   9  10
HETATM   10  C3  UNL     1     103.784  18.163  15.934  1.00  0.00     0.067 C 
BRANCH  10  11
HETATM   11  N1  UNL     1     104.547  18.311  17.108  1.00  0.00    -0.327 N 
HETATM   12  C2  UNL     1     105.693  18.659  17.719  1.00  0.00     0.218 C 
HETATM   13  C1  UNL     1     105.904  18.408  19.227  1.00  0.00     0.117 C 
HETATM   14  O1  UNL     1     106.694  19.182  17.198  1.00  0.00    -0.274 OA
ATOM     15  H1  UNL     1     103.931  18.005  17.862  1.00  0.00     0.168 HD
ENDBRANCH  10  11
BRANCH  10  16
HETATM   16  C13 UNL     1     102.737  17.109  16.145  1.00  0.00     0.032 C 
HETATM   17  C14 UNL     1     102.486  16.606  17.475  1.00  0.00     0.016 C 
HETATM   18  C15 UNL     1     101.438  17.626  15.513  1.00  0.00     0.016 C 
ENDBRANCH  10  16
ENDBRANCH   9  10
BRANCH   9  19
HETATM   19  O2  UNL     1     104.253  17.425  13.697  1.00  0.00    -0.344 OA
ATOM     20  H2  UNL     1     104.684  17.531  12.857  1.00  0.00     0.219 HD
ENDBRANCH   9  19
ENDBRANCH   1   9
BRANCH   8  21
HETATM   21  C12 UNL     1     103.079  21.068  13.843  1.00  0.00     0.197 C 
HETATM   22  O3  UNL     1     102.327  20.612  12.977  1.00  0.00    -0.646 OA
HETATM   23  O4  UNL     1     102.424  21.903  14.794  1.00  0.00    -0.646 OA
ENDBRANCH   8  21
BRANCH   6  24
HETATM   24  C7  UNL     1     107.321  20.886  11.639  1.00  0.00     0.029 A 
HETATM   25  C8  UNL     1     108.676  21.079  11.633  1.00  0.00     0.079 A 
HETATM   26  S1  UNL     1     109.078  20.833   9.998  1.00  0.00    -0.064 SA
HETATM   27  C9  UNL     1     107.515  20.497   9.417  1.00  0.00     0.142 A 
HETATM   28  N5  UNL     1     106.742  20.588  10.492  1.00  0.00    -0.339 N 
ATOM     29  H5  UNL     1     105.735  20.433  10.433  1.00  0.00     0.168 HD
BRANCH  27  30
HETATM   30  N4  UNL     1     107.115  20.166   8.190  1.00  0.00    -0.380 N 
ATOM     31  H42 UNL     1     107.710  20.095   7.364  1.00  0.00     0.158 HD
ATOM     32  H41 UNL     1     106.178  19.964   7.842  1.00  0.00     0.158 HD
ENDBRANCH  27  30
ENDBRANCH   6  24
TORSDOF 8
ENDMDL
MODEL 3
REMARK VINA RESULT: -6.643896960      1.608      1.935
REMARK  8 active torsions:
REMARK  status: ('A' for Active; 'I' for Inactive)
REMARK       I    between atoms: C2_2  and  N1_4 
REMARK    1  A    between atoms: N1_4  and  C3_6 
REMARK    2  A    between atoms: C3_6  and  C4_7 
REMARK    3  A    between atoms: C3_6  and  C13_30 
REMARK    4  A    between atoms: C4_7  and  O2_8 
REMARK    5  A    between atoms: C4_7  and  N2_10 
REMARK    6  A    between atoms: C6_15  and  C7_16 
REMARK    7  A    between atoms: C9_19  and  N4_20 
REMARK    8  A    between atoms: C11_26  and  C12_27 
ROOT
HETATM    1  N2  UNL     1     105.195  19.582  15.171  1.00  0.00    -0.300 N 
HETATM    2  C5  UNL     1     106.509  19.919  14.833  1.00  0.00     0.090 C 
HETATM    3  N3  UNL     1     107.608  19.309  15.035  1.00  0.00    -0.388 N 
ATOM      4  H31 UNL     1     108.566  19.555  14.789  1.00  0.00     0.157 HD
ATOM      5  H32 UNL     1     107.617  18.424  15.543  1.00  0.00     0.157 HD
HETATM    6  C6  UNL     1     106.494  21.256  14.065  1.00  0.00     0.106 C 
HETATM    7  C10 UNL     1     105.163  21.162  13.408  1.00  0.00     0.055 C 
HETATM    8  C11 UNL     1     104.340  20.573  14.559  1.00  0.00     0.195 C 
ENDROOT
BRANCH   1   9
HETATM    9  C4  UNL     1     104.762  18.467  15.963  1.00  0.00     0.168 C 
BRANCH   9  10
HETATM   10  C3  UNL     1     104.346  18.377  17.356  1.00  0.00     0.067 C 
BRANCH  10  11
HETATM   11  N1  UNL     1     105.234  18.556  18.434  1.00  0.00    -0.327 N 
HETATM   12  C2  UNL     1     106.470  18.808  18.897  1.00  0.00     0.218 C 
HETATM   13  C1  UNL     1     106.794  18.718  20.404  1.00  0.00     0.117 C 
HETATM   14  O1  UNL     1     107.475  19.113  18.232  1.00  0.00    -0.274 OA
ATOM     15  H1  UNL     1     104.660  18.438  19.269  1.00  0.00     0.168 HD
ENDBRANCH  10  11
BRANCH  10  16
HETATM   16  C13 UNL     1     103.271  17.406  17.747  1.00  0.00     0.032 C 
HETATM   17  C14 UNL     1     102.325  16.949  16.756  1.00  0.00     0.016 C 
HETATM   18  C15 UNL     1     103.959  16.212  18.421  1.00  0.00     0.016 C 
ENDBRANCH  10  16
ENDBRANCH   9  10
BRANCH   9  19
HETATM   19  O2  UNL     1     104.771  17.388  15.208  1.00  0.00    -0.344 OA
ATOM     20  H2  UNL     1     103.981  16.870  15.110  1.00  0.00     0.219 HD
ENDBRANCH   9  19
ENDBRANCH   1   9
BRANCH   8  21
HETATM   21  C12 UNL     1     103.101  20.092  13.969  1.00  0.00     0.197 C 
HETATM   22  O3  UNL     1     102.391  19.133  14.288  1.00  0.00    -0.646 OA
HETATM   23  O4  UNL     1     102.607  20.829  12.854  1.00  0.00    -0.646 OA
ENDBRANCH   8  21
BRANCH   6  24
HETATM   24  C7  UNL     1     107.680  21.162  13.093  1.00  0.00     0.029 A 
HETATM   25  C8  UNL     1     107.471  20.664  11.835  1.00  0.00     0.079 A 
HETATM   26  S1  UNL     1     109.009  20.801  11.122  1.00  0.00    -0.064 SA
HETATM   27  C9  UNL     1     109.827  21.482  12.450  1.00  0.00     0.142 A 
HETATM   28  N5  UNL     1     108.896  21.577  13.391  1.00  0.00    -0.339 N 
ATOM     29  H5  UNL     1     109.113  21.958  14.312  1.00  0.00     0.168 HD
BRANCH  27  30
HETATM   30  N4  UNL     1     111.091  21.888  12.554  1.00  0.00    -0.380 N 
ATOM     31  H42 UNL     1     111.448  22.812  12.306  1.00  0.00     0.158 HD
ATOM     32  H41 UNL     1     111.919  21.372  12.851  1.00  0.00     0.158 HD
ENDBRANCH  27  30
ENDBRANCH   6  24
TORSDOF 8
ENDMDL
MODEL 4
REMARK VINA RESULT: -6.626058053      1.072      1.212
REMARK  8 active torsions:
REMARK  status: ('A' for Active; 'I' for Inactive)
REMARK       I    between atoms: C2_2  and  N1_4 
REMARK    1  A    between atoms: N1_4  and  C3_6 
REMARK    2  A    between atoms: C3_6  and  C4_7 
REMARK    3  A    between atoms: C3_6  and  C13_30 
REMARK    4  A    between atoms: C4_7  and  O2_8 
REMARK    5  A    between atoms: C4_7  and  N2_10 
REMARK    6  A    between atoms: C6_15  and  C7_16 
REMARK    7  A    between atoms: C9_19  and  N4_20 
REMARK    8  A    between atoms: C11_26  and  C12_27 
ROOT
HETATM    1  N2  UNL     1     105.247  19.575  14.722  1.00  0.00    -0.300 N 
HETATM    2  C5  UNL     1     106.414  20.017  14.093  1.00  0.00     0.090 C 
HETATM    3  N3  UNL     1     107.569  19.487  14.004  1.00  0.00    -0.388 N 
ATOM      4  H31 UNL     1     108.421  19.809  13.545  1.00  0.00     0.157 HD
ATOM      5  H32 UNL     1     107.761  18.595  14.462  1.00  0.00     0.157 HD
HETATM    6  C6  UNL     1     106.124  21.363  13.401  1.00  0.00     0.106 C 
HETATM    7  C10 UNL     1     104.683  21.182  13.077  1.00  0.00     0.055 C 
HETATM    8  C11 UNL     1     104.204  20.510  14.369  1.00  0.00     0.195 C 
ENDROOT
BRANCH   1   9
HETATM    9  C4  UNL     1     105.095  18.415  15.553  1.00  0.00     0.168 C 
BRANCH   9  10
HETATM   10  C3  UNL     1     105.084  18.261  17.001  1.00  0.00     0.067 C 
BRANCH  10  11
HETATM   11  N1  UNL     1     106.145  18.682  17.824  1.00  0.00    -0.327 N 
HETATM   12  C2  UNL     1     107.378  19.199  17.966  1.00  0.00     0.218 C 
HETATM   13  C1  UNL     1     108.058  19.278  19.349  1.00  0.00     0.117 C 
HETATM   14  O1  UNL     1     108.114  19.645  17.068  1.00  0.00    -0.274 OA
ATOM     15  H1  UNL     1     105.820  18.514  18.777  1.00  0.00     0.168 HD
ENDBRANCH  10  11
BRANCH  10  16
HETATM   16  C13 UNL     1     104.417  17.064  17.613  1.00  0.00     0.032 C 
HETATM   17  C14 UNL     1     104.977  16.462  18.801  1.00  0.00     0.016 C 
HETATM   18  C15 UNL     1     102.945  17.431  17.842  1.00  0.00     0.016 C 
ENDBRANCH  10  16
ENDBRANCH   9  10
BRANCH   9  19
HETATM   19  O2  UNL     1     104.939  17.362  14.777  1.00  0.00    -0.344 OA
ATOM     20  H2  UNL     1     105.323  17.351  13.908  1.00  0.00     0.219 HD
ENDBRANCH   9  19
ENDBRANCH   1   9
BRANCH   8  21
HETATM   21  C12 UNL     1     102.895  19.948  14.074  1.00  0.00     0.197 C 
HETATM   22  O3  UNL     1     102.317  18.981  14.578  1.00  0.00    -0.646 OA
HETATM   23  O4  UNL     1     102.143  20.604  13.056  1.00  0.00    -0.646 OA
ENDBRANCH   8  21
BRANCH   6  24
HETATM   24  C7  UNL     1     107.044  21.377  12.171  1.00  0.00     0.029 A 
HETATM   25  C8  UNL     1     106.651  20.716  11.038  1.00  0.00     0.079 A 
HETATM   26  S1  UNL     1     107.921  21.048   9.956  1.00  0.00    -0.064 SA
HETATM   27  C9  UNL     1     108.872  22.005  10.993  1.00  0.00     0.142 A 
HETATM   28  N5  UNL     1     108.188  22.033  12.129  1.00  0.00    -0.339 N 
ATOM     29  H5  UNL     1     108.533  22.545  12.941  1.00  0.00     0.168 HD
BRANCH  27  30
HETATM   30  N4  UNL     1     110.019  22.640  10.752  1.00  0.00    -0.380 N 
ATOM     31  H42 UNL     1     110.524  22.651   9.866  1.00  0.00     0.158 HD
ATOM     32  H41 UNL     1     110.609  23.180  11.384  1.00  0.00     0.158 HD
ENDBRANCH  27  30
ENDBRANCH   6  24
TORSDOF 8
ENDMDL
MODEL 5
REMARK VINA RESULT: -6.611066489      3.663      6.786
REMARK  8 active torsions:
REMARK  status: ('A' for Active; 'I' for Inactive)
REMARK       I    between atoms: C2_2  and  N1_4 
REMARK    1  A    between atoms: N1_4  and  C3_6 
REMARK    2  A    between atoms: C3_6  and  C4_7 
REMARK    3  A    between atoms: C3_6  and  C13_30 
REMARK    4  A    between atoms: C4_7  and  O2_8 
REMARK    5  A    between atoms: C4_7  and  N2_10 
REMARK    6  A    between atoms: C6_15  and  C7_16 
REMARK    7  A    between atoms: C9_19  and  N4_20 
REMARK    8  A    between atoms: C11_26  and  C12_27 
ROOT
HETATM    1  N2  UNL     1     104.400  18.303  16.081  1.00  0.00    -0.300 N 
HETATM    2  C5  UNL     1     105.589  18.593  16.755  1.00  0.00     0.090 C 
HETATM    3  N3  UNL     1     106.410  19.559  16.627  1.00  0.00    -0.388 N 
ATOM      4  H31 UNL     1     107.278  19.770  17.118  1.00  0.00     0.157 HD
ATOM      5  H32 UNL     1     106.253  20.274  15.916  1.00  0.00     0.157 HD
HETATM    6  C6  UNL     1     105.826  17.512  17.828  1.00  0.00     0.106 C 
HETATM    7  C10 UNL     1     104.418  17.159  18.154  1.00  0.00     0.055 C 
HETATM    8  C11 UNL     1     103.812  17.163  16.746  1.00  0.00     0.195 C 
ENDROOT
BRANCH   1   9
HETATM    9  C4  UNL     1     103.850  18.998  14.952  1.00  0.00     0.168 C 
BRANCH   9  10
HETATM   10  C3  UNL     1     103.286  20.334  14.824  1.00  0.00     0.067 C 
BRANCH  10  11
HETATM   11  N1  UNL     1     101.938  20.569  14.493  1.00  0.00    -0.327 N 
HETATM   12  C2  UNL     1     100.723  20.105  14.153  1.00  0.00     0.218 C 
HETATM   13  C1  UNL     1      99.580  21.067  13.764  1.00  0.00     0.117 C 
HETATM   14  O1  UNL     1     100.362  18.917  14.089  1.00  0.00    -0.274 OA
ATOM     15  H1  UNL     1     101.832  21.583  14.528  1.00  0.00     0.168 HD
ENDBRANCH  10  11
BRANCH  10  16
HETATM   16  C13 UNL     1     104.137  21.449  14.287  1.00  0.00     0.032 C 
HETATM   17  C14 UNL     1     104.602  21.399  12.921  1.00  0.00     0.016 C 
HETATM   18  C15 UNL     1     103.386  22.761  14.550  1.00  0.00     0.016 C 
ENDBRANCH  10  16
ENDBRANCH   9  10
BRANCH   9  19
HETATM   19  O2  UNL     1     103.920  18.209  13.901  1.00  0.00    -0.344 OA
ATOM     20  H2  UNL     1     103.768  17.276  13.996  1.00  0.00     0.219 HD
ENDBRANCH   9  19
ENDBRANCH   1   9
BRANCH   8  21
HETATM   21  C12 UNL     1     102.368  17.184  16.924  1.00  0.00     0.197 C 
HETATM   22  O3  UNL     1     101.466  16.948  16.115  1.00  0.00    -0.646 OA
HETATM   23  O4  UNL     1     101.900  17.518  18.228  1.00  0.00    -0.646 OA
ENDBRANCH   8  21
BRANCH   6  24
HETATM   24  C7  UNL     1     106.565  18.241  18.961  1.00  0.00     0.029 A 
HETATM   25  C8  UNL     1     105.966  18.346  20.187  1.00  0.00     0.079 A 
HETATM   26  S1  UNL     1     107.146  19.154  21.108  1.00  0.00    -0.064 SA
HETATM   27  C9  UNL     1     108.329  19.309  19.895  1.00  0.00     0.142 A 
HETATM   28  N5  UNL     1     107.779  18.741  18.830  1.00  0.00    -0.339 N 
ATOM     29  H5  UNL     1     108.277  18.692  17.941  1.00  0.00     0.168 HD
BRANCH  27  30
HETATM   30  N4  UNL     1     109.555  19.826  19.962  1.00  0.00    -0.380 N 
ATOM     31  H42 UNL     1     110.419  19.361  19.683  1.00  0.00     0.158 HD
ATOM     32  H41 UNL     1     109.863  20.729  20.325  1.00  0.00     0.158 HD
ENDBRANCH  27  30
ENDBRANCH   6  24
TORSDOF 8
ENDMDL
