MODEL 1
REMARK VINA RESULT: -5.889680227      0.000      0.000
REMARK  10 active torsions:
REMARK  status: ('A' for Active; 'I' for Inactive)
REMARK    1  A    between atoms: C7_7  and  O1_8 
REMARK    2  A    between atoms: C8_10  and  O2_11 
REMARK    3  A    between atoms: C9_13  and  O3_14 
REMARK    4  A    between atoms: C12_20  and  O4_21 
REMARK    5  A    between atoms: C12_20  and  C13_23 
REMARK    6  A    between atoms: C13_23  and  C14_24 
REMARK    7  A    between atoms: C14_24  and  C15_25 
REMARK    8  A    between atoms: C15_25  and  C16_26 
REMARK    9  A    between atoms: C16_26  and  C17_27 
REMARK   10  A    between atoms: C17_27  and  C18_28 
ROOT
HETATM    1  C1  UNL     1     114.062  22.086   8.895  1.00  0.00     0.017 C 
HETATM    2  C2  UNL     1     112.970  22.356   9.866  1.00  0.00    -0.022 C 
HETATM    3  C3  UNL     1     111.826  22.897   9.032  1.00  0.00     0.011 C 
HETATM    4  C4  UNL     1     112.335  24.291   8.631  1.00  0.00     0.001 C 
HETATM    5  C5  UNL     1     113.457  24.613   9.572  1.00  0.00     0.008 C 
HETATM    6  C6  UNL     1     113.182  23.619  10.678  1.00  0.00     0.026 C 
HETATM    7  C7  UNL     1     114.096  23.642  11.792  1.00  0.00     0.154 C 
HETATM    8  C8  UNL     1     113.867  22.426  12.683  1.00  0.00     0.184 C 
HETATM    9  C9  UNL     1     113.847  21.265  11.792  1.00  0.00     0.115 C 
HETATM   10  C10 UNL     1     113.832  19.898  12.363  1.00  0.00     0.161 C 
HETATM   11  N1  UNL     1     113.759  19.213  11.039  1.00  0.00    -0.387 N 
ATOM     12  H1  UNL     1     114.356  18.461  10.693  1.00  0.00     0.159 HD
HETATM   13  C11 UNL     1     112.652  19.852  10.353  1.00  0.00     0.046 C 
HETATM   14  C12 UNL     1     111.913  19.097   9.565  1.00  0.00     0.066 C 
HETATM   15  C19 UNL     1     112.679  21.243  10.796  1.00  0.00     0.043 C 
HETATM   16  C20 UNL     1     111.439  21.439  11.623  1.00  0.00     0.026 C 
ENDROOT
BRANCH  14  17
HETATM   17  O4  UNL     1     112.295  17.715   9.468  1.00  0.00    -0.363 OA
ATOM     18  H4  UNL     1     112.826  17.478   8.716  1.00  0.00     0.217 HD
ENDBRANCH  14  17
BRANCH  14  19
HETATM   19  C13 UNL     1     110.742  19.405   8.747  1.00  0.00     0.066 C 
BRANCH  19  20
HETATM   20  C14 UNL     1     109.402  19.100   9.412  1.00  0.00     0.006 C 
BRANCH  20  21
HETATM   21  C15 UNL     1     108.477  20.262   9.511  1.00  0.00     0.001 C 
BRANCH  21  22
HETATM   22  C16 UNL     1     107.328  19.870  10.437  1.00  0.00     0.007 C 
BRANCH  22  23
HETATM   23  C17 UNL     1     107.756  19.541  11.825  1.00  0.00     0.069 C 
BRANCH  23  24
HETATM   24  C18 UNL     1     106.499  19.191  12.580  1.00  0.00     0.231 C 
HETATM   25  O5  UNL     1     106.050  18.059  12.565  1.00  0.00    -0.307 OA
ENDBRANCH  23  24
ENDBRANCH  22  23
ENDBRANCH  21  22
ENDBRANCH  20  21
ENDBRANCH  19  20
ENDBRANCH  14  19
BRANCH   9  26
HETATM   26  O3  UNL     1     115.077  21.288  11.066  1.00  0.00    -0.384 OA
ATOM     27  H3  UNL     1     115.582  20.541  11.365  1.00  0.00     0.210 HD
ENDBRANCH   9  26
BRANCH   8  28
HETATM   28  O2  UNL     1     115.040  22.337  13.457  1.00  0.00    -0.390 OA
ATOM     29  H2  UNL     1     115.257  21.412  13.449  1.00  0.00     0.210 HD
ENDBRANCH   8  28
BRANCH   7  30
HETATM   30  O1  UNL     1     115.448  23.754  11.492  1.00  0.00    -0.392 OA
ATOM     31  H1  UNL     1     116.008  23.034  11.757  1.00  0.00     0.210 HD
ENDBRANCH   7  30
TORSDOF 10
ENDMDL
MODEL 2
REMARK VINA RESULT: -5.883244899      2.616      6.810
REMARK  10 active torsions:
REMARK  status: ('A' for Active; 'I' for Inactive)
REMARK    1  A    between atoms: C7_7  and  O1_8 
REMARK    2  A    between atoms: C8_10  and  O2_11 
REMARK    3  A    between atoms: C9_13  and  O3_14 
REMARK    4  A    between atoms: C12_20  and  O4_21 
REMARK    5  A    between atoms: C12_20  and  C13_23 
REMARK    6  A    between atoms: C13_23  and  C14_24 
REMARK    7  A    between atoms: C14_24  and  C15_25 
REMARK    8  A    between atoms: C15_25  and  C16_26 
REMARK    9  A    between atoms: C16_26  and  C17_27 
REMARK   10  A    between atoms: C17_27  and  C18_28 
ROOT
HETATM    1  C1  UNL     1     107.132  19.217  11.706  1.00  0.00     0.017 C 
HETATM    2  C2  UNL     1     108.010  20.411  11.791  1.00  0.00    -0.022 C 
HETATM    3  C3  UNL     1     108.666  20.322  13.154  1.00  0.00     0.011 C 
HETATM    4  C4  UNL     1     107.502  20.634  14.108  1.00  0.00     0.001 C 
HETATM    5  C5  UNL     1     106.441  21.286  13.272  1.00  0.00     0.008 C 
HETATM    6  C6  UNL     1     107.255  21.698  12.066  1.00  0.00     0.026 C 
HETATM    7  C7  UNL     1     106.536  22.376  11.017  1.00  0.00     0.154 C 
HETATM    8  C8  UNL     1     107.405  22.484   9.770  1.00  0.00     0.184 C 
HETATM    9  C9  UNL     1     107.938  21.142   9.526  1.00  0.00     0.115 C 
HETATM   10  C10 UNL     1     108.675  20.859   8.273  1.00  0.00     0.161 C 
HETATM   11  N1  UNL     1     108.984  19.443   8.631  1.00  0.00    -0.387 N 
ATOM     12  H1  UNL     1     108.819  18.608   8.068  1.00  0.00     0.159 HD
HETATM   13  C11 UNL     1     109.571  19.516   9.956  1.00  0.00     0.046 C 
HETATM   14  C12 UNL     1     110.529  18.656  10.240  1.00  0.00     0.066 C 
HETATM   15  C19 UNL     1     108.885  20.622  10.617  1.00  0.00     0.043 C 
HETATM   16  C20 UNL     1     109.917  21.698  10.803  1.00  0.00     0.026 C 
ENDROOT
BRANCH  14  17
HETATM   17  O4  UNL     1     110.881  17.731   9.200  1.00  0.00    -0.363 OA
ATOM     18  H4  UNL     1     110.921  16.815   9.448  1.00  0.00     0.217 HD
ENDBRANCH  14  17
BRANCH  14  19
HETATM   19  C13 UNL     1     111.326  18.460  11.449  1.00  0.00     0.066 C 
BRANCH  19  20
HETATM   20  C14 UNL     1     112.694  19.138  11.428  1.00  0.00     0.006 C 
BRANCH  20  21
HETATM   21  C15 UNL     1     113.707  18.524  12.328  1.00  0.00     0.001 C 
BRANCH  21  22
HETATM   22  C16 UNL     1     115.039  19.229  12.084  1.00  0.00     0.007 C 
BRANCH  22  23
HETATM   23  C17 UNL     1     115.441  20.160  13.175  1.00  0.00     0.069 C 
BRANCH  23  24
HETATM   24  C18 UNL     1     115.024  21.537  12.728  1.00  0.00     0.231 C 
HETATM   25  O5  UNL     1     115.019  22.477  13.503  1.00  0.00    -0.307 OA
ENDBRANCH  23  24
ENDBRANCH  22  23
ENDBRANCH  21  22
ENDBRANCH  20  21
ENDBRANCH  19  20
ENDBRANCH  14  19
BRANCH   9  26
HETATM   26  O3  UNL     1     106.812  20.269   9.433  1.00  0.00    -0.384 OA
ATOM     27  H3  UNL     1     107.137  19.445   9.089  1.00  0.00     0.210 HD
ENDBRANCH   9  26
BRANCH   8  28
HETATM   28  O2  UNL     1     106.494  22.765   8.734  1.00  0.00    -0.390 OA
ATOM     29  H2  UNL     1     106.354  23.702   8.792  1.00  0.00     0.210 HD
ENDBRANCH   8  28
BRANCH   7  30
HETATM   30  O1  UNL     1     105.290  21.862  10.677  1.00  0.00    -0.392 OA
ATOM     31  H1  UNL     1     104.538  22.231  11.123  1.00  0.00     0.210 HD
ENDBRANCH   7  30
TORSDOF 10
ENDMDL
MODEL 3
REMARK VINA RESULT: -5.872748908      1.508      1.678
REMARK  10 active torsions:
REMARK  status: ('A' for Active; 'I' for Inactive)
REMARK    1  A    between atoms: C7_7  and  O1_8 
REMARK    2  A    between atoms: C8_10  and  O2_11 
REMARK    3  A    between atoms: C9_13  and  O3_14 
REMARK    4  A    between atoms: C12_20  and  O4_21 
REMARK    5  A    between atoms: C12_20  and  C13_23 
REMARK    6  A    between atoms: C13_23  and  C14_24 
REMARK    7  A    between atoms: C14_24  and  C15_25 
REMARK    8  A    between atoms: C15_25  and  C16_26 
REMARK    9  A    between atoms: C16_26  and  C17_27 
REMARK   10  A    between atoms: C17_27  and  C18_28 
ROOT
HETATM    1  C1  UNL     1     113.797  22.086   8.965  1.00  0.00     0.017 C 
HETATM    2  C2  UNL     1     112.849  22.287  10.091  1.00  0.00    -0.022 C 
HETATM    3  C3  UNL     1     111.586  22.826   9.451  1.00  0.00     0.011 C 
HETATM    4  C4  UNL     1     111.999  24.248   9.039  1.00  0.00     0.001 C 
HETATM    5  C5  UNL     1     113.236  24.567   9.825  1.00  0.00     0.008 C 
HETATM    6  C6  UNL     1     113.146  23.524  10.917  1.00  0.00     0.026 C 
HETATM    7  C7  UNL     1     114.209  23.532  11.890  1.00  0.00     0.154 C 
HETATM    8  C8  UNL     1     114.137  22.278  12.753  1.00  0.00     0.184 C 
HETATM    9  C9  UNL     1     114.018  21.150  11.827  1.00  0.00     0.115 C 
HETATM   10  C10 UNL     1     114.116  19.763  12.337  1.00  0.00     0.161 C 
HETATM   11  N1  UNL     1     113.871  19.126  11.010  1.00  0.00    -0.387 N 
ATOM     12  H1  UNL     1     114.430  18.406  10.551  1.00  0.00     0.159 HD
HETATM   13  C11 UNL     1     112.662  19.759  10.515  1.00  0.00     0.046 C 
HETATM   14  C12 UNL     1     111.836  19.012   9.809  1.00  0.00     0.066 C 
HETATM   15  C19 UNL     1     112.720  21.132  11.006  1.00  0.00     0.043 C 
HETATM   16  C20 UNL     1     111.607  21.260  12.008  1.00  0.00     0.026 C 
ENDROOT
BRANCH  14  17
HETATM   17  O4  UNL     1     112.233  17.647   9.602  1.00  0.00    -0.363 OA
ATOM     18  H4  UNL     1     111.536  17.002   9.605  1.00  0.00     0.217 HD
ENDBRANCH  14  17
BRANCH  14  19
HETATM   19  C13 UNL     1     110.554  19.317   9.179  1.00  0.00     0.066 C 
BRANCH  19  20
HETATM   20  C14 UNL     1     110.639  19.669   7.696  1.00  0.00     0.006 C 
BRANCH  20  21
HETATM   21  C15 UNL     1     109.696  20.732   7.252  1.00  0.00     0.001 C 
BRANCH  21  22
HETATM   22  C16 UNL     1     108.651  20.918   8.349  1.00  0.00     0.007 C 
BRANCH  22  23
HETATM   23  C17 UNL     1     107.270  21.141   7.837  1.00  0.00     0.069 C 
BRANCH  23  24
HETATM   24  C18 UNL     1     106.472  19.928   8.240  1.00  0.00     0.231 C 
HETATM   25  O5  UNL     1     106.912  19.122   9.041  1.00  0.00    -0.307 OA
ENDBRANCH  23  24
ENDBRANCH  22  23
ENDBRANCH  21  22
ENDBRANCH  20  21
ENDBRANCH  19  20
ENDBRANCH  14  19
BRANCH   9  26
HETATM   26  O3  UNL     1     115.130  21.237  10.936  1.00  0.00    -0.384 OA
ATOM     27  H3  UNL     1     114.842  20.871  10.108  1.00  0.00     0.210 HD
ENDBRANCH   9  26
BRANCH   8  28
HETATM   28  O2  UNL     1     115.410  22.193  13.349  1.00  0.00    -0.390 OA
ATOM     29  H2  UNL     1     115.240  22.280  14.280  1.00  0.00     0.210 HD
ENDBRANCH   8  28
BRANCH   7  30
HETATM   30  O1  UNL     1     115.501  23.695  11.406  1.00  0.00    -0.392 OA
ATOM     31  H1  UNL     1     116.196  23.749  12.051  1.00  0.00     0.210 HD
ENDBRANCH   7  30
TORSDOF 10
ENDMDL
MODEL 4
REMARK VINA RESULT: -5.839386389      1.508      1.714
REMARK  10 active torsions:
REMARK  status: ('A' for Active; 'I' for Inactive)
REMARK    1  A    between atoms: C7_7  and  O1_8 
REMARK    2  A    between atoms: C8_10  and  O2_11 
REMARK    3  A    between atoms: C9_13  and  O3_14 
REMARK    4  A    between atoms: C12_20  and  O4_21 
REMARK    5  A    between atoms: C12_20  and  C13_23 
REMARK    6  A    between atoms: C13_23  and  C14_24 
REMARK    7  A    between atoms: C14_24  and  C15_25 
REMARK    8  A    between atoms: C15_25  and  C16_26 
REMARK    9  A    between atoms: C16_26  and  C17_27 
REMARK   10  A    between atoms: C17_27  and  C18_28 
ROOT
HETATM    1  C1  UNL     1     114.371  21.943   8.724  1.00  0.00     0.017 C 
HETATM    2  C2  UNL     1     113.226  22.343   9.581  1.00  0.00    -0.022 C 
HETATM    3  C3  UNL     1     112.187  22.887   8.621  1.00  0.00     0.011 C 
HETATM    4  C4  UNL     1     112.811  24.217   8.171  1.00  0.00     0.001 C 
HETATM    5  C5  UNL     1     113.874  24.542   9.178  1.00  0.00     0.008 C 
HETATM    6  C6  UNL     1     113.452  23.647  10.322  1.00  0.00     0.026 C 
HETATM    7  C7  UNL     1     114.276  23.698  11.503  1.00  0.00     0.154 C 
HETATM    8  C8  UNL     1     113.903  22.565  12.451  1.00  0.00     0.184 C 
HETATM    9  C9  UNL     1     113.880  21.345  11.642  1.00  0.00     0.115 C 
HETATM   10  C10 UNL     1     113.735  20.026  12.300  1.00  0.00     0.161 C 
HETATM   11  N1  UNL     1     113.724  19.253  11.023  1.00  0.00    -0.387 N 
ATOM     12  H1  UNL     1     114.298  18.446  10.778  1.00  0.00     0.159 HD
HETATM   13  C11 UNL     1     112.715  19.903  10.207  1.00  0.00     0.046 C 
HETATM   14  C12 UNL     1     111.994  19.136   9.413  1.00  0.00     0.066 C 
HETATM   15  C19 UNL     1     112.794  21.318  10.556  1.00  0.00     0.043 C 
HETATM   16  C20 UNL     1     111.508  21.643  11.264  1.00  0.00     0.026 C 
ENDROOT
BRANCH  14  17
HETATM   17  O4  UNL     1     112.297  17.732   9.441  1.00  0.00    -0.363 OA
ATOM     18  H4  UNL     1     111.569  17.142   9.281  1.00  0.00     0.217 HD
ENDBRANCH  14  17
BRANCH  14  19
HETATM   19  C13 UNL     1     110.912  19.450   8.483  1.00  0.00     0.066 C 
BRANCH  19  20
HETATM   20  C14 UNL     1     109.554  18.868   8.865  1.00  0.00     0.006 C 
BRANCH  20  21
HETATM   21  C15 UNL     1     108.617  19.836   9.498  1.00  0.00     0.001 C 
BRANCH  21  22
HETATM   22  C16 UNL     1     107.194  19.339   9.255  1.00  0.00     0.007 C 
BRANCH  22  23
HETATM   23  C17 UNL     1     106.475  20.070   8.175  1.00  0.00     0.069 C 
BRANCH  23  24
HETATM   24  C18 UNL     1     106.129  21.423   8.741  1.00  0.00     0.231 C 
HETATM   25  O5  UNL     1     105.347  22.163   8.170  1.00  0.00    -0.307 OA
ENDBRANCH  23  24
ENDBRANCH  22  23
ENDBRANCH  21  22
ENDBRANCH  20  21
ENDBRANCH  19  20
ENDBRANCH  14  19
BRANCH   9  26
HETATM   26  O3  UNL     1     115.162  21.247  11.020  1.00  0.00    -0.384 OA
ATOM     27  H3  UNL     1     115.730  21.857  11.475  1.00  0.00     0.210 HD
ENDBRANCH   9  26
BRANCH   8  28
HETATM   28  O2  UNL     1     115.003  22.465  13.324  1.00  0.00    -0.390 OA
ATOM     29  H2  UNL     1     114.646  22.681  14.177  1.00  0.00     0.210 HD
ENDBRANCH   8  28
BRANCH   7  30
HETATM   30  O1  UNL     1     115.651  23.712  11.308  1.00  0.00    -0.392 OA
ATOM     31  H1  UNL     1     116.169  23.140  11.863  1.00  0.00     0.210 HD
ENDBRANCH   7  30
TORSDOF 10
ENDMDL
MODEL 5
REMARK VINA RESULT: -5.794996842      2.110      3.758
REMARK  10 active torsions:
REMARK  status: ('A' for Active; 'I' for Inactive)
REMARK    1  A    between atoms: C7_7  and  O1_8 
REMARK    2  A    between atoms: C8_10  and  O2_11 
REMARK    3  A    between atoms: C9_13  and  O3_14 
REMARK    4  A    between atoms: C12_20  and  O4_21 
REMARK    5  A    between atoms: C12_20  and  C13_23 
REMARK    6  A    between atoms: C13_23  and  C14_24 
REMARK    7  A    between atoms: C14_24  and  C15_25 
REMARK    8  A    between atoms: C15_25  and  C16_26 
REMARK    9  A    between atoms: C16_26  and  C17_27 
REMARK   10  A    between atoms: C17_27  and  C18_28 
ROOT
HETATM    1  C1  UNL     1     113.917  22.100   9.014  1.00  0.00     0.017 C 
HETATM    2  C2  UNL     1     112.946  22.333  10.113  1.00  0.00    -0.022 C 
HETATM    3  C3  UNL     1     111.716  22.906   9.437  1.00  0.00     0.011 C 
HETATM    4  C4  UNL     1     112.182  24.314   9.033  1.00  0.00     0.001 C 
HETATM    5  C5  UNL     1     113.406  24.599   9.850  1.00  0.00     0.008 C 
HETATM    6  C6  UNL     1     113.256  23.564  10.943  1.00  0.00     0.026 C 
HETATM    7  C7  UNL     1     114.292  23.544  11.944  1.00  0.00     0.154 C 
HETATM    8  C8  UNL     1     114.161  22.296  12.809  1.00  0.00     0.184 C 
HETATM    9  C9  UNL     1     114.033  21.169  11.883  1.00  0.00     0.115 C 
HETATM   10  C10 UNL     1     114.077  19.782  12.401  1.00  0.00     0.161 C 
HETATM   11  N1  UNL     1     113.849  19.147  11.069  1.00  0.00    -0.387 N 
ATOM     12  H1  UNL     1     114.399  18.409  10.628  1.00  0.00     0.159 HD
HETATM   13  C11 UNL     1     112.673  19.813  10.540  1.00  0.00     0.046 C 
HETATM   14  C12 UNL     1     111.845  19.088   9.814  1.00  0.00     0.066 C 
HETATM   15  C19 UNL     1     112.758  21.185  11.028  1.00  0.00     0.043 C 
HETATM   16  C20 UNL     1     111.623  21.350  11.999  1.00  0.00     0.026 C 
ENDROOT
BRANCH  14  17
HETATM   17  O4  UNL     1     112.207  17.711   9.622  1.00  0.00    -0.363 OA
ATOM     18  H4  UNL     1     111.568  17.166   9.178  1.00  0.00     0.217 HD
ENDBRANCH  14  17
BRANCH  14  19
HETATM   19  C13 UNL     1     110.589  19.427   9.149  1.00  0.00     0.066 C 
BRANCH  19  20
HETATM   20  C14 UNL     1     110.611  19.276   7.630  1.00  0.00     0.006 C 
BRANCH  20  21
HETATM   21  C15 UNL     1     111.545  20.196   6.925  1.00  0.00     0.001 C 
BRANCH  21  22
HETATM   22  C16 UNL     1     110.996  20.438   5.522  1.00  0.00     0.007 C 
BRANCH  22  23
HETATM   23  C17 UNL     1     111.934  20.056   4.430  1.00  0.00     0.069 C 
BRANCH  23  24
HETATM   24  C18 UNL     1     111.252  18.958   3.656  1.00  0.00     0.231 C 
HETATM   25  O5  UNL     1     111.586  18.691   2.515  1.00  0.00    -0.307 OA
ENDBRANCH  23  24
ENDBRANCH  22  23
ENDBRANCH  21  22
ENDBRANCH  20  21
ENDBRANCH  19  20
ENDBRANCH  14  19
BRANCH   9  26
HETATM   26  O3  UNL     1     115.171  21.220  11.022  1.00  0.00    -0.384 OA
ATOM     27  H3  UNL     1     114.857  21.515  10.176  1.00  0.00     0.210 HD
ENDBRANCH   9  26
BRANCH   8  28
HETATM   28  O2  UNL     1     115.414  22.177  13.439  1.00  0.00    -0.390 OA
ATOM     29  H2  UNL     1     115.276  21.524  14.115  1.00  0.00     0.210 HD
ENDBRANCH   8  28
BRANCH   7  30
HETATM   30  O1  UNL     1     115.601  23.668  11.494  1.00  0.00    -0.392 OA
ATOM     31  H1  UNL     1     116.287  23.588  12.146  1.00  0.00     0.210 HD
ENDBRANCH   7  30
TORSDOF 10
ENDMDL
