MODEL 1
REMARK VINA RESULT: -9.620940031      0.000      0.000
REMARK  9 active torsions:
REMARK  status: ('A' for Active; 'I' for Inactive)
REMARK    1  A    between atoms: C4_4  and  C5_5 
REMARK       I    between atoms: C5_5  and  N1_7 
REMARK    2  A    between atoms: C8_10  and  O2_11 
REMARK    3  A    between atoms: C8_10  and  C9_13 
REMARK    4  A    between atoms: C9_13  and  N2_14 
REMARK    5  A    between atoms: N2_14  and  C10_17 
REMARK    6  A    between atoms: N3_23  and  C16_24 
REMARK    7  A    between atoms: C16_24  and  C17_25 
REMARK    8  A    between atoms: C24_35  and  O3_36 
REMARK    9  A    between atoms: O3_36  and  C25_37 
ROOT
HETATM    1  C5  UNL     1      37.483  22.311  22.874  1.00  0.00     0.257 C 
HETATM    2  O1  UNL     1      38.092  21.376  23.450  1.00  0.00    -0.267 OA
HETATM    3  N1  UNL     1      38.194  23.503  22.588  1.00  0.00    -0.348 N 
HETATM    4  C6  UNL     1      39.618  23.604  22.983  1.00  0.00     0.129 C 
HETATM    5  C7  UNL     1      39.923  24.873  23.703  1.00  0.00     0.059 C 
HETATM    6  C8  UNL     1      39.378  26.084  22.958  1.00  0.00     0.084 C 
HETATM    7  C22 UNL     1      37.938  25.916  22.616  1.00  0.00     0.059 C 
HETATM    8  C23 UNL     1      37.646  24.642  21.909  1.00  0.00     0.129 C 
ENDROOT
BRANCH   6   9
HETATM    9  O2  UNL     1      39.532  27.165  23.843  1.00  0.00    -0.388 OA
ATOM     10  H2  UNL     1      38.871  27.797  23.585  1.00  0.00     0.210 HD
ENDBRANCH   6   9
BRANCH   6  11
HETATM   11  C9  UNL     1      40.264  26.310  21.785  1.00  0.00     0.270 C 
BRANCH  11  12
HETATM   12  N2  UNL     1      41.659  26.045  21.995  1.00  0.00    -0.068 N 
ATOM     13  H22 UNL     1      42.207  26.901  22.079  1.00  0.00     0.277 HD
ATOM     14  H21 UNL     1      41.844  25.664  22.923  1.00  0.00     0.277 HD
BRANCH  12  15
HETATM   15  C10 UNL     1      42.136  25.200  20.961  1.00  0.00     0.186 C 
HETATM   16  C11 UNL     1      41.346  25.223  19.674  1.00  0.00     0.034 C 
HETATM   17  C12 UNL     1      42.222  24.265  18.845  1.00  0.00     0.011 C 
HETATM   18  C13 UNL     1      43.636  24.566  19.295  1.00  0.00    -0.035 C 
HETATM   19  C14 UNL     1      44.367  25.139  18.125  1.00  0.00     0.040 C 
HETATM   20  C20 UNL     1      44.326  23.358  19.882  1.00  0.00     0.044 C 
HETATM   21  C21 UNL     1      43.511  25.584  20.434  1.00  0.00     0.042 C 
HETATM   22  C15 UNL     1      44.704  24.027  17.161  1.00  0.00     0.274 C 
HETATM   23  N3  UNL     1      45.486  22.985  17.734  1.00  0.00     0.101 N 
HETATM   24  C18 UNL     1      45.617  23.057  19.165  1.00  0.00     0.220 C 
HETATM   25  C19 UNL     1      46.751  23.939  19.586  1.00  0.00     0.043 C 
BRANCH  23  26
HETATM   26  C16 UNL     1      45.190  21.664  17.261  1.00  0.00     0.389 C 
BRANCH  26  27
HETATM   27  C17 UNL     1      46.354  21.067  16.464  1.00  0.00     0.413 C 
HETATM   28  F1  UNL     1      47.569  21.502  16.936  1.00  0.00    -0.169 F 
HETATM   29  F2  UNL     1      46.315  19.674  16.562  1.00  0.00    -0.169 F 
HETATM   30  F3  UNL     1      46.247  21.380  15.133  1.00  0.00    -0.169 F 
ENDBRANCH  26  27
ENDBRANCH  23  26
ENDBRANCH  12  15
ENDBRANCH  11  12
ENDBRANCH   6  11
BRANCH   1  31
HETATM   31  C4  UNL     1      36.057  22.084  22.534  1.00  0.00     0.074 A 
HETATM   32  C3  UNL     1      35.058  22.596  23.296  1.00  0.00     0.034 A 
HETATM   33  C2  UNL     1      33.777  22.352  22.896  1.00  0.00    -0.018 A 
HETATM   34  C1  UNL     1      32.501  22.811  23.572  1.00  0.00     0.056 C 
HETATM   35  S1  UNL     1      33.978  21.425  21.484  1.00  0.00    -0.069 SA
HETATM   36  C24 UNL     1      35.678  21.367  21.431  1.00  0.00     0.133 A 
BRANCH  36  37
HETATM   37  O3  UNL     1      36.526  20.736  20.488  1.00  0.00    -0.302 OA
BRANCH  37  38
HETATM   38  C25 UNL     1      36.652  19.381  20.373  1.00  0.00     0.076 A 
HETATM   39  C26 UNL     1      37.494  18.709  21.243  1.00  0.00     0.039 A 
HETATM   40  C27 UNL     1      37.613  17.343  21.117  1.00  0.00     0.026 A 
HETATM   41  C28 UNL     1      36.914  16.635  20.143  1.00  0.00     0.034 A 
HETATM   42 CL1  UNL     1      37.148  14.912  20.081  1.00  0.00    -0.084 Cl
HETATM   43  C29 UNL     1      36.093  17.333  19.301  1.00  0.00     0.026 A 
HETATM   44  C30 UNL     1      35.951  18.699  19.403  1.00  0.00     0.039 A 
ENDBRANCH  37  38
ENDBRANCH  36  37
ENDBRANCH   1  31
TORSDOF 9
ENDMDL
MODEL 2
REMARK VINA RESULT: -9.589700726      1.993      2.901
REMARK  9 active torsions:
REMARK  status: ('A' for Active; 'I' for Inactive)
REMARK    1  A    between atoms: C4_4  and  C5_5 
REMARK       I    between atoms: C5_5  and  N1_7 
REMARK    2  A    between atoms: C8_10  and  O2_11 
REMARK    3  A    between atoms: C8_10  and  C9_13 
REMARK    4  A    between atoms: C9_13  and  N2_14 
REMARK    5  A    between atoms: N2_14  and  C10_17 
REMARK    6  A    between atoms: N3_23  and  C16_24 
REMARK    7  A    between atoms: C16_24  and  C17_25 
REMARK    8  A    between atoms: C24_35  and  O3_36 
REMARK    9  A    between atoms: O3_36  and  C25_37 
ROOT
HETATM    1  C5  UNL     1      37.499  22.286  22.757  1.00  0.00     0.257 C 
HETATM    2  O1  UNL     1      38.136  21.352  23.305  1.00  0.00    -0.267 OA
HETATM    3  N1  UNL     1      38.188  23.488  22.462  1.00  0.00    -0.348 N 
HETATM    4  C6  UNL     1      39.621  23.602  22.815  1.00  0.00     0.129 C 
HETATM    5  C7  UNL     1      39.934  24.868  23.538  1.00  0.00     0.059 C 
HETATM    6  C8  UNL     1      39.352  26.080  22.822  1.00  0.00     0.084 C 
HETATM    7  C22 UNL     1      37.904  25.898  22.522  1.00  0.00     0.059 C 
HETATM    8  C23 UNL     1      37.606  24.628  21.811  1.00  0.00     0.129 C 
ENDROOT
BRANCH   6   9
HETATM    9  O2  UNL     1      39.520  27.154  23.713  1.00  0.00    -0.388 OA
ATOM     10  H2  UNL     1      38.683  27.603  23.725  1.00  0.00     0.210 HD
ENDBRANCH   6   9
BRANCH   6  11
HETATM   11  C9  UNL     1      40.200  26.327  21.625  1.00  0.00     0.270 C 
BRANCH  11  12
HETATM   12  N2  UNL     1      41.581  25.958  21.750  1.00  0.00    -0.068 N 
ATOM     13  H22 UNL     1      42.145  26.704  22.158  1.00  0.00     0.277 HD
ATOM     14  H21 UNL     1      41.729  25.254  22.472  1.00  0.00     0.277 HD
BRANCH  12  15
HETATM   15  C10 UNL     1      42.071  25.543  20.485  1.00  0.00     0.186 C 
HETATM   16  C11 UNL     1      43.055  24.399  20.502  1.00  0.00     0.034 C 
HETATM   17  C12 UNL     1      43.252  24.237  18.983  1.00  0.00     0.011 C 
HETATM   18  C13 UNL     1      41.888  24.530  18.396  1.00  0.00    -0.035 C 
HETATM   19  C14 UNL     1      41.390  23.269  17.767  1.00  0.00     0.040 C 
HETATM   20  C20 UNL     1      41.909  25.695  17.435  1.00  0.00     0.044 C 
HETATM   21  C21 UNL     1      41.003  24.960  19.570  1.00  0.00     0.042 C 
HETATM   22  C15 UNL     1      42.119  23.047  16.463  1.00  0.00     0.274 C 
HETATM   23  N3  UNL     1      41.978  24.118  15.535  1.00  0.00     0.101 N 
HETATM   24  C18 UNL     1      41.373  25.303  16.081  1.00  0.00     0.220 C 
HETATM   25  C19 UNL     1      39.878  25.254  16.025  1.00  0.00     0.043 C 
BRANCH  23  26
HETATM   26  C16 UNL     1      43.135  24.393  14.736  1.00  0.00     0.389 C 
BRANCH  26  27
HETATM   27  C17 UNL     1      42.958  23.919  13.290  1.00  0.00     0.413 C 
HETATM   28  F1  UNL     1      43.785  24.599  12.427  1.00  0.00    -0.169 F 
HETATM   29  F2  UNL     1      43.258  22.557  13.209  1.00  0.00    -0.169 F 
HETATM   30  F3  UNL     1      41.657  24.069  12.881  1.00  0.00    -0.169 F 
ENDBRANCH  26  27
ENDBRANCH  23  26
ENDBRANCH  12  15
ENDBRANCH  11  12
ENDBRANCH   6  11
BRANCH   1  31
HETATM   31  C4  UNL     1      36.066  22.045  22.459  1.00  0.00     0.074 A 
HETATM   32  C3  UNL     1      35.084  22.566  23.237  1.00  0.00     0.034 A 
HETATM   33  C2  UNL     1      33.795  22.308  22.874  1.00  0.00    -0.018 A 
HETATM   34  C1  UNL     1      32.534  22.773  23.574  1.00  0.00     0.056 C 
HETATM   35  S1  UNL     1      33.965  21.356  21.474  1.00  0.00    -0.069 SA
HETATM   36  C24 UNL     1      35.664  21.306  21.378  1.00  0.00     0.133 A 
BRANCH  36  37
HETATM   37  O3  UNL     1      36.490  20.662  20.426  1.00  0.00    -0.302 OA
BRANCH  37  38
HETATM   38  C25 UNL     1      36.635  19.306  20.345  1.00  0.00     0.076 A 
HETATM   39  C26 UNL     1      35.927  18.613  19.377  1.00  0.00     0.039 A 
HETATM   40  C27 UNL     1      36.080  17.247  19.305  1.00  0.00     0.026 A 
HETATM   41  C28 UNL     1      36.921  16.558  20.175  1.00  0.00     0.034 A 
HETATM   42 CL1  UNL     1      37.032  14.833  19.986  1.00  0.00    -0.084 Cl
HETATM   43  C29 UNL     1      37.604  17.276  21.117  1.00  0.00     0.026 A 
HETATM   44  C30 UNL     1      37.473  18.644  21.214  1.00  0.00     0.039 A 
ENDBRANCH  37  38
ENDBRANCH  36  37
ENDBRANCH   1  31
TORSDOF 9
ENDMDL
MODEL 3
REMARK VINA RESULT: -9.352381901      0.962      1.862
REMARK  9 active torsions:
REMARK  status: ('A' for Active; 'I' for Inactive)
REMARK    1  A    between atoms: C4_4  and  C5_5 
REMARK       I    between atoms: C5_5  and  N1_7 
REMARK    2  A    between atoms: C8_10  and  O2_11 
REMARK    3  A    between atoms: C8_10  and  C9_13 
REMARK    4  A    between atoms: C9_13  and  N2_14 
REMARK    5  A    between atoms: N2_14  and  C10_17 
REMARK    6  A    between atoms: N3_23  and  C16_24 
REMARK    7  A    between atoms: C16_24  and  C17_25 
REMARK    8  A    between atoms: C24_35  and  O3_36 
REMARK    9  A    between atoms: O3_36  and  C25_37 
ROOT
HETATM    1  C5  UNL     1      37.390  22.657  23.009  1.00  0.00     0.257 C 
HETATM    2  O1  UNL     1      38.018  21.762  23.627  1.00  0.00    -0.267 OA
HETATM    3  N1  UNL     1      38.074  23.855  22.683  1.00  0.00    -0.348 N 
HETATM    4  C6  UNL     1      39.490  24.007  23.084  1.00  0.00     0.129 C 
HETATM    5  C7  UNL     1      39.757  25.311  23.756  1.00  0.00     0.059 C 
HETATM    6  C8  UNL     1      39.188  26.478  22.959  1.00  0.00     0.084 C 
HETATM    7  C22 UNL     1      37.756  26.260  22.613  1.00  0.00     0.059 C 
HETATM    8  C23 UNL     1      37.503  24.952  21.954  1.00  0.00     0.129 C 
ENDROOT
BRANCH   6   9
HETATM    9  O2  UNL     1      39.307  27.596  23.802  1.00  0.00    -0.388 OA
ATOM     10  H2  UNL     1      38.915  28.316  23.321  1.00  0.00     0.210 HD
ENDBRANCH   6   9
BRANCH   6  11
HETATM   11  C9  UNL     1      40.079  26.680  21.785  1.00  0.00     0.270 C 
BRANCH  11  12
HETATM   12  N2  UNL     1      41.272  27.440  22.030  1.00  0.00    -0.068 N 
ATOM     13  H22 UNL     1      41.164  28.421  21.775  1.00  0.00     0.277 HD
ATOM     14  H21 UNL     1      41.452  27.568  23.025  1.00  0.00     0.277 HD
BRANCH  12  15
HETATM   15  C10 UNL     1      42.362  26.826  21.360  1.00  0.00     0.186 C 
HETATM   16  C11 UNL     1      43.571  26.521  22.211  1.00  0.00     0.034 C 
HETATM   17  C12 UNL     1      44.437  25.824  21.145  1.00  0.00     0.011 C 
HETATM   18  C13 UNL     1      43.443  25.057  20.299  1.00  0.00    -0.035 C 
HETATM   19  C14 UNL     1      43.725  23.602  20.484  1.00  0.00     0.040 C 
HETATM   20  C20 UNL     1      43.471  25.479  18.849  1.00  0.00     0.044 C 
HETATM   21  C21 UNL     1      42.055  25.434  20.827  1.00  0.00     0.042 C 
HETATM   22  C15 UNL     1      44.966  23.236  19.705  1.00  0.00     0.274 C 
HETATM   23  N3  UNL     1      44.876  23.519  18.313  1.00  0.00     0.101 N 
HETATM   24  C18 UNL     1      43.731  24.306  17.938  1.00  0.00     0.220 C 
HETATM   25  C19 UNL     1      42.519  23.462  17.694  1.00  0.00     0.043 C 
BRANCH  23  26
HETATM   26  C16 UNL     1      46.092  23.964  17.698  1.00  0.00     0.389 C 
BRANCH  26  27
HETATM   27  C17 UNL     1      46.980  22.792  17.270  1.00  0.00     0.413 C 
HETATM   28  F1  UNL     1      47.712  23.091  16.147  1.00  0.00    -0.169 F 
HETATM   29  F2  UNL     1      47.865  22.480  18.305  1.00  0.00    -0.169 F 
HETATM   30  F3  UNL     1      46.228  21.669  17.034  1.00  0.00    -0.169 F 
ENDBRANCH  26  27
ENDBRANCH  23  26
ENDBRANCH  12  15
ENDBRANCH  11  12
ENDBRANCH   6  11
BRANCH   1  31
HETATM   31  C4  UNL     1      35.973  22.381  22.668  1.00  0.00     0.074 A 
HETATM   32  C3  UNL     1      34.956  22.874  23.417  1.00  0.00     0.034 A 
HETATM   33  C2  UNL     1      33.684  22.584  23.016  1.00  0.00    -0.018 A 
HETATM   34  C1  UNL     1      32.392  23.014  23.678  1.00  0.00     0.056 C 
HETATM   35  S1  UNL     1      33.921  21.641  21.619  1.00  0.00    -0.069 SA
HETATM   36  C24 UNL     1      35.622  21.635  21.574  1.00  0.00     0.133 A 
BRANCH  36  37
HETATM   37  O3  UNL     1      36.493  21.016  20.645  1.00  0.00    -0.302 OA
BRANCH  37  38
HETATM   38  C25 UNL     1      36.701  19.667  20.587  1.00  0.00     0.076 A 
HETATM   39  C26 UNL     1      36.109  18.941  19.566  1.00  0.00     0.039 A 
HETATM   40  C27 UNL     1      36.324  17.582  19.518  1.00  0.00     0.026 A 
HETATM   41  C28 UNL     1      37.113  16.933  20.463  1.00  0.00     0.034 A 
HETATM   42 CL1  UNL     1      37.311  15.212  20.297  1.00  0.00    -0.084 Cl
HETATM   43  C29 UNL     1      37.681  17.682  21.456  1.00  0.00     0.026 A 
HETATM   44  C30 UNL     1      37.485  19.043  21.531  1.00  0.00     0.039 A 
ENDBRANCH  37  38
ENDBRANCH  36  37
ENDBRANCH   1  31
TORSDOF 9
ENDMDL
MODEL 4
REMARK VINA RESULT: -9.286947273      2.250      3.858
REMARK  9 active torsions:
REMARK  status: ('A' for Active; 'I' for Inactive)
REMARK    1  A    between atoms: C4_4  and  C5_5 
REMARK       I    between atoms: C5_5  and  N1_7 
REMARK    2  A    between atoms: C8_10  and  O2_11 
REMARK    3  A    between atoms: C8_10  and  C9_13 
REMARK    4  A    between atoms: C9_13  and  N2_14 
REMARK    5  A    between atoms: N2_14  and  C10_17 
REMARK    6  A    between atoms: N3_23  and  C16_24 
REMARK    7  A    between atoms: C16_24  and  C17_25 
REMARK    8  A    between atoms: C24_35  and  O3_36 
REMARK    9  A    between atoms: O3_36  and  C25_37 
ROOT
HETATM    1  C5  UNL     1      38.021  20.969  22.478  1.00  0.00     0.257 C 
HETATM    2  O1  UNL     1      38.035  20.736  23.713  1.00  0.00    -0.267 OA
HETATM    3  N1  UNL     1      38.594  22.179  22.015  1.00  0.00    -0.348 N 
HETATM    4  C6  UNL     1      39.178  23.121  22.997  1.00  0.00     0.129 C 
HETATM    5  C7  UNL     1      38.711  24.523  22.792  1.00  0.00     0.059 C 
HETATM    6  C8  UNL     1      38.846  24.950  21.336  1.00  0.00     0.084 C 
HETATM    7  C22 UNL     1      38.217  23.963  20.414  1.00  0.00     0.059 C 
HETATM    8  C23 UNL     1      38.682  22.570  20.637  1.00  0.00     0.129 C 
ENDROOT
BRANCH   6   9
HETATM    9  O2  UNL     1      38.173  26.180  21.246  1.00  0.00    -0.388 OA
ATOM     10  H2  UNL     1      38.007  26.309  20.320  1.00  0.00     0.210 HD
ENDBRANCH   6   9
BRANCH   6  11
HETATM   11  C9  UNL     1      40.293  25.189  21.084  1.00  0.00     0.270 C 
BRANCH  11  12
HETATM   12  N2  UNL     1      40.625  25.696  19.783  1.00  0.00    -0.068 N 
ATOM     13  H22 UNL     1      39.800  25.996  19.263  1.00  0.00     0.277 HD
ATOM     14  H21 UNL     1      41.100  26.597  19.829  1.00  0.00     0.277 HD
BRANCH  12  15
HETATM   15  C10 UNL     1      41.381  24.724  19.080  1.00  0.00     0.186 C 
HETATM   16  C11 UNL     1      40.795  24.252  17.772  1.00  0.00     0.034 C 
HETATM   17  C12 UNL     1      41.930  23.306  17.335  1.00  0.00     0.011 C 
HETATM   18  C13 UNL     1      43.193  23.990  17.813  1.00  0.00    -0.035 C 
HETATM   19  C14 UNL     1      43.982  24.372  16.603  1.00  0.00     0.040 C 
HETATM   20  C20 UNL     1      43.981  23.141  18.782  1.00  0.00     0.044 C 
HETATM   21  C21 UNL     1      42.736  25.224  18.600  1.00  0.00     0.042 C 
HETATM   22  C15 UNL     1      44.635  23.137  16.031  1.00  0.00     0.274 C 
HETATM   23  N3  UNL     1      45.488  22.459  16.948  1.00  0.00     0.101 N 
HETATM   24  C18 UNL     1      45.395  22.927  18.304  1.00  0.00     0.220 C 
HETATM   25  C19 UNL     1      46.293  24.097  18.563  1.00  0.00     0.043 C 
BRANCH  23  26
HETATM   26  C16 UNL     1      45.487  21.030  16.843  1.00  0.00     0.389 C 
BRANCH  26  27
HETATM   27  C17 UNL     1      46.800  20.498  16.259  1.00  0.00     0.413 C 
HETATM   28  F1  UNL     1      47.011  20.956  14.982  1.00  0.00    -0.169 F 
HETATM   29  F2  UNL     1      47.865  20.915  17.061  1.00  0.00    -0.169 F 
HETATM   30  F3  UNL     1      46.813  19.126  16.255  1.00  0.00    -0.169 F 
ENDBRANCH  26  27
ENDBRANCH  23  26
ENDBRANCH  12  15
ENDBRANCH  11  12
ENDBRANCH   6  11
BRANCH   1  31
HETATM   31  C4  UNL     1      37.403  19.944  21.601  1.00  0.00     0.074 A 
HETATM   32  C3  UNL     1      37.867  18.670  21.567  1.00  0.00     0.034 A 
HETATM   33  C2  UNL     1      37.223  17.792  20.744  1.00  0.00    -0.018 A 
HETATM   34  C1  UNL     1      37.547  16.327  20.532  1.00  0.00     0.056 C 
HETATM   35  S1  UNL     1      35.998  18.740  20.041  1.00  0.00    -0.069 SA
HETATM   36  C24 UNL     1      36.328  20.227  20.803  1.00  0.00     0.133 A 
BRANCH  36  37
HETATM   37  O3  UNL     1      35.669  21.472  20.662  1.00  0.00    -0.302 OA
BRANCH  37  38
HETATM   38  C25 UNL     1      34.759  21.952  21.561  1.00  0.00     0.076 A 
HETATM   39  C26 UNL     1      33.532  21.320  21.675  1.00  0.00     0.039 A 
HETATM   40  C27 UNL     1      32.622  21.813  22.583  1.00  0.00     0.026 A 
HETATM   41  C28 UNL     1      32.908  22.921  23.377  1.00  0.00     0.034 A 
HETATM   42 CL1  UNL     1      31.679  23.451  24.487  1.00  0.00    -0.084 Cl
HETATM   43  C29 UNL     1      34.130  23.519  23.235  1.00  0.00     0.026 A 
HETATM   44  C30 UNL     1      35.061  23.049  22.337  1.00  0.00     0.039 A 
ENDBRANCH  37  38
ENDBRANCH  36  37
ENDBRANCH   1  31
TORSDOF 9
ENDMDL
MODEL 5
REMARK VINA RESULT: -9.275899438      0.864      1.590
REMARK  9 active torsions:
REMARK  status: ('A' for Active; 'I' for Inactive)
REMARK    1  A    between atoms: C4_4  and  C5_5 
REMARK       I    between atoms: C5_5  and  N1_7 
REMARK    2  A    between atoms: C8_10  and  O2_11 
REMARK    3  A    between atoms: C8_10  and  C9_13 
REMARK    4  A    between atoms: C9_13  and  N2_14 
REMARK    5  A    between atoms: N2_14  and  C10_17 
REMARK    6  A    between atoms: N3_23  and  C16_24 
REMARK    7  A    between atoms: C16_24  and  C17_25 
REMARK    8  A    between atoms: C24_35  and  O3_36 
REMARK    9  A    between atoms: O3_36  and  C25_37 
ROOT
HETATM    1  C5  UNL     1      37.522  22.306  22.877  1.00  0.00     0.257 C 
HETATM    2  O1  UNL     1      38.123  21.362  23.448  1.00  0.00    -0.267 OA
HETATM    3  N1  UNL     1      38.245  23.492  22.596  1.00  0.00    -0.348 N 
HETATM    4  C6  UNL     1      39.670  23.576  22.986  1.00  0.00     0.129 C 
HETATM    5  C7  UNL     1      39.992  24.838  23.712  1.00  0.00     0.059 C 
HETATM    6  C8  UNL     1      39.457  26.059  22.973  1.00  0.00     0.084 C 
HETATM    7  C22 UNL     1      38.014  25.907  22.635  1.00  0.00     0.059 C 
HETATM    8  C23 UNL     1      37.707  24.640  21.923  1.00  0.00     0.129 C 
ENDROOT
BRANCH   6   9
HETATM    9  O2  UNL     1      39.625  27.134  23.863  1.00  0.00    -0.388 OA
ATOM     10  H2  UNL     1      38.985  27.783  23.596  1.00  0.00     0.210 HD
ENDBRANCH   6   9
BRANCH   6  11
HETATM   11  C9  UNL     1      40.342  26.280  21.799  1.00  0.00     0.270 C 
BRANCH  11  12
HETATM   12  N2  UNL     1      41.591  26.932  22.072  1.00  0.00    -0.068 N 
ATOM     13  H22 UNL     1      41.518  27.948  22.018  1.00  0.00     0.277 HD
ATOM     14  H21 UNL     1      41.859  26.860  23.054  1.00  0.00     0.277 HD
BRANCH  12  15
HETATM   15  C10 UNL     1      42.587  26.417  21.203  1.00  0.00     0.186 C 
HETATM   16  C11 UNL     1      43.953  26.215  21.813  1.00  0.00     0.034 C 
HETATM   17  C12 UNL     1      44.664  25.598  20.594  1.00  0.00     0.011 C 
HETATM   18  C13 UNL     1      43.600  24.751  19.929  1.00  0.00    -0.035 C 
HETATM   19  C14 UNL     1      44.032  23.324  20.033  1.00  0.00     0.040 C 
HETATM   20  C20 UNL     1      43.325  25.177  18.507  1.00  0.00     0.044 C 
HETATM   21  C21 UNL     1      42.306  25.005  20.710  1.00  0.00     0.042 C 
HETATM   22  C15 UNL     1      45.135  23.069  19.033  1.00  0.00     0.274 C 
HETATM   23  N3  UNL     1      44.767  23.348  17.687  1.00  0.00     0.101 N 
HETATM   24  C18 UNL     1      43.511  24.033  17.543  1.00  0.00     0.220 C 
HETATM   25  C19 UNL     1      42.350  23.089  17.509  1.00  0.00     0.043 C 
BRANCH  23  26
HETATM   26  C16 UNL     1      45.807  23.897  16.868  1.00  0.00     0.389 C 
BRANCH  26  27
HETATM   27  C17 UNL     1      46.170  22.971  15.703  1.00  0.00     0.413 C 
HETATM   28  F1  UNL     1      47.326  23.369  15.077  1.00  0.00    -0.169 F 
HETATM   29  F2  UNL     1      46.352  21.672  16.184  1.00  0.00    -0.169 F 
HETATM   30  F3  UNL     1      45.153  22.920  14.784  1.00  0.00    -0.169 F 
ENDBRANCH  26  27
ENDBRANCH  23  26
ENDBRANCH  12  15
ENDBRANCH  11  12
ENDBRANCH   6  11
BRANCH   1  31
HETATM   31  C4  UNL     1      36.092  22.096  22.541  1.00  0.00     0.074 A 
HETATM   32  C3  UNL     1      35.102  22.615  23.308  1.00  0.00     0.034 A 
HETATM   33  C2  UNL     1      33.816  22.386  22.911  1.00  0.00    -0.018 A 
HETATM   34  C1  UNL     1      32.548  22.856  23.592  1.00  0.00     0.056 C 
HETATM   35  S1  UNL     1      34.004  21.464  21.494  1.00  0.00    -0.069 SA
HETATM   36  C24 UNL     1      35.703  21.389  21.435  1.00  0.00     0.133 A 
BRANCH  36  37
HETATM   37  O3  UNL     1      36.541  20.753  20.488  1.00  0.00    -0.302 OA
BRANCH  37  38
HETATM   38  C25 UNL     1      36.654  19.396  20.367  1.00  0.00     0.076 A 
HETATM   39  C26 UNL     1      37.480  18.712  21.242  1.00  0.00     0.039 A 
HETATM   40  C27 UNL     1      37.586  17.345  21.111  1.00  0.00     0.026 A 
HETATM   41  C28 UNL     1      36.889  16.649  20.126  1.00  0.00     0.034 A 
HETATM   42 CL1  UNL     1      37.105  14.925  20.059  1.00  0.00    -0.084 Cl
HETATM   43  C29 UNL     1      36.084  17.360  19.280  1.00  0.00     0.026 A 
HETATM   44  C30 UNL     1      35.956  18.727  19.387  1.00  0.00     0.039 A 
ENDBRANCH  37  38
ENDBRANCH  36  37
ENDBRANCH   1  31
TORSDOF 9
ENDMDL
