MODEL 1
REMARK VINA RESULT: -10.107195163      0.000      0.000
REMARK  9 active torsions:
REMARK  status: ('A' for Active; 'I' for Inactive)
REMARK       I    between atoms: C1_2  and  N1_3 
REMARK    1  A    between atoms: C1_2  and  C4_10 
REMARK    2  A    between atoms: N1_3  and  C2_5 
REMARK    3  A    between atoms: C2_5  and  C3_6 
REMARK    4  A    between atoms: C4_10  and  C5_11 
REMARK    5  A    between atoms: C4_10  and  O2_17 
REMARK    6  A    between atoms: C5_11  and  C6_12 
REMARK    7  A    between atoms: O2_17  and  C11_18 
REMARK    8  A    between atoms: C15_24  and  C16_25 
REMARK    9  A    between atoms: C26_36  and  O6_37 
ROOT
HETATM    1  C11 UNL     1      37.604  22.478  20.316  1.00  0.00     0.096 A 
HETATM    2  C12 UNL     1      38.387  22.638  21.507  1.00  0.00     0.077 A 
HETATM    3  C13 UNL     1      38.844  23.836  21.954  1.00  0.00     0.095 A 
HETATM    4  O3  UNL     1      39.559  23.960  23.045  1.00  0.00    -0.274 OA
HETATM    5  C14 UNL     1      39.993  25.095  23.480  1.00  0.00     0.298 A 
HETATM    6  O4  UNL     1      40.679  25.116  24.544  1.00  0.00    -0.259 OA
HETATM    7  C15 UNL     1      39.751  26.337  22.843  1.00  0.00     0.063 A 
HETATM    8  C26 UNL     1      39.011  26.222  21.697  1.00  0.00     0.091 A 
HETATM    9  C27 UNL     1      38.545  24.982  21.231  1.00  0.00     0.033 A 
HETATM   10  C28 UNL     1      37.806  24.858  20.090  1.00  0.00     0.039 A 
HETATM   11  C29 UNL     1      37.327  23.612  19.617  1.00  0.00     0.045 A 
HETATM   12 BR1  UNL     1      36.376  23.612  17.946  1.00  0.00    -0.048 Br
ENDROOT
BRANCH   1  13
HETATM   13  O2  UNL     1      37.220  21.223  20.014  1.00  0.00    -0.308 OA
BRANCH  13  14
HETATM   14  C4  UNL     1      36.113  20.476  19.758  1.00  0.00     0.121 C 
BRANCH  14  15
HETATM   15  C1  UNL     1      36.288  19.110  19.258  1.00  0.00     0.271 C 
HETATM   16  O1  UNL     1      37.523  18.708  19.253  1.00  0.00    -0.266 OA
HETATM   17  N1  UNL     1      35.317  18.207  18.800  1.00  0.00    -0.347 N 
ATOM     18  H1  UNL     1      34.334  18.474  18.764  1.00  0.00     0.163 HD
BRANCH  17  19
HETATM   19  C2  UNL     1      35.746  16.870  18.374  1.00  0.00     0.240 C 
BRANCH  19  20
HETATM   20  C3  UNL     1      35.112  15.773  19.153  1.00  0.00     0.403 C 
HETATM   21  F1  UNL     1      35.864  15.382  20.247  1.00  0.00    -0.169 F 
HETATM   22  F2  UNL     1      35.016  14.610  18.361  1.00  0.00    -0.169 F 
HETATM   23  F3  UNL     1      33.855  16.149  19.545  1.00  0.00    -0.169 F 
ENDBRANCH  19  20
ENDBRANCH  17  19
ENDBRANCH  14  15
BRANCH  14  24
HETATM   24  C5  UNL     1      35.066  20.631  20.854  1.00  0.00     0.075 C 
BRANCH  24  25
HETATM   25  C6  UNL     1      34.225  21.816  20.925  1.00  0.00    -0.008 C 
HETATM   26  C7  UNL     1      34.638  23.029  21.676  1.00  0.00     0.005 C 
HETATM   27  C8  UNL     1      34.325  22.670  23.120  1.00  0.00     0.000 C 
HETATM   28  C9  UNL     1      33.189  21.685  23.067  1.00  0.00     0.000 C 
HETATM   29  C10 UNL     1      32.917  21.399  21.627  1.00  0.00     0.005 C 
ENDBRANCH  24  25
ENDBRANCH  14  24
ENDBRANCH  13  14
ENDBRANCH   1  13
BRANCH   8  30
HETATM   30  O6  UNL     1      38.720  27.326  20.973  1.00  0.00    -0.359 OA
ATOM     31  H6  UNL     1      37.840  27.685  20.993  1.00  0.00     0.217 HD
ENDBRANCH   8  30
BRANCH   7  32
HETATM   32  C16 UNL     1      40.387  27.524  23.409  1.00  0.00     0.102 C 
HETATM   33  C17 UNL     1      41.419  28.041  22.384  1.00  0.00     0.136 C 
HETATM   34  O5  UNL     1      42.305  27.301  22.061  1.00  0.00    -0.297 OA
HETATM   35  C18 UNL     1      41.319  29.395  21.820  1.00  0.00     0.079 C 
HETATM   36  C19 UNL     1      41.027  30.460  22.872  1.00  0.00     0.012 C 
HETATM   37  C20 UNL     1      40.567  29.806  24.153  1.00  0.00    -0.009 C 
HETATM   38  C21 UNL     1      39.950  30.758  25.102  1.00  0.00     0.005 C 
HETATM   39  C25 UNL     1      39.583  28.678  23.858  1.00  0.00     0.005 C 
HETATM   40  C22 UNL     1      38.541  31.140  24.781  1.00  0.00     0.000 C 
HETATM   41  C23 UNL     1      37.663  30.080  24.260  1.00  0.00     0.000 C 
HETATM   42  C24 UNL     1      38.378  29.163  23.222  1.00  0.00     0.006 C 
ENDBRANCH   7  32
TORSDOF 9
ENDMDL
MODEL 2
REMARK VINA RESULT: -10.012964930      1.243      1.864
REMARK  9 active torsions:
REMARK  status: ('A' for Active; 'I' for Inactive)
REMARK       I    between atoms: C1_2  and  N1_3 
REMARK    1  A    between atoms: C1_2  and  C4_10 
REMARK    2  A    between atoms: N1_3  and  C2_5 
REMARK    3  A    between atoms: C2_5  and  C3_6 
REMARK    4  A    between atoms: C4_10  and  C5_11 
REMARK    5  A    between atoms: C4_10  and  O2_17 
REMARK    6  A    between atoms: C5_11  and  C6_12 
REMARK    7  A    between atoms: O2_17  and  C11_18 
REMARK    8  A    between atoms: C15_24  and  C16_25 
REMARK    9  A    between atoms: C26_36  and  O6_37 
ROOT
HETATM    1  C11 UNL     1      37.965  21.846  21.114  1.00  0.00     0.096 A 
HETATM    2  C12 UNL     1      38.295  23.130  20.567  1.00  0.00     0.077 A 
HETATM    3  C13 UNL     1      38.806  24.153  21.299  1.00  0.00     0.095 A 
HETATM    4  O3  UNL     1      39.101  25.320  20.780  1.00  0.00    -0.274 OA
HETATM    5  C14 UNL     1      39.592  26.296  21.468  1.00  0.00     0.298 A 
HETATM    6  O4  UNL     1      39.843  27.387  20.879  1.00  0.00    -0.259 OA
HETATM    7  C15 UNL     1      39.874  26.230  22.854  1.00  0.00     0.063 A 
HETATM    8  C26 UNL     1      39.563  25.019  23.413  1.00  0.00     0.091 A 
HETATM    9  C27 UNL     1      39.028  23.963  22.656  1.00  0.00     0.033 A 
HETATM   10  C28 UNL     1      38.717  22.752  23.203  1.00  0.00     0.039 A 
HETATM   11  C29 UNL     1      38.183  21.681  22.446  1.00  0.00     0.045 A 
HETATM   12 BR1  UNL     1      37.722  20.076  23.398  1.00  0.00    -0.048 Br
ENDROOT
BRANCH   1  13
HETATM   13  O2  UNL     1      37.476  20.935  20.251  1.00  0.00    -0.308 OA
BRANCH  13  14
HETATM   14  C4  UNL     1      36.309  20.369  19.840  1.00  0.00     0.121 C 
BRANCH  14  15
HETATM   15  C1  UNL     1      36.348  19.028  19.254  1.00  0.00     0.271 C 
HETATM   16  O1  UNL     1      37.529  18.488  19.257  1.00  0.00    -0.266 OA
HETATM   17  N1  UNL     1      35.299  18.273  18.707  1.00  0.00    -0.347 N 
ATOM     18  H1  UNL     1      34.354  18.652  18.661  1.00  0.00     0.163 HD
BRANCH  17  19
HETATM   19  C2  UNL     1      35.590  16.926  18.204  1.00  0.00     0.240 C 
BRANCH  19  20
HETATM   20  C3  UNL     1      35.164  15.846  19.135  1.00  0.00     0.403 C 
HETATM   21  F1  UNL     1      36.050  15.654  20.181  1.00  0.00    -0.169 F 
HETATM   22  F2  UNL     1      35.145  14.607  18.462  1.00  0.00    -0.169 F 
HETATM   23  F3  UNL     1      33.909  16.113  19.612  1.00  0.00    -0.169 F 
ENDBRANCH  19  20
ENDBRANCH  17  19
ENDBRANCH  14  15
BRANCH  14  24
HETATM   24  C5  UNL     1      35.189  20.601  20.846  1.00  0.00     0.075 C 
BRANCH  24  25
HETATM   25  C6  UNL     1      34.405  21.826  20.827  1.00  0.00    -0.008 C 
HETATM   26  C7  UNL     1      34.859  23.060  21.517  1.00  0.00     0.005 C 
HETATM   27  C8  UNL     1      34.496  22.802  22.971  1.00  0.00     0.000 C 
HETATM   28  C9  UNL     1      33.316  21.871  22.946  1.00  0.00     0.000 C 
HETATM   29  C10 UNL     1      33.063  21.514  21.518  1.00  0.00     0.005 C 
ENDBRANCH  24  25
ENDBRANCH  14  24
ENDBRANCH  13  14
ENDBRANCH   1  13
BRANCH   8  30
HETATM   30  O6  UNL     1      39.762  24.819  24.735  1.00  0.00    -0.359 OA
ATOM     31  H6  UNL     1      39.650  25.539  25.344  1.00  0.00     0.217 HD
ENDBRANCH   8  30
BRANCH   7  32
HETATM   32  C16 UNL     1      40.341  27.448  23.510  1.00  0.00     0.102 C 
HETATM   33  C17 UNL     1      41.569  27.962  22.729  1.00  0.00     0.136 C 
HETATM   34  O5  UNL     1      42.519  27.237  22.640  1.00  0.00    -0.297 OA
HETATM   35  C18 UNL     1      41.575  29.297  22.112  1.00  0.00     0.079 C 
HETATM   36  C19 UNL     1      41.031  30.383  23.035  1.00  0.00     0.012 C 
HETATM   37  C20 UNL     1      40.304  29.754  24.199  1.00  0.00    -0.009 C 
HETATM   38  C21 UNL     1      39.470  30.716  24.951  1.00  0.00     0.005 C 
HETATM   39  C25 UNL     1      39.434  28.593  23.726  1.00  0.00     0.005 C 
HETATM   40  C22 UNL     1      38.163  31.052  24.306  1.00  0.00     0.000 C 
HETATM   41  C23 UNL     1      37.448  29.956  23.635  1.00  0.00     0.000 C 
HETATM   42  C24 UNL     1      38.397  29.029  22.818  1.00  0.00     0.006 C 
ENDBRANCH   7  32
TORSDOF 9
ENDMDL
MODEL 3
REMARK VINA RESULT: -9.957379709      1.916      3.122
REMARK  9 active torsions:
REMARK  status: ('A' for Active; 'I' for Inactive)
REMARK       I    between atoms: C1_2  and  N1_3 
REMARK    1  A    between atoms: C1_2  and  C4_10 
REMARK    2  A    between atoms: N1_3  and  C2_5 
REMARK    3  A    between atoms: C2_5  and  C3_6 
REMARK    4  A    between atoms: C4_10  and  C5_11 
REMARK    5  A    between atoms: C4_10  and  O2_17 
REMARK    6  A    between atoms: C5_11  and  C6_12 
REMARK    7  A    between atoms: O2_17  and  C11_18 
REMARK    8  A    between atoms: C15_24  and  C16_25 
REMARK    9  A    between atoms: C26_36  and  O6_37 
ROOT
HETATM    1  C11 UNL     1      38.087  21.638  21.030  1.00  0.00     0.096 A 
HETATM    2  C12 UNL     1      38.649  22.497  20.030  1.00  0.00     0.077 A 
HETATM    3  C13 UNL     1      39.306  23.652  20.310  1.00  0.00     0.095 A 
HETATM    4  O3  UNL     1      39.813  24.424  19.381  1.00  0.00    -0.274 OA
HETATM    5  C14 UNL     1      40.444  25.521  19.639  1.00  0.00     0.298 A 
HETATM    6  O4  UNL     1      40.896  26.202  18.674  1.00  0.00    -0.259 OA
HETATM    7  C15 UNL     1      40.668  26.021  20.945  1.00  0.00     0.063 A 
HETATM    8  C26 UNL     1      40.138  25.228  21.927  1.00  0.00     0.091 A 
HETATM    9  C27 UNL     1      39.452  24.038  21.636  1.00  0.00     0.033 A 
HETATM   10  C28 UNL     1      38.921  23.240  22.608  1.00  0.00     0.039 A 
HETATM   11  C29 UNL     1      38.234  22.035  22.323  1.00  0.00     0.045 A 
HETATM   12 BR1  UNL     1      37.474  21.083  23.810  1.00  0.00    -0.048 Br
ENDROOT
BRANCH   1  13
HETATM   13  O2  UNL     1      37.474  20.523  20.588  1.00  0.00    -0.308 OA
BRANCH  13  14
HETATM   14  C4  UNL     1      36.313  20.092  20.027  1.00  0.00     0.121 C 
BRANCH  14  15
HETATM   15  C1  UNL     1      36.296  18.785  19.364  1.00  0.00     0.271 C 
HETATM   16  O1  UNL     1      37.449  18.187  19.356  1.00  0.00    -0.266 OA
HETATM   17  N1  UNL     1      35.221  18.117  18.759  1.00  0.00    -0.347 N 
ATOM     18  H1  UNL     1      34.297  18.546  18.719  1.00  0.00     0.163 HD
BRANCH  17  19
HETATM   19  C2  UNL     1      35.454  16.788  18.183  1.00  0.00     0.240 C 
BRANCH  19  20
HETATM   20  C3  UNL     1      35.053  15.676  19.088  1.00  0.00     0.403 C 
HETATM   21  F1  UNL     1      35.961  15.456  20.109  1.00  0.00    -0.169 F 
HETATM   22  F2  UNL     1      35.024  14.459  18.377  1.00  0.00    -0.169 F 
HETATM   23  F3  UNL     1      33.807  15.922  19.600  1.00  0.00    -0.169 F 
ENDBRANCH  19  20
ENDBRANCH  17  19
ENDBRANCH  14  15
BRANCH  14  24
HETATM   24  C5  UNL     1      35.117  20.373  20.928  1.00  0.00     0.075 C 
BRANCH  24  25
HETATM   25  C6  UNL     1      34.265  21.530  20.702  1.00  0.00    -0.008 C 
HETATM   26  C7  UNL     1      34.815  22.907  20.622  1.00  0.00     0.005 C 
HETATM   27  C8  UNL     1      35.018  23.289  22.079  1.00  0.00     0.000 C 
HETATM   28  C9  UNL     1      34.000  22.505  22.861  1.00  0.00     0.000 C 
HETATM   29  C10 UNL     1      33.291  21.612  21.896  1.00  0.00     0.005 C 
ENDBRANCH  24  25
ENDBRANCH  14  24
ENDBRANCH  13  14
ENDBRANCH   1  13
BRANCH   8  30
HETATM   30  O6  UNL     1      40.260  25.593  23.223  1.00  0.00    -0.359 OA
ATOM     31  H6  UNL     1      40.941  25.206  23.760  1.00  0.00     0.217 HD
ENDBRANCH   8  30
BRANCH   7  32
HETATM   32  C16 UNL     1      41.319  27.322  21.069  1.00  0.00     0.102 C 
HETATM   33  C17 UNL     1      40.363  28.256  21.842  1.00  0.00     0.136 C 
HETATM   34  O5  UNL     1      39.280  28.461  21.372  1.00  0.00    -0.297 OA
HETATM   35  C18 UNL     1      40.766  28.875  23.114  1.00  0.00     0.079 C 
HETATM   36  C19 UNL     1      42.174  29.461  23.073  1.00  0.00     0.012 C 
HETATM   37  C20 UNL     1      42.912  28.943  21.863  1.00  0.00    -0.009 C 
HETATM   38  C21 UNL     1      44.370  29.187  21.923  1.00  0.00     0.005 C 
HETATM   39  C25 UNL     1      42.659  27.449  21.676  1.00  0.00     0.005 C 
HETATM   40  C22 UNL     1      45.129  28.245  22.801  1.00  0.00     0.000 C 
HETATM   41  C23 UNL     1      44.706  26.836  22.791  1.00  0.00     0.000 C 
HETATM   42  C24 UNL     1      43.157  26.672  22.789  1.00  0.00     0.006 C 
ENDBRANCH   7  32
TORSDOF 9
ENDMDL
MODEL 4
REMARK VINA RESULT: -9.682716354      1.187      1.431
REMARK  9 active torsions:
REMARK  status: ('A' for Active; 'I' for Inactive)
REMARK       I    between atoms: C1_2  and  N1_3 
REMARK    1  A    between atoms: C1_2  and  C4_10 
REMARK    2  A    between atoms: N1_3  and  C2_5 
REMARK    3  A    between atoms: C2_5  and  C3_6 
REMARK    4  A    between atoms: C4_10  and  C5_11 
REMARK    5  A    between atoms: C4_10  and  O2_17 
REMARK    6  A    between atoms: C5_11  and  C6_12 
REMARK    7  A    between atoms: O2_17  and  C11_18 
REMARK    8  A    between atoms: C15_24  and  C16_25 
REMARK    9  A    between atoms: C26_36  and  O6_37 
ROOT
HETATM    1  C11 UNL     1      37.539  23.229  20.234  1.00  0.00     0.096 A 
HETATM    2  C12 UNL     1      38.675  23.360  21.098  1.00  0.00     0.077 A 
HETATM    3  C13 UNL     1      39.152  24.551  21.543  1.00  0.00     0.095 A 
HETATM    4  O3  UNL     1      40.193  24.650  22.332  1.00  0.00    -0.274 OA
HETATM    5  C14 UNL     1      40.649  25.778  22.763  1.00  0.00     0.298 A 
HETATM    6  O4  UNL     1      41.663  25.773  23.521  1.00  0.00    -0.259 OA
HETATM    7  C15 UNL     1      40.086  27.038  22.445  1.00  0.00     0.063 A 
HETATM    8  C26 UNL     1      39.001  26.952  21.614  1.00  0.00     0.091 A 
HETATM    9  C27 UNL     1      38.514  25.720  21.149  1.00  0.00     0.033 A 
HETATM   10  C28 UNL     1      37.432  25.624  20.322  1.00  0.00     0.039 A 
HETATM   11  C29 UNL     1      36.930  24.385  19.854  1.00  0.00     0.045 A 
HETATM   12 BR1  UNL     1      35.453  24.442  18.625  1.00  0.00    -0.048 Br
ENDROOT
BRANCH   1  13
HETATM   13  O2  UNL     1      37.187  21.975  19.891  1.00  0.00    -0.308 OA
BRANCH  13  14
HETATM   14  C4  UNL     1      36.575  20.864  20.382  1.00  0.00     0.121 C 
BRANCH  14  15
HETATM   15  C1  UNL     1      36.594  19.639  19.578  1.00  0.00     0.271 C 
HETATM   16  O1  UNL     1      37.783  19.279  19.199  1.00  0.00    -0.266 OA
HETATM   17  N1  UNL     1      35.520  18.829  19.179  1.00  0.00    -0.347 N 
ATOM     18  H1  UNL     1      34.563  19.073  19.432  1.00  0.00     0.163 HD
BRANCH  17  19
HETATM   19  C2  UNL     1      35.803  17.624  18.392  1.00  0.00     0.240 C 
BRANCH  19  20
HETATM   20  C3  UNL     1      35.792  16.376  19.203  1.00  0.00     0.403 C 
HETATM   21  F1  UNL     1      36.567  16.467  20.346  1.00  0.00    -0.169 F 
HETATM   22  F2  UNL     1      36.371  15.318  18.472  1.00  0.00    -0.169 F 
HETATM   23  F3  UNL     1      34.503  16.043  19.522  1.00  0.00    -0.169 F 
ENDBRANCH  19  20
ENDBRANCH  17  19
ENDBRANCH  14  15
BRANCH  14  24
HETATM   24  C5  UNL     1      36.874  20.667  21.862  1.00  0.00     0.075 C 
BRANCH  24  25
HETATM   25  C6  UNL     1      35.859  20.921  22.873  1.00  0.00    -0.008 C 
HETATM   26  C7  UNL     1      34.811  21.957  22.690  1.00  0.00     0.005 C 
HETATM   27  C8  UNL     1      35.534  23.251  23.031  1.00  0.00     0.000 C 
HETATM   28  C9  UNL     1      36.619  22.877  24.003  1.00  0.00     0.000 C 
HETATM   29  C10 UNL     1      36.595  21.390  24.144  1.00  0.00     0.005 C 
ENDBRANCH  24  25
ENDBRANCH  14  24
ENDBRANCH  13  14
ENDBRANCH   1  13
BRANCH   8  30
HETATM   30  O6  UNL     1      38.374  28.079  21.211  1.00  0.00    -0.359 OA
ATOM     31  H6  UNL     1      38.609  28.915  21.598  1.00  0.00     0.217 HD
ENDBRANCH   8  30
BRANCH   7  32
HETATM   32  C16 UNL     1      40.772  28.230  22.937  1.00  0.00     0.102 C 
HETATM   33  C17 UNL     1      41.376  28.963  21.720  1.00  0.00     0.136 C 
HETATM   34  O5  UNL     1      42.168  28.369  21.046  1.00  0.00    -0.297 OA
HETATM   35  C18 UNL     1      40.992  30.345  21.396  1.00  0.00     0.079 C 
HETATM   36  C19 UNL     1      40.967  31.260  22.617  1.00  0.00     0.012 C 
HETATM   37  C20 UNL     1      40.996  30.433  23.880  1.00  0.00    -0.009 C 
HETATM   38  C21 UNL     1      40.641  31.207  25.089  1.00  0.00     0.005 C 
HETATM   39  C25 UNL     1      40.064  29.231  23.759  1.00  0.00     0.005 C 
HETATM   40  C22 UNL     1      39.177  31.450  25.272  1.00  0.00     0.000 C 
HETATM   41  C23 UNL     1      38.268  30.351  24.913  1.00  0.00     0.000 C 
HETATM   42  C24 UNL     1      38.684  29.631  23.595  1.00  0.00     0.006 C 
ENDBRANCH   7  32
TORSDOF 9
ENDMDL
MODEL 5
REMARK VINA RESULT: -9.662076387      0.809      1.149
REMARK  9 active torsions:
REMARK  status: ('A' for Active; 'I' for Inactive)
REMARK       I    between atoms: C1_2  and  N1_3 
REMARK    1  A    between atoms: C1_2  and  C4_10 
REMARK    2  A    between atoms: N1_3  and  C2_5 
REMARK    3  A    between atoms: C2_5  and  C3_6 
REMARK    4  A    between atoms: C4_10  and  C5_11 
REMARK    5  A    between atoms: C4_10  and  O2_17 
REMARK    6  A    between atoms: C5_11  and  C6_12 
REMARK    7  A    between atoms: O2_17  and  C11_18 
REMARK    8  A    between atoms: C15_24  and  C16_25 
REMARK    9  A    between atoms: C26_36  and  O6_37 
ROOT
HETATM    1  C11 UNL     1      37.329  23.079  19.993  1.00  0.00     0.096 A 
HETATM    2  C12 UNL     1      38.371  23.140  20.975  1.00  0.00     0.077 A 
HETATM    3  C13 UNL     1      38.848  24.298  21.498  1.00  0.00     0.095 A 
HETATM    4  O3  UNL     1      39.802  24.332  22.396  1.00  0.00    -0.274 OA
HETATM    5  C14 UNL     1      40.258  25.429  22.902  1.00  0.00     0.298 A 
HETATM    6  O4  UNL     1      41.184  25.362  23.761  1.00  0.00    -0.259 OA
HETATM    7  C15 UNL     1      39.788  26.720  22.558  1.00  0.00     0.063 A 
HETATM    8  C26 UNL     1      38.795  26.701  21.616  1.00  0.00     0.091 A 
HETATM    9  C27 UNL     1      38.307  25.503  21.070  1.00  0.00     0.033 A 
HETATM   10  C28 UNL     1      37.317  25.473  20.131  1.00  0.00     0.039 A 
HETATM   11  C29 UNL     1      36.815  24.269  19.580  1.00  0.00     0.045 A 
HETATM   12 BR1  UNL     1      35.481  24.420  18.204  1.00  0.00    -0.048 Br
ENDROOT
BRANCH   1  13
HETATM   13  O2  UNL     1      36.962  21.850  19.582  1.00  0.00    -0.308 OA
BRANCH  13  14
HETATM   14  C4  UNL     1      35.930  20.965  19.642  1.00  0.00     0.121 C 
BRANCH  14  15
HETATM   15  C1  UNL     1      36.232  19.549  19.859  1.00  0.00     0.271 C 
HETATM   16  O1  UNL     1      37.189  19.341  20.712  1.00  0.00    -0.266 OA
HETATM   17  N1  UNL     1      35.631  18.420  19.280  1.00  0.00    -0.347 N 
ATOM     18  H1  UNL     1      34.887  18.522  18.591  1.00  0.00     0.163 HD
BRANCH  17  19
HETATM   19  C2  UNL     1      36.097  17.090  19.688  1.00  0.00     0.240 C 
BRANCH  19  20
HETATM   20  C3  UNL     1      35.312  15.981  19.081  1.00  0.00     0.403 C 
HETATM   21  F1  UNL     1      33.946  16.143  19.226  1.00  0.00    -0.169 F 
HETATM   22  F2  UNL     1      35.593  14.769  19.745  1.00  0.00    -0.169 F 
HETATM   23  F3  UNL     1      35.642  15.850  17.759  1.00  0.00    -0.169 F 
ENDBRANCH  19  20
ENDBRANCH  17  19
ENDBRANCH  14  15
BRANCH  14  24
HETATM   24  C5  UNL     1      34.772  21.511  20.466  1.00  0.00     0.075 C 
BRANCH  24  25
HETATM   25  C6  UNL     1      34.527  21.040  21.820  1.00  0.00    -0.008 C 
HETATM   26  C7  UNL     1      33.251  21.313  22.529  1.00  0.00     0.005 C 
HETATM   27  C8  UNL     1      33.419  22.745  23.014  1.00  0.00     0.000 C 
HETATM   28  C9  UNL     1      34.898  22.952  23.194  1.00  0.00     0.000 C 
HETATM   29  C10 UNL     1      35.580  21.708  22.728  1.00  0.00     0.005 C 
ENDBRANCH  24  25
ENDBRANCH  14  24
ENDBRANCH  13  14
ENDBRANCH   1  13
BRANCH   8  30
HETATM   30  O6  UNL     1      38.263  27.864  21.178  1.00  0.00    -0.359 OA
ATOM     31  H6  UNL     1      38.650  28.690  21.445  1.00  0.00     0.217 HD
ENDBRANCH   8  30
BRANCH   7  32
HETATM   32  C16 UNL     1      40.467  27.868  23.151  1.00  0.00     0.102 C 
HETATM   33  C17 UNL     1      41.314  28.537  22.047  1.00  0.00     0.136 C 
HETATM   34  O5  UNL     1      42.162  27.877  21.515  1.00  0.00    -0.297 OA
HETATM   35  C18 UNL     1      41.090  29.937  21.658  1.00  0.00     0.079 C 
HETATM   36  C19 UNL     1      40.931  30.871  22.853  1.00  0.00     0.012 C 
HETATM   37  C20 UNL     1      40.693  30.066  24.107  1.00  0.00    -0.009 C 
HETATM   38  C21 UNL     1      40.201  30.883  25.238  1.00  0.00     0.005 C 
HETATM   39  C25 UNL     1      39.708  28.931  23.840  1.00  0.00     0.005 C 
HETATM   40  C22 UNL     1      38.748  31.232  25.175  1.00  0.00     0.000 C 
HETATM   41  C23 UNL     1      37.833  30.194  24.676  1.00  0.00     0.000 C 
HETATM   42  C24 UNL     1      38.407  29.425  23.449  1.00  0.00     0.006 C 
ENDBRANCH   7  32
TORSDOF 9
ENDMDL
