MODEL 1
REMARK VINA RESULT: -10.120325795      0.000      0.000
REMARK  7 active torsions:
REMARK  status: ('A' for Active; 'I' for Inactive)
REMARK    1  A    between atoms: C3_3  and  N1_4 
REMARK    2  A    between atoms: C10_14  and  O1_15 
REMARK    3  A    between atoms: O1_15  and  C11_16 
REMARK    4  A    between atoms: C14_20  and  C15_21 
REMARK    5  A    between atoms: C18_24  and  N5_25 
REMARK       I    between atoms: N5_25  and  C19_27 
REMARK       I    between atoms: C19_27  and  N6_29 
REMARK    6  A    between atoms: N6_29  and  C20_31 
REMARK    7  A    between atoms: C23_34  and  C24_35 
ROOT
HETATM    1  C1  UNL     1      40.812  28.938  20.822  1.00  0.00     0.014 C 
HETATM    2  C2  UNL     1      40.370  29.997  21.204  1.00  0.00    -0.097 C 
HETATM    3  C3  UNL     1      39.814  31.282  21.646  1.00  0.00     0.223 C 
ENDROOT
BRANCH   3   4
HETATM    4  N1  UNL     1      40.511  31.833  22.754  1.00  0.00    -0.323 N 
HETATM    5  C4  UNL     1      41.714  32.484  22.669  1.00  0.00     0.119 A 
HETATM    6  C5  UNL     1      42.423  32.669  21.435  1.00  0.00     0.118 C 
HETATM    7  C6  UNL     1      42.061  32.882  23.924  1.00  0.00     0.073 A 
HETATM    8  N2  UNL     1      43.005  32.829  20.448  1.00  0.00    -0.190 NA
HETATM    9  C7  UNL     1      41.074  32.481  24.811  1.00  0.00     0.065 A 
HETATM   10  N3  UNL     1      40.888  32.595  26.132  1.00  0.00    -0.364 N 
HETATM   11  C31 UNL     1      40.125  31.831  24.035  1.00  0.00     0.097 A 
HETATM   12  C8  UNL     1      39.802  32.093  26.717  1.00  0.00     0.091 A 
ATOM     13  H3  UNL     1      41.588  33.072  26.699  1.00  0.00     0.165 HD
HETATM   14  C9  UNL     1      38.809  31.430  26.012  1.00  0.00     0.056 A 
HETATM   15  C10 UNL     1      38.974  31.298  24.650  1.00  0.00     0.099 A 
BRANCH  15  16
HETATM   16  O1  UNL     1      38.089  30.677  23.820  1.00  0.00    -0.343 OA
BRANCH  16  17
HETATM   17  C11 UNL     1      37.539  29.421  24.044  1.00  0.00     0.135 C 
HETATM   18  C12 UNL     1      38.515  28.331  23.651  1.00  0.00     0.077 C 
HETATM   19  C13 UNL     1      37.795  27.148  23.013  1.00  0.00     0.065 C 
HETATM   20  N4  UNL     1      37.095  27.511  21.868  1.00  0.00    -0.373 N 
HETATM   21  C14 UNL     1      37.071  26.826  20.693  1.00  0.00     0.067 C 
HETATM   22  C29 UNL     1      36.605  28.872  21.857  1.00  0.00     0.129 C 
HETATM   23  C30 UNL     1      36.238  29.181  23.284  1.00  0.00     0.053 C 
BRANCH  21  24
HETATM   24  C15 UNL     1      36.309  25.499  20.723  1.00  0.00     0.024 C 
HETATM   25  C16 UNL     1      36.918  24.447  21.546  1.00  0.00     0.012 C 
HETATM   26  C17 UNL     1      36.224  23.117  21.401  1.00  0.00     0.026 C 
HETATM   27  C18 UNL     1      36.476  22.702  19.926  1.00  0.00     0.086 C 
HETATM   28  C27 UNL     1      35.689  23.660  19.060  1.00  0.00     0.026 C 
HETATM   29  C28 UNL     1      35.995  25.082  19.317  1.00  0.00     0.012 C 
BRANCH  27  30
HETATM   30  N5  UNL     1      35.899  21.395  19.792  1.00  0.00    -0.338 N 
HETATM   31  C19 UNL     1      36.695  20.218  20.161  1.00  0.00     0.321 C 
HETATM   32  O2  UNL     1      37.858  20.459  20.589  1.00  0.00    -0.247 OA
HETATM   33  N6  UNL     1      36.089  18.983  19.998  1.00  0.00    -0.307 N 
ATOM     34  H6  UNL     1      35.143  18.974  19.618  1.00  0.00     0.170 HD
ATOM     35  H5  UNL     1      34.947  21.286  19.444  1.00  0.00     0.164 HD
BRANCH  33  36
HETATM   36  C20 UNL     1      36.673  17.738  20.313  1.00  0.00     0.058 A 
HETATM   37  C21 UNL     1      37.533  17.517  21.359  1.00  0.00     0.032 A 
HETATM   38  C22 UNL     1      38.064  16.226  21.630  1.00  0.00     0.018 A 
HETATM   39  C23 UNL     1      37.718  15.162  20.838  1.00  0.00     0.049 A 
HETATM   40  C25 UNL     1      36.853  15.372  19.783  1.00  0.00     0.042 A 
HETATM   41  C26 UNL     1      36.350  16.608  19.532  1.00  0.00     0.061 A 
HETATM   42 CL1  UNL     1      35.243  16.835  18.174  1.00  0.00    -0.082 Cl
BRANCH  39  43
HETATM   43  C24 UNL     1      38.262  13.800  21.088  1.00  0.00     0.417 C 
HETATM   44  F1  UNL     1      39.492  13.759  20.462  1.00  0.00    -0.166 F 
HETATM   45  F2  UNL     1      37.413  12.824  20.590  1.00  0.00    -0.166 F 
HETATM   46  F3  UNL     1      38.471  13.566  22.415  1.00  0.00    -0.166 F 
ENDBRANCH  39  43
ENDBRANCH  33  36
ENDBRANCH  27  30
ENDBRANCH  21  24
ENDBRANCH  16  17
ENDBRANCH  15  16
ENDBRANCH   3   4
TORSDOF 7
ENDMDL
MODEL 2
REMARK VINA RESULT: -9.887729378      1.192      1.420
REMARK  7 active torsions:
REMARK  status: ('A' for Active; 'I' for Inactive)
REMARK    1  A    between atoms: C3_3  and  N1_4 
REMARK    2  A    between atoms: C10_14  and  O1_15 
REMARK    3  A    between atoms: O1_15  and  C11_16 
REMARK    4  A    between atoms: C14_20  and  C15_21 
REMARK    5  A    between atoms: C18_24  and  N5_25 
REMARK       I    between atoms: N5_25  and  C19_27 
REMARK       I    between atoms: C19_27  and  N6_29 
REMARK    6  A    between atoms: N6_29  and  C20_31 
REMARK    7  A    between atoms: C23_34  and  C24_35 
ROOT
HETATM    1  C1  UNL     1      43.258  27.877  22.310  1.00  0.00     0.014 C 
HETATM    2  C2  UNL     1      42.597  28.888  22.253  1.00  0.00    -0.097 C 
HETATM    3  C3  UNL     1      41.790  30.109  22.154  1.00  0.00     0.223 C 
ENDROOT
BRANCH   3   4
HETATM    4  N1  UNL     1      41.800  30.877  23.349  1.00  0.00    -0.323 N 
HETATM    5  C4  UNL     1      42.848  31.657  23.762  1.00  0.00     0.119 A 
HETATM    6  C5  UNL     1      44.077  31.774  23.031  1.00  0.00     0.118 C 
HETATM    7  C6  UNL     1      42.490  32.247  24.935  1.00  0.00     0.073 A 
HETATM    8  N2  UNL     1      45.072  31.883  22.451  1.00  0.00    -0.190 NA
HETATM    9  C7  UNL     1      41.208  31.840  25.270  1.00  0.00     0.065 A 
HETATM   10  N3  UNL     1      40.371  32.092  26.285  1.00  0.00    -0.364 N 
HETATM   11  C31 UNL     1      40.817  30.985  24.250  1.00  0.00     0.097 A 
HETATM   12  C8  UNL     1      39.163  31.535  26.330  1.00  0.00     0.091 A 
ATOM     13  H3  UNL     1      40.663  32.720  27.033  1.00  0.00     0.165 HD
HETATM   14  C9  UNL     1      38.697  30.671  25.351  1.00  0.00     0.056 A 
HETATM   15  C10 UNL     1      39.538  30.393  24.294  1.00  0.00     0.099 A 
BRANCH  15  16
HETATM   16  O1  UNL     1      39.227  29.569  23.255  1.00  0.00    -0.343 OA
BRANCH  16  17
HETATM   17  C11 UNL     1      38.801  28.253  23.386  1.00  0.00     0.135 C 
HETATM   18  C12 UNL     1      39.422  27.379  22.316  1.00  0.00     0.077 C 
HETATM   19  C13 UNL     1      38.435  26.327  21.821  1.00  0.00     0.065 C 
HETATM   20  N4  UNL     1      37.287  26.894  21.278  1.00  0.00    -0.373 N 
HETATM   21  C14 UNL     1      36.674  26.513  20.126  1.00  0.00     0.067 C 
HETATM   22  C29 UNL     1      36.909  28.170  21.846  1.00  0.00     0.129 C 
HETATM   23  C30 UNL     1      37.286  28.092  23.301  1.00  0.00     0.053 C 
BRANCH  21  24
HETATM   24  C15 UNL     1      35.965  25.157  20.177  1.00  0.00     0.024 C 
HETATM   25  C16 UNL     1      36.535  24.189  21.123  1.00  0.00     0.012 C 
HETATM   26  C17 UNL     1      35.911  22.822  21.006  1.00  0.00     0.026 C 
HETATM   27  C18 UNL     1      36.318  22.324  19.592  1.00  0.00     0.086 C 
HETATM   28  C27 UNL     1      35.579  23.187  18.594  1.00  0.00     0.026 C 
HETATM   29  C28 UNL     1      35.803  24.636  18.780  1.00  0.00     0.012 C 
BRANCH  27  30
HETATM   30  N5  UNL     1      35.809  20.987  19.496  1.00  0.00    -0.338 N 
HETATM   31  C19 UNL     1      36.633  19.869  19.973  1.00  0.00     0.321 C 
HETATM   32  O2  UNL     1      37.756  20.187  20.454  1.00  0.00    -0.247 OA
HETATM   33  N6  UNL     1      36.093  18.601  19.842  1.00  0.00    -0.307 N 
ATOM     34  H6  UNL     1      35.172  18.527  19.409  1.00  0.00     0.170 HD
ATOM     35  H5  UNL     1      34.885  20.815  19.101  1.00  0.00     0.164 HD
BRANCH  33  36
HETATM   36  C20 UNL     1      36.712  17.403  20.257  1.00  0.00     0.058 A 
HETATM   37  C21 UNL     1      37.570  17.290  21.321  1.00  0.00     0.032 A 
HETATM   38  C22 UNL     1      38.137  16.041  21.695  1.00  0.00     0.018 A 
HETATM   39  C23 UNL     1      37.830  14.908  20.987  1.00  0.00     0.049 A 
HETATM   40  C25 UNL     1      36.967  15.009  19.915  1.00  0.00     0.042 A 
HETATM   41  C26 UNL     1      36.429  16.205  19.565  1.00  0.00     0.061 A 
HETATM   42 CL1  UNL     1      35.325  16.292  18.188  1.00  0.00    -0.082 Cl
BRANCH  39  43
HETATM   43  C24 UNL     1      38.413  13.588  21.345  1.00  0.00     0.417 C 
HETATM   44  F1  UNL     1      38.519  13.577  22.722  1.00  0.00    -0.166 F 
HETATM   45  F2  UNL     1      39.649  13.407  20.745  1.00  0.00    -0.166 F 
HETATM   46  F3  UNL     1      37.597  12.553  20.991  1.00  0.00    -0.166 F 
ENDBRANCH  39  43
ENDBRANCH  33  36
ENDBRANCH  27  30
ENDBRANCH  21  24
ENDBRANCH  16  17
ENDBRANCH  15  16
ENDBRANCH   3   4
TORSDOF 7
ENDMDL
MODEL 3
REMARK VINA RESULT: -9.590692457      1.900      2.767
REMARK  7 active torsions:
REMARK  status: ('A' for Active; 'I' for Inactive)
REMARK    1  A    between atoms: C3_3  and  N1_4 
REMARK    2  A    between atoms: C10_14  and  O1_15 
REMARK    3  A    between atoms: O1_15  and  C11_16 
REMARK    4  A    between atoms: C14_20  and  C15_21 
REMARK    5  A    between atoms: C18_24  and  N5_25 
REMARK       I    between atoms: N5_25  and  C19_27 
REMARK       I    between atoms: C19_27  and  N6_29 
REMARK    6  A    between atoms: N6_29  and  C20_31 
REMARK    7  A    between atoms: C23_34  and  C24_35 
ROOT
HETATM    1  C1  UNL     1      38.112  32.321  22.939  1.00  0.00     0.014 C 
HETATM    2  C2  UNL     1      38.662  31.469  22.280  1.00  0.00    -0.097 C 
HETATM    3  C3  UNL     1      39.305  30.418  21.483  1.00  0.00     0.223 C 
ENDROOT
BRANCH   3   4
HETATM    4  N1  UNL     1      40.640  30.741  21.118  1.00  0.00    -0.323 N 
HETATM    5  C4  UNL     1      40.989  31.767  20.280  1.00  0.00     0.119 A 
HETATM    6  C5  UNL     1      40.031  32.632  19.654  1.00  0.00     0.118 C 
HETATM    7  C6  UNL     1      42.347  31.776  20.179  1.00  0.00     0.073 A 
HETATM    8  N2  UNL     1      39.271  33.341  19.146  1.00  0.00    -0.190 NA
HETATM    9  C7  UNL     1      42.863  30.751  20.956  1.00  0.00     0.065 A 
HETATM   10  N3  UNL     1      44.094  30.299  21.228  1.00  0.00    -0.364 N 
HETATM   11  C31 UNL     1      41.760  30.132  21.525  1.00  0.00     0.097 A 
HETATM   12  C8  UNL     1      44.278  29.262  22.041  1.00  0.00     0.091 A 
ATOM     13  H3  UNL     1      44.902  30.757  20.807  1.00  0.00     0.165 HD
HETATM   14  C9  UNL     1      43.229  28.589  22.649  1.00  0.00     0.056 A 
HETATM   15  C10 UNL     1      41.950  29.032  22.386  1.00  0.00     0.099 A 
BRANCH  15  16
HETATM   16  O1  UNL     1      40.818  28.481  22.908  1.00  0.00    -0.343 OA
BRANCH  16  17
HETATM   17  C11 UNL     1      40.387  27.182  22.668  1.00  0.00     0.135 C 
HETATM   18  C12 UNL     1      40.191  26.947  21.185  1.00  0.00     0.077 C 
HETATM   19  C13 UNL     1      38.979  26.059  20.921  1.00  0.00     0.065 C 
HETATM   20  N4  UNL     1      37.802  26.613  21.412  1.00  0.00    -0.373 N 
HETATM   21  C14 UNL     1      36.607  26.659  20.764  1.00  0.00     0.067 C 
HETATM   22  C29 UNL     1      37.963  27.456  22.577  1.00  0.00     0.129 C 
HETATM   23  C30 UNL     1      39.079  26.835  23.374  1.00  0.00     0.053 C 
BRANCH  21  24
HETATM   24  C15 UNL     1      35.894  25.314  20.606  1.00  0.00     0.024 C 
HETATM   25  C16 UNL     1      36.264  24.290  21.591  1.00  0.00     0.012 C 
HETATM   26  C17 UNL     1      35.667  22.941  21.284  1.00  0.00     0.026 C 
HETATM   27  C18 UNL     1      36.337  22.509  19.951  1.00  0.00     0.086 C 
HETATM   28  C27 UNL     1      35.810  23.433  18.876  1.00  0.00     0.026 C 
HETATM   29  C28 UNL     1      36.002  24.867  19.178  1.00  0.00     0.012 C 
BRANCH  27  30
HETATM   30  N5  UNL     1      35.848  21.187  19.688  1.00  0.00    -0.338 N 
HETATM   31  C19 UNL     1      36.627  20.029  20.145  1.00  0.00     0.321 C 
HETATM   32  O2  UNL     1      37.695  20.300  20.762  1.00  0.00    -0.247 OA
HETATM   33  N6  UNL     1      36.111  18.778  19.850  1.00  0.00    -0.307 N 
ATOM     34  H6  UNL     1      35.238  18.745  19.323  1.00  0.00     0.170 HD
ATOM     35  H5  UNL     1      34.969  21.052  19.189  1.00  0.00     0.164 HD
BRANCH  33  36
HETATM   36  C20 UNL     1      36.693  17.547  20.218  1.00  0.00     0.058 A 
HETATM   37  C21 UNL     1      37.580  17.375  21.251  1.00  0.00     0.032 A 
HETATM   38  C22 UNL     1      38.106  16.096  21.579  1.00  0.00     0.018 A 
HETATM   39  C23 UNL     1      37.730  14.992  20.857  1.00  0.00     0.049 A 
HETATM   40  C25 UNL     1      36.837  15.153  19.817  1.00  0.00     0.042 A 
HETATM   41  C26 UNL     1      36.338  16.378  19.511  1.00  0.00     0.061 A 
HETATM   42 CL1  UNL     1      35.195  16.541  18.173  1.00  0.00    -0.082 Cl
BRANCH  39  43
HETATM   43  C24 UNL     1      38.268  13.642  21.167  1.00  0.00     0.417 C 
HETATM   44  F1  UNL     1      39.481  13.553  20.512  1.00  0.00    -0.166 F 
HETATM   45  F2  UNL     1      37.398  12.648  20.747  1.00  0.00    -0.166 F 
HETATM   46  F3  UNL     1      38.511  13.478  22.500  1.00  0.00    -0.166 F 
ENDBRANCH  39  43
ENDBRANCH  33  36
ENDBRANCH  27  30
ENDBRANCH  21  24
ENDBRANCH  16  17
ENDBRANCH  15  16
ENDBRANCH   3   4
TORSDOF 7
ENDMDL
MODEL 4
REMARK VINA RESULT: -9.560684768      1.739      2.772
REMARK  7 active torsions:
REMARK  status: ('A' for Active; 'I' for Inactive)
REMARK    1  A    between atoms: C3_3  and  N1_4 
REMARK    2  A    between atoms: C10_14  and  O1_15 
REMARK    3  A    between atoms: O1_15  and  C11_16 
REMARK    4  A    between atoms: C14_20  and  C15_21 
REMARK    5  A    between atoms: C18_24  and  N5_25 
REMARK       I    between atoms: N5_25  and  C19_27 
REMARK       I    between atoms: C19_27  and  N6_29 
REMARK    6  A    between atoms: N6_29  and  C20_31 
REMARK    7  A    between atoms: C23_34  and  C24_35 
ROOT
HETATM    1  C1  UNL     1      36.256  29.832  21.614  1.00  0.00     0.014 C 
HETATM    2  C2  UNL     1      37.262  29.901  22.282  1.00  0.00    -0.097 C 
HETATM    3  C3  UNL     1      38.467  29.973  23.116  1.00  0.00     0.223 C 
ENDROOT
BRANCH   3   4
HETATM    4  N1  UNL     1      39.543  30.645  22.475  1.00  0.00    -0.323 N 
HETATM    5  C4  UNL     1      39.464  31.905  21.945  1.00  0.00     0.119 A 
HETATM    6  C5  UNL     1      38.265  32.693  21.961  1.00  0.00     0.118 C 
HETATM    7  C6  UNL     1      40.686  32.218  21.433  1.00  0.00     0.073 A 
HETATM    8  N2  UNL     1      37.307  33.341  21.970  1.00  0.00    -0.190 NA
HETATM    9  C7  UNL     1      41.546  31.151  21.640  1.00  0.00     0.065 A 
HETATM   10  N3  UNL     1      42.831  30.903  21.355  1.00  0.00    -0.364 N 
HETATM   11  C31 UNL     1      40.789  30.191  22.295  1.00  0.00     0.097 A 
HETATM   12  C8  UNL     1      43.397  29.746  21.693  1.00  0.00     0.091 A 
ATOM     13  H3  UNL     1      43.384  31.610  20.872  1.00  0.00     0.165 HD
HETATM   14  C9  UNL     1      42.708  28.737  22.349  1.00  0.00     0.056 A 
HETATM   15  C10 UNL     1      41.384  28.965  22.655  1.00  0.00     0.099 A 
BRANCH  15  16
HETATM   16  O1  UNL     1      40.575  28.076  23.298  1.00  0.00    -0.343 OA
BRANCH  16  17
HETATM   17  C11 UNL     1      40.210  26.832  22.799  1.00  0.00     0.135 C 
HETATM   18  C12 UNL     1      39.728  26.949  21.368  1.00  0.00     0.077 C 
HETATM   19  C13 UNL     1      38.564  26.001  21.097  1.00  0.00     0.065 C 
HETATM   20  N4  UNL     1      37.474  26.253  21.924  1.00  0.00    -0.373 N 
HETATM   21  C14 UNL     1      36.171  26.300  21.539  1.00  0.00     0.067 C 
HETATM   22  C29 UNL     1      37.806  26.794  23.224  1.00  0.00     0.129 C 
HETATM   23  C30 UNL     1      39.110  26.150  23.609  1.00  0.00     0.053 C 
BRANCH  21  24
HETATM   24  C15 UNL     1      35.552  24.954  21.155  1.00  0.00     0.024 C 
HETATM   25  C16 UNL     1      35.875  23.838  22.053  1.00  0.00     0.012 C 
HETATM   26  C17 UNL     1      35.386  22.510  21.534  1.00  0.00     0.026 C 
HETATM   27  C18 UNL     1      36.211  22.266  20.240  1.00  0.00     0.086 C 
HETATM   28  C27 UNL     1      35.747  23.287  19.226  1.00  0.00     0.026 C 
HETATM   29  C28 UNL     1      35.829  24.682  19.705  1.00  0.00     0.012 C 
BRANCH  27  30
HETATM   30  N5  UNL     1      35.824  20.965  19.779  1.00  0.00    -0.338 N 
HETATM   31  C19 UNL     1      36.556  19.786  20.260  1.00  0.00     0.321 C 
HETATM   32  O2  UNL     1      37.491  20.020  21.075  1.00  0.00    -0.247 OA
HETATM   33  N6  UNL     1      36.145  18.558  19.770  1.00  0.00    -0.307 N 
ATOM     34  H6  UNL     1      35.377  18.555  19.098  1.00  0.00     0.170 HD
ATOM     35  H5  UNL     1      35.049  20.859  19.125  1.00  0.00     0.164 HD
BRANCH  33  36
HETATM   36  C20 UNL     1      36.701  17.310  20.122  1.00  0.00     0.058 A 
HETATM   37  C21 UNL     1      37.576  17.105  21.158  1.00  0.00     0.032 A 
HETATM   38  C22 UNL     1      38.076  15.811  21.470  1.00  0.00     0.018 A 
HETATM   39  C23 UNL     1      37.684  14.726  20.728  1.00  0.00     0.049 A 
HETATM   40  C25 UNL     1      36.802  14.920  19.684  1.00  0.00     0.042 A 
HETATM   41  C26 UNL     1      36.329  16.159  19.394  1.00  0.00     0.061 A 
HETATM   42 CL1  UNL     1      35.199  16.365  18.051  1.00  0.00    -0.082 Cl
BRANCH  39  43
HETATM   43  C24 UNL     1      38.194  13.361  21.021  1.00  0.00     0.417 C 
HETATM   44  F1  UNL     1      39.501  13.336  20.572  1.00  0.00    -0.166 F 
HETATM   45  F2  UNL     1      37.429  12.395  20.387  1.00  0.00    -0.166 F 
HETATM   46  F3  UNL     1      38.217  13.096  22.359  1.00  0.00    -0.166 F 
ENDBRANCH  39  43
ENDBRANCH  33  36
ENDBRANCH  27  30
ENDBRANCH  21  24
ENDBRANCH  16  17
ENDBRANCH  15  16
ENDBRANCH   3   4
TORSDOF 7
ENDMDL
MODEL 5
REMARK VINA RESULT: -9.502500639      3.216      4.770
REMARK  7 active torsions:
REMARK  status: ('A' for Active; 'I' for Inactive)
REMARK    1  A    between atoms: C3_3  and  N1_4 
REMARK    2  A    between atoms: C10_14  and  O1_15 
REMARK    3  A    between atoms: O1_15  and  C11_16 
REMARK    4  A    between atoms: C14_20  and  C15_21 
REMARK    5  A    between atoms: C18_24  and  N5_25 
REMARK       I    between atoms: N5_25  and  C19_27 
REMARK       I    between atoms: C19_27  and  N6_29 
REMARK    6  A    between atoms: N6_29  and  C20_31 
REMARK    7  A    between atoms: C23_34  and  C24_35 
ROOT
HETATM    1  C1  UNL     1      36.923  27.390  22.048  1.00  0.00     0.014 C 
HETATM    2  C2  UNL     1      37.926  27.900  22.490  1.00  0.00    -0.097 C 
HETATM    3  C3  UNL     1      39.135  28.512  23.054  1.00  0.00     0.223 C 
ENDROOT
BRANCH   3   4
HETATM    4  N1  UNL     1      39.929  29.170  22.076  1.00  0.00    -0.323 N 
HETATM    5  C4  UNL     1      39.604  30.362  21.486  1.00  0.00     0.119 A 
HETATM    6  C5  UNL     1      38.399  31.083  21.780  1.00  0.00     0.118 C 
HETATM    7  C6  UNL     1      40.604  30.683  20.619  1.00  0.00     0.073 A 
HETATM    8  N2  UNL     1      37.434  31.679  22.010  1.00  0.00    -0.190 NA
HETATM    9  C7  UNL     1      41.569  29.688  20.659  1.00  0.00     0.065 A 
HETATM   10  N3  UNL     1      42.737  29.479  20.038  1.00  0.00    -0.364 N 
HETATM   11  C31 UNL     1      41.105  28.764  21.584  1.00  0.00     0.097 A 
HETATM   12  C8  UNL     1      43.465  28.395  20.295  1.00  0.00     0.091 A 
ATOM     13  H3  UNL     1      43.073  30.160  19.358  1.00  0.00     0.165 HD
HETATM   14  C9  UNL     1      43.072  27.425  21.205  1.00  0.00     0.056 A 
HETATM   15  C10 UNL     1      41.873  27.614  21.859  1.00  0.00     0.099 A 
BRANCH  15  16
HETATM   16  O1  UNL     1      41.351  26.756  22.781  1.00  0.00    -0.343 OA
BRANCH  16  17
HETATM   17  C11 UNL     1      41.159  25.396  22.578  1.00  0.00     0.135 C 
HETATM   18  C12 UNL     1      40.145  25.156  21.479  1.00  0.00     0.077 C 
HETATM   19  C13 UNL     1      39.259  23.955  21.797  1.00  0.00     0.065 C 
HETATM   20  N4  UNL     1      38.553  24.119  22.984  1.00  0.00    -0.373 N 
HETATM   21  C14 UNL     1      37.241  23.827  23.182  1.00  0.00     0.067 C 
HETATM   22  C29 UNL     1      39.212  24.938  23.978  1.00  0.00     0.129 C 
HETATM   23  C30 UNL     1      40.683  24.655  23.825  1.00  0.00     0.053 C 
BRANCH  21  24
HETATM   24  C15 UNL     1      36.896  22.336  23.197  1.00  0.00     0.024 C 
HETATM   25  C16 UNL     1      38.045  21.429  23.313  1.00  0.00     0.012 C 
HETATM   26  C17 UNL     1      37.665  19.980  23.149  1.00  0.00     0.026 C 
HETATM   27  C18 UNL     1      37.182  19.866  21.677  1.00  0.00     0.086 C 
HETATM   28  C27 UNL     1      35.881  20.633  21.582  1.00  0.00     0.026 C 
HETATM   29  C28 UNL     1      35.981  22.032  22.047  1.00  0.00     0.012 C 
BRANCH  27  30
HETATM   30  N5  UNL     1      36.899  18.475  21.474  1.00  0.00    -0.338 N 
HETATM   31  C19 UNL     1      36.893  17.936  20.108  1.00  0.00     0.321 C 
HETATM   32  O2  UNL     1      37.154  18.766  19.193  1.00  0.00    -0.247 OA
HETATM   33  N6  UNL     1      36.601  16.589  19.974  1.00  0.00    -0.307 N 
ATOM     34  H6  UNL     1      36.394  16.068  20.826  1.00  0.00     0.170 HD
ATOM     35  H5  UNL     1      36.705  17.866  22.269  1.00  0.00     0.164 HD
BRANCH  33  36
HETATM   36  C20 UNL     1      36.566  15.878  18.755  1.00  0.00     0.058 A 
HETATM   37  C21 UNL     1      36.171  16.403  17.551  1.00  0.00     0.032 A 
HETATM   38  C22 UNL     1      36.186  15.631  16.358  1.00  0.00     0.018 A 
HETATM   39  C23 UNL     1      36.603  14.325  16.390  1.00  0.00     0.049 A 
HETATM   40  C25 UNL     1      37.004  13.786  17.596  1.00  0.00     0.042 A 
HETATM   41  C26 UNL     1      36.987  14.531  18.731  1.00  0.00     0.061 A 
HETATM   42 CL1  UNL     1      37.511  13.805  20.254  1.00  0.00    -0.082 Cl
BRANCH  39  43
HETATM   43  C24 UNL     1      36.623  13.486  15.163  1.00  0.00     0.417 C 
HETATM   44  F1  UNL     1      36.000  12.300  15.500  1.00  0.00    -0.166 F 
HETATM   45  F2  UNL     1      37.920  13.264  14.729  1.00  0.00    -0.166 F 
HETATM   46  F3  UNL     1      35.909  14.047  14.145  1.00  0.00    -0.166 F 
ENDBRANCH  39  43
ENDBRANCH  33  36
ENDBRANCH  27  30
ENDBRANCH  21  24
ENDBRANCH  16  17
ENDBRANCH  15  16
ENDBRANCH   3   4
TORSDOF 7
ENDMDL
