MODEL 1
REMARK VINA RESULT: -10.278676259      0.000      0.000
REMARK  11 active torsions:
REMARK  status: ('A' for Active; 'I' for Inactive)
REMARK    1  A    between atoms: O1_2  and  C2_3 
REMARK    2  A    between atoms: C2_3  and  C3_5 
REMARK    3  A    between atoms: C15_17  and  O3_18 
REMARK    4  A    between atoms: O3_18  and  C16_19 
REMARK    5  A    between atoms: C16_19  and  C17_21 
REMARK    6  A    between atoms: C17_21  and  C18_22 
REMARK    7  A    between atoms: C18_22  and  N1_23 
REMARK    8  A    between atoms: C18_22  and  C19_27 
REMARK       I    between atoms: C19_27  and  N2_29 
REMARK    9  A    between atoms: N2_29  and  C20_31 
REMARK   10  A    between atoms: C23_34  and  O6_35 
REMARK   11  A    between atoms: O6_35  and  C24_36 
ROOT
HETATM    1  C16 UNL     1      36.108  23.859  21.205  1.00  0.00     0.261 C 
HETATM    2  O4  UNL     1      35.688  24.806  21.917  1.00  0.00    -0.265 OA
ENDROOT
BRANCH   1   3
HETATM    3  O3  UNL     1      37.421  23.833  20.837  1.00  0.00    -0.315 OA
BRANCH   3   4
HETATM    4  C15 UNL     1      38.265  24.974  20.958  1.00  0.00     0.141 C 
HETATM    5  C14 UNL     1      38.592  25.350  19.498  1.00  0.00     0.034 C 
HETATM    6  C13 UNL     1      39.447  24.329  18.837  1.00  0.00     0.007 C 
HETATM    7  C11 UNL     1      40.643  24.072  19.690  1.00  0.00    -0.014 C 
HETATM    8  C10 UNL     1      40.678  25.043  20.883  1.00  0.00     0.000 C 
HETATM    9  C12 UNL     1      41.920  24.311  18.871  1.00  0.00     0.010 C 
HETATM   10  C9  UNL     1      41.999  24.813  21.541  1.00  0.00     0.006 C 
HETATM   11  C27 UNL     1      39.487  24.725  21.773  1.00  0.00    -0.009 C 
HETATM   12  C8  UNL     1      42.041  25.039  22.993  1.00  0.00     0.010 C 
HETATM   13  C6  UNL     1      40.901  25.882  23.528  1.00  0.00    -0.040 C 
HETATM   14  C5  UNL     1      41.172  27.299  23.188  1.00  0.00     0.010 C 
HETATM   15  C7  UNL     1      41.072  25.772  25.054  1.00  0.00     0.015 C 
HETATM   16  C29 UNL     1      39.560  25.343  23.119  1.00  0.00     0.005 C 
HETATM   17  C4  UNL     1      40.084  28.167  23.728  1.00  0.00     0.015 C 
HETATM   18  C3  UNL     1      38.793  27.742  23.037  1.00  0.00     0.086 C 
HETATM   19  C30 UNL     1      38.495  26.350  23.468  1.00  0.00     0.020 C 
HETATM   20  C28 UNL     1      39.571  23.187  21.916  1.00  0.00     0.018 C 
BRANCH  18  21
HETATM   21  C2  UNL     1      37.730  28.633  23.550  1.00  0.00     0.262 C 
HETATM   22  O2  UNL     1      38.040  29.790  23.916  1.00  0.00    -0.265 OA
BRANCH  21  23
HETATM   23  O1  UNL     1      36.398  28.250  23.649  1.00  0.00    -0.326 OA
HETATM   24  C1  UNL     1      35.388  29.223  23.424  1.00  0.00     0.213 C 
ENDBRANCH  21  23
ENDBRANCH  18  21
ENDBRANCH   3   4
ENDBRANCH   1   3
BRANCH   1  25
HETATM   25  C17 UNL     1      35.094  22.841  20.828  1.00  0.00     0.153 C 
BRANCH  25  26
HETATM   26  C18 UNL     1      35.488  22.069  19.592  1.00  0.00     0.284 C 
BRANCH  26  27
HETATM   27  N1  UNL     1      34.552  22.226  18.524  1.00  0.00    -0.066 N 
ATOM     28  H13 UNL     1      34.014  21.373  18.381  1.00  0.00     0.275 HD
ATOM     29  H12 UNL     1      33.795  22.856  18.791  1.00  0.00     0.275 HD
ATOM     30  H11 UNL     1      34.994  22.531  17.657  1.00  0.00     0.275 HD
ENDBRANCH  26  27
BRANCH  26  31
HETATM   31  C19 UNL     1      35.436  20.602  20.009  1.00  0.00     0.253 C 
HETATM   32  O5  UNL     1      34.498  20.234  20.757  1.00  0.00    -0.271 OA
HETATM   33  N2  UNL     1      36.443  19.768  19.524  1.00  0.00    -0.325 N 
ATOM     34  H2  UNL     1      37.143  20.197  18.920  1.00  0.00     0.169 HD
BRANCH  33  35
HETATM   35  C20 UNL     1      36.588  18.384  19.787  1.00  0.00     0.035 A 
HETATM   36  C21 UNL     1      37.442  18.006  20.836  1.00  0.00     0.032 A 
HETATM   37  C22 UNL     1      37.657  16.698  21.189  1.00  0.00     0.039 A 
HETATM   38  C23 UNL     1      37.036  15.693  20.518  1.00  0.00     0.078 A 
HETATM   39  C25 UNL     1      36.195  16.038  19.486  1.00  0.00     0.039 A 
HETATM   40  C26 UNL     1      35.974  17.376  19.125  1.00  0.00     0.032 A 
BRANCH  38  41
HETATM   41  O6  UNL     1      37.188  14.352  20.796  1.00  0.00    -0.255 OA
BRANCH  41  42
HETATM   42  C24 UNL     1      38.407  13.793  21.249  1.00  0.00     0.530 C 
HETATM   43  F1  UNL     1      39.456  14.187  20.470  1.00  0.00    -0.144 F 
HETATM   44  F2  UNL     1      38.247  12.406  21.187  1.00  0.00    -0.144 F 
HETATM   45  F3  UNL     1      38.609  14.117  22.560  1.00  0.00    -0.144 F 
ENDBRANCH  41  42
ENDBRANCH  38  41
ENDBRANCH  33  35
ENDBRANCH  26  31
ENDBRANCH  25  26
ENDBRANCH   1  25
TORSDOF 11
ENDMDL
MODEL 2
REMARK VINA RESULT: -10.183977121      1.779      2.118
REMARK  11 active torsions:
REMARK  status: ('A' for Active; 'I' for Inactive)
REMARK    1  A    between atoms: O1_2  and  C2_3 
REMARK    2  A    between atoms: C2_3  and  C3_5 
REMARK    3  A    between atoms: C15_17  and  O3_18 
REMARK    4  A    between atoms: O3_18  and  C16_19 
REMARK    5  A    between atoms: C16_19  and  C17_21 
REMARK    6  A    between atoms: C17_21  and  C18_22 
REMARK    7  A    between atoms: C18_22  and  N1_23 
REMARK    8  A    between atoms: C18_22  and  C19_27 
REMARK       I    between atoms: C19_27  and  N2_29 
REMARK    9  A    between atoms: N2_29  and  C20_31 
REMARK   10  A    between atoms: C23_34  and  O6_35 
REMARK   11  A    between atoms: O6_35  and  C24_36 
ROOT
HETATM    1  C16 UNL     1      36.298  23.821  21.014  1.00  0.00     0.261 C 
HETATM    2  O4  UNL     1      35.485  23.563  20.091  1.00  0.00    -0.265 OA
ENDROOT
BRANCH   1   3
HETATM    3  O3  UNL     1      37.636  23.813  20.746  1.00  0.00    -0.315 OA
BRANCH   3   4
HETATM    4  C15 UNL     1      38.447  24.972  20.903  1.00  0.00     0.141 C 
HETATM    5  C14 UNL     1      38.807  25.373  19.458  1.00  0.00     0.034 C 
HETATM    6  C13 UNL     1      39.705  24.381  18.811  1.00  0.00     0.007 C 
HETATM    7  C11 UNL     1      40.882  24.143  19.695  1.00  0.00    -0.014 C 
HETATM    8  C10 UNL     1      40.860  25.101  20.899  1.00  0.00     0.000 C 
HETATM    9  C12 UNL     1      42.176  24.423  18.916  1.00  0.00     0.010 C 
HETATM   10  C9  UNL     1      42.166  24.896  21.592  1.00  0.00     0.006 C 
HETATM   11  C27 UNL     1      39.652  24.744  21.751  1.00  0.00    -0.009 C 
HETATM   12  C8  UNL     1      42.161  25.106  23.047  1.00  0.00     0.010 C 
HETATM   13  C6  UNL     1      40.986  25.915  23.558  1.00  0.00    -0.040 C 
HETATM   14  C5  UNL     1      41.231  27.342  23.242  1.00  0.00     0.010 C 
HETATM   15  C7  UNL     1      41.116  25.792  25.087  1.00  0.00     0.015 C 
HETATM   16  C29 UNL     1      39.671  25.348  23.105  1.00  0.00     0.005 C 
HETATM   17  C4  UNL     1      40.107  28.177  23.759  1.00  0.00     0.015 C 
HETATM   18  C3  UNL     1      38.847  27.729  23.026  1.00  0.00     0.086 C 
HETATM   19  C30 UNL     1      38.572  26.325  23.434  1.00  0.00     0.020 C 
HETATM   20  C28 UNL     1      39.769  23.207  21.879  1.00  0.00     0.018 C 
BRANCH  18  21
HETATM   21  C2  UNL     1      37.748  28.587  23.518  1.00  0.00     0.262 C 
HETATM   22  O2  UNL     1      38.030  29.713  23.990  1.00  0.00    -0.265 OA
BRANCH  21  23
HETATM   23  O1  UNL     1      36.412  28.207  23.485  1.00  0.00    -0.326 OA
HETATM   24  C1  UNL     1      35.414  29.217  23.434  1.00  0.00     0.213 C 
ENDBRANCH  21  23
ENDBRANCH  18  21
ENDBRANCH   3   4
ENDBRANCH   1   3
BRANCH   1  25
HETATM   25  C17 UNL     1      35.694  24.115  22.339  1.00  0.00     0.153 C 
BRANCH  25  26
HETATM   26  C18 UNL     1      35.870  22.976  23.315  1.00  0.00     0.284 C 
BRANCH  26  27
HETATM   27  N1  UNL     1      37.215  22.851  23.777  1.00  0.00    -0.066 N 
ATOM     28  H13 UNL     1      37.470  21.871  23.900  1.00  0.00     0.275 HD
ATOM     29  H12 UNL     1      37.879  23.103  23.043  1.00  0.00     0.275 HD
ATOM     30  H11 UNL     1      37.390  23.385  24.628  1.00  0.00     0.275 HD
ENDBRANCH  26  27
BRANCH  26  31
HETATM   31  C19 UNL     1      35.563  21.716  22.509  1.00  0.00     0.253 C 
HETATM   32  O5  UNL     1      34.368  21.341  22.432  1.00  0.00    -0.271 OA
HETATM   33  N2  UNL     1      36.642  21.068  21.910  1.00  0.00    -0.325 N 
ATOM     34  H2  UNL     1      37.563  21.483  22.050  1.00  0.00     0.169 HD
BRANCH  33  35
HETATM   35  C20 UNL     1      36.586  19.890  21.126  1.00  0.00     0.035 A 
HETATM   36  C21 UNL     1      37.344  18.787  21.552  1.00  0.00     0.032 A 
HETATM   37  C22 UNL     1      37.366  17.591  20.881  1.00  0.00     0.039 A 
HETATM   38  C23 UNL     1      36.634  17.425  19.748  1.00  0.00     0.078 A 
HETATM   39  C25 UNL     1      35.883  18.491  19.311  1.00  0.00     0.039 A 
HETATM   40  C26 UNL     1      35.861  19.715  19.998  1.00  0.00     0.032 A 
BRANCH  38  41
HETATM   41  O6  UNL     1      36.589  16.266  19.005  1.00  0.00    -0.255 OA
BRANCH  41  42
HETATM   42  C24 UNL     1      35.671  15.220  19.263  1.00  0.00     0.530 C 
HETATM   43  F1  UNL     1      35.988  14.551  20.411  1.00  0.00    -0.144 F 
HETATM   44  F2  UNL     1      35.740  14.360  18.164  1.00  0.00    -0.144 F 
HETATM   45  F3  UNL     1      34.401  15.716  19.309  1.00  0.00    -0.144 F 
ENDBRANCH  41  42
ENDBRANCH  38  41
ENDBRANCH  33  35
ENDBRANCH  26  31
ENDBRANCH  25  26
ENDBRANCH   1  25
TORSDOF 11
ENDMDL
MODEL 3
REMARK VINA RESULT: -9.930595540      1.299      1.457
REMARK  11 active torsions:
REMARK  status: ('A' for Active; 'I' for Inactive)
REMARK    1  A    between atoms: O1_2  and  C2_3 
REMARK    2  A    between atoms: C2_3  and  C3_5 
REMARK    3  A    between atoms: C15_17  and  O3_18 
REMARK    4  A    between atoms: O3_18  and  C16_19 
REMARK    5  A    between atoms: C16_19  and  C17_21 
REMARK    6  A    between atoms: C17_21  and  C18_22 
REMARK    7  A    between atoms: C18_22  and  N1_23 
REMARK    8  A    between atoms: C18_22  and  C19_27 
REMARK       I    between atoms: C19_27  and  N2_29 
REMARK    9  A    between atoms: N2_29  and  C20_31 
REMARK   10  A    between atoms: C23_34  and  O6_35 
REMARK   11  A    between atoms: O6_35  and  C24_36 
ROOT
HETATM    1  C16 UNL     1      36.433  24.402  20.034  1.00  0.00     0.261 C 
HETATM    2  O4  UNL     1      35.970  25.569  20.071  1.00  0.00    -0.265 OA
ENDROOT
BRANCH   1   3
HETATM    3  O3  UNL     1      37.779  24.215  20.157  1.00  0.00    -0.315 OA
BRANCH   3   4
HETATM    4  C15 UNL     1      38.658  25.265  20.546  1.00  0.00     0.141 C 
HETATM    5  C14 UNL     1      39.337  25.688  19.228  1.00  0.00     0.034 C 
HETATM    6  C13 UNL     1      40.239  24.632  18.701  1.00  0.00     0.007 C 
HETATM    7  C11 UNL     1      41.185  24.220  19.777  1.00  0.00    -0.014 C 
HETATM    8  C10 UNL     1      41.023  25.117  21.016  1.00  0.00     0.000 C 
HETATM    9  C12 UNL     1      42.630  24.385  19.282  1.00  0.00     0.010 C 
HETATM   10  C9  UNL     1      42.137  24.731  21.932  1.00  0.00     0.006 C 
HETATM   11  C27 UNL     1      39.639  24.861  21.593  1.00  0.00    -0.009 C 
HETATM   12  C8  UNL     1      41.865  24.873  23.370  1.00  0.00     0.010 C 
HETATM   13  C6  UNL     1      40.701  25.786  23.698  1.00  0.00    -0.040 C 
HETATM   14  C5  UNL     1      41.150  27.189  23.533  1.00  0.00     0.010 C 
HETATM   15  C7  UNL     1      40.511  25.579  25.212  1.00  0.00     0.015 C 
HETATM   16  C29 UNL     1      39.451  25.395  22.963  1.00  0.00     0.005 C 
HETATM   17  C4  UNL     1      40.037  28.122  23.879  1.00  0.00     0.015 C 
HETATM   18  C3  UNL     1      38.909  27.856  22.890  1.00  0.00     0.086 C 
HETATM   19  C30 UNL     1      38.415  26.475  23.140  1.00  0.00     0.020 C 
HETATM   20  C28 UNL     1      39.570  23.316  21.637  1.00  0.00     0.018 C 
BRANCH  18  21
HETATM   21  C2  UNL     1      37.829  28.811  23.218  1.00  0.00     0.262 C 
HETATM   22  O2  UNL     1      38.032  29.663  24.113  1.00  0.00    -0.265 OA
BRANCH  21  23
HETATM   23  O1  UNL     1      36.594  28.810  22.582  1.00  0.00    -0.326 OA
HETATM   24  C1  UNL     1      35.426  29.054  23.353  1.00  0.00     0.213 C 
ENDBRANCH  21  23
ENDBRANCH  18  21
ENDBRANCH   3   4
ENDBRANCH   1   3
BRANCH   1  25
HETATM   25  C17 UNL     1      35.432  23.319  19.853  1.00  0.00     0.153 C 
BRANCH  25  26
HETATM   26  C18 UNL     1      34.923  22.783  21.170  1.00  0.00     0.284 C 
BRANCH  26  27
HETATM   27  N1  UNL     1      35.761  23.141  22.270  1.00  0.00    -0.066 N 
ATOM     28  H13 UNL     1      36.552  23.704  21.959  1.00  0.00     0.275 HD
ATOM     29  H12 UNL     1      35.300  23.822  22.874  1.00  0.00     0.275 HD
ATOM     30  H11 UNL     1      36.075  22.330  22.804  1.00  0.00     0.275 HD
ENDBRANCH  26  27
BRANCH  26  31
HETATM   31  C19 UNL     1      35.001  21.265  21.033  1.00  0.00     0.253 C 
HETATM   32  O5  UNL     1      33.955  20.600  21.228  1.00  0.00    -0.271 OA
HETATM   33  N2  UNL     1      36.240  20.722  20.697  1.00  0.00    -0.325 N 
ATOM     34  H2  UNL     1      37.009  21.378  20.563  1.00  0.00     0.169 HD
BRANCH  33  35
HETATM   35  C20 UNL     1      36.536  19.348  20.523  1.00  0.00     0.035 A 
HETATM   36  C21 UNL     1      37.346  18.728  21.489  1.00  0.00     0.032 A 
HETATM   37  C22 UNL     1      37.696  17.404  21.433  1.00  0.00     0.039 A 
HETATM   38  C23 UNL     1      37.260  16.620  20.412  1.00  0.00     0.078 A 
HETATM   39  C25 UNL     1      36.466  17.204  19.453  1.00  0.00     0.039 A 
HETATM   40  C26 UNL     1      36.108  18.560  19.510  1.00  0.00     0.032 A 
BRANCH  38  41
HETATM   41  O6  UNL     1      37.557  15.282  20.267  1.00  0.00    -0.255 OA
BRANCH  41  42
HETATM   42  C24 UNL     1      36.567  14.270  20.266  1.00  0.00     0.530 C 
HETATM   43  F1  UNL     1      35.324  14.788  20.039  1.00  0.00    -0.144 F 
HETATM   44  F2  UNL     1      36.622  13.670  21.527  1.00  0.00    -0.144 F 
HETATM   45  F3  UNL     1      36.883  13.310  19.348  1.00  0.00    -0.144 F 
ENDBRANCH  41  42
ENDBRANCH  38  41
ENDBRANCH  33  35
ENDBRANCH  26  31
ENDBRANCH  25  26
ENDBRANCH   1  25
TORSDOF 11
ENDMDL
MODEL 4
REMARK VINA RESULT: -9.924419265      2.532      3.882
REMARK  11 active torsions:
REMARK  status: ('A' for Active; 'I' for Inactive)
REMARK    1  A    between atoms: O1_2  and  C2_3 
REMARK    2  A    between atoms: C2_3  and  C3_5 
REMARK    3  A    between atoms: C15_17  and  O3_18 
REMARK    4  A    between atoms: O3_18  and  C16_19 
REMARK    5  A    between atoms: C16_19  and  C17_21 
REMARK    6  A    between atoms: C17_21  and  C18_22 
REMARK    7  A    between atoms: C18_22  and  N1_23 
REMARK    8  A    between atoms: C18_22  and  C19_27 
REMARK       I    between atoms: C19_27  and  N2_29 
REMARK    9  A    between atoms: N2_29  and  C20_31 
REMARK   10  A    between atoms: C23_34  and  O6_35 
REMARK   11  A    between atoms: O6_35  and  C24_36 
ROOT
HETATM    1  C16 UNL     1      37.005  22.639  23.231  1.00  0.00     0.261 C 
HETATM    2  O4  UNL     1      37.377  23.375  24.178  1.00  0.00    -0.265 OA
ENDROOT
BRANCH   1   3
HETATM    3  O3  UNL     1      36.862  23.176  21.985  1.00  0.00    -0.315 OA
BRANCH   3   4
HETATM    4  C15 UNL     1      37.567  24.344  21.577  1.00  0.00     0.141 C 
HETATM    5  C14 UNL     1      36.458  25.394  21.369  1.00  0.00     0.034 C 
HETATM    6  C13 UNL     1      35.589  25.066  20.209  1.00  0.00     0.007 C 
HETATM    7  C11 UNL     1      36.447  24.831  19.012  1.00  0.00    -0.014 C 
HETATM    8  C10 UNL     1      37.919  25.149  19.327  1.00  0.00     0.000 C 
HETATM    9  C12 UNL     1      36.013  25.768  17.875  1.00  0.00     0.010 C 
HETATM   10  C9  UNL     1      38.633  25.059  18.019  1.00  0.00     0.006 C 
HETATM   11  C27 UNL     1      38.399  24.140  20.358  1.00  0.00    -0.009 C 
HETATM   12  C8  UNL     1      40.039  24.633  18.082  1.00  0.00     0.010 C 
HETATM   13  C6  UNL     1      40.675  24.780  19.449  1.00  0.00    -0.040 C 
HETATM   14  C5  UNL     1      40.985  26.214  19.665  1.00  0.00     0.010 C 
HETATM   15  C7  UNL     1      42.033  24.075  19.279  1.00  0.00     0.015 C 
HETATM   16  C29 UNL     1      39.872  24.102  20.522  1.00  0.00     0.005 C 
HETATM   17  C4  UNL     1      41.644  26.396  20.993  1.00  0.00     0.015 C 
HETATM   18  C3  UNL     1      40.642  25.952  22.052  1.00  0.00     0.086 C 
HETATM   19  C30 UNL     1      40.421  24.492  21.870  1.00  0.00     0.020 C 
HETATM   20  C28 UNL     1      37.921  22.794  19.763  1.00  0.00     0.018 C 
BRANCH  18  21
HETATM   21  C2  UNL     1      41.291  26.172  23.362  1.00  0.00     0.262 C 
HETATM   22  O2  UNL     1      42.313  25.506  23.645  1.00  0.00    -0.265 OA
BRANCH  21  23
HETATM   23  O1  UNL     1      40.823  27.084  24.299  1.00  0.00    -0.326 OA
HETATM   24  C1  UNL     1      40.049  28.189  23.852  1.00  0.00     0.213 C 
ENDBRANCH  21  23
ENDBRANCH  18  21
ENDBRANCH   3   4
ENDBRANCH   1   3
BRANCH   1  25
HETATM   25  C17 UNL     1      36.752  21.218  23.583  1.00  0.00     0.153 C 
BRANCH  25  26
HETATM   26  C18 UNL     1      37.868  20.307  23.131  1.00  0.00     0.284 C 
BRANCH  26  27
HETATM   27  N1  UNL     1      38.963  21.023  22.558  1.00  0.00    -0.066 N 
ATOM     28  H13 UNL     1      38.652  21.907  22.157  1.00  0.00     0.275 HD
ATOM     29  H12 UNL     1      39.586  21.381  23.283  1.00  0.00     0.275 HD
ATOM     30  H11 UNL     1      39.478  20.470  21.872  1.00  0.00     0.275 HD
ENDBRANCH  26  27
BRANCH  26  31
HETATM   31  C19 UNL     1      37.261  19.464  22.014  1.00  0.00     0.253 C 
HETATM   32  O5  UNL     1      36.392  19.993  21.280  1.00  0.00    -0.271 OA
HETATM   33  N2  UNL     1      37.721  18.154  21.887  1.00  0.00    -0.325 N 
ATOM     34  H2  UNL     1      38.434  17.851  22.549  1.00  0.00     0.169 HD
BRANCH  33  35
HETATM   35  C20 UNL     1      37.295  17.202  20.928  1.00  0.00     0.035 A 
HETATM   36  C21 UNL     1      37.703  15.870  21.106  1.00  0.00     0.032 A 
HETATM   37  C22 UNL     1      37.349  14.860  20.249  1.00  0.00     0.039 A 
HETATM   38  C23 UNL     1      36.569  15.117  19.166  1.00  0.00     0.078 A 
HETATM   39  C25 UNL     1      36.157  16.414  18.970  1.00  0.00     0.039 A 
HETATM   40  C26 UNL     1      36.519  17.449  19.847  1.00  0.00     0.032 A 
BRANCH  38  41
HETATM   41  O6  UNL     1      36.162  14.173  18.249  1.00  0.00    -0.255 OA
BRANCH  41  42
HETATM   42  C24 UNL     1      36.700  14.085  16.943  1.00  0.00     0.530 C 
HETATM   43  F1  UNL     1      38.062  13.985  16.971  1.00  0.00    -0.144 F 
HETATM   44  F2  UNL     1      36.311  15.252  16.281  1.00  0.00    -0.144 F 
HETATM   45  F3  UNL     1      36.136  13.035  16.277  1.00  0.00    -0.144 F 
ENDBRANCH  41  42
ENDBRANCH  38  41
ENDBRANCH  33  35
ENDBRANCH  26  31
ENDBRANCH  25  26
ENDBRANCH   1  25
TORSDOF 11
ENDMDL
MODEL 5
REMARK VINA RESULT: -9.868374142      1.474      2.059
REMARK  11 active torsions:
REMARK  status: ('A' for Active; 'I' for Inactive)
REMARK    1  A    between atoms: O1_2  and  C2_3 
REMARK    2  A    between atoms: C2_3  and  C3_5 
REMARK    3  A    between atoms: C15_17  and  O3_18 
REMARK    4  A    between atoms: O3_18  and  C16_19 
REMARK    5  A    between atoms: C16_19  and  C17_21 
REMARK    6  A    between atoms: C17_21  and  C18_22 
REMARK    7  A    between atoms: C18_22  and  N1_23 
REMARK    8  A    between atoms: C18_22  and  C19_27 
REMARK       I    between atoms: C19_27  and  N2_29 
REMARK    9  A    between atoms: N2_29  and  C20_31 
REMARK   10  A    between atoms: C23_34  and  O6_35 
REMARK   11  A    between atoms: O6_35  and  C24_36 
ROOT
HETATM    1  C16 UNL     1      35.378  23.352  18.653  1.00  0.00     0.261 C 
HETATM    2  O4  UNL     1      34.787  24.392  18.269  1.00  0.00    -0.265 OA
ENDROOT
BRANCH   1   3
HETATM    3  O3  UNL     1      36.735  23.369  18.793  1.00  0.00    -0.315 OA
BRANCH   3   4
HETATM    4  C15 UNL     1      37.423  24.471  19.375  1.00  0.00     0.141 C 
HETATM    5  C14 UNL     1      38.064  25.187  18.169  1.00  0.00     0.034 C 
HETATM    6  C13 UNL     1      39.137  24.373  17.542  1.00  0.00     0.007 C 
HETATM    7  C11 UNL     1      40.106  23.955  18.596  1.00  0.00    -0.014 C 
HETATM    8  C10 UNL     1      39.767  24.620  19.941  1.00  0.00     0.000 C 
HETATM    9  C12 UNL     1      41.520  24.413  18.206  1.00  0.00     0.010 C 
HETATM   10  C9  UNL     1      40.902  24.277  20.849  1.00  0.00     0.006 C 
HETATM   11  C27 UNL     1      38.426  24.071  20.402  1.00  0.00    -0.009 C 
HETATM   12  C8  UNL     1      40.569  24.158  22.276  1.00  0.00     0.010 C 
HETATM   13  C6  UNL     1      39.265  24.822  22.671  1.00  0.00    -0.040 C 
HETATM   14  C5  UNL     1      39.489  26.286  22.733  1.00  0.00     0.010 C 
HETATM   15  C7  UNL     1      39.067  24.362  24.127  1.00  0.00     0.015 C 
HETATM   16  C29 UNL     1      38.116  24.358  21.823  1.00  0.00     0.005 C 
HETATM   17  C4  UNL     1      38.232  26.974  23.151  1.00  0.00     0.015 C 
HETATM   18  C3  UNL     1      37.189  26.689  22.076  1.00  0.00     0.086 C 
HETATM   19  C30 UNL     1      36.916  25.227  22.100  1.00  0.00     0.020 C 
HETATM   20  C28 UNL     1      38.603  22.545  20.220  1.00  0.00     0.018 C 
BRANCH  18  21
HETATM   21  C2  UNL     1      35.962  27.405  22.482  1.00  0.00     0.262 C 
HETATM   22  O2  UNL     1      34.870  26.793  22.451  1.00  0.00    -0.265 OA
BRANCH  21  23
HETATM   23  O1  UNL     1      35.957  28.731  22.897  1.00  0.00    -0.326 OA
HETATM   24  C1  UNL     1      36.276  29.745  21.954  1.00  0.00     0.213 C 
ENDBRANCH  21  23
ENDBRANCH  18  21
ENDBRANCH   3   4
ENDBRANCH   1   3
BRANCH   1  25
HETATM   25  C17 UNL     1      34.506  22.180  18.920  1.00  0.00     0.153 C 
BRANCH  25  26
HETATM   26  C18 UNL     1      34.238  21.987  20.393  1.00  0.00     0.284 C 
BRANCH  26  27
HETATM   27  N1  UNL     1      34.639  23.112  21.176  1.00  0.00    -0.066 N 
ATOM     28  H13 UNL     1      35.533  22.939  21.635  1.00  0.00     0.275 HD
ATOM     29  H12 UNL     1      34.908  23.895  20.580  1.00  0.00     0.275 HD
ATOM     30  H11 UNL     1      33.928  23.393  21.852  1.00  0.00     0.275 HD
ENDBRANCH  26  27
BRANCH  26  31
HETATM   31  C19 UNL     1      35.133  20.822  20.807  1.00  0.00     0.253 C 
HETATM   32  O5  UNL     1      35.713  20.888  21.917  1.00  0.00    -0.271 OA
HETATM   33  N2  UNL     1      35.242  19.758  19.913  1.00  0.00    -0.325 N 
ATOM     34  H2  UNL     1      34.713  19.831  19.044  1.00  0.00     0.169 HD
BRANCH  33  35
HETATM   35  C20 UNL     1      36.015  18.585  20.092  1.00  0.00     0.035 A 
HETATM   36  C21 UNL     1      35.657  17.448  19.349  1.00  0.00     0.032 A 
HETATM   37  C22 UNL     1      36.332  16.258  19.432  1.00  0.00     0.039 A 
HETATM   38  C23 UNL     1      37.403  16.130  20.260  1.00  0.00     0.078 A 
HETATM   39  C25 UNL     1      37.773  17.230  20.998  1.00  0.00     0.039 A 
HETATM   40  C26 UNL     1      37.082  18.448  20.913  1.00  0.00     0.032 A 
BRANCH  38  41
HETATM   41  O6  UNL     1      38.145  14.979  20.413  1.00  0.00    -0.255 OA
BRANCH  41  42
HETATM   42  C24 UNL     1      37.904  14.040  21.444  1.00  0.00     0.530 C 
HETATM   43  F1  UNL     1      38.505  14.415  22.611  1.00  0.00    -0.144 F 
HETATM   44  F2  UNL     1      38.428  12.825  20.994  1.00  0.00    -0.144 F 
HETATM   45  F3  UNL     1      36.561  13.863  21.608  1.00  0.00    -0.144 F 
ENDBRANCH  41  42
ENDBRANCH  38  41
ENDBRANCH  33  35
ENDBRANCH  26  31
ENDBRANCH  25  26
ENDBRANCH   1  25
TORSDOF 11
ENDMDL
