MODEL 1
REMARK VINA RESULT: -9.752415051      0.000      0.000
REMARK  13 active torsions:
REMARK  status: ('A' for Active; 'I' for Inactive)
REMARK    1  A    between atoms: C1_2  and  O2_4 
REMARK    2  A    between atoms: O2_4  and  C2_5 
REMARK    3  A    between atoms: C2_5  and  C3_7 
REMARK    4  A    between atoms: C5_10  and  O4_11 
REMARK    5  A    between atoms: O4_11  and  C6_12 
REMARK    6  A    between atoms: C8_14  and  C9_15 
REMARK    7  A    between atoms: C9_15  and  C10_16 
REMARK    8  A    between atoms: C10_16  and  C11_17 
REMARK    9  A    between atoms: C11_17  and  C12_18 
REMARK   10  A    between atoms: C12_18  and  C13_19 
REMARK   11  A    between atoms: C19_27  and  N3_28 
REMARK       I    between atoms: N3_28  and  C20_29 
REMARK   12  A    between atoms: C20_29  and  C21_31 
REMARK   13  A    between atoms: C25_36  and  C26_37 
ROOT
HETATM    1  C6  UNL     1      38.717  24.478  19.321  1.00  0.00     0.084 A 
HETATM    2  C7  UNL     1      38.200  25.493  20.087  1.00  0.00     0.076 A 
HETATM    3  C8  UNL     1      37.015  25.276  20.747  1.00  0.00     0.091 A 
HETATM    4  N2  UNL     1      36.366  24.119  20.661  1.00  0.00    -0.324 N 
ATOM      5  H2  UNL     1      35.488  23.993  21.164  1.00  0.00     0.169 HD
HETATM    6  C19 UNL     1      36.868  23.094  19.901  1.00  0.00     0.186 A 
HETATM    7  C28 UNL     1      38.073  23.276  19.213  1.00  0.00     0.101 A 
ENDROOT
BRANCH   6   8
HETATM    8  N3  UNL     1      36.275  22.048  19.830  1.00  0.00    -0.348 NA
HETATM    9  C20 UNL     1      35.628  20.921  19.732  1.00  0.00     0.328 C 
HETATM   10  O5  UNL     1      34.420  20.870  19.292  1.00  0.00    -0.251 OA
BRANCH   9  11
HETATM   11  C21 UNL     1      36.213  19.631  20.111  1.00  0.00     0.047 A 
HETATM   12  C22 UNL     1      37.114  19.541  21.149  1.00  0.00     0.021 A 
HETATM   13  C23 UNL     1      37.642  18.321  21.481  1.00  0.00     0.044 A 
HETATM   14  C24 UNL     1      37.274  17.174  20.777  1.00  0.00     0.131 A 
HETATM   15  F1  UNL     1      37.790  15.951  21.093  1.00  0.00    -0.205 F 
HETATM   16  C25 UNL     1      36.370  17.247  19.731  1.00  0.00     0.087 A 
HETATM   17  C27 UNL     1      35.870  18.493  19.437  1.00  0.00     0.037 A 
BRANCH  16  18
HETATM   18  C26 UNL     1      35.980  16.016  18.981  1.00  0.00     0.420 C 
HETATM   19  F2  UNL     1      34.961  15.364  19.626  1.00  0.00    -0.166 F 
HETATM   20  F3  UNL     1      37.063  15.188  18.828  1.00  0.00    -0.166 F 
HETATM   21  F4  UNL     1      35.573  16.440  17.718  1.00  0.00    -0.166 F 
ENDBRANCH  16  18
ENDBRANCH   9  11
ENDBRANCH   6   8
BRANCH   3  22
HETATM   22  C9  UNL     1      36.478  26.365  21.557  1.00  0.00    -0.049 C 
BRANCH  22  23
HETATM   23  C10 UNL     1      36.046  27.270  22.218  1.00  0.00    -0.100 C 
BRANCH  23  24
HETATM   24  C11 UNL     1      35.520  28.385  23.031  1.00  0.00     0.095 C 
BRANCH  24  25
HETATM   25  C12 UNL     1      36.631  29.119  23.723  1.00  0.00     0.017 C 
BRANCH  25  26
HETATM   26  C13 UNL     1      37.633  29.634  22.741  1.00  0.00    -0.014 C 
HETATM   27  C14 UNL     1      38.945  28.923  22.747  1.00  0.00     0.005 C 
HETATM   28  C15 UNL     1      39.684  29.064  24.058  1.00  0.00     0.000 C 
HETATM   29  C16 UNL     1      39.767  30.500  24.509  1.00  0.00     0.000 C 
HETATM   30  C17 UNL     1      38.521  31.291  24.300  1.00  0.00     0.000 C 
HETATM   31  C18 UNL     1      37.916  31.109  22.933  1.00  0.00     0.005 C 
ENDBRANCH  25  26
ENDBRANCH  24  25
ENDBRANCH  23  24
ENDBRANCH  22  23
ENDBRANCH   3  22
BRANCH   1  32
HETATM   32  O4  UNL     1      39.923  24.609  18.611  1.00  0.00    -0.303 OA
BRANCH  32  33
HETATM   33  C5  UNL     1      41.084  24.643  19.416  1.00  0.00     0.117 A 
HETATM   34  S1  UNL     1      42.714  24.383  18.991  1.00  0.00    -0.076 SA
HETATM   35  C4  UNL     1      43.433  24.608  20.519  1.00  0.00     0.070 A 
HETATM   36  C3  UNL     1      42.360  24.884  21.330  1.00  0.00     0.049 A 
HETATM   37  C29 UNL     1      41.151  24.901  20.756  1.00  0.00     0.063 A 
BRANCH  36  38
HETATM   38  C2  UNL     1      42.573  25.149  22.782  1.00  0.00     0.302 C 
HETATM   39  O3  UNL     1      43.414  26.003  23.180  1.00  0.00    -0.259 OA
BRANCH  38  40
HETATM   40  O2  UNL     1      41.870  24.484  23.756  1.00  0.00    -0.226 OA
BRANCH  40  41
HETATM   41  C1  UNL     1      40.929  25.144  24.511  1.00  0.00     0.380 C 
HETATM   42  N1  UNL     1      39.653  25.400  23.942  1.00  0.00    -0.032 NA
HETATM   43  O1  UNL     1      41.157  25.526  25.672  1.00  0.00    -0.242 OA
ENDBRANCH  40  41
ENDBRANCH  38  40
ENDBRANCH  36  38
ENDBRANCH  32  33
ENDBRANCH   1  32
TORSDOF 13
ENDMDL
MODEL 2
REMARK VINA RESULT: -9.538196046      1.709      2.426
REMARK  13 active torsions:
REMARK  status: ('A' for Active; 'I' for Inactive)
REMARK    1  A    between atoms: C1_2  and  O2_4 
REMARK    2  A    between atoms: O2_4  and  C2_5 
REMARK    3  A    between atoms: C2_5  and  C3_7 
REMARK    4  A    between atoms: C5_10  and  O4_11 
REMARK    5  A    between atoms: O4_11  and  C6_12 
REMARK    6  A    between atoms: C8_14  and  C9_15 
REMARK    7  A    between atoms: C9_15  and  C10_16 
REMARK    8  A    between atoms: C10_16  and  C11_17 
REMARK    9  A    between atoms: C11_17  and  C12_18 
REMARK   10  A    between atoms: C12_18  and  C13_19 
REMARK   11  A    between atoms: C19_27  and  N3_28 
REMARK       I    between atoms: N3_28  and  C20_29 
REMARK   12  A    between atoms: C20_29  and  C21_31 
REMARK   13  A    between atoms: C25_36  and  C26_37 
ROOT
HETATM    1  C6  UNL     1      38.574  23.831  19.204  1.00  0.00     0.084 A 
HETATM    2  C7  UNL     1      37.978  24.891  19.839  1.00  0.00     0.076 A 
HETATM    3  C8  UNL     1      37.285  24.652  21.001  1.00  0.00     0.091 A 
HETATM    4  N2  UNL     1      37.180  23.432  21.517  1.00  0.00    -0.324 N 
ATOM      5  H2  UNL     1      36.657  23.290  22.381  1.00  0.00     0.169 HD
HETATM    6  C19 UNL     1      37.771  22.361  20.896  1.00  0.00     0.186 A 
HETATM    7  C28 UNL     1      38.485  22.564  19.710  1.00  0.00     0.101 A 
ENDROOT
BRANCH   6   8
HETATM    8  N3  UNL     1      37.673  21.258  21.370  1.00  0.00    -0.348 NA
HETATM    9  C20 UNL     1      37.554  20.073  21.899  1.00  0.00     0.328 C 
HETATM   10  O5  UNL     1      37.758  19.867  23.152  1.00  0.00    -0.251 OA
BRANCH   9  11
HETATM   11  C21 UNL     1      37.183  18.887  21.120  1.00  0.00     0.047 A 
HETATM   12  C22 UNL     1      36.350  18.991  20.027  1.00  0.00     0.021 A 
HETATM   13  C23 UNL     1      36.023  17.865  19.318  1.00  0.00     0.044 A 
HETATM   14  C24 UNL     1      36.527  16.619  19.694  1.00  0.00     0.131 A 
HETATM   15  F1  UNL     1      36.212  15.488  19.000  1.00  0.00    -0.205 F 
HETATM   16  C25 UNL     1      37.365  16.497  20.789  1.00  0.00     0.087 A 
HETATM   17  C27 UNL     1      37.662  17.655  21.467  1.00  0.00     0.037 A 
BRANCH  16  18
HETATM   18  C26 UNL     1      37.901  15.162  21.187  1.00  0.00     0.420 C 
HETATM   19  F2  UNL     1      38.787  14.701  20.248  1.00  0.00    -0.166 F 
HETATM   20  F3  UNL     1      36.874  14.268  21.360  1.00  0.00    -0.166 F 
HETATM   21  F4  UNL     1      38.533  15.344  22.415  1.00  0.00    -0.166 F 
ENDBRANCH  16  18
ENDBRANCH   9  11
ENDBRANCH   6   8
BRANCH   3  22
HETATM   22  C9  UNL     1      36.654  25.790  21.665  1.00  0.00    -0.049 C 
BRANCH  22  23
HETATM   23  C10 UNL     1      36.145  26.735  22.204  1.00  0.00    -0.100 C 
BRANCH  23  24
HETATM   24  C11 UNL     1      35.519  27.899  22.862  1.00  0.00     0.095 C 
BRANCH  24  25
HETATM   25  C12 UNL     1      36.536  28.704  23.616  1.00  0.00     0.017 C 
BRANCH  25  26
HETATM   26  C13 UNL     1      37.488  29.383  22.685  1.00  0.00    -0.014 C 
HETATM   27  C14 UNL     1      38.803  28.698  22.518  1.00  0.00     0.005 C 
HETATM   28  C15 UNL     1      39.601  28.639  23.801  1.00  0.00     0.000 C 
HETATM   29  C16 UNL     1      39.696  29.986  24.471  1.00  0.00     0.000 C 
HETATM   30  C17 UNL     1      38.436  30.783  24.447  1.00  0.00     0.000 C 
HETATM   31  C18 UNL     1      37.770  30.812  23.097  1.00  0.00     0.005 C 
ENDBRANCH  25  26
ENDBRANCH  24  25
ENDBRANCH  23  24
ENDBRANCH  22  23
ENDBRANCH   3  22
BRANCH   1  32
HETATM   32  O4  UNL     1      39.304  23.981  18.012  1.00  0.00    -0.303 OA
BRANCH  32  33
HETATM   33  C5  UNL     1      40.708  23.947  18.167  1.00  0.00     0.117 A 
HETATM   34  S1  UNL     1      41.894  23.191  17.206  1.00  0.00    -0.076 SA
HETATM   35  C4  UNL     1      43.283  23.640  18.084  1.00  0.00     0.070 A 
HETATM   36  C3  UNL     1      42.771  24.380  19.120  1.00  0.00     0.049 A 
HETATM   37  C29 UNL     1      41.442  24.535  19.159  1.00  0.00     0.063 A 
BRANCH  36  38
HETATM   38  C2  UNL     1      43.686  24.969  20.140  1.00  0.00     0.302 C 
HETATM   39  O3  UNL     1      44.880  24.575  20.258  1.00  0.00    -0.259 OA
BRANCH  38  40
HETATM   40  O2  UNL     1      43.282  25.964  20.996  1.00  0.00    -0.226 OA
BRANCH  40  41
HETATM   41  C1  UNL     1      43.359  25.785  22.357  1.00  0.00     0.380 C 
HETATM   42  N1  UNL     1      44.396  26.440  23.074  1.00  0.00    -0.032 NA
HETATM   43  O1  UNL     1      42.556  25.070  22.981  1.00  0.00    -0.242 OA
ENDBRANCH  40  41
ENDBRANCH  38  40
ENDBRANCH  36  38
ENDBRANCH  32  33
ENDBRANCH   1  32
TORSDOF 13
ENDMDL
MODEL 3
REMARK VINA RESULT: -9.410346138      1.916      2.494
REMARK  13 active torsions:
REMARK  status: ('A' for Active; 'I' for Inactive)
REMARK    1  A    between atoms: C1_2  and  O2_4 
REMARK    2  A    between atoms: O2_4  and  C2_5 
REMARK    3  A    between atoms: C2_5  and  C3_7 
REMARK    4  A    between atoms: C5_10  and  O4_11 
REMARK    5  A    between atoms: O4_11  and  C6_12 
REMARK    6  A    between atoms: C8_14  and  C9_15 
REMARK    7  A    between atoms: C9_15  and  C10_16 
REMARK    8  A    between atoms: C10_16  and  C11_17 
REMARK    9  A    between atoms: C11_17  and  C12_18 
REMARK   10  A    between atoms: C12_18  and  C13_19 
REMARK   11  A    between atoms: C19_27  and  N3_28 
REMARK       I    between atoms: N3_28  and  C20_29 
REMARK   12  A    between atoms: C20_29  and  C21_31 
REMARK   13  A    between atoms: C25_36  and  C26_37 
ROOT
HETATM    1  C6  UNL     1      39.215  23.506  22.267  1.00  0.00     0.084 A 
HETATM    2  C7  UNL     1      38.551  24.680  22.518  1.00  0.00     0.076 A 
HETATM    3  C8  UNL     1      37.224  24.768  22.173  1.00  0.00     0.091 A 
HETATM    4  N2  UNL     1      36.578  23.753  21.608  1.00  0.00    -0.324 N 
ATOM      5  H2  UNL     1      35.593  23.854  21.364  1.00  0.00     0.169 HD
HETATM    6  C19 UNL     1      37.226  22.573  21.350  1.00  0.00     0.186 A 
HETATM    7  C28 UNL     1      38.578  22.444  21.686  1.00  0.00     0.101 A 
ENDROOT
BRANCH   6   8
HETATM    8  N3  UNL     1      36.633  21.657  20.839  1.00  0.00    -0.348 NA
HETATM    9  C20 UNL     1      35.992  20.677  20.267  1.00  0.00     0.328 C 
HETATM   10  O5  UNL     1      34.934  20.879  19.563  1.00  0.00    -0.251 OA
BRANCH   9  11
HETATM   11  C21 UNL     1      36.415  19.278  20.375  1.00  0.00     0.047 A 
HETATM   12  C22 UNL     1      37.296  18.880  21.357  1.00  0.00     0.021 A 
HETATM   13  C23 UNL     1      37.672  17.564  21.434  1.00  0.00     0.044 A 
HETATM   14  C24 UNL     1      37.168  16.629  20.530  1.00  0.00     0.131 A 
HETATM   15  F1  UNL     1      37.530  15.315  20.591  1.00  0.00    -0.205 F 
HETATM   16  C25 UNL     1      36.281  17.012  19.537  1.00  0.00     0.087 A 
HETATM   17  C27 UNL     1      35.937  18.342  19.502  1.00  0.00     0.037 A 
BRANCH  16  18
HETATM   18  C26 UNL     1      35.746  16.007  18.572  1.00  0.00     0.420 C 
HETATM   19  F2  UNL     1      34.728  15.287  19.143  1.00  0.00    -0.166 F 
HETATM   20  F3  UNL     1      36.749  15.171  18.148  1.00  0.00    -0.166 F 
HETATM   21  F4  UNL     1      35.284  16.727  17.473  1.00  0.00    -0.166 F 
ENDBRANCH  16  18
ENDBRANCH   9  11
ENDBRANCH   6   8
BRANCH   3  22
HETATM   22  C9  UNL     1      36.531  26.024  22.446  1.00  0.00    -0.049 C 
BRANCH  22  23
HETATM   23  C10 UNL     1      35.972  27.061  22.678  1.00  0.00    -0.100 C 
BRANCH  23  24
HETATM   24  C11 UNL     1      35.289  28.339  22.962  1.00  0.00     0.095 C 
BRANCH  24  25
HETATM   25  C12 UNL     1      36.191  29.280  23.705  1.00  0.00     0.017 C 
BRANCH  25  26
HETATM   26  C13 UNL     1      37.598  29.187  23.210  1.00  0.00    -0.014 C 
HETATM   27  C14 UNL     1      38.642  29.597  24.193  1.00  0.00     0.005 C 
HETATM   28  C15 UNL     1      38.539  31.054  24.586  1.00  0.00     0.000 C 
HETATM   29  C16 UNL     1      38.446  31.958  23.384  1.00  0.00     0.000 C 
HETATM   30  C17 UNL     1      37.573  31.449  22.288  1.00  0.00     0.000 C 
HETATM   31  C18 UNL     1      37.816  30.001  21.952  1.00  0.00     0.005 C 
ENDBRANCH  25  26
ENDBRANCH  24  25
ENDBRANCH  23  24
ENDBRANCH  22  23
ENDBRANCH   3  22
BRANCH   1  32
HETATM   32  O4  UNL     1      40.572  23.325  22.585  1.00  0.00    -0.303 OA
BRANCH  32  33
HETATM   33  C5  UNL     1      41.445  24.289  22.034  1.00  0.00     0.117 A 
HETATM   34  S1  UNL     1      41.735  24.693  20.404  1.00  0.00    -0.076 SA
HETATM   35  C4  UNL     1      42.896  25.920  20.630  1.00  0.00     0.070 A 
HETATM   36  C3  UNL     1      43.026  25.978  21.996  1.00  0.00     0.049 A 
HETATM   37  C29 UNL     1      42.275  25.135  22.714  1.00  0.00     0.063 A 
BRANCH  36  38
HETATM   38  C2  UNL     1      43.971  26.952  22.613  1.00  0.00     0.302 C 
HETATM   39  O3  UNL     1      43.846  28.196  22.435  1.00  0.00    -0.259 OA
BRANCH  38  40
HETATM   40  O2  UNL     1      45.020  26.550  23.404  1.00  0.00    -0.226 OA
BRANCH  40  41
HETATM   41  C1  UNL     1      46.310  26.598  22.928  1.00  0.00     0.380 C 
HETATM   42  N1  UNL     1      47.382  26.582  23.859  1.00  0.00    -0.032 NA
HETATM   43  O1  UNL     1      46.569  26.657  21.714  1.00  0.00    -0.242 OA
ENDBRANCH  40  41
ENDBRANCH  38  40
ENDBRANCH  36  38
ENDBRANCH  32  33
ENDBRANCH   1  32
TORSDOF 13
ENDMDL
MODEL 4
REMARK VINA RESULT: -9.351326399      3.603      6.424
REMARK  13 active torsions:
REMARK  status: ('A' for Active; 'I' for Inactive)
REMARK    1  A    between atoms: C1_2  and  O2_4 
REMARK    2  A    between atoms: O2_4  and  C2_5 
REMARK    3  A    between atoms: C2_5  and  C3_7 
REMARK    4  A    between atoms: C5_10  and  O4_11 
REMARK    5  A    between atoms: O4_11  and  C6_12 
REMARK    6  A    between atoms: C8_14  and  C9_15 
REMARK    7  A    between atoms: C9_15  and  C10_16 
REMARK    8  A    between atoms: C10_16  and  C11_17 
REMARK    9  A    between atoms: C11_17  and  C12_18 
REMARK   10  A    between atoms: C12_18  and  C13_19 
REMARK   11  A    between atoms: C19_27  and  N3_28 
REMARK       I    between atoms: N3_28  and  C20_29 
REMARK   12  A    between atoms: C20_29  and  C21_31 
REMARK   13  A    between atoms: C25_36  and  C26_37 
ROOT
HETATM    1  C6  UNL     1      38.218  23.904  22.013  1.00  0.00     0.084 A 
HETATM    2  C7  UNL     1      39.129  24.374  21.101  1.00  0.00     0.076 A 
HETATM    3  C8  UNL     1      39.248  23.720  19.899  1.00  0.00     0.091 A 
HETATM    4  N2  UNL     1      38.510  22.655  19.604  1.00  0.00    -0.324 N 
ATOM      5  H2  UNL     1      38.626  22.194  18.701  1.00  0.00     0.169 HD
HETATM    6  C19 UNL     1      37.595  22.172  20.503  1.00  0.00     0.186 A 
HETATM    7  C28 UNL     1      37.444  22.810  21.738  1.00  0.00     0.101 A 
ENDROOT
BRANCH   6   8
HETATM    8  N3  UNL     1      36.929  21.207  20.227  1.00  0.00    -0.348 NA
HETATM    9  C20 UNL     1      36.207  20.169  19.908  1.00  0.00     0.328 C 
HETATM   10  O5  UNL     1      35.080  20.290  19.299  1.00  0.00    -0.251 OA
BRANCH   9  11
HETATM   11  C21 UNL     1      36.612  18.793  20.213  1.00  0.00     0.047 A 
HETATM   12  C22 UNL     1      37.386  18.512  21.318  1.00  0.00     0.021 A 
HETATM   13  C23 UNL     1      37.746  17.216  21.578  1.00  0.00     0.044 A 
HETATM   14  C24 UNL     1      37.335  16.183  20.735  1.00  0.00     0.131 A 
HETATM   15  F1  UNL     1      37.684  14.887  20.977  1.00  0.00    -0.205 F 
HETATM   16  C25 UNL     1      36.557  16.448  19.620  1.00  0.00     0.087 A 
HETATM   17  C27 UNL     1      36.223  17.763  19.403  1.00  0.00     0.037 A 
BRANCH  16  18
HETATM   18  C26 UNL     1      36.119  15.339  18.722  1.00  0.00     0.420 C 
HETATM   19  F2  UNL     1      35.093  14.633  19.294  1.00  0.00    -0.166 F 
HETATM   20  F3  UNL     1      37.176  14.510  18.439  1.00  0.00    -0.166 F 
HETATM   21  F4  UNL     1      35.704  15.938  17.534  1.00  0.00    -0.166 F 
ENDBRANCH  16  18
ENDBRANCH   9  11
ENDBRANCH   6   8
BRANCH   3  22
HETATM   22  C9  UNL     1      40.222  24.232  18.939  1.00  0.00    -0.049 C 
BRANCH  22  23
HETATM   23  C10 UNL     1      41.013  24.659  18.142  1.00  0.00    -0.100 C 
BRANCH  23  24
HETATM   24  C11 UNL     1      41.985  25.179  17.160  1.00  0.00     0.095 C 
BRANCH  24  25
HETATM   25  C12 UNL     1      41.333  25.421  15.830  1.00  0.00     0.017 C 
BRANCH  25  26
HETATM   26  C13 UNL     1      40.887  24.139  15.205  1.00  0.00    -0.014 C 
HETATM   27  C14 UNL     1      41.985  23.196  14.846  1.00  0.00     0.005 C 
HETATM   28  C15 UNL     1      42.918  23.753  13.795  1.00  0.00     0.000 C 
HETATM   29  C16 UNL     1      42.169  24.298  12.605  1.00  0.00     0.000 C 
HETATM   30  C17 UNL     1      40.934  25.060  12.944  1.00  0.00     0.000 C 
HETATM   31  C18 UNL     1      40.061  24.369  13.957  1.00  0.00     0.005 C 
ENDBRANCH  25  26
ENDBRANCH  24  25
ENDBRANCH  23  24
ENDBRANCH  22  23
ENDBRANCH   3  22
BRANCH   1  32
HETATM   32  O4  UNL     1      38.027  24.508  23.268  1.00  0.00    -0.303 OA
BRANCH  32  33
HETATM   33  C5  UNL     1      38.075  25.920  23.259  1.00  0.00     0.117 A 
HETATM   34  S1  UNL     1      39.391  26.969  23.525  1.00  0.00    -0.076 SA
HETATM   35  C4  UNL     1      38.591  28.462  23.336  1.00  0.00     0.070 A 
HETATM   36  C3  UNL     1      37.297  28.090  23.066  1.00  0.00     0.049 A 
HETATM   37  C29 UNL     1      37.037  26.778  23.028  1.00  0.00     0.063 A 
BRANCH  36  38
HETATM   38  C2  UNL     1      36.256  29.132  22.832  1.00  0.00     0.302 C 
HETATM   39  O3  UNL     1      35.418  29.438  23.726  1.00  0.00    -0.259 OA
BRANCH  38  40
HETATM   40  O2  UNL     1      36.155  29.808  21.641  1.00  0.00    -0.226 OA
BRANCH  40  41
HETATM   41  C1  UNL     1      36.551  31.123  21.551  1.00  0.00     0.380 C 
HETATM   42  N1  UNL     1      35.814  32.001  20.712  1.00  0.00    -0.032 NA
HETATM   43  O1  UNL     1      37.529  31.567  22.175  1.00  0.00    -0.242 OA
ENDBRANCH  40  41
ENDBRANCH  38  40
ENDBRANCH  36  38
ENDBRANCH  32  33
ENDBRANCH   1  32
TORSDOF 13
ENDMDL
MODEL 5
REMARK VINA RESULT: -9.338515838      1.936      2.549
REMARK  13 active torsions:
REMARK  status: ('A' for Active; 'I' for Inactive)
REMARK    1  A    between atoms: C1_2  and  O2_4 
REMARK    2  A    between atoms: O2_4  and  C2_5 
REMARK    3  A    between atoms: C2_5  and  C3_7 
REMARK    4  A    between atoms: C5_10  and  O4_11 
REMARK    5  A    between atoms: O4_11  and  C6_12 
REMARK    6  A    between atoms: C8_14  and  C9_15 
REMARK    7  A    between atoms: C9_15  and  C10_16 
REMARK    8  A    between atoms: C10_16  and  C11_17 
REMARK    9  A    between atoms: C11_17  and  C12_18 
REMARK   10  A    between atoms: C12_18  and  C13_19 
REMARK   11  A    between atoms: C19_27  and  N3_28 
REMARK       I    between atoms: N3_28  and  C20_29 
REMARK   12  A    between atoms: C20_29  and  C21_31 
REMARK   13  A    between atoms: C25_36  and  C26_37 
ROOT
HETATM    1  C6  UNL     1      39.199  23.411  22.338  1.00  0.00     0.084 A 
HETATM    2  C7  UNL     1      38.546  24.597  22.564  1.00  0.00     0.076 A 
HETATM    3  C8  UNL     1      37.232  24.704  22.181  1.00  0.00     0.091 A 
HETATM    4  N2  UNL     1      36.586  23.697  21.601  1.00  0.00    -0.324 N 
ATOM      5  H2  UNL     1      35.610  23.812  21.328  1.00  0.00     0.169 HD
HETATM    6  C19 UNL     1      37.222  22.505  21.368  1.00  0.00     0.186 A 
HETATM    7  C28 UNL     1      38.561  22.357  21.744  1.00  0.00     0.101 A 
ENDROOT
BRANCH   6   8
HETATM    8  N3  UNL     1      36.629  21.596  20.844  1.00  0.00    -0.348 NA
HETATM    9  C20 UNL     1      35.989  20.624  20.259  1.00  0.00     0.328 C 
HETATM   10  O5  UNL     1      34.934  20.836  19.553  1.00  0.00    -0.251 OA
BRANCH   9  11
HETATM   11  C21 UNL     1      36.409  19.223  20.353  1.00  0.00     0.047 A 
HETATM   12  C22 UNL     1      37.291  18.813  21.329  1.00  0.00     0.021 A 
HETATM   13  C23 UNL     1      37.663  17.496  21.393  1.00  0.00     0.044 A 
HETATM   14  C24 UNL     1      37.156  16.571  20.480  1.00  0.00     0.131 A 
HETATM   15  F1  UNL     1      37.516  15.255  20.528  1.00  0.00    -0.205 F 
HETATM   16  C25 UNL     1      36.268  16.965  19.493  1.00  0.00     0.087 A 
HETATM   17  C27 UNL     1      35.927  18.296  19.471  1.00  0.00     0.037 A 
BRANCH  16  18
HETATM   18  C26 UNL     1      35.729  15.971  18.520  1.00  0.00     0.420 C 
HETATM   19  F2  UNL     1      34.726  15.232  19.093  1.00  0.00    -0.166 F 
HETATM   20  F3  UNL     1      36.733  15.152  18.068  1.00  0.00    -0.166 F 
HETATM   21  F4  UNL     1      35.244  16.704  17.439  1.00  0.00    -0.166 F 
ENDBRANCH  16  18
ENDBRANCH   9  11
ENDBRANCH   6   8
BRANCH   3  22
HETATM   22  C9  UNL     1      36.551  25.972  22.427  1.00  0.00    -0.049 C 
BRANCH  22  23
HETATM   23  C10 UNL     1      36.005  27.022  22.632  1.00  0.00    -0.100 C 
BRANCH  23  24
HETATM   24  C11 UNL     1      35.333  28.312  22.888  1.00  0.00     0.095 C 
BRANCH  24  25
HETATM   25  C12 UNL     1      36.195  29.213  23.722  1.00  0.00     0.017 C 
BRANCH  25  26
HETATM   26  C13 UNL     1      37.170  29.965  22.876  1.00  0.00    -0.014 C 
HETATM   27  C14 UNL     1      38.277  29.144  22.306  1.00  0.00     0.005 C 
HETATM   28  C15 UNL     1      39.173  28.548  23.368  1.00  0.00     0.000 C 
HETATM   29  C16 UNL     1      39.632  29.581  24.365  1.00  0.00     0.000 C 
HETATM   30  C17 UNL     1      38.583  30.557  24.777  1.00  0.00     0.000 C 
HETATM   31  C18 UNL     1      37.802  31.122  23.621  1.00  0.00     0.005 C 
ENDBRANCH  25  26
ENDBRANCH  24  25
ENDBRANCH  23  24
ENDBRANCH  22  23
ENDBRANCH   3  22
BRANCH   1  32
HETATM   32  O4  UNL     1      40.542  23.210  22.697  1.00  0.00    -0.303 OA
BRANCH  32  33
HETATM   33  C5  UNL     1      41.309  24.391  22.811  1.00  0.00     0.117 A 
HETATM   34  S1  UNL     1      41.515  25.434  24.143  1.00  0.00    -0.076 SA
HETATM   35  C4  UNL     1      42.567  26.573  23.436  1.00  0.00     0.070 A 
HETATM   36  C3  UNL     1      42.729  26.097  22.159  1.00  0.00     0.049 A 
HETATM   37  C29 UNL     1      42.078  24.972  21.842  1.00  0.00     0.063 A 
BRANCH  36  38
HETATM   38  C2  UNL     1      43.600  26.830  21.195  1.00  0.00     0.302 C 
HETATM   39  O3  UNL     1      44.709  26.357  20.819  1.00  0.00    -0.259 OA
BRANCH  38  40
HETATM   40  O2  UNL     1      43.244  28.048  20.670  1.00  0.00    -0.226 OA
BRANCH  40  41
HETATM   41  C1  UNL     1      42.156  28.156  19.836  1.00  0.00     0.380 C 
HETATM   42  N1  UNL     1      41.161  29.125  20.135  1.00  0.00    -0.032 NA
HETATM   43  O1  UNL     1      42.012  27.436  18.834  1.00  0.00    -0.242 OA
ENDBRANCH  40  41
ENDBRANCH  38  40
ENDBRANCH  36  38
ENDBRANCH  32  33
ENDBRANCH   1  32
TORSDOF 13
ENDMDL
