MODEL 1
REMARK VINA RESULT: -9.187275253      0.000      0.000
REMARK  8 active torsions:
REMARK  status: ('A' for Active; 'I' for Inactive)
REMARK    1  A    between atoms: C2_2  and  N1_4 
REMARK    2  A    between atoms: N1_4  and  C4_6 
REMARK    3  A    between atoms: C7_10  and  N2_11 
REMARK       I    between atoms: N2_11  and  C8_13 
REMARK    4  A    between atoms: C8_13  and  C9_15 
REMARK    5  A    between atoms: C11_17  and  C12_18 
REMARK    6  A    between atoms: C15_24  and  N3_25 
REMARK    7  A    between atoms: C23_33  and  N4_34 
REMARK    8  A    between atoms: N5_37  and  C26_38 
ROOT
HETATM    1  C4  UNL     1      42.021  24.195  17.200  1.00  0.00     0.105 A 
HETATM    2  C5  UNL     1      40.749  24.029  16.734  1.00  0.00     0.092 A 
HETATM    3  C6  UNL     1      39.707  24.472  17.478  1.00  0.00     0.150 A 
HETATM    4  F1  UNL     1      38.477  24.293  16.971  1.00  0.00    -0.203 F 
HETATM    5  C7  UNL     1      39.844  25.115  18.752  1.00  0.00     0.118 A 
HETATM    6  C23 UNL     1      41.125  25.251  19.141  1.00  0.00     0.135 A 
HETATM    7  N6  UNL     1      42.213  24.796  18.378  1.00  0.00    -0.327 N 
ATOM      8  H6  UNL     1      43.162  24.927  18.727  1.00  0.00     0.169 HD
ENDROOT
BRANCH   5   9
HETATM    9  N2  UNL     1      38.706  25.322  19.450  1.00  0.00    -0.317 N 
HETATM   10  C8  UNL     1      37.369  25.693  19.455  1.00  0.00     0.258 C 
HETATM   11  O1  UNL     1      36.645  25.979  18.538  1.00  0.00    -0.267 OA
ATOM     12  H2  UNL     1      38.936  25.106  20.420  1.00  0.00     0.169 HD
BRANCH  10  13
HETATM   13  C9  UNL     1      36.743  25.790  20.847  1.00  0.00     0.059 A 
HETATM   14  C10 UNL     1      36.421  27.111  21.181  1.00  0.00     0.035 A 
HETATM   15  C11 UNL     1      36.207  27.456  22.503  1.00  0.00     0.049 A 
HETATM   16  C13 UNL     1      36.321  26.449  23.469  1.00  0.00     0.018 A 
HETATM   17  C14 UNL     1      36.631  25.175  23.089  1.00  0.00     0.031 A 
HETATM   18  C15 UNL     1      36.855  24.797  21.720  1.00  0.00     0.046 A 
BRANCH  15  19
HETATM   19  C12 UNL     1      35.888  28.867  22.817  1.00  0.00     0.417 C 
HETATM   20  F2  UNL     1      36.227  29.736  21.816  1.00  0.00    -0.166 F 
HETATM   21  F3  UNL     1      36.559  29.269  23.977  1.00  0.00    -0.166 F 
HETATM   22  F4  UNL     1      34.530  29.005  23.113  1.00  0.00    -0.166 F 
ENDBRANCH  15  19
BRANCH  18  23
HETATM   23  N3  UNL     1      37.037  23.455  21.508  1.00  0.00    -0.380 N 
HETATM   24  C16 UNL     1      36.059  22.482  21.107  1.00  0.00     0.123 C 
HETATM   25  C17 UNL     1      35.413  21.830  22.317  1.00  0.00     0.024 C 
HETATM   26  C18 UNL     1      36.275  21.240  23.334  1.00  0.00    -0.012 C 
HETATM   27  C19 UNL     1      37.021  22.390  24.052  1.00  0.00     0.011 C 
HETATM   28  C21 UNL     1      37.618  20.713  23.028  1.00  0.00     0.011 C 
HETATM   29  C20 UNL     1      38.167  22.117  23.191  1.00  0.00     0.004 C 
HETATM   30  C22 UNL     1      38.318  22.883  21.893  1.00  0.00     0.127 C 
ENDBRANCH  18  23
ENDBRANCH  10  13
ENDBRANCH   5   9
BRANCH   6  31
HETATM   31  N4  UNL     1      41.536  25.872  20.323  1.00  0.00    -0.362 N 
HETATM   32  C24 UNL     1      41.312  25.484  21.685  1.00  0.00     0.154 C 
HETATM   33  C25 UNL     1      40.571  26.594  22.432  1.00  0.00     0.292 C 
HETATM   34  N5  UNL     1      41.087  27.922  22.096  1.00  0.00     0.096 N 
HETATM   35  C31 UNL     1      42.405  27.816  21.475  1.00  0.00     0.292 C 
HETATM   36  C32 UNL     1      42.257  27.140  20.135  1.00  0.00     0.154 C 
BRANCH  34  37
HETATM   37  C26 UNL     1      41.145  28.748  23.293  1.00  0.00     0.223 C 
HETATM   38  C27 UNL     1      41.798  30.076  23.118  1.00  0.00     0.036 C 
HETATM   39  C28 UNL     1      40.662  31.083  22.993  1.00  0.00     0.002 C 
HETATM   40  C29 UNL     1      39.388  30.315  23.133  1.00  0.00     0.002 C 
HETATM   41  C30 UNL     1      39.795  29.054  23.873  1.00  0.00     0.036 C 
ENDBRANCH  34  37
ENDBRANCH   6  31
BRANCH   1  42
HETATM   42  N1  UNL     1      43.088  23.582  16.470  1.00  0.00    -0.372 N 
ATOM     43  H1  UNL     1      42.962  23.396  15.475  1.00  0.00     0.161 HD
BRANCH  42  44
HETATM   44  C2  UNL     1      44.339  23.219  17.098  1.00  0.00     0.075 C 
HETATM   45  C1  UNL     1      44.264  21.940  17.865  1.00  0.00     0.031 C 
HETATM   46  C3  UNL     1      45.544  23.336  16.203  1.00  0.00     0.031 C 
ENDBRANCH  42  44
ENDBRANCH   1  42
TORSDOF 8
ENDMDL
MODEL 2
REMARK VINA RESULT: -8.987422529      0.909      1.083
REMARK  8 active torsions:
REMARK  status: ('A' for Active; 'I' for Inactive)
REMARK    1  A    between atoms: C2_2  and  N1_4 
REMARK    2  A    between atoms: N1_4  and  C4_6 
REMARK    3  A    between atoms: C7_10  and  N2_11 
REMARK       I    between atoms: N2_11  and  C8_13 
REMARK    4  A    between atoms: C8_13  and  C9_15 
REMARK    5  A    between atoms: C11_17  and  C12_18 
REMARK    6  A    between atoms: C15_24  and  N3_25 
REMARK    7  A    between atoms: C23_33  and  N4_34 
REMARK    8  A    between atoms: N5_37  and  C26_38 
ROOT
HETATM    1  C4  UNL     1      41.748  24.309  16.731  1.00  0.00     0.105 A 
HETATM    2  C5  UNL     1      40.446  24.167  16.348  1.00  0.00     0.092 A 
HETATM    3  C6  UNL     1      39.461  24.580  17.182  1.00  0.00     0.150 A 
HETATM    4  F1  UNL     1      38.198  24.427  16.755  1.00  0.00    -0.203 F 
HETATM    5  C7  UNL     1      39.690  25.166  18.470  1.00  0.00     0.118 A 
HETATM    6  C23 UNL     1      40.996  25.281  18.774  1.00  0.00     0.135 A 
HETATM    7  N6  UNL     1      42.026  24.858  17.917  1.00  0.00    -0.327 N 
ATOM      8  H6  UNL     1      42.998  24.971  18.205  1.00  0.00     0.169 HD
ENDROOT
BRANCH   5   9
HETATM    9  N2  UNL     1      38.605  25.345  19.254  1.00  0.00    -0.317 N 
HETATM   10  C8  UNL     1      37.264  25.686  19.364  1.00  0.00     0.258 C 
HETATM   11  O1  UNL     1      36.466  25.960  18.507  1.00  0.00    -0.267 OA
ATOM     12  H2  UNL     1      38.914  25.130  20.202  1.00  0.00     0.169 HD
BRANCH  10  13
HETATM   13  C9  UNL     1      36.746  25.764  20.801  1.00  0.00     0.059 A 
HETATM   14  C10 UNL     1      36.401  27.073  21.159  1.00  0.00     0.035 A 
HETATM   15  C11 UNL     1      36.279  27.413  22.493  1.00  0.00     0.049 A 
HETATM   16  C13 UNL     1      36.504  26.413  23.447  1.00  0.00     0.018 A 
HETATM   17  C14 UNL     1      36.831  25.151  23.045  1.00  0.00     0.031 A 
HETATM   18  C15 UNL     1      36.962  24.777  21.662  1.00  0.00     0.046 A 
BRANCH  15  19
HETATM   19  C12 UNL     1      35.933  28.812  22.831  1.00  0.00     0.417 C 
HETATM   20  F2  UNL     1      36.260  29.706  21.847  1.00  0.00    -0.166 F 
HETATM   21  F3  UNL     1      36.593  29.205  24.001  1.00  0.00    -0.166 F 
HETATM   22  F4  UNL     1      34.572  28.920  23.126  1.00  0.00    -0.166 F 
ENDBRANCH  15  19
BRANCH  18  23
HETATM   23  N3  UNL     1      37.176  23.443  21.436  1.00  0.00    -0.380 N 
HETATM   24  C16 UNL     1      36.229  22.458  20.992  1.00  0.00     0.123 C 
HETATM   25  C17 UNL     1      35.561  21.775  22.173  1.00  0.00     0.024 C 
HETATM   26  C18 UNL     1      36.405  21.187  23.207  1.00  0.00    -0.012 C 
HETATM   27  C19 UNL     1      37.107  22.339  23.962  1.00  0.00     0.011 C 
HETATM   28  C21 UNL     1      37.766  20.690  22.932  1.00  0.00     0.011 C 
HETATM   29  C20 UNL     1      38.282  22.102  23.131  1.00  0.00     0.004 C 
HETATM   30  C22 UNL     1      38.456  22.890  21.849  1.00  0.00     0.127 C 
ENDBRANCH  18  23
ENDBRANCH  10  13
ENDBRANCH   5   9
BRANCH   6  31
HETATM   31  N4  UNL     1      41.492  25.848  19.950  1.00  0.00    -0.362 N 
HETATM   32  C24 UNL     1      41.465  25.342  21.292  1.00  0.00     0.154 C 
HETATM   33  C25 UNL     1      40.729  26.322  22.207  1.00  0.00     0.292 C 
HETATM   34  N5  UNL     1      41.089  27.712  21.928  1.00  0.00     0.096 N 
HETATM   35  C31 UNL     1      42.328  27.775  21.156  1.00  0.00     0.292 C 
HETATM   36  C32 UNL     1      42.078  27.189  19.789  1.00  0.00     0.154 C 
BRANCH  34  37
HETATM   37  C26 UNL     1      41.221  28.450  23.177  1.00  0.00     0.223 C 
HETATM   38  C27 UNL     1      41.900  29.772  23.065  1.00  0.00     0.036 C 
HETATM   39  C28 UNL     1      40.785  30.810  23.063  1.00  0.00     0.002 C 
HETATM   40  C29 UNL     1      39.499  30.063  23.207  1.00  0.00     0.002 C 
HETATM   41  C30 UNL     1      39.906  28.744  23.837  1.00  0.00     0.036 C 
ENDBRANCH  34  37
ENDBRANCH   6  31
BRANCH   1  42
HETATM   42  N1  UNL     1      42.758  23.727  15.902  1.00  0.00    -0.372 N 
ATOM     43  H1  UNL     1      43.447  23.105  16.326  1.00  0.00     0.161 HD
BRANCH  42  44
HETATM   44  C2  UNL     1      42.833  23.991  14.482  1.00  0.00     0.075 C 
HETATM   45  C1  UNL     1      43.287  25.378  14.163  1.00  0.00     0.031 C 
HETATM   46  C3  UNL     1      43.518  22.915  13.682  1.00  0.00     0.031 C 
ENDBRANCH  42  44
ENDBRANCH   1  42
TORSDOF 8
ENDMDL
MODEL 3
REMARK VINA RESULT: -8.856599371      1.149      1.374
REMARK  8 active torsions:
REMARK  status: ('A' for Active; 'I' for Inactive)
REMARK    1  A    between atoms: C2_2  and  N1_4 
REMARK    2  A    between atoms: N1_4  and  C4_6 
REMARK    3  A    between atoms: C7_10  and  N2_11 
REMARK       I    between atoms: N2_11  and  C8_13 
REMARK    4  A    between atoms: C8_13  and  C9_15 
REMARK    5  A    between atoms: C11_17  and  C12_18 
REMARK    6  A    between atoms: C15_24  and  N3_25 
REMARK    7  A    between atoms: C23_33  and  N4_34 
REMARK    8  A    between atoms: N5_37  and  C26_38 
ROOT
HETATM    1  C4  UNL     1      42.625  24.469  18.163  1.00  0.00     0.105 A 
HETATM    2  C5  UNL     1      41.484  23.839  17.762  1.00  0.00     0.092 A 
HETATM    3  C6  UNL     1      40.291  24.244  18.265  1.00  0.00     0.150 A 
HETATM    4  F1  UNL     1      39.197  23.598  17.831  1.00  0.00    -0.203 F 
HETATM    5  C7  UNL     1      40.138  25.308  19.212  1.00  0.00     0.118 A 
HETATM    6  C23 UNL     1      41.304  25.885  19.553  1.00  0.00     0.135 A 
HETATM    7  N6  UNL     1      42.545  25.476  19.039  1.00  0.00    -0.327 N 
ATOM      8  H6  UNL     1      43.396  25.952  19.337  1.00  0.00     0.169 HD
ENDROOT
BRANCH   5   9
HETATM    9  N2  UNL     1      38.911  25.459  19.757  1.00  0.00    -0.317 N 
HETATM   10  C8  UNL     1      37.554  25.695  19.579  1.00  0.00     0.258 C 
HETATM   11  O1  UNL     1      36.923  25.829  18.564  1.00  0.00    -0.267 OA
ATOM     12  H2  UNL     1      39.042  25.350  20.763  1.00  0.00     0.169 HD
BRANCH  10  13
HETATM   13  C9  UNL     1      36.761  25.847  20.877  1.00  0.00     0.059 A 
HETATM   14  C10 UNL     1      36.525  27.192  21.187  1.00  0.00     0.035 A 
HETATM   15  C11 UNL     1      36.171  27.551  22.474  1.00  0.00     0.049 A 
HETATM   16  C13 UNL     1      36.058  26.535  23.430  1.00  0.00     0.018 A 
HETATM   17  C14 UNL     1      36.293  25.238  23.074  1.00  0.00     0.031 A 
HETATM   18  C15 UNL     1      36.660  24.844  21.741  1.00  0.00     0.046 A 
BRANCH  15  19
HETATM   19  C12 UNL     1      35.950  28.985  22.767  1.00  0.00     0.417 C 
HETATM   20  F2  UNL     1      35.962  29.776  21.650  1.00  0.00    -0.166 F 
HETATM   21  F3  UNL     1      36.936  29.461  23.638  1.00  0.00    -0.166 F 
HETATM   22  F4  UNL     1      34.743  29.163  23.449  1.00  0.00    -0.166 F 
ENDBRANCH  15  19
BRANCH  18  23
HETATM   23  N3  UNL     1      36.740  23.492  21.533  1.00  0.00    -0.380 N 
HETATM   24  C16 UNL     1      35.666  22.572  21.276  1.00  0.00     0.123 C 
HETATM   25  C17 UNL     1      35.145  21.972  22.570  1.00  0.00     0.024 C 
HETATM   26  C18 UNL     1      36.096  21.346  23.481  1.00  0.00    -0.012 C 
HETATM   27  C19 UNL     1      36.989  22.459  24.077  1.00  0.00     0.011 C 
HETATM   28  C21 UNL     1      37.357  20.740  23.017  1.00  0.00     0.011 C 
HETATM   29  C20 UNL     1      37.999  22.112  23.083  1.00  0.00     0.004 C 
HETATM   30  C22 UNL     1      38.026  22.853  21.762  1.00  0.00     0.127 C 
ENDBRANCH  18  23
ENDBRANCH  10  13
ENDBRANCH   5   9
BRANCH   6  31
HETATM   31  N4  UNL     1      41.431  26.966  20.431  1.00  0.00    -0.362 N 
HETATM   32  C24 UNL     1      41.010  27.088  21.796  1.00  0.00     0.154 C 
HETATM   33  C25 UNL     1      40.036  28.258  21.941  1.00  0.00     0.292 C 
HETATM   34  N5  UNL     1      40.460  29.427  21.170  1.00  0.00     0.096 N 
HETATM   35  C31 UNL     1      41.871  29.316  20.808  1.00  0.00     0.292 C 
HETATM   36  C32 UNL     1      42.036  28.171  19.842  1.00  0.00     0.154 C 
BRANCH  34  37
HETATM   37  C26 UNL     1      40.217  30.641  21.936  1.00  0.00     0.223 C 
HETATM   38  C27 UNL     1      41.132  31.778  21.633  1.00  0.00     0.036 C 
HETATM   39  C28 UNL     1      40.347  32.707  20.716  1.00  0.00     0.002 C 
HETATM   40  C29 UNL     1      38.993  32.100  20.543  1.00  0.00     0.002 C 
HETATM   41  C30 UNL     1      38.835  31.196  21.752  1.00  0.00     0.036 C 
ENDBRANCH  34  37
ENDBRANCH   6  31
BRANCH   1  42
HETATM   42  N1  UNL     1      43.877  23.923  17.737  1.00  0.00    -0.372 N 
ATOM     43  H1  UNL     1      44.342  24.328  16.924  1.00  0.00     0.161 HD
BRANCH  42  44
HETATM   44  C2  UNL     1      44.505  22.816  18.424  1.00  0.00     0.075 C 
HETATM   45  C1  UNL     1      45.165  21.846  17.498  1.00  0.00     0.031 C 
HETATM   46  C3  UNL     1      45.345  23.211  19.609  1.00  0.00     0.031 C 
ENDBRANCH  42  44
ENDBRANCH   1  42
TORSDOF 8
ENDMDL
MODEL 4
REMARK VINA RESULT: -8.774782103      1.522      1.954
REMARK  8 active torsions:
REMARK  status: ('A' for Active; 'I' for Inactive)
REMARK    1  A    between atoms: C2_2  and  N1_4 
REMARK    2  A    between atoms: N1_4  and  C4_6 
REMARK    3  A    between atoms: C7_10  and  N2_11 
REMARK       I    between atoms: N2_11  and  C8_13 
REMARK    4  A    between atoms: C8_13  and  C9_15 
REMARK    5  A    between atoms: C11_17  and  C12_18 
REMARK    6  A    between atoms: C15_24  and  N3_25 
REMARK    7  A    between atoms: C23_33  and  N4_34 
REMARK    8  A    between atoms: N5_37  and  C26_38 
ROOT
HETATM    1  C4  UNL     1      43.211  24.816  18.174  1.00  0.00     0.105 A 
HETATM    2  C5  UNL     1      42.080  24.055  18.228  1.00  0.00     0.092 A 
HETATM    3  C6  UNL     1      41.030  24.480  18.972  1.00  0.00     0.150 A 
HETATM    4  F1  UNL     1      39.937  23.700  18.984  1.00  0.00    -0.203 F 
HETATM    5  C7  UNL     1      41.020  25.698  19.727  1.00  0.00     0.118 A 
HETATM    6  C23 UNL     1      42.165  26.397  19.618  1.00  0.00     0.135 A 
HETATM    7  N6  UNL     1      43.259  25.967  18.850  1.00  0.00    -0.327 N 
ATOM      8  H6  UNL     1      44.101  26.541  18.808  1.00  0.00     0.169 HD
ENDROOT
BRANCH   5   9
HETATM    9  N2  UNL     1      39.976  25.882  20.564  1.00  0.00    -0.317 N 
HETATM   10  C8  UNL     1      39.504  25.994  21.865  1.00  0.00     0.258 C 
HETATM   11  O1  UNL     1      40.107  25.993  22.906  1.00  0.00    -0.267 OA
ATOM     12  H2  UNL     1      39.158  25.986  19.964  1.00  0.00     0.169 HD
BRANCH  10  13
HETATM   13  C9  UNL     1      37.982  26.091  21.981  1.00  0.00     0.059 A 
HETATM   14  C10 UNL     1      37.565  27.395  22.274  1.00  0.00     0.035 A 
HETATM   15  C11 UNL     1      36.300  27.616  22.784  1.00  0.00     0.049 A 
HETATM   16  C13 UNL     1      35.471  26.506  22.985  1.00  0.00     0.018 A 
HETATM   17  C14 UNL     1      35.924  25.255  22.676  1.00  0.00     0.031 A 
HETATM   18  C15 UNL     1      37.236  25.005  22.144  1.00  0.00     0.046 A 
BRANCH  15  19
HETATM   19  C12 UNL     1      35.904  29.007  23.099  1.00  0.00     0.417 C 
HETATM   20  F2  UNL     1      36.512  29.504  24.220  1.00  0.00    -0.166 F 
HETATM   21  F3  UNL     1      34.520  29.085  23.293  1.00  0.00    -0.166 F 
HETATM   22  F4  UNL     1      36.169  29.848  22.015  1.00  0.00    -0.166 F 
ENDBRANCH  15  19
BRANCH  18  23
HETATM   23  N3  UNL     1      37.480  23.707  21.780  1.00  0.00    -0.380 N 
HETATM   24  C16 UNL     1      36.659  22.845  20.975  1.00  0.00     0.123 C 
HETATM   25  C17 UNL     1      35.709  22.037  21.842  1.00  0.00     0.024 C 
HETATM   26  C18 UNL     1      36.260  21.265  22.949  1.00  0.00    -0.012 C 
HETATM   27  C19 UNL     1      36.769  22.262  24.018  1.00  0.00     0.011 C 
HETATM   28  C21 UNL     1      37.639  20.744  22.944  1.00  0.00     0.011 C 
HETATM   29  C20 UNL     1      38.110  22.084  23.472  1.00  0.00     0.004 C 
HETATM   30  C22 UNL     1      38.609  23.036  22.405  1.00  0.00     0.127 C 
ENDBRANCH  18  23
ENDBRANCH  10  13
ENDBRANCH   5   9
BRANCH   6  31
HETATM   31  N4  UNL     1      42.403  27.633  20.225  1.00  0.00    -0.362 N 
HETATM   32  C24 UNL     1      43.034  27.930  21.478  1.00  0.00     0.154 C 
HETATM   33  C25 UNL     1      42.069  28.698  22.382  1.00  0.00     0.292 C 
HETATM   34  N5  UNL     1      41.321  29.719  21.648  1.00  0.00     0.096 N 
HETATM   35  C31 UNL     1      41.972  30.011  20.373  1.00  0.00     0.292 C 
HETATM   36  C32 UNL     1      41.875  28.793  19.490  1.00  0.00     0.154 C 
BRANCH  34  37
HETATM   37  C26 UNL     1      41.206  30.925  22.457  1.00  0.00     0.223 C 
HETATM   38  C27 UNL     1      40.054  31.808  22.119  1.00  0.00     0.036 C 
HETATM   39  C28 UNL     1      38.986  31.515  23.165  1.00  0.00     0.002 C 
HETATM   40  C29 UNL     1      39.562  30.498  24.096  1.00  0.00     0.002 C 
HETATM   41  C30 UNL     1      41.063  30.647  23.925  1.00  0.00     0.036 C 
ENDBRANCH  34  37
ENDBRANCH   6  31
BRANCH   1  42
HETATM   42  N1  UNL     1      44.355  24.270  17.509  1.00  0.00    -0.372 N 
ATOM     43  H1  UNL     1      44.619  24.641  16.596  1.00  0.00     0.161 HD
BRANCH  42  44
HETATM   44  C2  UNL     1      45.148  23.210  18.091  1.00  0.00     0.075 C 
HETATM   45  C1  UNL     1      45.384  23.386  19.556  1.00  0.00     0.031 C 
HETATM   46  C3  UNL     1      44.722  21.821  17.694  1.00  0.00     0.031 C 
ENDBRANCH  42  44
ENDBRANCH   1  42
TORSDOF 8
ENDMDL
MODEL 5
REMARK VINA RESULT: -8.672934390      2.626      3.917
REMARK  8 active torsions:
REMARK  status: ('A' for Active; 'I' for Inactive)
REMARK    1  A    between atoms: C2_2  and  N1_4 
REMARK    2  A    between atoms: N1_4  and  C4_6 
REMARK    3  A    between atoms: C7_10  and  N2_11 
REMARK       I    between atoms: N2_11  and  C8_13 
REMARK    4  A    between atoms: C8_13  and  C9_15 
REMARK    5  A    between atoms: C11_17  and  C12_18 
REMARK    6  A    between atoms: C15_24  and  N3_25 
REMARK    7  A    between atoms: C23_33  and  N4_34 
REMARK    8  A    between atoms: N5_37  and  C26_38 
ROOT
HETATM    1  C4  UNL     1      43.958  26.371  22.451  1.00  0.00     0.105 A 
HETATM    2  C5  UNL     1      43.366  25.274  21.897  1.00  0.00     0.092 A 
HETATM    3  C6  UNL     1      42.045  25.314  21.596  1.00  0.00     0.150 A 
HETATM    4  F1  UNL     1      41.513  24.213  21.043  1.00  0.00    -0.203 F 
HETATM    5  C7  UNL     1      41.202  26.450  21.825  1.00  0.00     0.118 A 
HETATM    6  C23 UNL     1      41.857  27.495  22.365  1.00  0.00     0.135 A 
HETATM    7  N6  UNL     1      43.225  27.465  22.681  1.00  0.00    -0.327 N 
ATOM      8  H6  UNL     1      43.665  28.289  23.090  1.00  0.00     0.169 HD
ENDROOT
BRANCH   5   9
HETATM    9  N2  UNL     1      39.876  26.264  21.649  1.00  0.00    -0.317 N 
HETATM   10  C8  UNL     1      38.820  25.993  20.790  1.00  0.00     0.258 C 
HETATM   11  O1  UNL     1      38.829  25.735  19.616  1.00  0.00    -0.267 OA
ATOM     12  H2  UNL     1      39.459  26.374  22.573  1.00  0.00     0.169 HD
BRANCH  10  13
HETATM   13  C9  UNL     1      37.437  26.079  21.439  1.00  0.00     0.059 A 
HETATM   14  C10 UNL     1      37.087  27.400  21.744  1.00  0.00     0.035 A 
HETATM   15  C11 UNL     1      36.078  27.653  22.654  1.00  0.00     0.049 A 
HETATM   16  C13 UNL     1      35.434  26.557  23.239  1.00  0.00     0.018 A 
HETATM   17  C14 UNL     1      35.809  25.288  22.902  1.00  0.00     0.031 A 
HETATM   18  C15 UNL     1      36.855  25.005  21.957  1.00  0.00     0.046 A 
BRANCH  15  19
HETATM   19  C12 UNL     1      35.752  29.063  22.964  1.00  0.00     0.417 C 
HETATM   20  F2  UNL     1      34.467  29.241  23.400  1.00  0.00    -0.166 F 
HETATM   21  F3  UNL     1      35.933  29.864  21.831  1.00  0.00    -0.166 F 
HETATM   22  F4  UNL     1      36.641  29.571  23.916  1.00  0.00    -0.166 F 
ENDBRANCH  15  19
BRANCH  18  23
HETATM   23  N3  UNL     1      37.017  23.680  21.648  1.00  0.00    -0.380 N 
HETATM   24  C16 UNL     1      36.031  22.759  21.154  1.00  0.00     0.123 C 
HETATM   25  C17 UNL     1      35.349  22.030  22.299  1.00  0.00     0.024 C 
HETATM   26  C18 UNL     1      36.179  21.348  23.285  1.00  0.00    -0.012 C 
HETATM   27  C19 UNL     1      36.930  22.426  24.102  1.00  0.00     0.011 C 
HETATM   28  C21 UNL     1      37.518  20.820  22.966  1.00  0.00     0.011 C 
HETATM   29  C20 UNL     1      38.088  22.197  23.245  1.00  0.00     0.004 C 
HETATM   30  C22 UNL     1      38.280  23.056  22.012  1.00  0.00     0.127 C 
ENDBRANCH  18  23
ENDBRANCH  10  13
ENDBRANCH   5   9
BRANCH   6  31
HETATM   31  N4  UNL     1      41.278  28.733  22.656  1.00  0.00    -0.362 N 
HETATM   32  C24 UNL     1      41.590  30.033  22.138  1.00  0.00     0.154 C 
HETATM   33  C25 UNL     1      41.982  30.972  23.280  1.00  0.00     0.292 C 
HETATM   34  N5  UNL     1      41.116  30.808  24.449  1.00  0.00     0.096 N 
HETATM   35  C31 UNL     1      39.887  30.111  24.080  1.00  0.00     0.292 C 
HETATM   36  C32 UNL     1      40.230  28.695  23.689  1.00  0.00     0.154 C 
BRANCH  34  37
HETATM   37  C26 UNL     1      40.817  32.110  25.029  1.00  0.00     0.223 C 
HETATM   38  C27 UNL     1      39.886  32.087  26.193  1.00  0.00     0.036 C 
HETATM   39  C28 UNL     1      40.767  32.211  27.430  1.00  0.00     0.002 C 
HETATM   40  C29 UNL     1      42.175  32.335  26.946  1.00  0.00     0.002 C 
HETATM   41  C30 UNL     1      42.034  32.837  25.520  1.00  0.00     0.036 C 
ENDBRANCH  34  37
ENDBRANCH   6  31
BRANCH   1  42
HETATM   42  N1  UNL     1      45.311  26.249  22.900  1.00  0.00    -0.372 N 
ATOM     43  H1  UNL     1      45.672  25.323  23.133  1.00  0.00     0.161 HD
BRANCH  42  44
HETATM   44  C2  UNL     1      46.183  27.395  23.033  1.00  0.00     0.075 C 
HETATM   45  C1  UNL     1      47.265  27.198  24.044  1.00  0.00     0.031 C 
HETATM   46  C3  UNL     1      46.652  27.977  21.726  1.00  0.00     0.031 C 
ENDBRANCH  42  44
ENDBRANCH   1  42
TORSDOF 8
ENDMDL
