MODEL 1
REMARK VINA RESULT: -4.643151032      0.000      0.000
REMARK  2 active torsions:
REMARK  status: ('A' for Active; 'I' for Inactive)
REMARK    1  A    between atoms: C2_2  and  C3_4 
REMARK    2  A    between atoms: C7_8  and  C8_9 
ROOT
HETATM    1  C3  UNL     1      19.381  11.891  18.146  1.00  0.00     0.053 C 
HETATM    2  C4  UNL     1      18.793  10.670  18.807  1.00  0.00     0.027 C 
HETATM    3  C5  UNL     1      19.149  13.141  19.007  1.00  0.00     0.084 C 
HETATM    4  C6  UNL     1      20.298  13.995  18.528  1.00  0.00     0.055 C 
HETATM    5  C7  UNL     1      20.505  15.264  18.866  1.00  0.00     0.116 C 
HETATM    6  O4  UNL     1      21.110  13.240  17.677  1.00  0.00    -0.344 OA
HETATM    7  C9  UNL     1      20.869  11.888  18.098  1.00  0.00     0.074 C 
HETATM    8  C10 UNL     1      21.475  11.806  19.488  1.00  0.00     0.047 C 
HETATM    9  C11 UNL     1      21.513  10.872  17.236  1.00  0.00     0.047 C 
ENDROOT
BRANCH   1  10
HETATM   10  C2  UNL     1      18.808  12.164  16.814  1.00  0.00     0.134 C 
HETATM   11  C1  UNL     1      17.680  13.112  16.618  1.00  0.00     0.091 C 
HETATM   12  O1  UNL     1      19.235  11.622  15.810  1.00  0.00    -0.297 OA
ENDBRANCH   1  10
BRANCH   5  13
HETATM   13  C8  UNL     1      19.602  15.953  19.757  1.00  0.00     0.201 C 
HETATM   14  O2  UNL     1      18.654  16.603  19.279  1.00  0.00    -0.644 OA
HETATM   15  O3  UNL     1      19.732  15.935  21.138  1.00  0.00    -0.644 OA
ENDBRANCH   5  13
TORSDOF 2
ENDMDL
MODEL 2
REMARK VINA RESULT: -4.630710203      2.219      3.607
REMARK  2 active torsions:
REMARK  status: ('A' for Active; 'I' for Inactive)
REMARK    1  A    between atoms: C2_2  and  C3_4 
REMARK    2  A    between atoms: C7_8  and  C8_9 
ROOT
HETATM    1  C3  UNL     1      20.670  11.045  16.796  1.00  0.00     0.053 C 
HETATM    2  C4  UNL     1      21.913  10.940  15.949  1.00  0.00     0.027 C 
HETATM    3  C5  UNL     1      20.038  12.438  16.666  1.00  0.00     0.084 C 
HETATM    4  C6  UNL     1      18.608  12.101  17.011  1.00  0.00     0.055 C 
HETATM    5  C7  UNL     1      17.627  12.984  17.173  1.00  0.00     0.116 C 
HETATM    6  O4  UNL     1      18.477  10.714  17.131  1.00  0.00    -0.344 OA
HETATM    7  C9  UNL     1      19.540  10.207  16.309  1.00  0.00     0.074 C 
HETATM    8  C10 UNL     1      19.139  10.575  14.892  1.00  0.00     0.047 C 
HETATM    9  C11 UNL     1      19.708   8.738  16.391  1.00  0.00     0.047 C 
ENDROOT
BRANCH   1  10
HETATM   10  C2  UNL     1      20.924  10.812  18.231  1.00  0.00     0.134 C 
HETATM   11  C1  UNL     1      21.141  11.930  19.187  1.00  0.00     0.091 C 
HETATM   12  O1  UNL     1      20.966   9.688  18.699  1.00  0.00    -0.297 OA
ENDBRANCH   1  10
BRANCH   5  13
HETATM   13  C8  UNL     1      17.870  14.400  17.024  1.00  0.00     0.201 C 
HETATM   14  O2  UNL     1      17.502  14.973  15.982  1.00  0.00    -0.644 OA
HETATM   15  O3  UNL     1      18.500  15.171  17.990  1.00  0.00    -0.644 OA
ENDBRANCH   5  13
TORSDOF 2
ENDMDL
MODEL 3
REMARK VINA RESULT: -4.610233741      2.684      4.844
REMARK  2 active torsions:
REMARK  status: ('A' for Active; 'I' for Inactive)
REMARK    1  A    between atoms: C2_2  and  C3_4 
REMARK    2  A    between atoms: C7_8  and  C8_9 
ROOT
HETATM    1  C3  UNL     1      19.523  11.367  17.223  1.00  0.00     0.053 C 
HETATM    2  C4  UNL     1      20.351  11.390  15.963  1.00  0.00     0.027 C 
HETATM    3  C5  UNL     1      19.112   9.931  17.579  1.00  0.00     0.084 C 
HETATM    4  C6  UNL     1      18.917  10.086  19.068  1.00  0.00     0.055 C 
HETATM    5  C7  UNL     1      18.428   9.153  19.880  1.00  0.00     0.116 C 
HETATM    6  O4  UNL     1      19.331  11.363  19.458  1.00  0.00    -0.344 OA
HETATM    7  C9  UNL     1      20.289  11.725  18.449  1.00  0.00     0.074 C 
HETATM    8  C10 UNL     1      21.458  10.783  18.675  1.00  0.00     0.047 C 
HETATM    9  C11 UNL     1      20.771  13.120  18.559  1.00  0.00     0.047 C 
ENDROOT
BRANCH   1  10
HETATM   10  C2  UNL     1      18.286  12.164  17.119  1.00  0.00     0.134 C 
HETATM   11  C1  UNL     1      18.105  13.213  16.082  1.00  0.00     0.091 C 
HETATM   12  O1  UNL     1      17.350  11.996  17.882  1.00  0.00    -0.297 OA
ENDBRANCH   1  10
BRANCH   5  13
HETATM   13  C8  UNL     1      18.029   7.862  19.373  1.00  0.00     0.201 C 
HETATM   14  O2  UNL     1      16.834   7.665  19.086  1.00  0.00    -0.644 OA
HETATM   15  O3  UNL     1      18.913   6.810  19.185  1.00  0.00    -0.644 OA
ENDBRANCH   5  13
TORSDOF 2
ENDMDL
MODEL 4
REMARK VINA RESULT: -4.560124232      2.701      5.239
REMARK  2 active torsions:
REMARK  status: ('A' for Active; 'I' for Inactive)
REMARK    1  A    between atoms: C2_2  and  C3_4 
REMARK    2  A    between atoms: C7_8  and  C8_9 
ROOT
HETATM    1  C3  UNL     1      19.765  11.549  17.560  1.00  0.00     0.053 C 
HETATM    2  C4  UNL     1      20.480  12.579  18.397  1.00  0.00     0.027 C 
HETATM    3  C5  UNL     1      20.571  11.218  16.296  1.00  0.00     0.084 C 
HETATM    4  C6  UNL     1      20.050   9.828  16.021  1.00  0.00     0.055 C 
HETATM    5  C7  UNL     1      20.331   9.101  14.943  1.00  0.00     0.116 C 
HETATM    6  O4  UNL     1      19.228   9.426  17.077  1.00  0.00    -0.344 OA
HETATM    7  C9  UNL     1      19.709  10.200  18.188  1.00  0.00     0.074 C 
HETATM    8  C10 UNL     1      21.097   9.653  18.465  1.00  0.00     0.047 C 
HETATM    9  C11 UNL     1      18.888  10.060  19.411  1.00  0.00     0.047 C 
ENDROOT
BRANCH   1  10
HETATM   10  C2  UNL     1      18.425  11.987  17.122  1.00  0.00     0.134 C 
HETATM   11  C1  UNL     1      18.130  12.332  15.707  1.00  0.00     0.091 C 
HETATM   12  O1  UNL     1      17.496  12.085  17.904  1.00  0.00    -0.297 OA
ENDBRANCH   1  10
BRANCH   5  13
HETATM   13  C8  UNL     1      21.197   9.613  13.907  1.00  0.00     0.201 C 
HETATM   14  O2  UNL     1      20.692  10.157  12.908  1.00  0.00    -0.644 OA
HETATM   15  O3  UNL     1      22.581   9.531  13.960  1.00  0.00    -0.644 OA
ENDBRANCH   5  13
TORSDOF 2
ENDMDL
MODEL 5
REMARK VINA RESULT: -4.547788127      3.961      6.093
REMARK  2 active torsions:
REMARK  status: ('A' for Active; 'I' for Inactive)
REMARK    1  A    between atoms: C2_2  and  C3_4 
REMARK    2  A    between atoms: C7_8  and  C8_9 
ROOT
HETATM    1  C3  UNL     1      24.062  15.762  20.942  1.00  0.00     0.053 C 
HETATM    2  C4  UNL     1      25.204  15.494  19.994  1.00  0.00     0.027 C 
HETATM    3  C5  UNL     1      22.821  16.243  20.178  1.00  0.00     0.084 C 
HETATM    4  C6  UNL     1      21.746  15.820  21.149  1.00  0.00     0.055 C 
HETATM    5  C7  UNL     1      20.453  16.110  21.039  1.00  0.00     0.116 C 
HETATM    6  O4  UNL     1      22.323  15.074  22.181  1.00  0.00    -0.344 OA
HETATM    7  C9  UNL     1      23.510  14.533  21.577  1.00  0.00     0.074 C 
HETATM    8  C10 UNL     1      22.999  13.548  20.541  1.00  0.00     0.047 C 
HETATM    9  C11 UNL     1      24.387  13.814  22.528  1.00  0.00     0.047 C 
ENDROOT
BRANCH   1  10
HETATM   10  C2  UNL     1      24.378  16.787  21.955  1.00  0.00     0.134 C 
HETATM   11  C1  UNL     1      25.745  16.953  22.513  1.00  0.00     0.091 C 
HETATM   12  O1  UNL     1      23.527  17.548  22.382  1.00  0.00    -0.297 OA
ENDBRANCH   1  10
BRANCH   5  13
HETATM   13  C8  UNL     1      19.958  16.889  19.929  1.00  0.00     0.201 C 
HETATM   14  O2  UNL     1      19.741  18.104  20.089  1.00  0.00    -0.644 OA
HETATM   15  O3  UNL     1      19.704  16.354  18.674  1.00  0.00    -0.644 OA
ENDBRANCH   5  13
TORSDOF 2
ENDMDL
