MODEL 1
REMARK VINA RESULT: -7.133841327      0.000      0.000
REMARK  1 active torsions:
REMARK  status: ('A' for Active; 'I' for Inactive)
REMARK    1  A    between atoms: N1_2  and  C2_5 
ROOT
HETATM    1  C2  UNL     1      18.827  11.533  16.875  1.00  0.00     0.469 C 
HETATM    2  O1  UNL     1      17.652  12.183  16.598  1.00  0.00    -0.331 OA
HETATM    3  C3  UNL     1      17.622  13.362  17.342  1.00  0.00     0.155 C 
HETATM    4  C4  UNL     1      17.673  14.583  16.504  1.00  0.00     0.035 C 
HETATM    5  C5  UNL     1      16.915  15.791  16.925  1.00  0.00     0.002 C 
HETATM    6  C6  UNL     1      17.724  17.095  16.947  1.00  0.00     0.000 C 
HETATM    7  C7  UNL     1      18.173  17.465  18.364  1.00  0.00     0.000 C 
HETATM    8  C8  UNL     1      19.585  17.132  18.697  1.00  0.00     0.000 C 
HETATM    9  C9  UNL     1      19.869  16.378  19.939  1.00  0.00     0.000 C 
HETATM   10  C10 UNL     1      20.126  14.862  19.770  1.00  0.00     0.002 C 
HETATM   11  C11 UNL     1      19.200  14.473  18.711  1.00  0.00     0.035 C 
HETATM   12  C12 UNL     1      18.829  13.132  18.282  1.00  0.00     0.155 C 
HETATM   13  O2  UNL     1      19.695  12.505  17.399  1.00  0.00    -0.331 OA
ENDROOT
BRANCH   1  14
HETATM   14  N1  UNL     1      18.610  10.579  17.972  1.00  0.00    -0.029 N 
HETATM   15  C1  UNL     1      19.150   9.289  17.687  1.00  0.00     0.273 C 
ATOM     16  H12 UNL     1      17.621  10.518  18.215  1.00  0.00     0.282 HD
ATOM     17  H11 UNL     1      18.973  10.943  18.852  1.00  0.00     0.282 HD
ENDBRANCH   1  14
TORSDOF 1
ENDMDL
MODEL 2
REMARK VINA RESULT: -6.887461521      3.018      4.896
REMARK  1 active torsions:
REMARK  status: ('A' for Active; 'I' for Inactive)
REMARK    1  A    between atoms: N1_2  and  C2_5 
ROOT
HETATM    1  C2  UNL     1      20.512  17.028  21.074  1.00  0.00     0.469 C 
HETATM    2  O1  UNL     1      20.133  17.854  20.048  1.00  0.00    -0.331 OA
HETATM    3  C3  UNL     1      19.793  17.059  18.953  1.00  0.00     0.155 C 
HETATM    4  C4  UNL     1      18.355  17.131  18.603  1.00  0.00     0.035 C 
HETATM    5  C5  UNL     1      17.947  17.057  17.175  1.00  0.00     0.002 C 
HETATM    6  C6  UNL     1      16.848  16.032  16.862  1.00  0.00     0.000 C 
HETATM    7  C7  UNL     1      17.424  14.740  16.273  1.00  0.00     0.000 C 
HETATM    8  C8  UNL     1      17.561  13.605  17.226  1.00  0.00     0.000 C 
HETATM    9  C9  UNL     1      18.857  12.897  17.314  1.00  0.00     0.000 C 
HETATM   10  C10 UNL     1      19.767  13.289  18.502  1.00  0.00     0.002 C 
HETATM   11  C11 UNL     1      19.552  14.727  18.638  1.00  0.00     0.035 C 
HETATM   12  C12 UNL     1      20.307  15.682  19.436  1.00  0.00     0.155 C 
HETATM   13  O2  UNL     1      19.971  15.767  20.779  1.00  0.00    -0.331 OA
ENDROOT
BRANCH   1  14
HETATM   14  N1  UNL     1      21.970  16.840  21.035  1.00  0.00    -0.029 N 
HETATM   15  C1  UNL     1      22.433  15.952  22.053  1.00  0.00     0.273 C 
ATOM     16  H12 UNL     1      22.457  17.735  21.079  1.00  0.00     0.282 HD
ATOM     17  H11 UNL     1      22.276  16.533  20.113  1.00  0.00     0.282 HD
ENDBRANCH   1  14
TORSDOF 1
ENDMDL
MODEL 3
REMARK VINA RESULT: -6.852072554      3.081      5.499
REMARK  1 active torsions:
REMARK  status: ('A' for Active; 'I' for Inactive)
REMARK    1  A    between atoms: N1_2  and  C2_5 
ROOT
HETATM    1  C2  UNL     1      18.463  17.449  18.152  1.00  0.00     0.469 C 
HETATM    2  O1  UNL     1      18.904  17.815  19.397  1.00  0.00    -0.331 OA
HETATM    3  C3  UNL     1      19.602  16.738  19.945  1.00  0.00     0.155 C 
HETATM    4  C4  UNL     1      21.046  17.011  20.128  1.00  0.00     0.035 C 
HETATM    5  C5  UNL     1      21.756  16.430  21.299  1.00  0.00     0.002 C 
HETATM    6  C6  UNL     1      23.057  15.685  20.970  1.00  0.00     0.000 C 
HETATM    7  C7  UNL     1      22.853  14.166  20.942  1.00  0.00     0.000 C 
HETATM    8  C8  UNL     1      22.714  13.563  19.589  1.00  0.00     0.000 C 
HETATM    9  C9  UNL     1      21.571  12.661  19.320  1.00  0.00     0.000 C 
HETATM   10  C10 UNL     1      20.375  13.287  18.564  1.00  0.00     0.002 C 
HETATM   11  C11 UNL     1      20.304  14.644  19.097  1.00  0.00     0.035 C 
HETATM   12  C12 UNL     1      19.243  15.627  18.930  1.00  0.00     0.155 C 
HETATM   13  O2  UNL     1      19.265  16.366  17.758  1.00  0.00    -0.331 OA
ENDROOT
BRANCH   1  14
HETATM   14  N1  UNL     1      17.103  16.903  18.257  1.00  0.00    -0.029 N 
HETATM   15  C1  UNL     1      16.100  17.917  18.192  1.00  0.00     0.273 C 
ATOM     16  H12 UNL     1      16.998  16.336  19.099  1.00  0.00     0.282 HD
ATOM     17  H11 UNL     1      16.941  16.182  17.554  1.00  0.00     0.282 HD
ENDBRANCH   1  14
TORSDOF 1
ENDMDL
MODEL 4
REMARK VINA RESULT: -6.762206017      2.718      5.274
REMARK  1 active torsions:
REMARK  status: ('A' for Active; 'I' for Inactive)
REMARK    1  A    between atoms: N1_2  and  C2_5 
ROOT
HETATM    1  C2  UNL     1      17.760  17.099  17.173  1.00  0.00     0.469 C 
HETATM    2  O1  UNL     1      18.437  17.071  18.365  1.00  0.00    -0.331 OA
HETATM    3  C3  UNL     1      18.689  15.739  18.691  1.00  0.00     0.155 C 
HETATM    4  C4  UNL     1      20.131  15.396  18.673  1.00  0.00     0.035 C 
HETATM    5  C5  UNL     1      20.660  14.416  19.658  1.00  0.00     0.002 C 
HETATM    6  C6  UNL     1      21.505  13.281  19.060  1.00  0.00     0.000 C 
HETATM    7  C7  UNL     1      20.700  11.986  18.917  1.00  0.00     0.000 C 
HETATM    8  C8  UNL     1      20.190  11.696  17.549  1.00  0.00     0.000 C 
HETATM    9  C9  UNL     1      18.758  11.362  17.375  1.00  0.00     0.000 C 
HETATM   10  C10 UNL     1      17.848  12.511  16.877  1.00  0.00     0.002 C 
HETATM   11  C11 UNL     1      18.390  13.691  17.545  1.00  0.00     0.035 C 
HETATM   12  C12 UNL     1      17.808  15.022  17.641  1.00  0.00     0.155 C 
HETATM   13  O2  UNL     1      18.008  15.863  16.556  1.00  0.00    -0.331 OA
ENDROOT
BRANCH   1  14
HETATM   14  N1  UNL     1      16.314  17.116  17.434  1.00  0.00    -0.029 N 
HETATM   15  C1  UNL     1      15.927  18.185  18.298  1.00  0.00     0.273 C 
ATOM     16  H12 UNL     1      15.995  16.217  17.797  1.00  0.00     0.282 HD
ATOM     17  H11 UNL     1      15.784  17.139  16.564  1.00  0.00     0.282 HD
ENDBRANCH   1  14
TORSDOF 1
ENDMDL
MODEL 5
REMARK VINA RESULT: -6.547451659      0.985      2.738
REMARK  1 active torsions:
REMARK  status: ('A' for Active; 'I' for Inactive)
REMARK    1  A    between atoms: N1_2  and  C2_5 
ROOT
HETATM    1  C2  UNL     1      18.753  11.213  18.095  1.00  0.00     0.469 C 
HETATM    2  O1  UNL     1      19.930  11.778  18.514  1.00  0.00    -0.331 OA
HETATM    3  C3  UNL     1      19.889  13.139  18.215  1.00  0.00     0.155 C 
HETATM    4  C4  UNL     1      19.867  14.001  19.420  1.00  0.00     0.035 C 
HETATM    5  C5  UNL     1      20.572  15.310  19.395  1.00  0.00     0.002 C 
HETATM    6  C6  UNL     1      19.738  16.511  19.861  1.00  0.00     0.000 C 
HETATM    7  C7  UNL     1      19.193  17.320  18.680  1.00  0.00     0.000 C 
HETATM    8  C8  UNL     1      17.769  17.062  18.329  1.00  0.00     0.000 C 
HETATM    9  C9  UNL     1      17.422  16.763  16.921  1.00  0.00     0.000 C 
HETATM   10  C10 UNL     1      17.206  15.270  16.578  1.00  0.00     0.002 C 
HETATM   11  C11 UNL     1      18.206  14.583  17.390  1.00  0.00     0.035 C 
HETATM   12  C12 UNL     1      18.630  13.192  17.318  1.00  0.00     0.155 C 
HETATM   13  O2  UNL     1      17.834  12.269  17.979  1.00  0.00    -0.331 OA
ENDROOT
BRANCH   1  14
HETATM   14  N1  UNL     1      18.919  10.696  16.729  1.00  0.00    -0.029 N 
HETATM   15  C1  UNL     1      19.855   9.620  16.662  1.00  0.00     0.273 C 
ATOM     16  H12 UNL     1      19.171  11.443  16.081  1.00  0.00     0.282 HD
ATOM     17  H11 UNL     1      18.021  10.427  16.326  1.00  0.00     0.282 HD
ENDBRANCH   1  14
TORSDOF 1
ENDMDL
