MODEL 1
REMARK VINA RESULT: -5.267751698      0.000      0.000
REMARK  2 active torsions:
REMARK  status: ('A' for Active; 'I' for Inactive)
REMARK    1  A    between atoms: C2_4  and  C4_6 
REMARK    2  A    between atoms: C12_15  and  O1_16 
ROOT
HETATM    1  C4  UNL     1      19.502  12.266  18.052  1.00  0.00     0.112 C 
HETATM    2  C5  UNL     1      18.111  12.436  17.560  1.00  0.00     0.078 C 
HETATM    3  N2  UNL     1      17.021  12.571  17.195  1.00  0.00    -0.196 NA
HETATM    4  C6  UNL     1      19.457  11.333  19.234  1.00  0.00     0.033 C 
HETATM    5  C7  UNL     1      18.797  10.040  18.978  1.00  0.00     0.002 C 
HETATM    6  C8  UNL     1      19.622   8.891  18.592  1.00  0.00     0.000 C 
HETATM    7  C9  UNL     1      21.093   9.061  18.565  1.00  0.00     0.000 C 
HETATM    8  C10 UNL     1      21.511   9.614  17.200  1.00  0.00     0.002 C 
HETATM    9  C11 UNL     1      21.627  11.119  17.346  1.00  0.00     0.034 C 
HETATM   10  C12 UNL     1      20.334  11.779  16.914  1.00  0.00     0.146 C 
ENDROOT
BRANCH   1  11
HETATM   11  C2  UNL     1      19.918  13.606  18.542  1.00  0.00     0.003 C 
HETATM   12  N1  UNL     1      19.141  14.610  18.405  1.00  0.00    -0.399 N 
HETATM   13  C1  UNL     1      19.468  15.927  18.849  1.00  0.00     0.145 C 
ATOM     14  H1  UNL     1      18.238  14.464  17.955  1.00  0.00     0.158 HD
HETATM   15  C3  UNL     1      21.226  13.862  19.203  1.00  0.00     0.065 C 
ENDBRANCH   1  11
BRANCH  10  16
HETATM   16  O1  UNL     1      19.681  10.972  16.018  1.00  0.00    -0.393 OA
ATOM     17  H1  UNL     1      20.216  10.295  15.620  1.00  0.00     0.210 HD
ENDBRANCH  10  16
TORSDOF 2
ENDMDL
MODEL 2
REMARK VINA RESULT: -5.093158391      2.259      4.671
REMARK  2 active torsions:
REMARK  status: ('A' for Active; 'I' for Inactive)
REMARK    1  A    between atoms: C2_4  and  C4_6 
REMARK    2  A    between atoms: C12_15  and  O1_16 
ROOT
HETATM    1  C4  UNL     1      19.727  10.488  17.922  1.00  0.00     0.112 C 
HETATM    2  C5  UNL     1      20.883   9.966  17.151  1.00  0.00     0.078 C 
HETATM    3  N2  UNL     1      21.793   9.553  16.567  1.00  0.00    -0.196 NA
HETATM    4  C6  UNL     1      20.271  11.234  19.112  1.00  0.00     0.033 C 
HETATM    5  C7  UNL     1      21.245  12.292  18.788  1.00  0.00     0.002 C 
HETATM    6  C8  UNL     1      20.767  13.669  18.632  1.00  0.00     0.000 C 
HETATM    7  C9  UNL     1      19.336  13.948  18.896  1.00  0.00     0.000 C 
HETATM    8  C10 UNL     1      18.530  13.693  17.619  1.00  0.00     0.002 C 
HETATM    9  C11 UNL     1      17.977  12.285  17.715  1.00  0.00     0.034 C 
HETATM   10  C12 UNL     1      18.900  11.320  16.999  1.00  0.00     0.146 C 
ENDROOT
BRANCH   1  11
HETATM   11  C2  UNL     1      19.006   9.289  18.423  1.00  0.00     0.003 C 
HETATM   12  N1  UNL     1      18.873   8.261  17.676  1.00  0.00    -0.399 N 
HETATM   13  C1  UNL     1      18.196   7.073  18.085  1.00  0.00     0.145 C 
ATOM     14  H1  UNL     1      19.272   8.291  16.739  1.00  0.00     0.158 HD
HETATM   15  C3  UNL     1      18.410   9.206  19.783  1.00  0.00     0.065 C 
ENDBRANCH   1  11
BRANCH  10  16
HETATM   16  O1  UNL     1      19.601  11.987  16.029  1.00  0.00    -0.393 OA
ATOM     17  H1  UNL     1      19.095  12.608  15.519  1.00  0.00     0.210 HD
ENDBRANCH  10  16
TORSDOF 2
ENDMDL
MODEL 3
REMARK VINA RESULT: -4.974136493      2.503      3.909
REMARK  2 active torsions:
REMARK  status: ('A' for Active; 'I' for Inactive)
REMARK    1  A    between atoms: C2_4  and  C4_6 
REMARK    2  A    between atoms: C12_15  and  O1_16 
ROOT
HETATM    1  C4  UNL     1      20.632  11.430  18.293  1.00  0.00     0.112 C 
HETATM    2  C5  UNL     1      20.910   9.987  18.499  1.00  0.00     0.078 C 
HETATM    3  N2  UNL     1      21.144   8.862  18.648  1.00  0.00    -0.196 NA
HETATM    4  C6  UNL     1      20.781  11.718  16.822  1.00  0.00     0.033 C 
HETATM    5  C7  UNL     1      19.967  10.865  15.938  1.00  0.00     0.002 C 
HETATM    6  C8  UNL     1      18.653  11.347  15.504  1.00  0.00     0.000 C 
HETATM    7  C9  UNL     1      18.240  12.712  15.905  1.00  0.00     0.000 C 
HETATM    8  C10 UNL     1      17.585  12.655  17.287  1.00  0.00     0.002 C 
HETATM    9  C11 UNL     1      18.658  12.992  18.303  1.00  0.00     0.034 C 
HETATM   10  C12 UNL     1      19.275  11.717  18.843  1.00  0.00     0.146 C 
ENDROOT
BRANCH   1  11
HETATM   11  C2  UNL     1      21.712  12.153  19.013  1.00  0.00     0.003 C 
HETATM   12  N1  UNL     1      22.591  11.501  19.674  1.00  0.00    -0.399 N 
HETATM   13  C1  UNL     1      23.658  12.122  20.391  1.00  0.00     0.145 C 
ATOM     14  H1  UNL     1      22.526  10.484  19.690  1.00  0.00     0.158 HD
HETATM   15  C3  UNL     1      21.842  13.634  19.015  1.00  0.00     0.065 C 
ENDBRANCH   1  11
BRANCH  10  16
HETATM   16  O1  UNL     1      18.374  10.689  18.737  1.00  0.00    -0.393 OA
ATOM     17  H1  UNL     1      17.500  10.944  18.466  1.00  0.00     0.210 HD
ENDBRANCH  10  16
TORSDOF 2
ENDMDL
MODEL 4
REMARK VINA RESULT: -4.879400735      2.081      4.326
REMARK  2 active torsions:
REMARK  status: ('A' for Active; 'I' for Inactive)
REMARK    1  A    between atoms: C2_4  and  C4_6 
REMARK    2  A    between atoms: C12_15  and  O1_16 
ROOT
HETATM    1  C4  UNL     1      19.664  10.886  18.296  1.00  0.00     0.112 C 
HETATM    2  C5  UNL     1      20.827  11.507  18.979  1.00  0.00     0.078 C 
HETATM    3  N2  UNL     1      21.722  11.994  19.529  1.00  0.00    -0.196 NA
HETATM    4  C6  UNL     1      18.476  11.787  18.506  1.00  0.00     0.033 C 
HETATM    5  C7  UNL     1      18.680  13.188  18.093  1.00  0.00     0.002 C 
HETATM    6  C8  UNL     1      18.262  13.595  16.749  1.00  0.00     0.000 C 
HETATM    7  C9  UNL     1      17.572  12.599  15.896  1.00  0.00     0.000 C 
HETATM    8  C10 UNL     1      18.616  11.769  15.146  1.00  0.00     0.002 C 
HETATM    9  C11 UNL     1      18.839  10.502  15.949  1.00  0.00     0.034 C 
HETATM   10  C12 UNL     1      20.034  10.677  16.865  1.00  0.00     0.146 C 
ENDROOT
BRANCH   1  11
HETATM   11  C2  UNL     1      19.408   9.613  19.019  1.00  0.00     0.003 C 
HETATM   12  N1  UNL     1      18.380   9.497  19.769  1.00  0.00    -0.399 N 
HETATM   13  C1  UNL     1      18.066   8.309  20.495  1.00  0.00     0.145 C 
ATOM     14  H1  UNL     1      17.751  10.294  19.853  1.00  0.00     0.158 HD
HETATM   15  C3  UNL     1      20.300   8.427  18.923  1.00  0.00     0.065 C 
ENDBRANCH   1  11
BRANCH  10  16
HETATM   16  O1  UNL     1      20.884  11.615  16.339  1.00  0.00    -0.393 OA
ATOM     17  H1  UNL     1      20.866  11.691  15.392  1.00  0.00     0.210 HD
ENDBRANCH  10  16
TORSDOF 2
ENDMDL
MODEL 5
REMARK VINA RESULT: -4.758199346      2.442      4.411
REMARK  2 active torsions:
REMARK  status: ('A' for Active; 'I' for Inactive)
REMARK    1  A    between atoms: C2_4  and  C4_6 
REMARK    2  A    between atoms: C12_15  and  O1_16 
ROOT
HETATM    1  C4  UNL     1      20.272  10.956  17.308  1.00  0.00     0.112 C 
HETATM    2  C5  UNL     1      19.580   9.647  17.420  1.00  0.00     0.078 C 
HETATM    3  N2  UNL     1      19.042   8.624  17.488  1.00  0.00    -0.196 NA
HETATM    4  C6  UNL     1      19.570  11.753  16.241  1.00  0.00     0.033 C 
HETATM    5  C7  UNL     1      18.117  11.908  16.438  1.00  0.00     0.002 C 
HETATM    6  C8  UNL     1      17.620  13.108  17.117  1.00  0.00     0.000 C 
HETATM    7  C9  UNL     1      18.598  14.155  17.496  1.00  0.00     0.000 C 
HETATM    8  C10 UNL     1      19.189  13.818  18.868  1.00  0.00     0.002 C 
HETATM    9  C11 UNL     1      20.496  13.091  18.623  1.00  0.00     0.034 C 
HETATM   10  C12 UNL     1      20.266  11.593  18.658  1.00  0.00     0.146 C 
ENDROOT
BRANCH   1  11
HETATM   11  C2  UNL     1      21.641  10.645  16.822  1.00  0.00     0.003 C 
HETATM   12  N1  UNL     1      22.250   9.602  17.239  1.00  0.00    -0.399 N 
HETATM   13  C1  UNL     1      23.563   9.235  16.819  1.00  0.00     0.145 C 
ATOM     14  H1  UNL     1      21.771   8.999  17.908  1.00  0.00     0.158 HD
HETATM   15  C3  UNL     1      22.373  11.497  15.847  1.00  0.00     0.065 C 
ENDBRANCH   1  11
BRANCH  10  16
HETATM   16  O1  UNL     1      19.168  11.314  19.429  1.00  0.00    -0.393 OA
ATOM     17  H1  UNL     1      18.966  10.391  19.526  1.00  0.00     0.210 HD
ENDBRANCH  10  16
TORSDOF 2
ENDMDL
