MODEL 1
REMARK VINA RESULT: -6.644411393      0.000      0.000
REMARK  2 active torsions:
REMARK  status: ('A' for Active; 'I' for Inactive)
REMARK    1  A    between atoms: C2_2  and  O2_4 
REMARK    2  A    between atoms: O2_4  and  C3_5 
ROOT
HETATM    1  C3  UNL     1      19.189  16.377  19.171  1.00  0.00     0.149 C 
HETATM    2  C4  UNL     1      20.263  17.306  19.661  1.00  0.00     0.146 C 
HETATM    3  N1  UNL     1      21.045  16.791  20.736  1.00  0.00    -0.414 N 
ATOM      4  H1  UNL     1      21.392  17.383  21.490  1.00  0.00     0.153 HD
HETATM    5  C5  UNL     1      21.309  15.401  20.683  1.00  0.00     0.081 C 
HETATM    6  C6  UNL     1      22.719  14.996  20.945  1.00  0.00     0.026 C 
HETATM    7  C7  UNL     1      22.683  13.544  20.464  1.00  0.00     0.011 C 
HETATM    8  C8  UNL     1      21.783  13.606  19.252  1.00  0.00    -0.042 C 
HETATM    9  C9  UNL     1      22.698  13.491  18.034  1.00  0.00     0.015 C 
HETATM   10  C10 UNL     1      20.785  12.474  19.228  1.00  0.00     0.015 C 
HETATM   11  C11 UNL     1      21.160  14.959  19.220  1.00  0.00     0.018 C 
HETATM   12  C12 UNL     1      19.700  14.974  18.915  1.00  0.00     0.041 C 
ENDROOT
BRANCH   1  13
HETATM   13  O2  UNL     1      18.760  16.893  17.902  1.00  0.00    -0.315 OA
BRANCH  13  14
HETATM   14  C2  UNL     1      17.470  16.816  17.454  1.00  0.00     0.255 C 
HETATM   15  C1  UNL     1      16.360  17.629  18.026  1.00  0.00     0.126 C 
HETATM   16  O1  UNL     1      17.191  16.032  16.522  1.00  0.00    -0.266 OA
ENDBRANCH  13  14
ENDBRANCH   1  13
TORSDOF 2
ENDMDL
MODEL 2
REMARK VINA RESULT: -6.330078620      2.695      4.407
REMARK  2 active torsions:
REMARK  status: ('A' for Active; 'I' for Inactive)
REMARK    1  A    between atoms: C2_2  and  O2_4 
REMARK    2  A    between atoms: O2_4  and  C3_5 
ROOT
HETATM    1  C3  UNL     1      19.186  15.619  18.378  1.00  0.00     0.149 C 
HETATM    2  C4  UNL     1      17.772  15.597  17.870  1.00  0.00     0.146 C 
HETATM    3  N1  UNL     1      17.585  14.839  16.677  1.00  0.00    -0.414 N 
ATOM      4  H1  UNL     1      16.928  15.121  15.950  1.00  0.00     0.153 HD
HETATM    5  C5  UNL     1      18.374  13.669  16.571  1.00  0.00     0.081 C 
HETATM    6  C6  UNL     1      17.656  12.439  16.128  1.00  0.00     0.026 C 
HETATM    7  C7  UNL     1      18.699  11.373  16.470  1.00  0.00     0.011 C 
HETATM    8  C8  UNL     1      19.287  11.873  17.770  1.00  0.00    -0.042 C 
HETATM    9  C9  UNL     1      18.708  10.985  18.870  1.00  0.00     0.015 C 
HETATM   10  C10 UNL     1      20.793  11.764  17.789  1.00  0.00     0.015 C 
HETATM   11  C11 UNL     1      18.780  13.256  17.993  1.00  0.00     0.018 C 
HETATM   12  C12 UNL     1      19.806  14.238  18.447  1.00  0.00     0.041 C 
ENDROOT
BRANCH   1  13
HETATM   13  O2  UNL     1      19.120  16.104  19.728  1.00  0.00    -0.315 OA
BRANCH  13  14
HETATM   14  C2  UNL     1      20.021  16.986  20.257  1.00  0.00     0.255 C 
HETATM   15  C1  UNL     1      21.297  16.561  20.898  1.00  0.00     0.126 C 
HETATM   16  O1  UNL     1      19.778  18.212  20.209  1.00  0.00    -0.266 OA
ENDBRANCH  13  14
ENDBRANCH   1  13
TORSDOF 2
ENDMDL
MODEL 3
REMARK VINA RESULT: -6.073827200      1.229      1.281
REMARK  2 active torsions:
REMARK  status: ('A' for Active; 'I' for Inactive)
REMARK    1  A    between atoms: C2_2  and  O2_4 
REMARK    2  A    between atoms: O2_4  and  C3_5 
ROOT
HETATM    1  C3  UNL     1      20.001  16.271  19.788  1.00  0.00     0.149 C 
HETATM    2  C4  UNL     1      21.158  17.035  20.366  1.00  0.00     0.146 C 
HETATM    3  N1  UNL     1      21.914  16.317  21.338  1.00  0.00    -0.414 N 
ATOM      4  H1  UNL     1      22.323  16.772  22.154  1.00  0.00     0.153 HD
HETATM    5  C5  UNL     1      22.059  14.931  21.092  1.00  0.00     0.081 C 
HETATM    6  C6  UNL     1      23.435  14.382  21.256  1.00  0.00     0.026 C 
HETATM    7  C7  UNL     1      23.268  13.016  20.586  1.00  0.00     0.011 C 
HETATM    8  C8  UNL     1      22.354  13.314  19.420  1.00  0.00    -0.042 C 
HETATM    9  C9  UNL     1      23.234  13.291  18.172  1.00  0.00     0.015 C 
HETATM   10  C10 UNL     1      21.264  12.280  19.275  1.00  0.00     0.015 C 
HETATM   11  C11 UNL     1      21.846  14.704  19.589  1.00  0.00     0.018 C 
HETATM   12  C12 UNL     1      20.388  14.879  19.331  1.00  0.00     0.041 C 
ENDROOT
BRANCH   1  13
HETATM   13  O2  UNL     1      19.594  16.988  18.612  1.00  0.00    -0.315 OA
BRANCH  13  14
HETATM   14  C2  UNL     1      18.289  17.127  18.229  1.00  0.00     0.255 C 
HETATM   15  C1  UNL     1      17.656  16.287  17.173  1.00  0.00     0.126 C 
HETATM   16  O1  UNL     1      17.578  17.995  18.780  1.00  0.00    -0.266 OA
ENDBRANCH  13  14
ENDBRANCH   1  13
TORSDOF 2
ENDMDL
MODEL 4
REMARK VINA RESULT: -6.019593580      2.828      4.151
REMARK  2 active torsions:
REMARK  status: ('A' for Active; 'I' for Inactive)
REMARK    1  A    between atoms: C2_2  and  O2_4 
REMARK    2  A    between atoms: O2_4  and  C3_5 
ROOT
HETATM    1  C3  UNL     1      18.654  15.018  17.569  1.00  0.00     0.149 C 
HETATM    2  C4  UNL     1      17.545  14.477  16.712  1.00  0.00     0.146 C 
HETATM    3  N1  UNL     1      17.939  13.432  15.826  1.00  0.00    -0.414 N 
ATOM      4  H1  UNL     1      17.544  13.334  14.891  1.00  0.00     0.153 HD
HETATM    5  C5  UNL     1      18.914  12.541  16.333  1.00  0.00     0.081 C 
HETATM    6  C6  UNL     1      18.641  11.090  16.123  1.00  0.00     0.026 C 
HETATM    7  C7  UNL     1      19.670  10.475  17.075  1.00  0.00     0.011 C 
HETATM    8  C8  UNL     1      19.653  11.420  18.255  1.00  0.00    -0.042 C 
HETATM    9  C9  UNL     1      18.894  10.699  19.368  1.00  0.00     0.015 C 
HETATM   10  C10 UNL     1      21.045  11.746  18.739  1.00  0.00     0.015 C 
HETATM   11  C11 UNL     1      18.855  12.615  17.866  1.00  0.00     0.018 C 
HETATM   12  C12 UNL     1      19.452  13.926  18.254  1.00  0.00     0.041 C 
ENDROOT
BRANCH   1  13
HETATM   13  O2  UNL     1      18.023  15.776  18.612  1.00  0.00    -0.315 OA
BRANCH  13  14
HETATM   14  C2  UNL     1      17.937  17.141  18.605  1.00  0.00     0.255 C 
HETATM   15  C1  UNL     1      16.845  17.885  17.915  1.00  0.00     0.126 C 
HETATM   16  O1  UNL     1      18.807  17.812  19.200  1.00  0.00    -0.266 OA
ENDBRANCH  13  14
ENDBRANCH   1  13
TORSDOF 2
ENDMDL
MODEL 5
REMARK VINA RESULT: -5.881909861      2.553      4.560
REMARK  2 active torsions:
REMARK  status: ('A' for Active; 'I' for Inactive)
REMARK    1  A    between atoms: C2_2  and  O2_4 
REMARK    2  A    between atoms: O2_4  and  C3_5 
ROOT
HETATM    1  C3  UNL     1      20.212  15.469  19.144  1.00  0.00     0.149 C 
HETATM    2  C4  UNL     1      18.760  15.797  18.937  1.00  0.00     0.146 C 
HETATM    3  N1  UNL     1      18.213  15.307  17.715  1.00  0.00    -0.414 N 
ATOM      4  H1  UNL     1      17.516  15.829  17.183  1.00  0.00     0.153 HD
HETATM    5  C5  UNL     1      18.702  14.049  17.291  1.00  0.00     0.081 C 
HETATM    6  C6  UNL     1      17.672  13.070  16.840  1.00  0.00     0.026 C 
HETATM    7  C7  UNL     1      18.504  11.786  16.814  1.00  0.00     0.011 C 
HETATM    8  C8  UNL     1      19.401  11.934  18.022  1.00  0.00    -0.042 C 
HETATM    9  C9  UNL     1      18.843  10.989  19.085  1.00  0.00     0.015 C 
HETATM   10  C10 UNL     1      20.828  11.548  17.719  1.00  0.00     0.015 C 
HETATM   11  C11 UNL     1      19.248  13.325  18.530  1.00  0.00     0.018 C 
HETATM   12  C12 UNL     1      20.523  14.007  18.896  1.00  0.00     0.041 C 
ENDROOT
BRANCH   1  13
HETATM   13  O2  UNL     1      20.484  15.714  20.533  1.00  0.00    -0.315 OA
BRANCH  13  14
HETATM   14  C2  UNL     1      21.675  16.202  20.992  1.00  0.00     0.255 C 
HETATM   15  C1  UNL     1      22.484  15.522  22.042  1.00  0.00     0.126 C 
HETATM   16  O1  UNL     1      22.123  17.270  20.520  1.00  0.00    -0.266 OA
ENDBRANCH  13  14
ENDBRANCH   1  13
TORSDOF 2
ENDMDL
