MODEL 1
REMARK VINA RESULT: -7.019095337      0.000      0.000
REMARK  1 active torsions:
REMARK  status: ('A' for Active; 'I' for Inactive)
REMARK    1  A    between atoms: N1_2  and  C2_4 
ROOT
HETATM    1  C2  UNL     1      20.283  16.350  21.142  1.00  0.00     0.240 C 
HETATM    2  C3  UNL     1      19.996  17.595  20.392  1.00  0.00     0.221 C 
HETATM    3  O1  UNL     1      19.061  17.581  19.416  1.00  0.00    -0.379 OA
HETATM    4  C4  UNL     1      18.724  16.404  18.840  1.00  0.00     0.150 C 
HETATM    5  C5  UNL     1      18.447  16.423  17.364  1.00  0.00     0.034 C 
HETATM    6  C6  UNL     1      17.217  15.752  16.864  1.00  0.00     0.002 C 
HETATM    7  C7  UNL     1      17.309  14.436  16.167  1.00  0.00     0.000 C 
HETATM    8  C8  UNL     1      17.256  13.177  16.956  1.00  0.00     0.000 C 
HETATM    9  C9  UNL     1      18.492  12.389  17.184  1.00  0.00     0.000 C 
HETATM   10  C10 UNL     1      19.324  12.739  18.448  1.00  0.00     0.002 C 
HETATM   11  C11 UNL     1      19.125  14.162  18.532  1.00  0.00     0.034 C 
HETATM   12  C12 UNL     1      19.647  15.245  19.316  1.00  0.00     0.153 C 
HETATM   13  O2  UNL     1      19.546  15.235  20.673  1.00  0.00    -0.357 OA
ENDROOT
BRANCH   1  14
HETATM   14  N1  UNL     1      21.660  15.939  21.114  1.00  0.00    -0.399 N 
HETATM   15  C1  UNL     1      22.622  16.972  20.962  1.00  0.00     0.142 C 
ATOM     16  H1  UNL     1      21.931  14.959  21.199  1.00  0.00     0.155 HD
ENDBRANCH   1  14
TORSDOF 1
ENDMDL
MODEL 2
REMARK VINA RESULT: -6.856012351      2.473      3.922
REMARK  1 active torsions:
REMARK  status: ('A' for Active; 'I' for Inactive)
REMARK    1  A    between atoms: N1_2  and  C2_4 
ROOT
HETATM    1  C2  UNL     1      17.770  17.097  17.160  1.00  0.00     0.240 C 
HETATM    2  C3  UNL     1      18.630  17.546  18.280  1.00  0.00     0.221 C 
HETATM    3  O1  UNL     1      19.651  16.761  18.689  1.00  0.00    -0.379 OA
HETATM    4  C4  UNL     1      19.623  15.440  18.406  1.00  0.00     0.150 C 
HETATM    5  C5  UNL     1      20.147  14.505  19.459  1.00  0.00     0.034 C 
HETATM    6  C6  UNL     1      21.107  13.444  19.053  1.00  0.00     0.002 C 
HETATM    7  C7  UNL     1      20.659  12.025  18.947  1.00  0.00     0.000 C 
HETATM    8  C8  UNL     1      20.096  11.522  17.666  1.00  0.00     0.000 C 
HETATM    9  C9  UNL     1      18.636  11.294  17.532  1.00  0.00     0.000 C 
HETATM   10  C10 UNL     1      17.783  12.493  17.036  1.00  0.00     0.002 C 
HETATM   11  C11 UNL     1      18.478  13.602  17.633  1.00  0.00     0.034 C 
HETATM   12  C12 UNL     1      18.265  15.014  17.774  1.00  0.00     0.153 C 
HETATM   13  O2  UNL     1      18.110  15.809  16.680  1.00  0.00    -0.357 OA
ENDROOT
BRANCH   1  14
HETATM   14  N1  UNL     1      16.369  17.033  17.470  1.00  0.00    -0.399 N 
HETATM   15  C1  UNL     1      15.875  18.027  18.355  1.00  0.00     0.142 C 
ATOM     16  H1  UNL     1      15.763  16.314  17.077  1.00  0.00     0.155 HD
ENDBRANCH   1  14
TORSDOF 1
ENDMDL
MODEL 3
REMARK VINA RESULT: -6.799226260      2.936      5.346
REMARK  1 active torsions:
REMARK  status: ('A' for Active; 'I' for Inactive)
REMARK    1  A    between atoms: N1_2  and  C2_4 
ROOT
HETATM    1  C2  UNL     1      18.023  11.838  16.671  1.00  0.00     0.240 C 
HETATM    2  C3  UNL     1      19.291  11.555  17.382  1.00  0.00     0.221 C 
HETATM    3  O1  UNL     1      19.705  12.392  18.359  1.00  0.00    -0.379 OA
HETATM    4  C4  UNL     1      19.236  13.660  18.386  1.00  0.00     0.150 C 
HETATM    5  C5  UNL     1      20.202  14.736  18.794  1.00  0.00     0.034 C 
HETATM    6  C6  UNL     1      19.769  15.731  19.812  1.00  0.00     0.002 C 
HETATM    7  C7  UNL     1      19.410  17.119  19.401  1.00  0.00     0.000 C 
HETATM    8  C8  UNL     1      18.012  17.433  19.004  1.00  0.00     0.000 C 
HETATM    9  C9  UNL     1      17.672  17.637  17.574  1.00  0.00     0.000 C 
HETATM   10  C10 UNL     1      17.250  16.379  16.769  1.00  0.00     0.002 C 
HETATM   11  C11 UNL     1      18.078  15.367  17.370  1.00  0.00     0.034 C 
HETATM   12  C12 UNL     1      18.391  13.989  17.120  1.00  0.00     0.153 C 
HETATM   13  O2  UNL     1      17.410  13.046  17.086  1.00  0.00    -0.357 OA
ENDROOT
BRANCH   1  14
HETATM   14  N1  UNL     1      18.149  11.943  15.243  1.00  0.00    -0.399 N 
HETATM   15  C1  UNL     1      19.107  11.092  14.632  1.00  0.00     0.142 C 
ATOM     16  H1  UNL     1      17.582  12.593  14.699  1.00  0.00     0.155 HD
ENDBRANCH   1  14
TORSDOF 1
ENDMDL
MODEL 4
REMARK VINA RESULT: -6.546754376      2.688      4.863
REMARK  1 active torsions:
REMARK  status: ('A' for Active; 'I' for Inactive)
REMARK    1  A    between atoms: N1_2  and  C2_4 
ROOT
HETATM    1  C2  UNL     1      18.782  11.766  16.959  1.00  0.00     0.240 C 
HETATM    2  C3  UNL     1      17.636  12.280  16.173  1.00  0.00     0.221 C 
HETATM    3  O1  UNL     1      17.482  13.614  16.017  1.00  0.00    -0.379 OA
HETATM    4  C4  UNL     1      18.070  14.454  16.899  1.00  0.00     0.150 C 
HETATM    5  C5  UNL     1      17.300  15.684  17.286  1.00  0.00     0.034 C 
HETATM    6  C6  UNL     1      17.999  16.997  17.260  1.00  0.00     0.002 C 
HETATM    7  C7  UNL     1      18.415  17.653  18.534  1.00  0.00     0.000 C 
HETATM    8  C8  UNL     1      19.746  17.347  19.122  1.00  0.00     0.000 C 
HETATM    9  C9  UNL     1      19.849  16.473  20.317  1.00  0.00     0.000 C 
HETATM   10  C10 UNL     1      19.999  14.949  20.059  1.00  0.00     0.002 C 
HETATM   11  C11 UNL     1      19.194  14.781  18.878  1.00  0.00     0.034 C 
HETATM   12  C12 UNL     1      18.709  13.683  18.091  1.00  0.00     0.153 C 
HETATM   13  O2  UNL     1      19.573  12.795  17.527  1.00  0.00    -0.357 OA
ENDROOT
BRANCH   1  14
HETATM   14  N1  UNL     1      18.419  10.912  18.056  1.00  0.00    -0.399 N 
HETATM   15  C1  UNL     1      19.163   9.710  18.190  1.00  0.00     0.142 C 
ATOM     16  H1  UNL     1      17.668  11.156  18.703  1.00  0.00     0.155 HD
ENDBRANCH   1  14
TORSDOF 1
ENDMDL
MODEL 5
REMARK VINA RESULT: -6.365830225      1.418      2.155
REMARK  1 active torsions:
REMARK  status: ('A' for Active; 'I' for Inactive)
REMARK    1  A    between atoms: N1_2  and  C2_4 
ROOT
HETATM    1  C2  UNL     1      19.092  16.966  19.504  1.00  0.00     0.240 C 
HETATM    2  C3  UNL     1      18.284  17.338  18.319  1.00  0.00     0.221 C 
HETATM    3  O1  UNL     1      17.643  16.372  17.623  1.00  0.00    -0.379 OA
HETATM    4  C4  UNL     1      18.072  15.094  17.719  1.00  0.00     0.150 C 
HETATM    5  C5  UNL     1      18.029  14.265  16.467  1.00  0.00     0.034 C 
HETATM    6  C6  UNL     1      17.433  12.904  16.536  1.00  0.00     0.002 C 
HETATM    7  C7  UNL     1      18.310  11.697  16.522  1.00  0.00     0.000 C 
HETATM    8  C8  UNL     1      18.839  11.154  17.801  1.00  0.00     0.000 C 
HETATM    9  C9  UNL     1      20.261  11.362  18.167  1.00  0.00     0.000 C 
HETATM   10  C10 UNL     1      20.596  12.645  18.975  1.00  0.00     0.002 C 
HETATM   11  C11 UNL     1      19.654  13.582  18.423  1.00  0.00     0.034 C 
HETATM   12  C12 UNL     1      19.401  14.990  18.523  1.00  0.00     0.153 C 
HETATM   13  O2  UNL     1      19.141  15.568  19.727  1.00  0.00    -0.357 OA
ENDROOT
BRANCH   1  14
HETATM   14  N1  UNL     1      20.463  17.395  19.450  1.00  0.00    -0.399 N 
HETATM   15  C1  UNL     1      21.272  17.052  20.565  1.00  0.00     0.142 C 
ATOM     16  H1  UNL     1      20.833  17.915  18.655  1.00  0.00     0.155 HD
ENDBRANCH   1  14
TORSDOF 1
ENDMDL
