MODEL 1
REMARK VINA RESULT: -7.440462602      0.000      0.000
REMARK  16 active torsions:
REMARK  status: ('A' for Active; 'I' for Inactive)
REMARK    1  A    between atoms: C2_2  and  C3_3 
REMARK    2  A    between atoms: C3_3  and  C4_4 
REMARK    3  A    between atoms: C4_4  and  C5_5 
REMARK    4  A    between atoms: C5_5  and  C6_6 
REMARK       I    between atoms: C6_6  and  N1_8 
REMARK       I    between atoms: N2_11  and  C9_12 
REMARK    5  A    between atoms: C9_12  and  C10_14 
REMARK    6  A    between atoms: C10_14  and  C11_15 
REMARK    7  A    between atoms: C11_15  and  C12_16 
REMARK    8  A    between atoms: C11_15  and  N6_24 
REMARK    9  A    between atoms: C12_16  and  C13_17 
REMARK   10  A    between atoms: C13_17  and  C14_18 
REMARK   11  A    between atoms: C14_18  and  N3_19 
REMARK       I    between atoms: N6_24  and  C16_26 
REMARK   12  A    between atoms: C16_26  and  C17_28 
REMARK   13  A    between atoms: C23_38  and  C24_39 
REMARK   14  A    between atoms: C24_39  and  C25_40 
REMARK   15  A    between atoms: C25_40  and  C26_41 
REMARK   16  A    between atoms: C26_41  and  N9_42 
ROOT
HETATM    1  C6  UNL     1       5.943   4.177  17.912  1.00  0.00     0.220 C 
HETATM    2  O1  UNL     1       5.321   4.074  16.823  1.00  0.00    -0.273 OA
HETATM    3  N1  UNL     1       5.496   5.090  18.920  1.00  0.00    -0.344 N 
HETATM    4  C7  UNL     1       4.310   5.878  18.617  1.00  0.00     0.146 C 
HETATM    5  C8  UNL     1       4.558   7.352  18.855  1.00  0.00     0.146 C 
HETATM    6  N2  UNL     1       5.380   7.592  20.003  1.00  0.00    -0.344 N 
HETATM    7  C9  UNL     1       5.046   8.596  20.974  1.00  0.00     0.222 C 
HETATM    8  O2  UNL     1       3.988   9.233  20.741  1.00  0.00    -0.273 OA
HETATM    9  C21 UNL     1       6.570   6.823  20.211  1.00  0.00     0.106 C 
HETATM   10  C22 UNL     1       7.666   7.103  19.237  1.00  0.00     0.034 C 
HETATM   11  C23 UNL     1       6.139   5.318  20.152  1.00  0.00     0.109 C 
ENDROOT
BRANCH   7  12
HETATM   12  C10 UNL     1       5.894   8.847  22.154  1.00  0.00     0.128 C 
BRANCH  12  13
HETATM   13  C11 UNL     1       5.209   8.429  23.403  1.00  0.00     0.093 C 
BRANCH  13  14
HETATM   14  C12 UNL     1       6.004   7.377  24.176  1.00  0.00     0.027 C 
BRANCH  14  15
HETATM   15  C13 UNL     1       7.439   7.463  23.785  1.00  0.00     0.022 C 
BRANCH  15  16
HETATM   16  C14 UNL     1       8.248   8.221  24.850  1.00  0.00     0.122 C 
BRANCH  16  17
HETATM   17  N3  UNL     1       8.936   7.260  25.663  1.00  0.00    -0.367 N 
HETATM   18  C15 UNL     1      10.132   7.405  26.126  1.00  0.00     0.196 C 
HETATM   19  N4  UNL     1      10.646   6.341  26.913  1.00  0.00    -0.067 NA
HETATM   20  N5  UNL     1      10.907   8.556  25.872  1.00  0.00    -0.067 NA
ATOM     21  H3  UNL     1       8.444   6.397  25.893  1.00  0.00     0.161 HD
ENDBRANCH  16  17
ENDBRANCH  15  16
ENDBRANCH  14  15
ENDBRANCH  13  14
BRANCH  13  22
HETATM   22  N6  UNL     1       3.887   7.898  23.104  1.00  0.00    -0.354 N 
HETATM   23  C16 UNL     1       2.818   8.156  23.984  1.00  0.00     0.242 C 
HETATM   24  O3  UNL     1       3.005   8.836  25.014  1.00  0.00    -0.271 OA
ATOM     25  H6  UNL     1       3.735   7.342  22.263  1.00  0.00     0.162 HD
BRANCH  23  26
HETATM   26  C17 UNL     1       1.486   7.606  23.653  1.00  0.00     0.198 C 
HETATM   27  C18 UNL     1       0.678   7.478  24.926  1.00  0.00     0.159 C 
HETATM   28  N7  UNL     1       1.238   6.284  25.523  1.00  0.00    -0.341 N 
HETATM   29  C19 UNL     1       1.679   5.468  24.446  1.00  0.00     0.318 C 
ATOM     30  H7  UNL     1       1.303   6.071  26.519  1.00  0.00     0.164 HD
HETATM   31  O4  UNL     1       2.056   4.261  24.550  1.00  0.00    -0.247 OA
HETATM   32  N8  UNL     1       1.625   6.227  23.235  1.00  0.00    -0.323 N 
HETATM   33  C20 UNL     1       1.698   5.684  21.893  1.00  0.00     0.155 C 
ENDBRANCH  23  26
ENDBRANCH  13  22
ENDBRANCH  12  13
ENDBRANCH   7  12
BRANCH  11  34
HETATM   34  C24 UNL     1       5.495   5.070  21.439  1.00  0.00     0.029 C 
BRANCH  34  35
HETATM   35  C25 UNL     1       4.629   3.922  21.699  1.00  0.00     0.029 C 
BRANCH  35  36
HETATM   36  C26 UNL     1       5.015   2.596  21.143  1.00  0.00     0.230 C 
BRANCH  36  37
HETATM   37  N9  UNL     1       6.281   2.144  21.719  1.00  0.00    -0.079 N 
ATOM     38  H93 UNL     1       7.038   2.170  21.036  1.00  0.00     0.274 HD
ATOM     39  H92 UNL     1       6.654   2.818  22.387  1.00  0.00     0.274 HD
ATOM     40  H91 UNL     1       6.177   1.218  22.134  1.00  0.00     0.274 HD
ENDBRANCH  36  37
ENDBRANCH  35  36
ENDBRANCH  34  35
ENDBRANCH  11  34
BRANCH   1  41
HETATM   41  C5  UNL     1       7.131   3.320  18.087  1.00  0.00     0.103 C 
BRANCH  41  42
HETATM   42  C4  UNL     1       6.848   1.853  18.133  1.00  0.00     0.009 C 
BRANCH  42  43
HETATM   43  C3  UNL     1       7.978   0.981  18.541  1.00  0.00     0.000 C 
BRANCH  43  44
HETATM   44  C2  UNL     1       9.330   1.507  18.139  1.00  0.00    -0.005 C 
HETATM   45  C1  UNL     1      10.183   0.286  17.774  1.00  0.00     0.005 C 
ENDBRANCH  43  44
ENDBRANCH  42  43
ENDBRANCH  41  42
ENDBRANCH   1  41
TORSDOF 16
ENDMDL
MODEL 2
REMARK VINA RESULT: -7.384654026      3.084      4.590
REMARK  16 active torsions:
REMARK  status: ('A' for Active; 'I' for Inactive)
REMARK    1  A    between atoms: C2_2  and  C3_3 
REMARK    2  A    between atoms: C3_3  and  C4_4 
REMARK    3  A    between atoms: C4_4  and  C5_5 
REMARK    4  A    between atoms: C5_5  and  C6_6 
REMARK       I    between atoms: C6_6  and  N1_8 
REMARK       I    between atoms: N2_11  and  C9_12 
REMARK    5  A    between atoms: C9_12  and  C10_14 
REMARK    6  A    between atoms: C10_14  and  C11_15 
REMARK    7  A    between atoms: C11_15  and  C12_16 
REMARK    8  A    between atoms: C11_15  and  N6_24 
REMARK    9  A    between atoms: C12_16  and  C13_17 
REMARK   10  A    between atoms: C13_17  and  C14_18 
REMARK   11  A    between atoms: C14_18  and  N3_19 
REMARK       I    between atoms: N6_24  and  C16_26 
REMARK   12  A    between atoms: C16_26  and  C17_28 
REMARK   13  A    between atoms: C23_38  and  C24_39 
REMARK   14  A    between atoms: C24_39  and  C25_40 
REMARK   15  A    between atoms: C25_40  and  C26_41 
REMARK   16  A    between atoms: C26_41  and  N9_42 
ROOT
HETATM    1  C6  UNL     1       6.662   1.809  18.164  1.00  0.00     0.220 C 
HETATM    2  O1  UNL     1       6.238   1.487  17.023  1.00  0.00    -0.273 OA
HETATM    3  N1  UNL     1       6.071   2.902  18.875  1.00  0.00    -0.344 N 
HETATM    4  C7  UNL     1       4.979   3.605  18.216  1.00  0.00     0.146 C 
HETATM    5  C8  UNL     1       5.225   5.099  18.198  1.00  0.00     0.146 C 
HETATM    6  N2  UNL     1       5.838   5.570  19.403  1.00  0.00    -0.344 N 
HETATM    7  C9  UNL     1       5.367   6.744  20.081  1.00  0.00     0.222 C 
HETATM    8  O2  UNL     1       4.386   7.314  19.542  1.00  0.00    -0.273 OA
HETATM    9  C21 UNL     1       6.951   4.866  19.968  1.00  0.00     0.106 C 
HETATM   10  C22 UNL     1       8.208   4.954  19.167  1.00  0.00     0.034 C 
HETATM   11  C23 UNL     1       6.494   3.376  20.131  1.00  0.00     0.109 C 
ENDROOT
BRANCH   7  12
HETATM   12  C10 UNL     1       6.002   7.232  21.320  1.00  0.00     0.128 C 
BRANCH  12  13
HETATM   13  C11 UNL     1       7.078   8.208  21.018  1.00  0.00     0.093 C 
BRANCH  13  14
HETATM   14  C12 UNL     1       7.809   8.673  22.278  1.00  0.00     0.027 C 
BRANCH  14  15
HETATM   15  C13 UNL     1       7.844   7.555  23.263  1.00  0.00     0.022 C 
BRANCH  15  16
HETATM   16  C14 UNL     1       7.782   8.096  24.700  1.00  0.00     0.122 C 
BRANCH  16  17
HETATM   17  N3  UNL     1       8.595   7.258  25.534  1.00  0.00    -0.367 N 
HETATM   18  C15 UNL     1       9.807   7.523  25.891  1.00  0.00     0.196 C 
HETATM   19  N4  UNL     1      10.452   6.568  26.721  1.00  0.00    -0.067 NA
HETATM   20  N5  UNL     1      10.476   8.697  25.485  1.00  0.00    -0.067 NA
ATOM     21  H3  UNL     1       8.185   6.387  25.871  1.00  0.00     0.161 HD
ENDBRANCH  16  17
ENDBRANCH  15  16
ENDBRANCH  14  15
ENDBRANCH  13  14
BRANCH  13  22
HETATM   22  N6  UNL     1       6.533   9.371  20.332  1.00  0.00    -0.354 N 
HETATM   23  C16 UNL     1       6.940   9.656  19.014  1.00  0.00     0.242 C 
HETATM   24  O3  UNL     1       7.764   8.914  18.440  1.00  0.00    -0.271 OA
ATOM     25  H6  UNL     1       5.861   9.976  20.803  1.00  0.00     0.162 HD
BRANCH  23  26
HETATM   26  C17 UNL     1       6.368  10.841  18.342  1.00  0.00     0.198 C 
HETATM   27  C18 UNL     1       4.974  11.084  18.878  1.00  0.00     0.159 C 
HETATM   28  N7  UNL     1       4.200  10.076  18.184  1.00  0.00    -0.341 N 
HETATM   29  C19 UNL     1       4.849   9.864  16.937  1.00  0.00     0.318 C 
ATOM     30  H7  UNL     1       3.359   9.610  18.524  1.00  0.00     0.164 HD
HETATM   31  O4  UNL     1       4.372   9.194  15.971  1.00  0.00    -0.247 OA
HETATM   32  N8  UNL     1       6.113  10.530  16.951  1.00  0.00    -0.323 N 
HETATM   33  C20 UNL     1       6.934  10.811  15.789  1.00  0.00     0.155 C 
ENDBRANCH  23  26
ENDBRANCH  13  22
ENDBRANCH  12  13
ENDBRANCH   7  12
BRANCH  11  34
HETATM   34  C24 UNL     1       5.627   3.386  21.307  1.00  0.00     0.029 C 
BRANCH  34  35
HETATM   35  C25 UNL     1       4.910   2.207  21.789  1.00  0.00     0.029 C 
BRANCH  35  36
HETATM   36  C26 UNL     1       3.497   2.008  21.365  1.00  0.00     0.230 C 
BRANCH  36  37
HETATM   37  N9  UNL     1       3.411   1.006  20.304  1.00  0.00    -0.079 N 
ATOM     38  H93 UNL     1       4.329   0.632  20.063  1.00  0.00     0.274 HD
ATOM     39  H92 UNL     1       2.976   0.144  20.633  1.00  0.00     0.274 HD
ATOM     40  H91 UNL     1       2.930   1.385  19.489  1.00  0.00     0.274 HD
ENDBRANCH  36  37
ENDBRANCH  35  36
ENDBRANCH  34  35
ENDBRANCH  11  34
BRANCH   1  41
HETATM   41  C5  UNL     1       7.776   1.014  18.713  1.00  0.00     0.103 C 
BRANCH  41  42
HETATM   42  C4  UNL     1       9.134   1.423  18.242  1.00  0.00     0.009 C 
BRANCH  42  43
HETATM   43  C3  UNL     1       9.964   0.355  17.630  1.00  0.00     0.000 C 
BRANCH  43  44
HETATM   44  C2  UNL     1       9.355  -0.263  16.400  1.00  0.00    -0.005 C 
HETATM   45  C1  UNL     1      10.108  -1.574  16.151  1.00  0.00     0.005 C 
ENDBRANCH  43  44
ENDBRANCH  42  43
ENDBRANCH  41  42
ENDBRANCH   1  41
TORSDOF 16
ENDMDL
MODEL 3
REMARK VINA RESULT: -7.323608034      2.056      2.675
REMARK  16 active torsions:
REMARK  status: ('A' for Active; 'I' for Inactive)
REMARK    1  A    between atoms: C2_2  and  C3_3 
REMARK    2  A    between atoms: C3_3  and  C4_4 
REMARK    3  A    between atoms: C4_4  and  C5_5 
REMARK    4  A    between atoms: C5_5  and  C6_6 
REMARK       I    between atoms: C6_6  and  N1_8 
REMARK       I    between atoms: N2_11  and  C9_12 
REMARK    5  A    between atoms: C9_12  and  C10_14 
REMARK    6  A    between atoms: C10_14  and  C11_15 
REMARK    7  A    between atoms: C11_15  and  C12_16 
REMARK    8  A    between atoms: C11_15  and  N6_24 
REMARK    9  A    between atoms: C12_16  and  C13_17 
REMARK   10  A    between atoms: C13_17  and  C14_18 
REMARK   11  A    between atoms: C14_18  and  N3_19 
REMARK       I    between atoms: N6_24  and  C16_26 
REMARK   12  A    between atoms: C16_26  and  C17_28 
REMARK   13  A    between atoms: C23_38  and  C24_39 
REMARK   14  A    between atoms: C24_39  and  C25_40 
REMARK   15  A    between atoms: C25_40  and  C26_41 
REMARK   16  A    between atoms: C26_41  and  N9_42 
ROOT
HETATM    1  C6  UNL     1       5.278   2.452  18.745  1.00  0.00     0.220 C 
HETATM    2  O1  UNL     1       4.683   2.052  17.711  1.00  0.00    -0.273 OA
HETATM    3  N1  UNL     1       5.329   3.848  19.058  1.00  0.00    -0.344 N 
HETATM    4  C7  UNL     1       4.670   4.757  18.131  1.00  0.00     0.146 C 
HETATM    5  C8  UNL     1       5.600   5.874  17.709  1.00  0.00     0.146 C 
HETATM    6  N2  UNL     1       6.437   6.326  18.780  1.00  0.00    -0.344 N 
HETATM    7  C9  UNL     1       6.629   7.723  19.050  1.00  0.00     0.222 C 
HETATM    8  O2  UNL     1       6.011   8.504  18.284  1.00  0.00    -0.273 OA
HETATM    9  C21 UNL     1       7.108   5.379  19.620  1.00  0.00     0.106 C 
HETATM   10  C22 UNL     1       8.201   4.620  18.944  1.00  0.00     0.034 C 
HETATM   11  C23 UNL     1       6.003   4.408  20.160  1.00  0.00     0.109 C 
ENDROOT
BRANCH   7  12
HETATM   12  C10 UNL     1       7.495   8.189  20.149  1.00  0.00     0.128 C 
BRANCH  12  13
HETATM   13  C11 UNL     1       6.772   9.140  21.031  1.00  0.00     0.093 C 
BRANCH  13  14
HETATM   14  C12 UNL     1       7.682   9.747  22.098  1.00  0.00     0.027 C 
BRANCH  14  15
HETATM   15  C13 UNL     1       8.970   8.998  22.127  1.00  0.00     0.022 C 
BRANCH  15  16
HETATM   16  C14 UNL     1       9.777   9.352  23.386  1.00  0.00     0.122 C 
BRANCH  16  17
HETATM   17  N3  UNL     1       9.321   8.520  24.463  1.00  0.00    -0.367 N 
HETATM   18  C15 UNL     1      10.074   8.037  25.394  1.00  0.00     0.196 C 
HETATM   19  N4  UNL     1       9.439   7.233  26.376  1.00  0.00    -0.067 NA
HETATM   20  N5  UNL     1      11.462   8.285  25.448  1.00  0.00    -0.067 NA
ATOM     21  H3  UNL     1       8.327   8.294  24.496  1.00  0.00     0.161 HD
ENDBRANCH  16  17
ENDBRANCH  15  16
ENDBRANCH  14  15
ENDBRANCH  13  14
BRANCH  13  22
HETATM   22  N6  UNL     1       5.654   8.477  21.685  1.00  0.00    -0.354 N 
HETATM   23  C16 UNL     1       4.340   8.921  21.440  1.00  0.00     0.242 C 
HETATM   24  O3  UNL     1       4.139   9.879  20.665  1.00  0.00    -0.271 OA
ATOM     25  H6  UNL     1       5.820   7.694  22.319  1.00  0.00     0.162 HD
BRANCH  23  26
HETATM   26  C17 UNL     1       3.225   8.227  22.116  1.00  0.00     0.198 C 
HETATM   27  C18 UNL     1       1.943   8.989  21.858  1.00  0.00     0.159 C 
HETATM   28  N7  UNL     1       2.062  10.103  22.775  1.00  0.00    -0.341 N 
HETATM   29  C19 UNL     1       2.828   9.633  23.877  1.00  0.00     0.318 C 
ATOM     30  H7  UNL     1       1.674  11.039  22.654  1.00  0.00     0.164 HD
HETATM   31  O4  UNL     1       2.991  10.255  24.971  1.00  0.00    -0.247 OA
HETATM   32  N8  UNL     1       3.377   8.355  23.551  1.00  0.00    -0.323 N 
HETATM   33  C20 UNL     1       3.954   7.416  24.493  1.00  0.00     0.155 C 
ENDBRANCH  23  26
ENDBRANCH  13  22
ENDBRANCH  12  13
ENDBRANCH   7  12
BRANCH  11  34
HETATM   34  C24 UNL     1       5.321   5.173  21.201  1.00  0.00     0.029 C 
BRANCH  34  35
HETATM   35  C25 UNL     1       4.139   4.689  21.912  1.00  0.00     0.029 C 
BRANCH  35  36
HETATM   36  C26 UNL     1       4.135   3.290  22.422  1.00  0.00     0.230 C 
BRANCH  36  37
HETATM   37  N9  UNL     1       3.021   2.535  21.851  1.00  0.00    -0.079 N 
ATOM     38  H93 UNL     1       2.935   2.688  20.846  1.00  0.00     0.274 HD
ATOM     39  H92 UNL     1       3.211   1.533  21.837  1.00  0.00     0.274 HD
ATOM     40  H91 UNL     1       2.153   2.749  22.342  1.00  0.00     0.274 HD
ENDBRANCH  36  37
ENDBRANCH  35  36
ENDBRANCH  34  35
ENDBRANCH  11  34
BRANCH   1  41
HETATM   41  C5  UNL     1       5.905   1.424  19.596  1.00  0.00     0.103 C 
BRANCH  41  42
HETATM   42  C4  UNL     1       7.395   1.356  19.509  1.00  0.00     0.009 C 
BRANCH  42  43
HETATM   43  C3  UNL     1       7.958   0.988  18.185  1.00  0.00     0.000 C 
BRANCH  43  44
HETATM   44  C2  UNL     1       9.399   1.380  18.003  1.00  0.00    -0.005 C 
HETATM   45  C1  UNL     1      10.170   0.089  17.708  1.00  0.00     0.005 C 
ENDBRANCH  43  44
ENDBRANCH  42  43
ENDBRANCH  41  42
ENDBRANCH   1  41
TORSDOF 16
ENDMDL
MODEL 4
REMARK VINA RESULT: -7.275061284      1.213      1.336
REMARK  16 active torsions:
REMARK  status: ('A' for Active; 'I' for Inactive)
REMARK    1  A    between atoms: C2_2  and  C3_3 
REMARK    2  A    between atoms: C3_3  and  C4_4 
REMARK    3  A    between atoms: C4_4  and  C5_5 
REMARK    4  A    between atoms: C5_5  and  C6_6 
REMARK       I    between atoms: C6_6  and  N1_8 
REMARK       I    between atoms: N2_11  and  C9_12 
REMARK    5  A    between atoms: C9_12  and  C10_14 
REMARK    6  A    between atoms: C10_14  and  C11_15 
REMARK    7  A    between atoms: C11_15  and  C12_16 
REMARK    8  A    between atoms: C11_15  and  N6_24 
REMARK    9  A    between atoms: C12_16  and  C13_17 
REMARK   10  A    between atoms: C13_17  and  C14_18 
REMARK   11  A    between atoms: C14_18  and  N3_19 
REMARK       I    between atoms: N6_24  and  C16_26 
REMARK   12  A    between atoms: C16_26  and  C17_28 
REMARK   13  A    between atoms: C23_38  and  C24_39 
REMARK   14  A    between atoms: C24_39  and  C25_40 
REMARK   15  A    between atoms: C25_40  and  C26_41 
REMARK   16  A    between atoms: C26_41  and  N9_42 
ROOT
HETATM    1  C6  UNL     1       4.676   2.430  18.423  1.00  0.00     0.220 C 
HETATM    2  O1  UNL     1       3.954   2.201  17.418  1.00  0.00    -0.273 OA
HETATM    3  N1  UNL     1       4.511   3.638  19.175  1.00  0.00    -0.344 N 
HETATM    4  C7  UNL     1       3.486   4.565  18.717  1.00  0.00     0.146 C 
HETATM    5  C8  UNL     1       4.047   5.962  18.558  1.00  0.00     0.146 C 
HETATM    6  N2  UNL     1       4.996   6.293  19.579  1.00  0.00    -0.344 N 
HETATM    7  C9  UNL     1       4.955   7.551  20.268  1.00  0.00     0.222 C 
HETATM    8  O2  UNL     1       4.033   8.326  19.911  1.00  0.00    -0.273 OA
HETATM    9  C21 UNL     1       6.019   5.358  19.941  1.00  0.00     0.106 C 
HETATM   10  C22 UNL     1       7.061   5.146  18.893  1.00  0.00     0.034 C 
HETATM   11  C23 UNL     1       5.290   4.015  20.285  1.00  0.00     0.109 C 
ENDROOT
BRANCH   7  12
HETATM   12  C10 UNL     1       5.935   7.894  21.315  1.00  0.00     0.128 C 
BRANCH  12  13
HETATM   13  C11 UNL     1       5.273   8.054  22.634  1.00  0.00     0.093 C 
BRANCH  13  14
HETATM   14  C12 UNL     1       5.994   7.287  23.742  1.00  0.00     0.027 C 
BRANCH  14  15
HETATM   15  C13 UNL     1       6.838   8.234  24.524  1.00  0.00     0.022 C 
BRANCH  15  16
HETATM   16  C14 UNL     1       8.329   8.003  24.233  1.00  0.00     0.122 C 
BRANCH  16  17
HETATM   17  N3  UNL     1       8.893   7.265  25.326  1.00  0.00    -0.367 N 
HETATM   18  C15 UNL     1       9.975   7.585  25.954  1.00  0.00     0.196 C 
HETATM   19  N4  UNL     1      10.377   6.728  27.012  1.00  0.00    -0.067 NA
HETATM   20  N5  UNL     1      10.735   8.726  25.618  1.00  0.00    -0.067 NA
ATOM     21  H3  UNL     1       8.403   6.424  25.631  1.00  0.00     0.161 HD
ENDBRANCH  16  17
ENDBRANCH  15  16
ENDBRANCH  14  15
ENDBRANCH  13  14
BRANCH  13  22
HETATM   22  N6  UNL     1       3.891   7.600  22.568  1.00  0.00    -0.354 N 
HETATM   23  C16 UNL     1       2.953   8.084  23.499  1.00  0.00     0.242 C 
HETATM   24  O3  UNL     1       3.307   8.898  24.378  1.00  0.00    -0.271 OA
ATOM     25  H6  UNL     1       3.604   6.934  21.850  1.00  0.00     0.162 HD
BRANCH  23  26
HETATM   26  C17 UNL     1       1.557   7.608  23.405  1.00  0.00     0.198 C 
HETATM   27  C18 UNL     1       0.904   7.730  24.765  1.00  0.00     0.159 C 
HETATM   28  N7  UNL     1       1.452   6.589  25.469  1.00  0.00    -0.341 N 
HETATM   29  C19 UNL     1       1.702   5.595  24.483  1.00  0.00     0.318 C 
ATOM     30  H7  UNL     1       1.623   6.513  26.471  1.00  0.00     0.164 HD
HETATM   31  O4  UNL     1       2.006   4.387  24.725  1.00  0.00    -0.247 OA
HETATM   32  N8  UNL     1       1.551   6.177  23.186  1.00  0.00    -0.323 N 
HETATM   33  C20 UNL     1       1.422   5.446  21.941  1.00  0.00     0.155 C 
ENDBRANCH  23  26
ENDBRANCH  13  22
ENDBRANCH  12  13
ENDBRANCH   7  12
BRANCH  11  34
HETATM   34  C24 UNL     1       4.722   4.237  21.613  1.00  0.00     0.029 C 
BRANCH  34  35
HETATM   35  C25 UNL     1       4.402   3.156  22.543  1.00  0.00     0.029 C 
BRANCH  35  36
HETATM   36  C26 UNL     1       3.263   2.252  22.222  1.00  0.00     0.230 C 
BRANCH  36  37
HETATM   37  N9  UNL     1       2.642   1.750  23.447  1.00  0.00    -0.079 N 
ATOM     38  H93 UNL     1       2.178   0.854  23.295  1.00  0.00     0.274 HD
ATOM     39  H92 UNL     1       3.339   1.448  24.128  1.00  0.00     0.274 HD
ATOM     40  H91 UNL     1       2.006   2.445  23.839  1.00  0.00     0.274 HD
ENDBRANCH  36  37
ENDBRANCH  35  36
ENDBRANCH  34  35
ENDBRANCH  11  34
BRANCH   1  41
HETATM   41  C5  UNL     1       5.677   1.406  18.776  1.00  0.00     0.103 C 
BRANCH  41  42
HETATM   42  C4  UNL     1       6.956   1.484  18.006  1.00  0.00     0.009 C 
BRANCH  42  43
HETATM   43  C3  UNL     1       8.186   1.098  18.741  1.00  0.00     0.000 C 
BRANCH  43  44
HETATM   44  C2  UNL     1       9.458   1.585  18.101  1.00  0.00    -0.005 C 
HETATM   45  C1  UNL     1      10.278   0.338  17.753  1.00  0.00     0.005 C 
ENDBRANCH  43  44
ENDBRANCH  42  43
ENDBRANCH  41  42
ENDBRANCH   1  41
TORSDOF 16
ENDMDL
MODEL 5
REMARK VINA RESULT: -7.254508799      2.372      3.973
REMARK  16 active torsions:
REMARK  status: ('A' for Active; 'I' for Inactive)
REMARK    1  A    between atoms: C2_2  and  C3_3 
REMARK    2  A    between atoms: C3_3  and  C4_4 
REMARK    3  A    between atoms: C4_4  and  C5_5 
REMARK    4  A    between atoms: C5_5  and  C6_6 
REMARK       I    between atoms: C6_6  and  N1_8 
REMARK       I    between atoms: N2_11  and  C9_12 
REMARK    5  A    between atoms: C9_12  and  C10_14 
REMARK    6  A    between atoms: C10_14  and  C11_15 
REMARK    7  A    between atoms: C11_15  and  C12_16 
REMARK    8  A    between atoms: C11_15  and  N6_24 
REMARK    9  A    between atoms: C12_16  and  C13_17 
REMARK   10  A    between atoms: C13_17  and  C14_18 
REMARK   11  A    between atoms: C14_18  and  N3_19 
REMARK       I    between atoms: N6_24  and  C16_26 
REMARK   12  A    between atoms: C16_26  and  C17_28 
REMARK   13  A    between atoms: C23_38  and  C24_39 
REMARK   14  A    between atoms: C24_39  and  C25_40 
REMARK   15  A    between atoms: C25_40  and  C26_41 
REMARK   16  A    between atoms: C26_41  and  N9_42 
ROOT
HETATM    1  C6  UNL     1       6.140   1.753  18.420  1.00  0.00     0.220 C 
HETATM    2  O1  UNL     1       5.803   1.674  17.210  1.00  0.00    -0.273 OA
HETATM    3  N1  UNL     1       5.351   2.510  19.345  1.00  0.00    -0.344 N 
HETATM    4  C7  UNL     1       4.166   3.170  18.816  1.00  0.00     0.146 C 
HETATM    5  C8  UNL     1       4.145   4.636  19.193  1.00  0.00     0.146 C 
HETATM    6  N2  UNL     1       4.641   4.870  20.516  1.00  0.00    -0.344 N 
HETATM    7  C9  UNL     1       3.956   5.733  21.437  1.00  0.00     0.222 C 
HETATM    8  O2  UNL     1       2.901   6.254  20.997  1.00  0.00    -0.273 OA
HETATM    9  C21 UNL     1       5.848   4.237  20.955  1.00  0.00     0.106 C 
HETATM   10  C22 UNL     1       7.086   4.737  20.287  1.00  0.00     0.034 C 
HETATM   11  C23 UNL     1       5.658   2.702  20.706  1.00  0.00     0.109 C 
ENDROOT
BRANCH   7  12
HETATM   12  C10 UNL     1       4.470   5.978  22.798  1.00  0.00     0.128 C 
BRANCH  12  13
HETATM   13  C11 UNL     1       5.308   7.202  22.839  1.00  0.00     0.093 C 
BRANCH  13  14
HETATM   14  C12 UNL     1       5.342   7.835  24.229  1.00  0.00     0.027 C 
BRANCH  14  15
HETATM   15  C13 UNL     1       6.666   8.487  24.438  1.00  0.00     0.022 C 
BRANCH  15  16
HETATM   16  C14 UNL     1       7.808   7.528  24.067  1.00  0.00     0.122 C 
BRANCH  16  17
HETATM   17  N3  UNL     1       8.891   7.738  24.984  1.00  0.00    -0.367 N 
HETATM   18  C15 UNL     1       9.922   8.480  24.754  1.00  0.00     0.196 C 
HETATM   19  N4  UNL     1      10.893   8.563  25.786  1.00  0.00    -0.067 NA
HETATM   20  N5  UNL     1      10.094   9.180  23.541  1.00  0.00    -0.067 NA
ATOM     21  H3  UNL     1       8.843   7.265  25.887  1.00  0.00     0.161 HD
ENDBRANCH  16  17
ENDBRANCH  15  16
ENDBRANCH  14  15
ENDBRANCH  13  14
BRANCH  13  22
HETATM   22  N6  UNL     1       4.820   8.186  21.883  1.00  0.00    -0.354 N 
HETATM   23  C16 UNL     1       5.668   8.640  20.855  1.00  0.00     0.242 C 
HETATM   24  O3  UNL     1       6.834   8.200  20.767  1.00  0.00    -0.271 OA
ATOM     25  H6  UNL     1       3.867   8.544  21.958  1.00  0.00     0.162 HD
BRANCH  23  26
HETATM   26  C17 UNL     1       5.144   9.636  19.899  1.00  0.00     0.198 C 
HETATM   27  C18 UNL     1       3.682   9.347  19.640  1.00  0.00     0.159 C 
HETATM   28  N7  UNL     1       3.751   8.222  18.730  1.00  0.00    -0.341 N 
HETATM   29  C19 UNL     1       4.960   8.375  17.999  1.00  0.00     0.318 C 
ATOM     30  H7  UNL     1       3.067   7.471  18.634  1.00  0.00     0.164 HD
HETATM   31  O4  UNL     1       5.287   7.695  16.979  1.00  0.00    -0.247 OA
HETATM   32  N8  UNL     1       5.738   9.414  18.597  1.00  0.00    -0.323 N 
HETATM   33  C20 UNL     1       6.876  10.076  17.989  1.00  0.00     0.155 C 
ENDBRANCH  23  26
ENDBRANCH  13  22
ENDBRANCH  12  13
ENDBRANCH   7  12
BRANCH  11  34
HETATM   34  C24 UNL     1       4.779   2.262  21.786  1.00  0.00     0.029 C 
BRANCH  34  35
HETATM   35  C25 UNL     1       4.177   0.931  21.842  1.00  0.00     0.029 C 
BRANCH  35  36
HETATM   36  C26 UNL     1       3.330   0.580  23.015  1.00  0.00     0.230 C 
BRANCH  36  37
HETATM   37  N9  UNL     1       3.428  -0.849  23.313  1.00  0.00    -0.079 N 
ATOM     38  H93 UNL     1       2.820  -1.116  24.088  1.00  0.00     0.274 HD
ATOM     39  H92 UNL     1       3.003  -1.417  22.581  1.00  0.00     0.274 HD
ATOM     40  H91 UNL     1       4.398  -1.115  23.483  1.00  0.00     0.274 HD
ENDBRANCH  36  37
ENDBRANCH  35  36
ENDBRANCH  34  35
ENDBRANCH  11  34
BRANCH   1  41
HETATM   41  C5  UNL     1       7.365   1.037  18.821  1.00  0.00     0.103 C 
BRANCH  41  42
HETATM   42  C4  UNL     1       8.627   1.829  18.698  1.00  0.00     0.009 C 
BRANCH  42  43
HETATM   43  C3  UNL     1       9.522   1.463  17.572  1.00  0.00     0.000 C 
BRANCH  43  44
HETATM   44  C2  UNL     1      10.216   0.139  17.750  1.00  0.00    -0.005 C 
HETATM   45  C1  UNL     1       9.821  -0.726  16.548  1.00  0.00     0.005 C 
ENDBRANCH  43  44
ENDBRANCH  42  43
ENDBRANCH  41  42
ENDBRANCH   1  41
TORSDOF 16
ENDMDL
