MODEL 1
REMARK VINA RESULT: -7.655577476      0.000      0.000
REMARK  12 active torsions:
REMARK  status: ('A' for Active; 'I' for Inactive)
REMARK    1  A    between atoms: N1_1  and  C1_4 
REMARK    2  A    between atoms: C4_7  and  C5_8 
REMARK    3  A    between atoms: C6_9  and  C7_10 
REMARK    4  A    between atoms: N2_15  and  C12_16 
REMARK    5  A    between atoms: C12_16  and  O1_17 
REMARK    6  A    between atoms: O1_17  and  C13_18 
REMARK    7  A    between atoms: C13_18  and  C14_19 
REMARK    8  A    between atoms: C15_20  and  C16_21 
REMARK    9  A    between atoms: C17_22  and  C18_23 
REMARK   10  A    between atoms: C18_23  and  N3_24 
REMARK   11  A    between atoms: N4_27  and  O2_28 
REMARK   12  A    between atoms: C22_31  and  C23_32 
ROOT
HETATM    1  C7  UNL     1     -14.502 -26.724  21.035  1.00  0.00     0.090 A 
HETATM    2  C8  UNL     1     -14.187 -27.690  20.101  1.00  0.00     0.039 A 
HETATM    3  C9  UNL     1     -12.917 -28.202  19.958  1.00  0.00     0.004 A 
HETATM    4  C10 UNL     1     -11.913 -27.738  20.775  1.00  0.00     0.017 A 
HETATM    5  C11 UNL     1     -12.231 -26.775  21.706  1.00  0.00     0.094 A 
HETATM    6  N2  UNL     1     -13.480 -26.303  21.811  1.00  0.00    -0.328 N 
ENDROOT
BRANCH   6   7
HETATM    7  C12 UNL     1     -13.829 -25.275  22.802  1.00  0.00     0.299 C 
BRANCH   7   8
HETATM    8  O1  UNL     1     -13.005 -24.179  22.519  1.00  0.00    -0.360 OA
BRANCH   8   9
HETATM    9  C13 UNL     1     -13.777 -23.016  22.371  1.00  0.00     0.264 C 
BRANCH   9  10
HETATM   10  C14 UNL     1     -15.006 -23.175  23.182  1.00  0.00    -0.066 C 
HETATM   11  C15 UNL     1     -15.997 -23.309  23.860  1.00  0.00    -0.013 C 
BRANCH  11  12
HETATM   12  C16 UNL     1     -17.147 -23.466  24.678  1.00  0.00    -0.013 C 
HETATM   13  C17 UNL     1     -18.129 -23.615  25.360  1.00  0.00    -0.072 C 
BRANCH  13  14
HETATM   14  C18 UNL     1     -19.294 -23.801  26.204  1.00  0.00     0.223 C 
BRANCH  14  15
HETATM   15  N3  UNL     1     -19.848 -25.120  26.187  1.00  0.00    -0.346 N 
HETATM   16  C19 UNL     1     -20.676 -25.517  25.176  1.00  0.00     0.111 A 
HETATM   17  C20 UNL     1     -21.234 -26.757  25.104  1.00  0.00     0.139 A 
HETATM   18  N4  UNL     1     -20.953 -27.639  26.079  1.00  0.00    -0.244 N 
HETATM   19  C21 UNL     1     -20.137 -27.276  27.093  1.00  0.00     0.148 A 
HETATM   20  C22 UNL     1     -19.572 -25.999  27.153  1.00  0.00     0.040 A 
BRANCH  18  21
HETATM   21  O2  UNL     1     -21.520 -28.898  26.005  1.00  0.00    -0.284 OA
ATOM     22  H2  UNL     1     -21.869 -29.187  25.170  1.00  0.00     0.245 HD
ENDBRANCH  18  21
BRANCH  20  23
HETATM   23  C23 UNL     1     -18.705 -25.725  28.298  1.00  0.00     0.144 C 
HETATM   24 BR1  UNL     1     -16.901 -26.292  27.899  1.00  0.00    -0.090 Br
ENDBRANCH  20  23
ENDBRANCH  14  15
ENDBRANCH  13  14
ENDBRANCH  11  12
ENDBRANCH   9  10
ENDBRANCH   8   9
ENDBRANCH   7   8
ENDBRANCH   6   7
BRANCH   1  25
HETATM   25  C6  UNL     1     -15.838 -26.208  21.160  1.00  0.00    -0.043 C 
HETATM   26  C5  UNL     1     -16.969 -25.795  21.266  1.00  0.00    -0.059 C 
BRANCH  26  27
HETATM   27  C4  UNL     1     -18.319 -25.328  21.393  1.00  0.00     0.033 A 
HETATM   28  C3  UNL     1     -18.599 -23.983  21.501  1.00  0.00     0.026 A 
HETATM   29  C2  UNL     1     -19.881 -23.508  21.622  1.00  0.00     0.049 A 
HETATM   30  C1  UNL     1     -20.925 -24.405  21.636  1.00  0.00     0.098 A 
HETATM   31  N5  UNL     1     -20.673 -25.714  21.532  1.00  0.00    -0.351 N 
HETATM   32  C24 UNL     1     -19.424 -26.166  21.415  1.00  0.00     0.110 A 
ATOM     33  H5  UNL     1     -21.448 -26.378  21.543  1.00  0.00     0.166 HD
BRANCH  30  34
HETATM   34  N1  UNL     1     -22.162 -23.972  21.752  1.00  0.00    -0.385 N 
ATOM     35  H12 UNL     1     -22.920 -24.624  21.953  1.00  0.00     0.157 HD
ATOM     36  H11 UNL     1     -22.366 -22.979  21.641  1.00  0.00     0.157 HD
ENDBRANCH  30  34
ENDBRANCH  26  27
ENDBRANCH   1  25
TORSDOF 12
ENDMDL
MODEL 2
REMARK VINA RESULT: -7.496243468      2.605      3.140
REMARK  12 active torsions:
REMARK  status: ('A' for Active; 'I' for Inactive)
REMARK    1  A    between atoms: N1_1  and  C1_4 
REMARK    2  A    between atoms: C4_7  and  C5_8 
REMARK    3  A    between atoms: C6_9  and  C7_10 
REMARK    4  A    between atoms: N2_15  and  C12_16 
REMARK    5  A    between atoms: C12_16  and  O1_17 
REMARK    6  A    between atoms: O1_17  and  C13_18 
REMARK    7  A    between atoms: C13_18  and  C14_19 
REMARK    8  A    between atoms: C15_20  and  C16_21 
REMARK    9  A    between atoms: C17_22  and  C18_23 
REMARK   10  A    between atoms: C18_23  and  N3_24 
REMARK   11  A    between atoms: N4_27  and  O2_28 
REMARK   12  A    between atoms: C22_31  and  C23_32 
ROOT
HETATM    1  C7  UNL     1     -14.510 -26.725  21.048  1.00  0.00     0.090 A 
HETATM    2  C8  UNL     1     -14.190 -27.664  20.089  1.00  0.00     0.039 A 
HETATM    3  C9  UNL     1     -12.919 -28.174  19.942  1.00  0.00     0.004 A 
HETATM    4  C10 UNL     1     -11.920 -27.735  20.781  1.00  0.00     0.017 A 
HETATM    5  C11 UNL     1     -12.244 -26.799  21.736  1.00  0.00     0.094 A 
HETATM    6  N2  UNL     1     -13.494 -26.328  21.844  1.00  0.00    -0.328 N 
ENDROOT
BRANCH   6   7
HETATM    7  C12 UNL     1     -13.849 -25.328  22.861  1.00  0.00     0.299 C 
BRANCH   7   8
HETATM    8  O1  UNL     1     -13.016 -24.228  22.621  1.00  0.00    -0.360 OA
BRANCH   8   9
HETATM    9  C13 UNL     1     -13.786 -23.083  22.363  1.00  0.00     0.264 C 
BRANCH   9  10
HETATM   10  C14 UNL     1     -15.020 -23.167  23.176  1.00  0.00    -0.066 C 
HETATM   11  C15 UNL     1     -16.016 -23.238  23.857  1.00  0.00    -0.013 C 
BRANCH  11  12
HETATM   12  C16 UNL     1     -17.173 -23.317  24.677  1.00  0.00    -0.013 C 
HETATM   13  C17 UNL     1     -18.163 -23.395  25.358  1.00  0.00    -0.072 C 
BRANCH  13  14
HETATM   14  C18 UNL     1     -19.341 -23.505  26.197  1.00  0.00     0.223 C 
BRANCH  14  15
HETATM   15  N3  UNL     1     -20.353 -22.525  25.949  1.00  0.00    -0.346 N 
HETATM   16  C19 UNL     1     -21.281 -22.712  24.963  1.00  0.00     0.111 A 
HETATM   17  C20 UNL     1     -22.266 -21.817  24.678  1.00  0.00     0.139 A 
HETATM   18  N4  UNL     1     -22.332 -20.688  25.406  1.00  0.00    -0.244 N 
HETATM   19  C21 UNL     1     -21.428 -20.475  26.388  1.00  0.00     0.148 A 
HETATM   20  C22 UNL     1     -20.422 -21.403  26.668  1.00  0.00     0.040 A 
BRANCH  18  21
HETATM   21  O2  UNL     1     -23.333 -19.780  25.117  1.00  0.00    -0.284 OA
ATOM     22  H2  UNL     1     -24.115 -20.096  24.679  1.00  0.00     0.245 HD
ENDBRANCH  18  21
BRANCH  20  23
HETATM   23  C23 UNL     1     -19.505 -21.059  27.754  1.00  0.00     0.144 C 
HETATM   24 BR1  UNL     1     -18.126 -19.877  27.092  1.00  0.00    -0.090 Br
ENDBRANCH  20  23
ENDBRANCH  14  15
ENDBRANCH  13  14
ENDBRANCH  11  12
ENDBRANCH   9  10
ENDBRANCH   8   9
ENDBRANCH   7   8
ENDBRANCH   6   7
BRANCH   1  25
HETATM   25  C6  UNL     1     -15.846 -26.210  21.177  1.00  0.00    -0.043 C 
HETATM   26  C5  UNL     1     -16.978 -25.796  21.278  1.00  0.00    -0.059 C 
BRANCH  26  27
HETATM   27  C4  UNL     1     -18.328 -25.327  21.389  1.00  0.00     0.033 A 
HETATM   28  C3  UNL     1     -18.609 -23.980  21.468  1.00  0.00     0.026 A 
HETATM   29  C2  UNL     1     -19.891 -23.503  21.574  1.00  0.00     0.049 A 
HETATM   30  C1  UNL     1     -20.935 -24.399  21.602  1.00  0.00     0.098 A 
HETATM   31  N5  UNL     1     -20.682 -25.711  21.525  1.00  0.00    -0.351 N 
HETATM   32  C24 UNL     1     -19.434 -26.165  21.423  1.00  0.00     0.110 A 
ATOM     33  H5  UNL     1     -21.458 -26.374  21.546  1.00  0.00     0.166 HD
BRANCH  30  34
HETATM   34  N1  UNL     1     -22.172 -23.964  21.703  1.00  0.00    -0.385 N 
ATOM     35  H12 UNL     1     -22.845 -24.454  22.293  1.00  0.00     0.157 HD
ATOM     36  H11 UNL     1     -22.464 -23.133  21.189  1.00  0.00     0.157 HD
ENDBRANCH  30  34
ENDBRANCH  26  27
ENDBRANCH   1  25
TORSDOF 12
ENDMDL
MODEL 3
REMARK VINA RESULT: -7.491381942      3.060      7.557
REMARK  12 active torsions:
REMARK  status: ('A' for Active; 'I' for Inactive)
REMARK    1  A    between atoms: N1_1  and  C1_4 
REMARK    2  A    between atoms: C4_7  and  C5_8 
REMARK    3  A    between atoms: C6_9  and  C7_10 
REMARK    4  A    between atoms: N2_15  and  C12_16 
REMARK    5  A    between atoms: C12_16  and  O1_17 
REMARK    6  A    between atoms: O1_17  and  C13_18 
REMARK    7  A    between atoms: C13_18  and  C14_19 
REMARK    8  A    between atoms: C15_20  and  C16_21 
REMARK    9  A    between atoms: C17_22  and  C18_23 
REMARK   10  A    between atoms: C18_23  and  N3_24 
REMARK   11  A    between atoms: N4_27  and  O2_28 
REMARK   12  A    between atoms: C22_31  and  C23_32 
ROOT
HETATM    1  C7  UNL     1     -18.410 -21.580  27.127  1.00  0.00     0.090 A 
HETATM    2  C8  UNL     1     -18.204 -20.239  26.876  1.00  0.00     0.039 A 
HETATM    3  C9  UNL     1     -17.843 -19.344  27.859  1.00  0.00     0.004 A 
HETATM    4  C10 UNL     1     -17.678 -19.797  29.148  1.00  0.00     0.017 A 
HETATM    5  C11 UNL     1     -17.884 -21.135  29.393  1.00  0.00     0.094 A 
HETATM    6  N2  UNL     1     -18.235 -21.971  28.408  1.00  0.00    -0.328 N 
ENDROOT
BRANCH   6   7
HETATM    7  C12 UNL     1     -18.458 -23.402  28.661  1.00  0.00     0.299 C 
BRANCH   7   8
HETATM    8  O1  UNL     1     -17.204 -23.930  28.990  1.00  0.00    -0.360 OA
BRANCH   8   9
HETATM    9  C13 UNL     1     -17.090 -25.245  28.513  1.00  0.00     0.264 C 
BRANCH   9  10
HETATM   10  C14 UNL     1     -16.661 -25.185  27.097  1.00  0.00    -0.066 C 
HETATM   11  C15 UNL     1     -16.325 -25.120  25.939  1.00  0.00    -0.013 C 
BRANCH  11  12
HETATM   12  C16 UNL     1     -15.940 -25.022  24.575  1.00  0.00    -0.013 C 
HETATM   13  C17 UNL     1     -15.594 -24.942  23.424  1.00  0.00    -0.072 C 
BRANCH  13  14
HETATM   14  C18 UNL     1     -15.191 -24.870  22.032  1.00  0.00     0.223 C 
BRANCH  14  15
HETATM   15  N3  UNL     1     -14.188 -25.813  21.644  1.00  0.00    -0.346 N 
HETATM   16  C19 UNL     1     -14.501 -26.878  20.847  1.00  0.00     0.111 A 
HETATM   17  C20 UNL     1     -13.593 -27.809  20.444  1.00  0.00     0.139 A 
HETATM   18  N4  UNL     1     -12.318 -27.673  20.851  1.00  0.00    -0.244 N 
HETATM   19  C21 UNL     1     -11.978 -26.630  21.640  1.00  0.00     0.148 A 
HETATM   20  C22 UNL     1     -12.922 -25.683  22.045  1.00  0.00     0.040 A 
BRANCH  18  21
HETATM   21  O2  UNL     1     -11.396 -28.618  20.442  1.00  0.00    -0.284 OA
ATOM     22  H2  UNL     1     -10.579 -28.687  20.922  1.00  0.00     0.245 HD
ENDBRANCH  18  21
BRANCH  20  23
HETATM   23  C23 UNL     1     -12.432 -24.600  22.897  1.00  0.00     0.144 C 
HETATM   24 BR1  UNL     1     -10.798 -25.148  23.773  1.00  0.00    -0.090 Br
ENDBRANCH  20  23
ENDBRANCH  14  15
ENDBRANCH  13  14
ENDBRANCH  11  12
ENDBRANCH   9  10
ENDBRANCH   8   9
ENDBRANCH   7   8
ENDBRANCH   6   7
BRANCH   1  25
HETATM   25  C6  UNL     1     -18.787 -22.489  26.080  1.00  0.00    -0.043 C 
HETATM   26  C5  UNL     1     -19.094 -23.270  25.208  1.00  0.00    -0.059 C 
BRANCH  26  27
HETATM   27  C4  UNL     1     -19.442 -24.213  24.186  1.00  0.00     0.033 A 
HETATM   28  C3  UNL     1     -19.303 -23.899  22.851  1.00  0.00     0.026 A 
HETATM   29  C2  UNL     1     -19.628 -24.782  21.852  1.00  0.00     0.049 A 
HETATM   30  C1  UNL     1     -20.109 -26.025  22.193  1.00  0.00     0.098 A 
HETATM   31  N5  UNL     1     -20.251 -26.348  23.483  1.00  0.00    -0.351 N 
HETATM   32  C24 UNL     1     -19.933 -25.484  24.446  1.00  0.00     0.110 A 
ATOM     33  H5  UNL     1     -20.608 -27.270  23.733  1.00  0.00     0.166 HD
BRANCH  30  34
HETATM   34  N1  UNL     1     -20.427 -26.887  21.251  1.00  0.00    -0.385 N 
ATOM     35  H12 UNL     1     -20.493 -26.587  20.278  1.00  0.00     0.157 HD
ATOM     36  H11 UNL     1     -20.609 -27.861  21.492  1.00  0.00     0.157 HD
ENDBRANCH  30  34
ENDBRANCH  26  27
ENDBRANCH   1  25
TORSDOF 12
ENDMDL
MODEL 4
REMARK VINA RESULT: -7.437138408      2.344      7.114
REMARK  12 active torsions:
REMARK  status: ('A' for Active; 'I' for Inactive)
REMARK    1  A    between atoms: N1_1  and  C1_4 
REMARK    2  A    between atoms: C4_7  and  C5_8 
REMARK    3  A    between atoms: C6_9  and  C7_10 
REMARK    4  A    between atoms: N2_15  and  C12_16 
REMARK    5  A    between atoms: C12_16  and  O1_17 
REMARK    6  A    between atoms: O1_17  and  C13_18 
REMARK    7  A    between atoms: C13_18  and  C14_19 
REMARK    8  A    between atoms: C15_20  and  C16_21 
REMARK    9  A    between atoms: C17_22  and  C18_23 
REMARK   10  A    between atoms: C18_23  and  N3_24 
REMARK   11  A    between atoms: N4_27  and  O2_28 
REMARK   12  A    between atoms: C22_31  and  C23_32 
ROOT
HETATM    1  C7  UNL     1     -19.915 -26.635  26.964  1.00  0.00     0.090 A 
HETATM    2  C8  UNL     1     -20.024 -28.005  27.090  1.00  0.00     0.039 A 
HETATM    3  C9  UNL     1     -19.969 -28.648  28.306  1.00  0.00     0.004 A 
HETATM    4  C10 UNL     1     -19.799 -27.902  29.450  1.00  0.00     0.017 A 
HETATM    5  C11 UNL     1     -19.690 -26.537  29.320  1.00  0.00     0.094 A 
HETATM    6  N2  UNL     1     -19.748 -25.951  28.117  1.00  0.00    -0.328 N 
ENDROOT
BRANCH   6   7
HETATM    7  C12 UNL     1     -19.633 -24.494  27.968  1.00  0.00     0.299 C 
BRANCH   7   8
HETATM    8  O1  UNL     1     -18.312 -24.254  27.574  1.00  0.00    -0.360 OA
BRANCH   8   9
HETATM    9  C13 UNL     1     -18.217 -23.019  26.915  1.00  0.00     0.264 C 
BRANCH   9  10
HETATM   10  C14 UNL     1     -17.491 -23.231  25.643  1.00  0.00    -0.066 C 
HETATM   11  C15 UNL     1     -16.915 -23.402  24.595  1.00  0.00    -0.013 C 
BRANCH  11  12
HETATM   12  C16 UNL     1     -16.258 -23.593  23.351  1.00  0.00    -0.013 C 
HETATM   13  C17 UNL     1     -15.685 -23.744  22.302  1.00  0.00    -0.072 C 
BRANCH  13  14
HETATM   14  C18 UNL     1     -14.992 -23.953  21.044  1.00  0.00     0.223 C 
BRANCH  14  15
HETATM   15  N3  UNL     1     -14.213 -25.151  20.976  1.00  0.00    -0.346 N 
HETATM   16  C19 UNL     1     -14.627 -26.212  20.222  1.00  0.00     0.111 A 
HETATM   17  C20 UNL     1     -13.932 -27.378  20.117  1.00  0.00     0.139 A 
HETATM   18  N4  UNL     1     -12.773 -27.491  20.791  1.00  0.00    -0.244 N 
HETATM   19  C21 UNL     1     -12.337 -26.458  21.545  1.00  0.00     0.148 A 
HETATM   20  C22 UNL     1     -13.063 -25.268  21.643  1.00  0.00     0.040 A 
BRANCH  18  21
HETATM   21  O2  UNL     1     -12.067 -28.674  20.684  1.00  0.00    -0.284 OA
ATOM     22  H2  UNL     1     -11.491 -28.789  19.937  1.00  0.00     0.245 HD
ENDBRANCH  18  21
BRANCH  20  23
HETATM   23  C23 UNL     1     -12.488 -24.224  22.490  1.00  0.00     0.144 C 
HETATM   24 BR1  UNL     1     -11.248 -25.012  23.746  1.00  0.00    -0.090 Br
ENDBRANCH  20  23
ENDBRANCH  14  15
ENDBRANCH  13  14
ENDBRANCH  11  12
ENDBRANCH   9  10
ENDBRANCH   8   9
ENDBRANCH   7   8
ENDBRANCH   6   7
BRANCH   1  25
HETATM   25  C6  UNL     1     -19.975 -25.993  25.680  1.00  0.00    -0.043 C 
HETATM   26  C5  UNL     1     -20.018 -25.471  24.590  1.00  0.00    -0.059 C 
BRANCH  26  27
HETATM   27  C4  UNL     1     -20.057 -24.872  23.287  1.00  0.00     0.033 A 
HETATM   28  C3  UNL     1     -20.714 -23.679  23.073  1.00  0.00     0.026 A 
HETATM   29  C2  UNL     1     -20.768 -23.084  21.838  1.00  0.00     0.049 A 
HETATM   30  C1  UNL     1     -20.145 -23.696  20.775  1.00  0.00     0.098 A 
HETATM   31  N5  UNL     1     -19.502 -24.854  20.964  1.00  0.00    -0.351 N 
HETATM   32  C24 UNL     1     -19.455 -25.425  22.167  1.00  0.00     0.110 A 
ATOM     33  H5  UNL     1     -19.040 -25.306  20.175  1.00  0.00     0.166 HD
BRANCH  30  34
HETATM   34  N1  UNL     1     -20.183 -23.143  19.583  1.00  0.00    -0.385 N 
ATOM     35  H12 UNL     1     -21.069 -22.820  19.192  1.00  0.00     0.157 HD
ATOM     36  H11 UNL     1     -19.325 -23.034  19.043  1.00  0.00     0.157 HD
ENDBRANCH  30  34
ENDBRANCH  26  27
ENDBRANCH   1  25
TORSDOF 12
ENDMDL
MODEL 5
REMARK VINA RESULT: -7.333732596      3.036      3.806
REMARK  12 active torsions:
REMARK  status: ('A' for Active; 'I' for Inactive)
REMARK    1  A    between atoms: N1_1  and  C1_4 
REMARK    2  A    between atoms: C4_7  and  C5_8 
REMARK    3  A    between atoms: C6_9  and  C7_10 
REMARK    4  A    between atoms: N2_15  and  C12_16 
REMARK    5  A    between atoms: C12_16  and  O1_17 
REMARK    6  A    between atoms: O1_17  and  C13_18 
REMARK    7  A    between atoms: C13_18  and  C14_19 
REMARK    8  A    between atoms: C15_20  and  C16_21 
REMARK    9  A    between atoms: C17_22  and  C18_23 
REMARK   10  A    between atoms: C18_23  and  N3_24 
REMARK   11  A    between atoms: N4_27  and  O2_28 
REMARK   12  A    between atoms: C22_31  and  C23_32 
ROOT
HETATM    1  C7  UNL     1     -14.483 -26.784  20.989  1.00  0.00     0.090 A 
HETATM    2  C8  UNL     1     -14.219 -27.762  20.053  1.00  0.00     0.039 A 
HETATM    3  C9  UNL     1     -12.966 -28.307  19.879  1.00  0.00     0.004 A 
HETATM    4  C10 UNL     1     -11.928 -27.864  20.667  1.00  0.00     0.017 A 
HETATM    5  C11 UNL     1     -12.197 -26.889  21.600  1.00  0.00     0.094 A 
HETATM    6  N2  UNL     1     -13.431 -26.385  21.736  1.00  0.00    -0.328 N 
ENDROOT
BRANCH   6   7
HETATM    7  C12 UNL     1     -13.727 -25.343  22.729  1.00  0.00     0.299 C 
BRANCH   7   8
HETATM    8  O1  UNL     1     -12.809 -24.315  22.487  1.00  0.00    -0.360 OA
BRANCH   8   9
HETATM    9  C13 UNL     1     -13.484 -23.111  22.233  1.00  0.00     0.264 C 
BRANCH   9  10
HETATM   10  C14 UNL     1     -14.724 -23.100  23.043  1.00  0.00    -0.066 C 
HETATM   11  C15 UNL     1     -15.725 -23.100  23.719  1.00  0.00    -0.013 C 
BRANCH  11  12
HETATM   12  C16 UNL     1     -16.888 -23.105  24.534  1.00  0.00    -0.013 C 
HETATM   13  C17 UNL     1     -17.864 -23.102  25.240  1.00  0.00    -0.072 C 
BRANCH  13  14
HETATM   14  C18 UNL     1     -19.049 -23.077  26.076  1.00  0.00     0.223 C 
BRANCH  14  15
HETATM   15  N3  UNL     1     -19.358 -21.803  26.650  1.00  0.00    -0.346 N 
HETATM   16  C19 UNL     1     -18.362 -20.946  27.024  1.00  0.00     0.111 A 
HETATM   17  C20 UNL     1     -18.590 -19.722  27.575  1.00  0.00     0.139 A 
HETATM   18  N4  UNL     1     -19.865 -19.335  27.759  1.00  0.00    -0.244 N 
HETATM   19  C21 UNL     1     -20.872 -20.161  27.400  1.00  0.00     0.148 A 
HETATM   20  C22 UNL     1     -20.621 -21.415  26.836  1.00  0.00     0.040 A 
BRANCH  18  21
HETATM   21  O2  UNL     1     -20.097 -18.092  28.319  1.00  0.00    -0.284 OA
ATOM     22  H2  UNL     1     -19.360 -17.620  28.688  1.00  0.00     0.245 HD
ENDBRANCH  18  21
BRANCH  20  23
HETATM   23  C23 UNL     1     -21.793 -22.217  26.487  1.00  0.00     0.144 C 
HETATM   24 BR1  UNL     1     -22.472 -21.665  24.764  1.00  0.00    -0.090 Br
ENDBRANCH  20  23
ENDBRANCH  14  15
ENDBRANCH  13  14
ENDBRANCH  11  12
ENDBRANCH   9  10
ENDBRANCH   8   9
ENDBRANCH   7   8
ENDBRANCH   6   7
BRANCH   1  25
HETATM   25  C6  UNL     1     -15.802 -26.234  21.146  1.00  0.00    -0.043 C 
HETATM   26  C5  UNL     1     -16.920 -25.787  21.267  1.00  0.00    -0.059 C 
BRANCH  26  27
HETATM   27  C4  UNL     1     -18.253 -25.277  21.396  1.00  0.00     0.033 A 
HETATM   28  C3  UNL     1     -18.490 -23.923  21.497  1.00  0.00     0.026 A 
HETATM   29  C2  UNL     1     -19.756 -23.407  21.620  1.00  0.00     0.049 A 
HETATM   30  C1  UNL     1     -20.827 -24.269  21.645  1.00  0.00     0.098 A 
HETATM   31  N5  UNL     1     -20.617 -25.587  21.548  1.00  0.00    -0.351 N 
HETATM   32  C24 UNL     1     -19.385 -26.079  21.428  1.00  0.00     0.110 A 
ATOM     33  H5  UNL     1     -21.413 -26.225  21.566  1.00  0.00     0.166 HD
BRANCH  30  34
HETATM   34  N1  UNL     1     -22.049 -23.796  21.762  1.00  0.00    -0.385 N 
ATOM     35  H12 UNL     1     -22.653 -23.718  20.944  1.00  0.00     0.157 HD
ATOM     36  H11 UNL     1     -22.397 -23.506  22.676  1.00  0.00     0.157 HD
ENDBRANCH  30  34
ENDBRANCH  26  27
ENDBRANCH   1  25
TORSDOF 12
ENDMDL
