MODEL 1
REMARK VINA RESULT: -6.820737623      0.000      0.000
REMARK  10 active torsions:
REMARK  status: ('A' for Active; 'I' for Inactive)
REMARK    1  A    between atoms: C2_2  and  S1_3 
REMARK    2  A    between atoms: S1_3  and  C4_5 
REMARK    3  A    between atoms: C5_6  and  C6_7 
REMARK       I    between atoms: C6_7  and  N1_9 
REMARK    4  A    between atoms: N1_9  and  C7_11 
REMARK    5  A    between atoms: N4_22  and  C14_24 
REMARK    6  A    between atoms: C14_24  and  C15_25 
REMARK    7  A    between atoms: C15_25  and  C16_27 
REMARK    8  A    between atoms: C17_28  and  C18_29 
REMARK    9  A    between atoms: C19_30  and  C20_31 
REMARK   10  A    between atoms: C20_31  and  O3_32 
ROOT
HETATM    1  C4  UNL     1     -17.595 -24.781  28.317  1.00  0.00     0.255 C 
HETATM    2  C5  UNL     1     -16.886 -23.829  29.191  1.00  0.00     0.119 C 
HETATM    3  C10 UNL     1     -17.908 -22.805  29.782  1.00  0.00     0.019 C 
HETATM    4  C11 UNL     1     -18.296 -21.914  28.662  1.00  0.00     0.029 C 
HETATM    5  C12 UNL     1     -18.092 -22.608  27.359  1.00  0.00     0.239 C 
HETATM    6  N4  UNL     1     -18.392 -24.042  27.395  1.00  0.00    -0.050 N 
HETATM    7  C13 UNL     1     -19.821 -24.085  27.766  1.00  0.00     0.274 C 
ENDROOT
BRANCH   2   8
HETATM    8  C6  UNL     1     -16.011 -24.296  30.246  1.00  0.00     0.242 C 
HETATM    9  O1  UNL     1     -14.830 -24.659  30.028  1.00  0.00    -0.272 OA
HETATM   10  N1  UNL     1     -16.472 -24.356  31.586  1.00  0.00    -0.159 N 
ATOM     11  H1  UNL     1     -17.378 -24.789  31.764  1.00  0.00     0.187 HD
BRANCH  10  12
HETATM   12  C7  UNL     1     -15.814 -23.898  32.585  1.00  0.00     0.685 A 
HETATM   13  N2  UNL     1     -14.680 -24.413  33.073  1.00  0.00    -0.199 N 
HETATM   14  C8  UNL     1     -14.249 -23.687  34.130  1.00  0.00     0.144 A 
ATOM     15  H2  UNL     1     -14.206 -25.237  32.701  1.00  0.00     0.183 HD
HETATM   16  C9  UNL     1     -15.165 -22.675  34.297  1.00  0.00     0.112 A 
HETATM   17 BR1  UNL     1     -15.071 -21.338  35.641  1.00  0.00    -0.029 Br
HETATM   18  N3  UNL     1     -16.098 -22.831  33.348  1.00  0.00    -0.183 N 
ATOM     19  H3  UNL     1     -16.908 -22.225  33.222  1.00  0.00     0.185 HD
ENDBRANCH  10  12
ENDBRANCH   2   8
BRANCH   1  20
HETATM   20  S1  UNL     1     -18.407 -26.127  29.128  1.00  0.00    -0.193 SA
HETATM   21  C3  UNL     1     -17.128 -27.290  29.667  1.00  0.00     0.080 C 
BRANCH  20  22
HETATM   22  C2  UNL     1     -19.369 -27.103  27.998  1.00  0.00     0.060 C 
HETATM   23  C1  UNL     1     -18.958 -28.560  28.264  1.00  0.00     0.015 C 
ENDBRANCH  20  22
ENDBRANCH   1  20
BRANCH   6  24
HETATM   24  C14 UNL     1     -18.318 -24.533  26.065  1.00  0.00     0.331 C 
BRANCH  24  25
HETATM   25  C15 UNL     1     -18.188 -23.599  24.956  1.00  0.00     0.229 C 
HETATM   26  O2  UNL     1     -19.070 -22.833  24.574  1.00  0.00    -0.281 OA
BRANCH  25  27
HETATM   27  C16 UNL     1     -16.929 -23.568  24.254  1.00  0.00    -0.013 C 
HETATM   28  C17 UNL     1     -15.868 -23.560  23.664  1.00  0.00    -0.007 C 
BRANCH  28  29
HETATM   29  C18 UNL     1     -14.631 -23.571  22.971  1.00  0.00    -0.013 C 
HETATM   30  C19 UNL     1     -13.577 -23.599  22.385  1.00  0.00    -0.066 C 
BRANCH  30  31
HETATM   31  C20 UNL     1     -12.277 -23.657  21.676  1.00  0.00     0.261 C 
BRANCH  31  32
HETATM   32  O3  UNL     1     -12.133 -24.972  21.240  1.00  0.00    -0.384 OA
HETATM   33  C21 UNL     1     -11.668 -25.772  22.279  1.00  0.00     0.202 C 
ENDBRANCH  31  32
ENDBRANCH  30  31
ENDBRANCH  28  29
ENDBRANCH  25  27
ENDBRANCH  24  25
ENDBRANCH   6  24
TORSDOF 10
ENDMDL
MODEL 2
REMARK VINA RESULT: -6.699023229      5.947      8.410
REMARK  10 active torsions:
REMARK  status: ('A' for Active; 'I' for Inactive)
REMARK    1  A    between atoms: C2_2  and  S1_3 
REMARK    2  A    between atoms: S1_3  and  C4_5 
REMARK    3  A    between atoms: C5_6  and  C6_7 
REMARK       I    between atoms: C6_7  and  N1_9 
REMARK    4  A    between atoms: N1_9  and  C7_11 
REMARK    5  A    between atoms: N4_22  and  C14_24 
REMARK    6  A    between atoms: C14_24  and  C15_25 
REMARK    7  A    between atoms: C15_25  and  C16_27 
REMARK    8  A    between atoms: C17_28  and  C18_29 
REMARK    9  A    between atoms: C19_30  and  C20_31 
REMARK   10  A    between atoms: C20_31  and  O3_32 
ROOT
HETATM    1  C4  UNL     1     -20.446 -23.948  24.027  1.00  0.00     0.255 C 
HETATM    2  C5  UNL     1     -20.518 -24.030  22.557  1.00  0.00     0.119 C 
HETATM    3  C10 UNL     1     -20.747 -25.517  22.131  1.00  0.00     0.019 C 
HETATM    4  C11 UNL     1     -19.467 -26.222  22.382  1.00  0.00     0.029 C 
HETATM    5  C12 UNL     1     -18.684 -25.506  23.429  1.00  0.00     0.239 C 
HETATM    6  N4  UNL     1     -19.507 -24.916  24.489  1.00  0.00    -0.050 N 
HETATM    7  C13 UNL     1     -20.187 -26.083  25.085  1.00  0.00     0.274 C 
ENDROOT
BRANCH   2   8
HETATM    8  C6  UNL     1     -21.412 -23.174  21.806  1.00  0.00     0.242 C 
HETATM    9  O1  UNL     1     -22.445 -23.610  21.245  1.00  0.00    -0.272 OA
HETATM   10  N1  UNL     1     -21.142 -21.787  21.683  1.00  0.00    -0.159 N 
ATOM     11  H1  UNL     1     -20.198 -21.503  21.422  1.00  0.00     0.187 HD
BRANCH  10  12
HETATM   12  C7  UNL     1     -22.016 -20.872  21.883  1.00  0.00     0.685 A 
HETATM   13  N2  UNL     1     -22.270 -20.281  23.056  1.00  0.00    -0.199 N 
HETATM   14  C8  UNL     1     -23.250 -19.360  22.916  1.00  0.00     0.144 A 
ATOM     15  H2  UNL     1     -21.792 -20.494  23.932  1.00  0.00     0.183 HD
HETATM   16  C9  UNL     1     -23.614 -19.387  21.590  1.00  0.00     0.112 A 
HETATM   17 BR1  UNL     1     -24.958 -18.296  20.812  1.00  0.00    -0.029 Br
HETATM   18  N3  UNL     1     -22.849 -20.311  20.994  1.00  0.00    -0.183 N 
ATOM     19  H3  UNL     1     -22.894 -20.554  20.004  1.00  0.00     0.185 HD
ENDBRANCH  10  12
ENDBRANCH   2   8
BRANCH   1  20
HETATM   20  S1  UNL     1     -21.993 -23.910  24.883  1.00  0.00    -0.193 SA
HETATM   21  C3  UNL     1     -21.663 -23.366  26.579  1.00  0.00     0.080 C 
BRANCH  20  22
HETATM   22  C2  UNL     1     -22.665 -25.537  25.120  1.00  0.00     0.060 C 
HETATM   23  C1  UNL     1     -23.859 -25.631  24.157  1.00  0.00     0.015 C 
ENDBRANCH  20  22
ENDBRANCH   1  20
BRANCH   6  24
HETATM   24  C14 UNL     1     -18.631 -24.420  25.492  1.00  0.00     0.331 C 
BRANCH  24  25
HETATM   25  C15 UNL     1     -17.867 -23.206  25.246  1.00  0.00     0.229 C 
HETATM   26  O2  UNL     1     -18.153 -22.094  25.685  1.00  0.00    -0.281 OA
BRANCH  25  27
HETATM   27  C16 UNL     1     -16.686 -23.315  24.426  1.00  0.00    -0.013 C 
HETATM   28  C17 UNL     1     -15.687 -23.420  23.746  1.00  0.00    -0.007 C 
BRANCH  28  29
HETATM   29  C18 UNL     1     -14.517 -23.564  22.957  1.00  0.00    -0.013 C 
HETATM   30  C19 UNL     1     -13.513 -23.672  22.296  1.00  0.00    -0.066 C 
BRANCH  30  31
HETATM   31  C20 UNL     1     -12.270 -23.785  21.498  1.00  0.00     0.261 C 
BRANCH  31  32
HETATM   32  O3  UNL     1     -12.120 -25.138  21.204  1.00  0.00    -0.384 OA
HETATM   33  C21 UNL     1     -11.562 -25.804  22.291  1.00  0.00     0.202 C 
ENDBRANCH  31  32
ENDBRANCH  30  31
ENDBRANCH  28  29
ENDBRANCH  25  27
ENDBRANCH  24  25
ENDBRANCH   6  24
TORSDOF 10
ENDMDL
MODEL 3
REMARK VINA RESULT: -6.624307267      4.715      7.700
REMARK  10 active torsions:
REMARK  status: ('A' for Active; 'I' for Inactive)
REMARK    1  A    between atoms: C2_2  and  S1_3 
REMARK    2  A    between atoms: S1_3  and  C4_5 
REMARK    3  A    between atoms: C5_6  and  C6_7 
REMARK       I    between atoms: C6_7  and  N1_9 
REMARK    4  A    between atoms: N1_9  and  C7_11 
REMARK    5  A    between atoms: N4_22  and  C14_24 
REMARK    6  A    between atoms: C14_24  and  C15_25 
REMARK    7  A    between atoms: C15_25  and  C16_27 
REMARK    8  A    between atoms: C17_28  and  C18_29 
REMARK    9  A    between atoms: C19_30  and  C20_31 
REMARK   10  A    between atoms: C20_31  and  O3_32 
ROOT
HETATM    1  C4  UNL     1     -18.292 -24.185  25.008  1.00  0.00     0.255 C 
HETATM    2  C5  UNL     1     -16.823 -24.243  25.124  1.00  0.00     0.119 C 
HETATM    3  C10 UNL     1     -16.410 -25.571  25.838  1.00  0.00     0.019 C 
HETATM    4  C11 UNL     1     -16.792 -25.411  27.262  1.00  0.00     0.029 C 
HETATM    5  C12 UNL     1     -17.890 -24.411  27.390  1.00  0.00     0.239 C 
HETATM    6  N4  UNL     1     -18.858 -24.445  26.290  1.00  0.00    -0.050 N 
HETATM    7  C13 UNL     1     -19.415 -25.810  26.365  1.00  0.00     0.274 C 
ENDROOT
BRANCH   2   8
HETATM    8  C6  UNL     1     -15.976 -24.037  23.967  1.00  0.00     0.242 C 
HETATM    9  O1  UNL     1     -15.506 -22.913  23.672  1.00  0.00    -0.272 OA
HETATM   10  N1  UNL     1     -15.645 -25.124  23.119  1.00  0.00    -0.159 N 
ATOM     11  H1  UNL     1     -16.398 -25.738  22.807  1.00  0.00     0.187 HD
BRANCH  10  12
HETATM   12  C7  UNL     1     -14.454 -25.378  22.722  1.00  0.00     0.685 A 
HETATM   13  N2  UNL     1     -14.122 -25.879  21.526  1.00  0.00    -0.199 N 
HETATM   14  C8  UNL     1     -12.780 -26.025  21.433  1.00  0.00     0.144 A 
ATOM     15  H2  UNL     1     -14.786 -26.116  20.789  1.00  0.00     0.183 HD
HETATM   16  C9  UNL     1     -12.265 -25.590  22.632  1.00  0.00     0.112 A 
HETATM   17 BR1  UNL     1     -10.419 -25.565  23.072  1.00  0.00    -0.029 Br
HETATM   18  N3  UNL     1     -13.302 -25.207  23.388  1.00  0.00    -0.183 N 
ATOM     19  H3  UNL     1     -13.227 -24.836  24.335  1.00  0.00     0.185 HD
ENDBRANCH  10  12
ENDBRANCH   2   8
BRANCH   1  20
HETATM   20  S1  UNL     1     -19.003 -25.080  23.659  1.00  0.00    -0.193 SA
HETATM   21  C3  UNL     1     -18.811 -24.066  22.170  1.00  0.00     0.080 C 
BRANCH  20  22
HETATM   22  C2  UNL     1     -20.768 -25.221  23.808  1.00  0.00     0.060 C 
HETATM   23  C1  UNL     1     -21.146 -26.481  23.014  1.00  0.00     0.015 C 
ENDBRANCH  20  22
ENDBRANCH   1  20
BRANCH   6  24
HETATM   24  C14 UNL     1     -19.924 -23.568  26.625  1.00  0.00     0.331 C 
BRANCH  24  25
HETATM   25  C15 UNL     1     -19.905 -22.194  26.147  1.00  0.00     0.229 C 
HETATM   26  O2  UNL     1     -20.538 -21.777  25.179  1.00  0.00    -0.281 OA
BRANCH  25  27
HETATM   27  C16 UNL     1     -19.083 -21.249  26.862  1.00  0.00    -0.013 C 
HETATM   28  C17 UNL     1     -18.378 -20.457  27.452  1.00  0.00    -0.007 C 
BRANCH  28  29
HETATM   29  C18 UNL     1     -17.542 -19.530  28.125  1.00  0.00    -0.013 C 
HETATM   30  C19 UNL     1     -16.816 -18.750  28.690  1.00  0.00    -0.066 C 
BRANCH  30  31
HETATM   31  C20 UNL     1     -15.903 -17.806  29.377  1.00  0.00     0.261 C 
BRANCH  31  32
HETATM   32  O3  UNL     1     -14.727 -17.793  28.631  1.00  0.00    -0.384 OA
HETATM   33  C21 UNL     1     -14.994 -17.387  27.326  1.00  0.00     0.202 C 
ENDBRANCH  31  32
ENDBRANCH  30  31
ENDBRANCH  28  29
ENDBRANCH  25  27
ENDBRANCH  24  25
ENDBRANCH   6  24
TORSDOF 10
ENDMDL
MODEL 4
REMARK VINA RESULT: -6.613470156      5.372      7.969
REMARK  10 active torsions:
REMARK  status: ('A' for Active; 'I' for Inactive)
REMARK    1  A    between atoms: C2_2  and  S1_3 
REMARK    2  A    between atoms: S1_3  and  C4_5 
REMARK    3  A    between atoms: C5_6  and  C6_7 
REMARK       I    between atoms: C6_7  and  N1_9 
REMARK    4  A    between atoms: N1_9  and  C7_11 
REMARK    5  A    between atoms: N4_22  and  C14_24 
REMARK    6  A    between atoms: C14_24  and  C15_25 
REMARK    7  A    between atoms: C15_25  and  C16_27 
REMARK    8  A    between atoms: C17_28  and  C18_29 
REMARK    9  A    between atoms: C19_30  and  C20_31 
REMARK   10  A    between atoms: C20_31  and  O3_32 
ROOT
HETATM    1  C4  UNL     1     -20.627 -24.019  24.513  1.00  0.00     0.255 C 
HETATM    2  C5  UNL     1     -20.999 -24.024  23.086  1.00  0.00     0.119 C 
HETATM    3  C10 UNL     1     -21.302 -25.488  22.632  1.00  0.00     0.019 C 
HETATM    4  C11 UNL     1     -19.993 -26.184  22.578  1.00  0.00     0.029 C 
HETATM    5  C12 UNL     1     -19.016 -25.512  23.482  1.00  0.00     0.239 C 
HETATM    6  N4  UNL     1     -19.608 -24.995  24.718  1.00  0.00    -0.050 N 
HETATM    7  C13 UNL     1     -20.146 -26.204  25.374  1.00  0.00     0.274 C 
ENDROOT
BRANCH   2   8
HETATM    8  C6  UNL     1     -22.032 -23.143  22.583  1.00  0.00     0.242 C 
HETATM    9  O1  UNL     1     -23.242 -23.470  22.565  1.00  0.00    -0.272 OA
HETATM   10  N1  UNL     1     -21.699 -21.857  22.086  1.00  0.00    -0.159 N 
ATOM     11  H1  UNL     1     -20.923 -21.781  21.428  1.00  0.00     0.187 HD
BRANCH  10  12
HETATM   12  C7  UNL     1     -22.317 -20.785  22.419  1.00  0.00     0.685 A 
HETATM   13  N2  UNL     1     -23.305 -20.210  21.724  1.00  0.00    -0.199 N 
HETATM   14  C8  UNL     1     -23.735 -19.093  22.355  1.00  0.00     0.144 A 
ATOM     15  H2  UNL     1     -23.682 -20.563  20.845  1.00  0.00     0.183 HD
HETATM   16  C9  UNL     1     -22.972 -18.980  23.494  1.00  0.00     0.112 A 
HETATM   17 BR1  UNL     1     -23.136 -17.588  24.774  1.00  0.00    -0.029 Br
HETATM   18  N3  UNL     1     -22.125 -20.017  23.502  1.00  0.00    -0.183 N 
ATOM     19  H3  UNL     1     -21.433 -20.199  24.229  1.00  0.00     0.185 HD
ENDBRANCH  10  12
ENDBRANCH   2   8
BRANCH   1  20
HETATM   20  S1  UNL     1     -21.967 -24.054  25.667  1.00  0.00    -0.193 SA
HETATM   21  C3  UNL     1     -22.658 -22.381  25.749  1.00  0.00     0.080 C 
BRANCH  20  22
HETATM   22  C2  UNL     1     -21.407 -24.325  27.331  1.00  0.00     0.060 C 
HETATM   23  C1  UNL     1     -21.026 -22.935  27.866  1.00  0.00     0.015 C 
ENDBRANCH  20  22
ENDBRANCH   1  20
BRANCH   6  24
HETATM   24  C14 UNL     1     -18.549 -24.539  25.547  1.00  0.00     0.331 C 
BRANCH  24  25
HETATM   25  C15 UNL     1     -17.860 -23.299  25.221  1.00  0.00     0.229 C 
HETATM   26  O2  UNL     1     -18.202 -22.182  25.603  1.00  0.00    -0.281 OA
BRANCH  25  27
HETATM   27  C16 UNL     1     -16.686 -23.388  24.388  1.00  0.00    -0.013 C 
HETATM   28  C17 UNL     1     -15.690 -23.470  23.700  1.00  0.00    -0.007 C 
BRANCH  28  29
HETATM   29  C18 UNL     1     -14.518 -23.581  22.909  1.00  0.00    -0.013 C 
HETATM   30  C19 UNL     1     -13.511 -23.673  22.251  1.00  0.00    -0.066 C 
BRANCH  30  31
HETATM   31  C20 UNL     1     -12.259 -23.779  21.465  1.00  0.00     0.261 C 
BRANCH  31  32
HETATM   32  O3  UNL     1     -11.989 -25.141  21.350  1.00  0.00    -0.384 OA
HETATM   33  C21 UNL     1     -11.304 -25.588  22.476  1.00  0.00     0.202 C 
ENDBRANCH  31  32
ENDBRANCH  30  31
ENDBRANCH  28  29
ENDBRANCH  25  27
ENDBRANCH  24  25
ENDBRANCH   6  24
TORSDOF 10
ENDMDL
MODEL 5
REMARK VINA RESULT: -6.571515638      1.010      1.043
REMARK  10 active torsions:
REMARK  status: ('A' for Active; 'I' for Inactive)
REMARK    1  A    between atoms: C2_2  and  S1_3 
REMARK    2  A    between atoms: S1_3  and  C4_5 
REMARK    3  A    between atoms: C5_6  and  C6_7 
REMARK       I    between atoms: C6_7  and  N1_9 
REMARK    4  A    between atoms: N1_9  and  C7_11 
REMARK    5  A    between atoms: N4_22  and  C14_24 
REMARK    6  A    between atoms: C14_24  and  C15_25 
REMARK    7  A    between atoms: C15_25  and  C16_27 
REMARK    8  A    between atoms: C17_28  and  C18_29 
REMARK    9  A    between atoms: C19_30  and  C20_31 
REMARK   10  A    between atoms: C20_31  and  O3_32 
ROOT
HETATM    1  C4  UNL     1     -18.104 -24.973  27.327  1.00  0.00     0.255 C 
HETATM    2  C5  UNL     1     -17.313 -24.071  28.184  1.00  0.00     0.119 C 
HETATM    3  C10 UNL     1     -18.239 -22.948  28.751  1.00  0.00     0.019 C 
HETATM    4  C11 UNL     1     -18.544 -22.048  27.613  1.00  0.00     0.029 C 
HETATM    5  C12 UNL     1     -18.401 -22.784  26.324  1.00  0.00     0.239 C 
HETATM    6  N4  UNL     1     -18.830 -24.184  26.388  1.00  0.00    -0.050 N 
HETATM    7  C13 UNL     1     -20.257 -24.090  26.755  1.00  0.00     0.274 C 
ENDROOT
BRANCH   2   8
HETATM    8  C6  UNL     1     -16.485 -24.594  29.251  1.00  0.00     0.242 C 
HETATM    9  O1  UNL     1     -15.308 -24.983  29.058  1.00  0.00    -0.272 OA
HETATM   10  N1  UNL     1     -16.990 -24.682  30.573  1.00  0.00    -0.159 N 
ATOM     11  H1  UNL     1     -17.913 -25.094  30.709  1.00  0.00     0.187 HD
BRANCH  10  12
HETATM   12  C7  UNL     1     -16.353 -24.272  31.606  1.00  0.00     0.685 A 
HETATM   13  N2  UNL     1     -15.210 -24.789  32.071  1.00  0.00    -0.199 N 
HETATM   14  C8  UNL     1     -14.807 -24.121  33.177  1.00  0.00     0.144 A 
ATOM     15  H2  UNL     1     -14.712 -25.574  31.651  1.00  0.00     0.183 HD
HETATM   16  C9  UNL     1     -15.751 -23.146  33.399  1.00  0.00     0.112 A 
HETATM   17 BR1  UNL     1     -15.703 -21.897  34.828  1.00  0.00    -0.029 Br
HETATM   18  N3  UNL     1     -16.671 -23.265  32.433  1.00  0.00    -0.183 N 
ATOM     19  H3  UNL     1     -17.496 -22.673  32.339  1.00  0.00     0.185 HD
ENDBRANCH  10  12
ENDBRANCH   2   8
BRANCH   1  20
HETATM   20  S1  UNL     1     -19.035 -26.223  28.162  1.00  0.00    -0.193 SA
HETATM   21  C3  UNL     1     -17.879 -27.530  28.650  1.00  0.00     0.080 C 
BRANCH  20  22
HETATM   22  C2  UNL     1     -20.143 -27.075  27.065  1.00  0.00     0.060 C 
HETATM   23  C1  UNL     1     -20.213 -28.517  27.592  1.00  0.00     0.015 C 
ENDBRANCH  20  22
ENDBRANCH   1  20
BRANCH   6  24
HETATM   24  C14 UNL     1     -18.799 -24.706  25.068  1.00  0.00     0.331 C 
BRANCH  24  25
HETATM   25  C15 UNL     1     -18.467 -23.832  23.953  1.00  0.00     0.229 C 
HETATM   26  O2  UNL     1     -19.276 -23.151  23.327  1.00  0.00    -0.281 OA
BRANCH  25  27
HETATM   27  C16 UNL     1     -17.084 -23.758  23.552  1.00  0.00    -0.013 C 
HETATM   28  C17 UNL     1     -15.918 -23.712  23.217  1.00  0.00    -0.007 C 
BRANCH  28  29
HETATM   29  C18 UNL     1     -14.557 -23.680  22.820  1.00  0.00    -0.013 C 
HETATM   30  C19 UNL     1     -13.402 -23.668  22.471  1.00  0.00    -0.066 C 
BRANCH  30  31
HETATM   31  C20 UNL     1     -11.987 -23.677  22.031  1.00  0.00     0.261 C 
BRANCH  31  32
HETATM   32  O3  UNL     1     -11.808 -24.865  21.326  1.00  0.00    -0.384 OA
HETATM   33  C21 UNL     1     -11.607 -25.920  22.211  1.00  0.00     0.202 C 
ENDBRANCH  31  32
ENDBRANCH  30  31
ENDBRANCH  28  29
ENDBRANCH  25  27
ENDBRANCH  24  25
ENDBRANCH   6  24
TORSDOF 10
ENDMDL
