MODEL 1
REMARK VINA RESULT: -6.416895551      0.000      0.000
REMARK  8 active torsions:
REMARK  status: ('A' for Active; 'I' for Inactive)
REMARK    1  A    between atoms: C2_2  and  C3_3 
REMARK    2  A    between atoms: C4_4  and  C5_5 
REMARK    3  A    between atoms: C6_6  and  C7_7 
REMARK       I    between atoms: N1_11  and  C11_12 
REMARK    4  A    between atoms: C11_12  and  C12_14 
REMARK    5  A    between atoms: C12_14  and  C13_15 
REMARK    6  A    between atoms: C13_15  and  N2_16 
REMARK    7  A    between atoms: C13_15  and  C16_21 
REMARK       I    between atoms: N2_16  and  C14_18 
REMARK       I    between atoms: C16_21  and  N3_23 
REMARK    8  A    between atoms: C21_30  and  C22_31 
ROOT
HETATM    1  C7  UNL     1     -16.853 -28.659  29.493  1.00  0.00     0.079 A 
HETATM    2  C8  UNL     1     -16.867 -27.523  28.744  1.00  0.00     0.035 A 
HETATM    3  C9  UNL     1     -17.643 -28.755  28.310  1.00  0.00     0.027 A 
HETATM    4  C10 UNL     1     -18.997 -28.037  28.151  1.00  0.00     0.133 C 
HETATM    5  N1  UNL     1     -18.606 -26.810  27.433  1.00  0.00    -0.343 N 
HETATM    6  C11 UNL     1     -19.552 -26.041  26.665  1.00  0.00     0.222 C 
HETATM    7  O1  UNL     1     -20.720 -26.498  26.662  1.00  0.00    -0.273 OA
HETATM    8  C21 UNL     1     -17.204 -26.560  27.627  1.00  0.00     0.116 C 
ENDROOT
BRANCH   6   9
HETATM    9  C12 UNL     1     -19.149 -24.839  25.960  1.00  0.00     0.138 C 
BRANCH   9  10
HETATM   10  C13 UNL     1     -18.587 -24.956  24.579  1.00  0.00     0.185 C 
BRANCH  10  11
HETATM   11  N2  UNL     1     -19.722 -24.420  23.740  1.00  0.00    -0.348 N 
HETATM   12  C14 UNL     1     -20.377 -25.255  22.810  1.00  0.00     0.214 C 
HETATM   13  C15 UNL     1     -21.491 -24.679  22.005  1.00  0.00     0.117 C 
HETATM   14  O2  UNL     1     -20.049 -26.471  22.641  1.00  0.00    -0.274 OA
ATOM     15  H2  UNL     1     -20.017 -23.450  23.846  1.00  0.00     0.163 HD
ENDBRANCH  10  11
BRANCH  10  16
HETATM   16  C16 UNL     1     -17.450 -24.035  24.342  1.00  0.00     0.244 C 
HETATM   17  O3  UNL     1     -17.497 -22.958  25.050  1.00  0.00    -0.271 OA
HETATM   18  N3  UNL     1     -16.414 -24.277  23.438  1.00  0.00    -0.324 N 
HETATM   19  C17 UNL     1     -15.259 -23.377  23.244  1.00  0.00     0.224 C 
HETATM   20  C20 UNL     1     -16.287 -25.370  22.517  1.00  0.00     0.183 A 
HETATM   21  C18 UNL     1     -14.707 -23.842  21.953  1.00  0.00     0.219 C 
HETATM   22  O4  UNL     1     -13.560 -23.641  21.495  1.00  0.00    -0.278 OA
HETATM   23  N4  UNL     1     -15.732 -24.572  21.311  1.00  0.00    -0.226 NA
HETATM   24  C19 UNL     1     -16.871 -25.502  21.208  1.00  0.00     0.142 A 
ENDBRANCH  10  16
ENDBRANCH   9  10
ENDBRANCH   6   9
BRANCH   8  25
HETATM   25  C22 UNL     1     -16.912 -25.196  28.154  1.00  0.00     0.006 C 
HETATM   26  C23 UNL     1     -17.356 -24.766  29.313  1.00  0.00     0.054 C 
HETATM   27 BR1  UNL     1     -16.937 -23.009  29.910  1.00  0.00    -0.064 Br
ENDBRANCH   8  25
BRANCH   1  28
HETATM   28  C6  UNL     1     -16.355 -29.313  30.695  1.00  0.00    -0.087 C 
HETATM   29  C5  UNL     1     -15.927 -29.839  31.690  1.00  0.00    -0.015 C 
BRANCH  29  30
HETATM   30  C4  UNL     1     -15.405 -30.465  32.847  1.00  0.00    -0.015 C 
HETATM   31  C3  UNL     1     -14.939 -30.999  33.833  1.00  0.00    -0.093 C 
BRANCH  31  32
HETATM   32  C2  UNL     1     -14.362 -31.651  35.004  1.00  0.00     0.090 C 
HETATM   33  C1  UNL     1     -13.041 -32.270  34.621  1.00  0.00     0.018 C 
ENDBRANCH  31  32
ENDBRANCH  29  30
ENDBRANCH   1  28
TORSDOF 8
ENDMDL
MODEL 2
REMARK VINA RESULT: -6.319567521      3.278      3.701
REMARK  8 active torsions:
REMARK  status: ('A' for Active; 'I' for Inactive)
REMARK    1  A    between atoms: C2_2  and  C3_3 
REMARK    2  A    between atoms: C4_4  and  C5_5 
REMARK    3  A    between atoms: C6_6  and  C7_7 
REMARK       I    between atoms: N1_11  and  C11_12 
REMARK    4  A    between atoms: C11_12  and  C12_14 
REMARK    5  A    between atoms: C12_14  and  C13_15 
REMARK    6  A    between atoms: C13_15  and  N2_16 
REMARK    7  A    between atoms: C13_15  and  C16_21 
REMARK       I    between atoms: N2_16  and  C14_18 
REMARK       I    between atoms: C16_21  and  N3_23 
REMARK    8  A    between atoms: C21_30  and  C22_31 
ROOT
HETATM    1  C7  UNL     1     -16.303 -24.471  29.757  1.00  0.00     0.079 A 
HETATM    2  C8  UNL     1     -16.983 -23.813  28.779  1.00  0.00     0.035 A 
HETATM    3  C9  UNL     1     -16.572 -25.265  28.603  1.00  0.00     0.027 A 
HETATM    4  C10 UNL     1     -17.981 -25.783  28.257  1.00  0.00     0.133 C 
HETATM    5  N1  UNL     1     -18.452 -24.765  27.300  1.00  0.00    -0.343 N 
HETATM    6  C11 UNL     1     -19.509 -25.033  26.359  1.00  0.00     0.222 C 
HETATM    7  O1  UNL     1     -19.990 -26.190  26.426  1.00  0.00    -0.273 OA
HETATM    8  C21 UNL     1     -17.697 -23.553  27.472  1.00  0.00     0.116 C 
ENDROOT
BRANCH   6   9
HETATM    9  C12 UNL     1     -19.956 -24.021  25.421  1.00  0.00     0.138 C 
BRANCH   9  10
HETATM   10  C13 UNL     1     -19.643 -24.184  23.968  1.00  0.00     0.185 C 
BRANCH  10  11
HETATM   11  N2  UNL     1     -20.305 -22.964  23.373  1.00  0.00    -0.348 N 
HETATM   12  C14 UNL     1     -21.119 -23.084  22.226  1.00  0.00     0.214 C 
HETATM   13  C15 UNL     1     -21.750 -21.851  21.676  1.00  0.00     0.117 C 
HETATM   14  O2  UNL     1     -21.328 -24.199  21.655  1.00  0.00    -0.274 OA
ATOM     15  H2  UNL     1     -20.164 -22.050  23.802  1.00  0.00     0.163 HD
ENDBRANCH  10  11
BRANCH  10  16
HETATM   16  C16 UNL     1     -18.198 -24.033  23.672  1.00  0.00     0.244 C 
HETATM   17  O3  UNL     1     -17.664 -22.989  24.208  1.00  0.00    -0.271 OA
HETATM   18  N3  UNL     1     -17.458 -24.916  22.884  1.00  0.00    -0.324 N 
HETATM   19  C17 UNL     1     -16.008 -24.787  22.636  1.00  0.00     0.224 C 
HETATM   20  C20 UNL     1     -17.937 -26.050  22.146  1.00  0.00     0.183 A 
HETATM   21  C18 UNL     1     -15.805 -25.671  21.467  1.00  0.00     0.219 C 
HETATM   22  O4  UNL     1     -14.730 -26.167  21.061  1.00  0.00    -0.278 OA
HETATM   23  N4  UNL     1     -17.073 -25.859  20.874  1.00  0.00    -0.226 NA
HETATM   24  C19 UNL     1     -18.532 -26.070  20.836  1.00  0.00     0.142 A 
ENDBRANCH  10  16
ENDBRANCH   9  10
ENDBRANCH   6   9
BRANCH   8  25
HETATM   25  C22 UNL     1     -18.551 -22.351  27.697  1.00  0.00     0.006 C 
HETATM   26  C23 UNL     1     -18.318 -21.192  27.125  1.00  0.00     0.054 C 
HETATM   27 BR1  UNL     1     -19.458 -19.707  27.468  1.00  0.00    -0.064 Br
ENDBRANCH   8  25
BRANCH   1  28
HETATM   28  C6  UNL     1     -15.710 -24.394  31.084  1.00  0.00    -0.087 C 
HETATM   29  C5  UNL     1     -15.231 -24.312  32.186  1.00  0.00    -0.015 C 
BRANCH  29  30
HETATM   30  C4  UNL     1     -14.655 -24.196  33.473  1.00  0.00    -0.015 C 
HETATM   31  C3  UNL     1     -14.169 -24.080  34.580  1.00  0.00    -0.093 C 
BRANCH  31  32
HETATM   32  C2  UNL     1     -13.582 -23.915  35.906  1.00  0.00     0.090 C 
HETATM   33  C1  UNL     1     -12.564 -25.004  36.132  1.00  0.00     0.018 C 
ENDBRANCH  31  32
ENDBRANCH  29  30
ENDBRANCH   1  28
TORSDOF 8
ENDMDL
MODEL 3
REMARK VINA RESULT: -6.204011038      6.385      8.754
REMARK  8 active torsions:
REMARK  status: ('A' for Active; 'I' for Inactive)
REMARK    1  A    between atoms: C2_2  and  C3_3 
REMARK    2  A    between atoms: C4_4  and  C5_5 
REMARK    3  A    between atoms: C6_6  and  C7_7 
REMARK       I    between atoms: N1_11  and  C11_12 
REMARK    4  A    between atoms: C11_12  and  C12_14 
REMARK    5  A    between atoms: C12_14  and  C13_15 
REMARK    6  A    between atoms: C13_15  and  N2_16 
REMARK    7  A    between atoms: C13_15  and  C16_21 
REMARK       I    between atoms: N2_16  and  C14_18 
REMARK       I    between atoms: C16_21  and  N3_23 
REMARK    8  A    between atoms: C21_30  and  C22_31 
ROOT
HETATM    1  C7  UNL     1     -17.315 -23.810  25.047  1.00  0.00     0.079 A 
HETATM    2  C8  UNL     1     -18.652 -23.575  24.963  1.00  0.00     0.035 A 
HETATM    3  C9  UNL     1     -17.901 -23.355  26.265  1.00  0.00     0.027 A 
HETATM    4  C10 UNL     1     -18.372 -21.904  26.473  1.00  0.00     0.133 C 
HETATM    5  N1  UNL     1     -19.811 -22.006  26.165  1.00  0.00    -0.343 N 
HETATM    6  C11 UNL     1     -20.765 -21.038  26.645  1.00  0.00     0.222 C 
HETATM    7  O1  UNL     1     -20.272 -20.113  27.334  1.00  0.00    -0.273 OA
HETATM    8  C21 UNL     1     -20.054 -23.176  25.366  1.00  0.00     0.116 C 
ENDROOT
BRANCH   6   9
HETATM    9  C12 UNL     1     -22.177 -21.158  26.337  1.00  0.00     0.138 C 
BRANCH   9  10
HETATM   10  C13 UNL     1     -22.932 -19.945  25.894  1.00  0.00     0.185 C 
BRANCH  10  11
HETATM   11  N2  UNL     1     -22.427 -18.900  26.860  1.00  0.00    -0.348 N 
HETATM   12  C14 UNL     1     -23.336 -18.085  27.567  1.00  0.00     0.214 C 
HETATM   13  C15 UNL     1     -22.788 -17.067  28.508  1.00  0.00     0.117 C 
HETATM   14  O2  UNL     1     -24.594 -18.191  27.428  1.00  0.00    -0.274 OA
ATOM     15  H2  UNL     1     -21.424 -18.783  27.001  1.00  0.00     0.163 HD
ENDBRANCH  10  11
BRANCH  10  16
HETATM   16  C16 UNL     1     -22.522 -19.472  24.550  1.00  0.00     0.244 C 
HETATM   17  O3  UNL     1     -21.535 -18.643  24.569  1.00  0.00    -0.271 OA
HETATM   18  N3  UNL     1     -23.131 -19.864  23.357  1.00  0.00    -0.324 N 
HETATM   19  C17 UNL     1     -22.684 -19.429  22.018  1.00  0.00     0.224 C 
HETATM   20  C20 UNL     1     -24.293 -20.691  23.191  1.00  0.00     0.183 A 
HETATM   21  C18 UNL     1     -23.850 -19.759  21.170  1.00  0.00     0.219 C 
HETATM   22  O4  UNL     1     -23.878 -19.891  19.926  1.00  0.00    -0.278 OA
HETATM   23  N4  UNL     1     -24.957 -19.899  22.037  1.00  0.00    -0.226 NA
HETATM   24  C19 UNL     1     -25.677 -20.301  23.259  1.00  0.00     0.142 A 
ENDBRANCH  10  16
ENDBRANCH   9  10
ENDBRANCH   6   9
BRANCH   8  25
HETATM   25  C22 UNL     1     -20.784 -22.887  24.098  1.00  0.00     0.006 C 
HETATM   26  C23 UNL     1     -20.433 -23.395  22.939  1.00  0.00     0.054 C 
HETATM   27 BR1  UNL     1     -21.421 -22.973  21.368  1.00  0.00    -0.064 Br
ENDBRANCH   8  25
BRANCH   1  28
HETATM   28  C6  UNL     1     -16.112 -24.238  24.347  1.00  0.00    -0.087 C 
HETATM   29  C5  UNL     1     -15.107 -24.594  23.787  1.00  0.00    -0.015 C 
BRANCH  29  30
HETATM   30  C4  UNL     1     -13.916 -24.992  23.135  1.00  0.00    -0.015 C 
HETATM   31  C3  UNL     1     -12.885 -25.337  22.593  1.00  0.00    -0.093 C 
BRANCH  31  32
HETATM   32  C2  UNL     1     -11.634 -25.739  21.960  1.00  0.00     0.090 C 
HETATM   33  C1  UNL     1     -10.533 -25.726  22.991  1.00  0.00     0.018 C 
ENDBRANCH  31  32
ENDBRANCH  29  30
ENDBRANCH   1  28
TORSDOF 8
ENDMDL
MODEL 4
REMARK VINA RESULT: -6.197878139      3.566      4.185
REMARK  8 active torsions:
REMARK  status: ('A' for Active; 'I' for Inactive)
REMARK    1  A    between atoms: C2_2  and  C3_3 
REMARK    2  A    between atoms: C4_4  and  C5_5 
REMARK    3  A    between atoms: C6_6  and  C7_7 
REMARK       I    between atoms: N1_11  and  C11_12 
REMARK    4  A    between atoms: C11_12  and  C12_14 
REMARK    5  A    between atoms: C12_14  and  C13_15 
REMARK    6  A    between atoms: C13_15  and  N2_16 
REMARK    7  A    between atoms: C13_15  and  C16_21 
REMARK       I    between atoms: N2_16  and  C14_18 
REMARK       I    between atoms: C16_21  and  N3_23 
REMARK    8  A    between atoms: C21_30  and  C22_31 
ROOT
HETATM    1  C7  UNL     1     -19.140 -28.232  29.143  1.00  0.00     0.079 A 
HETATM    2  C8  UNL     1     -19.160 -27.287  28.164  1.00  0.00     0.035 A 
HETATM    3  C9  UNL     1     -18.053 -27.310  29.205  1.00  0.00     0.027 A 
HETATM    4  C10 UNL     1     -16.891 -27.323  28.195  1.00  0.00     0.133 C 
HETATM    5  N1  UNL     1     -17.319 -26.295  27.227  1.00  0.00    -0.343 N 
HETATM    6  C11 UNL     1     -16.382 -25.624  26.362  1.00  0.00     0.222 C 
HETATM    7  O1  UNL     1     -15.189 -25.987  26.500  1.00  0.00    -0.273 OA
HETATM    8  C21 UNL     1     -18.740 -26.104  27.320  1.00  0.00     0.116 C 
ENDROOT
BRANCH   6   9
HETATM    9  C12 UNL     1     -16.820 -24.612  25.420  1.00  0.00     0.138 C 
BRANCH   9  10
HETATM   10  C13 UNL     1     -16.496 -24.777  23.969  1.00  0.00     0.185 C 
BRANCH  10  11
HETATM   11  N2  UNL     1     -17.761 -24.279  23.313  1.00  0.00    -0.348 N 
HETATM   12  C14 UNL     1     -18.324 -24.981  22.227  1.00  0.00     0.214 C 
HETATM   13  C15 UNL     1     -19.574 -24.449  21.613  1.00  0.00     0.117 C 
HETATM   14  O2  UNL     1     -17.804 -26.043  21.761  1.00  0.00    -0.274 OA
ATOM     15  H2  UNL     1     -18.211 -23.432  23.658  1.00  0.00     0.163 HD
ENDBRANCH  10  11
BRANCH  10  16
HETATM   16  C16 UNL     1     -15.425 -23.859  23.512  1.00  0.00     0.244 C 
HETATM   17  O3  UNL     1     -15.618 -22.628  23.846  1.00  0.00    -0.271 OA
HETATM   18  N3  UNL     1     -14.305 -24.255  22.781  1.00  0.00    -0.324 N 
HETATM   19  C17 UNL     1     -13.217 -23.343  22.372  1.00  0.00     0.224 C 
HETATM   20  C20 UNL     1     -14.013 -25.559  22.253  1.00  0.00     0.183 A 
HETATM   21  C18 UNL     1     -12.528 -24.119  21.319  1.00  0.00     0.219 C 
HETATM   22  O4  UNL     1     -11.370 -23.949  20.877  1.00  0.00    -0.278 OA
HETATM   23  N4  UNL     1     -13.435 -25.113  20.887  1.00  0.00    -0.226 NA
HETATM   24  C19 UNL     1     -14.480 -26.144  21.024  1.00  0.00     0.142 A 
ENDBRANCH  10  16
ENDBRANCH   9  10
ENDBRANCH   6   9
BRANCH   8  25
HETATM   25  C22 UNL     1     -19.446 -26.254  26.014  1.00  0.00     0.006 C 
HETATM   26  C23 UNL     1     -20.696 -26.642  25.918  1.00  0.00     0.054 C 
HETATM   27 BR1  UNL     1     -21.520 -26.808  24.210  1.00  0.00    -0.064 Br
ENDBRANCH   8  25
BRANCH   1  28
HETATM   28  C6  UNL     1     -19.799 -29.394  29.720  1.00  0.00    -0.087 C 
HETATM   29  C5  UNL     1     -20.364 -30.347  30.193  1.00  0.00    -0.015 C 
BRANCH  29  30
HETATM   30  C4  UNL     1     -21.034 -31.453  30.767  1.00  0.00    -0.015 C 
HETATM   31  C3  UNL     1     -21.610 -32.393  31.278  1.00  0.00    -0.093 C 
BRANCH  31  32
HETATM   32  C2  UNL     1     -22.287 -33.520  31.911  1.00  0.00     0.090 C 
HETATM   33  C1  UNL     1     -23.429 -33.000  32.748  1.00  0.00     0.018 C 
ENDBRANCH  31  32
ENDBRANCH  29  30
ENDBRANCH   1  28
TORSDOF 8
ENDMDL
MODEL 5
REMARK VINA RESULT: -6.104100031      2.258      2.441
REMARK  8 active torsions:
REMARK  status: ('A' for Active; 'I' for Inactive)
REMARK    1  A    between atoms: C2_2  and  C3_3 
REMARK    2  A    between atoms: C4_4  and  C5_5 
REMARK    3  A    between atoms: C6_6  and  C7_7 
REMARK       I    between atoms: N1_11  and  C11_12 
REMARK    4  A    between atoms: C11_12  and  C12_14 
REMARK    5  A    between atoms: C12_14  and  C13_15 
REMARK    6  A    between atoms: C13_15  and  N2_16 
REMARK    7  A    between atoms: C13_15  and  C16_21 
REMARK       I    between atoms: N2_16  and  C14_18 
REMARK       I    between atoms: C16_21  and  N3_23 
REMARK    8  A    between atoms: C21_30  and  C22_31 
ROOT
HETATM    1  C7  UNL     1     -18.152 -27.736  29.721  1.00  0.00     0.079 A 
HETATM    2  C8  UNL     1     -17.576 -26.777  28.948  1.00  0.00     0.035 A 
HETATM    3  C9  UNL     1     -18.255 -27.982  28.320  1.00  0.00     0.027 A 
HETATM    4  C10 UNL     1     -19.186 -27.172  27.397  1.00  0.00     0.133 C 
HETATM    5  N1  UNL     1     -18.263 -26.159  26.851  1.00  0.00    -0.343 N 
HETATM    6  C11 UNL     1     -18.537 -25.464  25.619  1.00  0.00     0.222 C 
HETATM    7  O1  UNL     1     -19.614 -25.787  25.062  1.00  0.00    -0.273 OA
HETATM    8  C21 UNL     1     -17.123 -26.025  27.716  1.00  0.00     0.116 C 
ENDROOT
BRANCH   6   9
HETATM    9  C12 UNL     1     -17.616 -24.474  25.093  1.00  0.00     0.138 C 
BRANCH   9  10
HETATM   10  C13 UNL     1     -17.077 -24.642  23.708  1.00  0.00     0.185 C 
BRANCH  10  11
HETATM   11  N2  UNL     1     -18.142 -23.965  22.880  1.00  0.00    -0.348 N 
HETATM   12  C14 UNL     1     -18.834 -24.684  21.884  1.00  0.00     0.214 C 
HETATM   13  C15 UNL     1     -19.876 -23.971  21.092  1.00  0.00     0.117 C 
HETATM   14  O2  UNL     1     -18.600 -25.909  21.643  1.00  0.00    -0.274 OA
ATOM     15  H2  UNL     1     -18.362 -22.983  23.042  1.00  0.00     0.163 HD
ENDBRANCH  10  11
BRANCH  10  16
HETATM   16  C16 UNL     1     -15.838 -23.861  23.475  1.00  0.00     0.244 C 
HETATM   17  O3  UNL     1     -15.808 -22.736  24.104  1.00  0.00    -0.271 OA
HETATM   18  N3  UNL     1     -14.789 -24.273  22.653  1.00  0.00    -0.324 N 
HETATM   19  C17 UNL     1     -13.536 -23.513  22.466  1.00  0.00     0.224 C 
HETATM   20  C20 UNL     1     -14.730 -25.440  21.818  1.00  0.00     0.183 A 
HETATM   21  C18 UNL     1     -12.970 -24.126  21.245  1.00  0.00     0.219 C 
HETATM   22  O4  UNL     1     -11.786 -24.077  20.842  1.00  0.00    -0.278 OA
HETATM   23  N4  UNL     1     -14.033 -24.794  20.595  1.00  0.00    -0.226 NA
HETATM   24  C19 UNL     1     -15.257 -25.609  20.490  1.00  0.00     0.142 A 
ENDBRANCH  10  16
ENDBRANCH   9  10
ENDBRANCH   6   9
BRANCH   8  25
HETATM   25  C22 UNL     1     -16.875 -24.621  28.155  1.00  0.00     0.006 C 
HETATM   26  C23 UNL     1     -17.703 -23.956  28.927  1.00  0.00     0.054 C 
HETATM   27 BR1  UNL     1     -17.309 -22.166  29.440  1.00  0.00    -0.064 Br
ENDBRANCH   8  25
BRANCH   1  28
HETATM   28  C6  UNL     1     -18.451 -28.187  31.073  1.00  0.00    -0.087 C 
HETATM   29  C5  UNL     1     -18.715 -28.547  32.191  1.00  0.00    -0.015 C 
BRANCH  29  30
HETATM   30  C4  UNL     1     -19.021 -28.948  33.513  1.00  0.00    -0.015 C 
HETATM   31  C3  UNL     1     -19.281 -29.312  34.643  1.00  0.00    -0.093 C 
BRANCH  31  32
HETATM   32  C2  UNL     1     -19.608 -29.767  35.990  1.00  0.00     0.090 C 
HETATM   33  C1  UNL     1     -18.331 -30.109  36.716  1.00  0.00     0.018 C 
ENDBRANCH  31  32
ENDBRANCH  29  30
ENDBRANCH   1  28
TORSDOF 8
ENDMDL
