MODEL 1
REMARK VINA RESULT: -6.615073986      0.000      0.000
REMARK  10 active torsions:
REMARK  status: ('A' for Active; 'I' for Inactive)
REMARK    1  A    between atoms: C2_2  and  C3_3 
REMARK    2  A    between atoms: C2_2  and  C10_13 
REMARK    3  A    between atoms: C3_3  and  C4_4 
REMARK    4  A    between atoms: C4_4  and  C5_5 
REMARK    5  A    between atoms: C10_13  and  C11_14 
REMARK       I    between atoms: N3_16  and  C13_17 
REMARK    6  A    between atoms: C13_17  and  C14_19 
REMARK    7  A    between atoms: C14_19  and  N4_20 
REMARK    8  A    between atoms: N4_20  and  S1_22 
REMARK    9  A    between atoms: S1_22  and  N5_23 
REMARK   10  A    between atoms: C16_28  and  C17_29 
ROOT
HETATM    1  C11 UNL     1     -19.841 -25.226  26.581  1.00  0.00     0.221 C 
HETATM    2  C12 UNL     1     -19.596 -23.879  25.936  1.00  0.00     0.076 C 
HETATM    3  N3  UNL     1     -20.622 -26.128  25.683  1.00  0.00    -0.306 N 
HETATM    4  C13 UNL     1     -20.540 -26.216  24.284  1.00  0.00     0.236 C 
HETATM    5  O1  UNL     1     -21.312 -27.043  23.692  1.00  0.00    -0.272 OA
HETATM    6  C16 UNL     1     -21.394 -26.863  26.631  1.00  0.00     0.139 C 
HETATM    7  C20 UNL     1     -21.963 -25.671  27.419  1.00  0.00     0.267 C 
HETATM    8  N6  UNL     1     -20.653 -25.044  27.729  1.00  0.00    -0.043 N 
HETATM    9  C21 UNL     1     -21.034 -23.652  28.008  1.00  0.00     0.275 C 
HETATM   10  C22 UNL     1     -20.224 -25.600  28.959  1.00  0.00     0.275 C 
ENDROOT
BRANCH   1  11
HETATM   11  C10 UNL     1     -18.534 -25.865  26.774  1.00  0.00     0.050 C 
BRANCH  11  12
HETATM   12  C2  UNL     1     -17.335 -25.401  26.655  1.00  0.00    -0.008 C 
HETATM   13  C1  UNL     1     -16.474 -25.166  27.886  1.00  0.00     0.058 C 
BRANCH  12  14
HETATM   14  C3  UNL     1     -16.666 -25.048  25.440  1.00  0.00    -0.065 C 
BRANCH  14  15
HETATM   15  C4  UNL     1     -16.118 -24.740  24.385  1.00  0.00    -0.042 C 
BRANCH  15  16
HETATM   16  C5  UNL     1     -15.468 -24.360  23.162  1.00  0.00     0.105 A 
HETATM   17  C6  UNL     1     -16.080 -23.784  22.063  1.00  0.00     0.128 A 
HETATM   18  N1  UNL     1     -15.168 -23.561  21.095  1.00  0.00    -0.353 N 
HETATM   19  C7  UNL     1     -13.979 -23.994  21.580  1.00  0.00     0.079 A 
ATOM     20  H1  UNL     1     -15.340 -23.148  20.178  1.00  0.00     0.166 HD
HETATM   21  C8  UNL     1     -12.684 -23.937  20.830  1.00  0.00     0.089 C 
HETATM   22  N2  UNL     1     -14.174 -24.472  22.822  1.00  0.00    -0.333 N 
HETATM   23  C9  UNL     1     -13.138 -25.021  23.661  1.00  0.00     0.158 C 
ENDBRANCH  15  16
ENDBRANCH  14  15
ENDBRANCH  12  14
ENDBRANCH  11  12
ENDBRANCH   1  11
BRANCH   4  24
HETATM   24  C14 UNL     1     -19.650 -25.459  23.402  1.00  0.00     0.211 C 
BRANCH  24  25
HETATM   25  N4  UNL     1     -20.173 -25.424  22.023  1.00  0.00    -0.189 NA
HETATM   26  C15 UNL     1     -19.093 -25.721  21.136  1.00  0.00     0.131 C 
BRANCH  25  27
HETATM   27  S1  UNL     1     -20.741 -23.840  21.639  1.00  0.00     0.296 S 
HETATM   28  O2  UNL     1     -20.364 -22.831  22.659  1.00  0.00    -0.189 OA
HETATM   29  O3  UNL     1     -22.242 -23.928  21.529  1.00  0.00    -0.189 OA
BRANCH  27  30
HETATM   30  N5  UNL     1     -20.155 -23.398  20.067  1.00  0.00    -0.316 N 
ATOM     31  H52 UNL     1     -20.076 -24.036  19.275  1.00  0.00     0.170 HD
ATOM     32  H51 UNL     1     -19.909 -22.408  20.072  1.00  0.00     0.170 HD
ENDBRANCH  27  30
ENDBRANCH  25  27
ENDBRANCH  24  25
ENDBRANCH   4  24
BRANCH   6  33
HETATM   33  C17 UNL     1     -22.339 -27.896  26.344  1.00  0.00     0.052 C 
HETATM   34  C18 UNL     1     -22.979 -28.291  27.718  1.00  0.00     0.034 C 
HETATM   35  C19 UNL     1     -21.694 -29.182  25.879  1.00  0.00     0.034 C 
HETATM   36 CL1  UNL     1     -23.722 -27.562  25.318  1.00  0.00    -0.118 Cl
ENDBRANCH   6  33
TORSDOF 10
ENDMDL
MODEL 2
REMARK VINA RESULT: -6.342310976      3.662      5.570
REMARK  10 active torsions:
REMARK  status: ('A' for Active; 'I' for Inactive)
REMARK    1  A    between atoms: C2_2  and  C3_3 
REMARK    2  A    between atoms: C2_2  and  C10_13 
REMARK    3  A    between atoms: C3_3  and  C4_4 
REMARK    4  A    between atoms: C4_4  and  C5_5 
REMARK    5  A    between atoms: C10_13  and  C11_14 
REMARK       I    between atoms: N3_16  and  C13_17 
REMARK    6  A    between atoms: C13_17  and  C14_19 
REMARK    7  A    between atoms: C14_19  and  N4_20 
REMARK    8  A    between atoms: N4_20  and  S1_22 
REMARK    9  A    between atoms: S1_22  and  N5_23 
REMARK   10  A    between atoms: C16_28  and  C17_29 
ROOT
HETATM    1  C11 UNL     1     -20.088 -23.885  24.548  1.00  0.00     0.221 C 
HETATM    2  C12 UNL     1     -20.147 -25.396  24.592  1.00  0.00     0.076 C 
HETATM    3  N3  UNL     1     -19.455 -23.326  25.780  1.00  0.00    -0.306 N 
HETATM    4  C13 UNL     1     -18.396 -23.878  26.518  1.00  0.00     0.236 C 
HETATM    5  O1  UNL     1     -18.007 -23.253  27.561  1.00  0.00    -0.272 OA
HETATM    6  C16 UNL     1     -20.181 -22.109  25.938  1.00  0.00     0.139 C 
HETATM    7  C20 UNL     1     -21.602 -22.689  25.845  1.00  0.00     0.267 C 
HETATM    8  N6  UNL     1     -21.411 -23.374  24.541  1.00  0.00    -0.043 N 
HETATM    9  C21 UNL     1     -22.471 -24.392  24.566  1.00  0.00     0.275 C 
HETATM   10  C22 UNL     1     -21.771 -22.439  23.540  1.00  0.00     0.275 C 
ENDROOT
BRANCH   1  11
HETATM   11  C10 UNL     1     -19.214 -23.511  23.429  1.00  0.00     0.050 C 
BRANCH  11  12
HETATM   12  C2  UNL     1     -18.913 -24.137  22.341  1.00  0.00    -0.008 C 
HETATM   13  C1  UNL     1     -19.957 -24.339  21.253  1.00  0.00     0.058 C 
BRANCH  12  14
HETATM   14  C3  UNL     1     -17.647 -24.712  22.001  1.00  0.00    -0.065 C 
BRANCH  14  15
HETATM   15  C4  UNL     1     -16.547 -25.188  21.731  1.00  0.00    -0.042 C 
BRANCH  15  16
HETATM   16  C5  UNL     1     -15.260 -25.754  21.437  1.00  0.00     0.105 A 
HETATM   17  C6  UNL     1     -14.969 -26.607  20.388  1.00  0.00     0.128 A 
HETATM   18  N1  UNL     1     -13.664 -26.941  20.417  1.00  0.00    -0.353 N 
HETATM   19  C7  UNL     1     -13.126 -26.300  21.484  1.00  0.00     0.079 A 
ATOM     20  H1  UNL     1     -13.176 -27.555  19.765  1.00  0.00     0.166 HD
HETATM   21  C8  UNL     1     -11.689 -26.389  21.893  1.00  0.00     0.089 C 
HETATM   22  N2  UNL     1     -14.097 -25.591  22.088  1.00  0.00    -0.333 N 
HETATM   23  C9  UNL     1     -13.906 -24.775  23.261  1.00  0.00     0.158 C 
ENDBRANCH  15  16
ENDBRANCH  14  15
ENDBRANCH  12  14
ENDBRANCH  11  12
ENDBRANCH   1  11
BRANCH   4  24
HETATM   24  C14 UNL     1     -17.662 -25.110  26.225  1.00  0.00     0.211 C 
BRANCH  24  25
HETATM   25  N4  UNL     1     -16.542 -25.299  27.166  1.00  0.00    -0.189 NA
HETATM   26  C15 UNL     1     -15.404 -25.724  26.415  1.00  0.00     0.131 C 
BRANCH  25  27
HETATM   27  S1  UNL     1     -16.916 -26.548  28.297  1.00  0.00     0.296 S 
HETATM   28  O2  UNL     1     -16.578 -26.180  29.693  1.00  0.00    -0.189 OA
HETATM   29  O3  UNL     1     -16.132 -27.766  27.879  1.00  0.00    -0.189 OA
BRANCH  27  30
HETATM   30  N5  UNL     1     -18.594 -26.963  28.143  1.00  0.00    -0.316 N 
ATOM     31  H52 UNL     1     -19.053 -27.211  27.266  1.00  0.00     0.170 HD
ATOM     32  H51 UNL     1     -19.032 -26.916  29.062  1.00  0.00     0.170 HD
ENDBRANCH  27  30
ENDBRANCH  25  27
ENDBRANCH  24  25
ENDBRANCH   4  24
BRANCH   6  33
HETATM   33  C17 UNL     1     -20.000 -21.134  26.968  1.00  0.00     0.052 C 
HETATM   34  C18 UNL     1     -21.115 -20.057  26.745  1.00  0.00     0.034 C 
HETATM   35  C19 UNL     1     -18.719 -20.343  26.822  1.00  0.00     0.034 C 
HETATM   36 CL1  UNL     1     -20.186 -21.589  28.651  1.00  0.00    -0.118 Cl
ENDBRANCH   6  33
TORSDOF 10
ENDMDL
MODEL 3
REMARK VINA RESULT: -6.229897929      3.612      6.187
REMARK  10 active torsions:
REMARK  status: ('A' for Active; 'I' for Inactive)
REMARK    1  A    between atoms: C2_2  and  C3_3 
REMARK    2  A    between atoms: C2_2  and  C10_13 
REMARK    3  A    between atoms: C3_3  and  C4_4 
REMARK    4  A    between atoms: C4_4  and  C5_5 
REMARK    5  A    between atoms: C10_13  and  C11_14 
REMARK       I    between atoms: N3_16  and  C13_17 
REMARK    6  A    between atoms: C13_17  and  C14_19 
REMARK    7  A    between atoms: C14_19  and  N4_20 
REMARK    8  A    between atoms: N4_20  and  S1_22 
REMARK    9  A    between atoms: S1_22  and  N5_23 
REMARK   10  A    between atoms: C16_28  and  C17_29 
ROOT
HETATM    1  C11 UNL     1     -18.373 -23.814  25.132  1.00  0.00     0.221 C 
HETATM    2  C12 UNL     1     -17.396 -22.666  25.269  1.00  0.00     0.076 C 
HETATM    3  N3  UNL     1     -18.603 -24.167  23.700  1.00  0.00    -0.306 N 
HETATM    4  C13 UNL     1     -17.666 -24.139  22.654  1.00  0.00     0.236 C 
HETATM    5  O1  UNL     1     -18.067 -24.462  21.486  1.00  0.00    -0.272 OA
HETATM    6  C16 UNL     1     -19.972 -24.566  23.729  1.00  0.00     0.139 C 
HETATM    7  C20 UNL     1     -20.542 -23.333  24.450  1.00  0.00     0.267 C 
HETATM    8  N6  UNL     1     -19.637 -23.402  25.625  1.00  0.00    -0.043 N 
HETATM    9  C21 UNL     1     -19.687 -22.025  26.137  1.00  0.00     0.275 C 
HETATM   10  C22 UNL     1     -20.287 -24.215  26.586  1.00  0.00     0.275 C 
ENDROOT
BRANCH   1  11
HETATM   11  C10 UNL     1     -17.756 -24.992  25.755  1.00  0.00     0.050 C 
BRANCH  11  12
HETATM   12  C2  UNL     1     -16.921 -25.096  26.733  1.00  0.00    -0.008 C 
HETATM   13  C1  UNL     1     -15.681 -25.966  26.599  1.00  0.00     0.058 C 
BRANCH  12  14
HETATM   14  C3  UNL     1     -17.014 -24.466  28.015  1.00  0.00    -0.065 C 
BRANCH  14  15
HETATM   15  C4  UNL     1     -17.083 -23.900  29.103  1.00  0.00    -0.042 C 
BRANCH  15  16
HETATM   16  C5  UNL     1     -17.174 -23.218  30.363  1.00  0.00     0.105 A 
HETATM   17  C6  UNL     1     -17.005 -23.791  31.611  1.00  0.00     0.128 A 
HETATM   18  N1  UNL     1     -17.160 -22.857  32.570  1.00  0.00    -0.353 N 
HETATM   19  C7  UNL     1     -17.428 -21.691  31.932  1.00  0.00     0.079 A 
ATOM     20  H1  UNL     1     -17.091 -23.000  33.578  1.00  0.00     0.166 HD
HETATM   21  C8  UNL     1     -17.672 -20.384  32.619  1.00  0.00     0.089 C 
HETATM   22  N2  UNL     1     -17.433 -21.923  30.607  1.00  0.00    -0.333 N 
HETATM   23  C9  UNL     1     -17.681 -20.920  29.601  1.00  0.00     0.158 C 
ENDBRANCH  15  16
ENDBRANCH  14  15
ENDBRANCH  12  14
ENDBRANCH  11  12
ENDBRANCH   1  11
BRANCH   4  24
HETATM   24  C14 UNL     1     -16.250 -23.782  22.747  1.00  0.00     0.211 C 
BRANCH  24  25
HETATM   25  N4  UNL     1     -15.391 -24.973  22.607  1.00  0.00    -0.189 NA
HETATM   26  C15 UNL     1     -14.291 -24.831  23.507  1.00  0.00     0.131 C 
BRANCH  25  27
HETATM   27  S1  UNL     1     -14.747 -25.061  21.008  1.00  0.00     0.296 S 
HETATM   28  O2  UNL     1     -15.461 -26.038  20.152  1.00  0.00    -0.189 OA
HETATM   29  O3  UNL     1     -13.297 -25.453  21.141  1.00  0.00    -0.189 OA
BRANCH  27  30
HETATM   30  N5  UNL     1     -14.766 -23.474  20.306  1.00  0.00    -0.316 N 
ATOM     31  H52 UNL     1     -15.280 -22.678  20.683  1.00  0.00     0.170 HD
ATOM     32  H51 UNL     1     -14.186 -23.476  19.467  1.00  0.00     0.170 HD
ENDBRANCH  27  30
ENDBRANCH  25  27
ENDBRANCH  24  25
ENDBRANCH   4  24
BRANCH   6  33
HETATM   33  C17 UNL     1     -20.752 -25.024  22.621  1.00  0.00     0.052 C 
HETATM   34  C18 UNL     1     -22.184 -25.306  23.188  1.00  0.00     0.034 C 
HETATM   35  C19 UNL     1     -20.312 -26.373  22.100  1.00  0.00     0.034 C 
HETATM   36 CL1  UNL     1     -21.043 -23.965  21.254  1.00  0.00    -0.118 Cl
ENDBRANCH   6  33
TORSDOF 10
ENDMDL
MODEL 4
REMARK VINA RESULT: -6.181624267      3.791      6.372
REMARK  10 active torsions:
REMARK  status: ('A' for Active; 'I' for Inactive)
REMARK    1  A    between atoms: C2_2  and  C3_3 
REMARK    2  A    between atoms: C2_2  and  C10_13 
REMARK    3  A    between atoms: C3_3  and  C4_4 
REMARK    4  A    between atoms: C4_4  and  C5_5 
REMARK    5  A    between atoms: C10_13  and  C11_14 
REMARK       I    between atoms: N3_16  and  C13_17 
REMARK    6  A    between atoms: C13_17  and  C14_19 
REMARK    7  A    between atoms: C14_19  and  N4_20 
REMARK    8  A    between atoms: N4_20  and  S1_22 
REMARK    9  A    between atoms: S1_22  and  N5_23 
REMARK   10  A    between atoms: C16_28  and  C17_29 
ROOT
HETATM    1  C11 UNL     1     -18.481 -23.733  25.252  1.00  0.00     0.221 C 
HETATM    2  C12 UNL     1     -17.554 -22.573  25.545  1.00  0.00     0.076 C 
HETATM    3  N3  UNL     1     -18.515 -24.050  23.793  1.00  0.00    -0.306 N 
HETATM    4  C13 UNL     1     -17.452 -23.976  22.879  1.00  0.00     0.236 C 
HETATM    5  O1  UNL     1     -17.690 -24.272  21.661  1.00  0.00    -0.272 OA
HETATM    6  C16 UNL     1     -19.868 -24.473  23.633  1.00  0.00     0.139 C 
HETATM    7  C20 UNL     1     -20.553 -23.272  24.306  1.00  0.00     0.267 C 
HETATM    8  N6  UNL     1     -19.806 -23.358  25.586  1.00  0.00    -0.043 N 
HETATM    9  C21 UNL     1     -19.951 -21.997  26.122  1.00  0.00     0.275 C 
HETATM   10  C22 UNL     1     -20.559 -24.209  26.433  1.00  0.00     0.275 C 
ENDROOT
BRANCH   1  11
HETATM   11  C10 UNL     1     -17.926 -24.918  25.919  1.00  0.00     0.050 C 
BRANCH  11  12
HETATM   12  C2  UNL     1     -17.164 -25.030  26.955  1.00  0.00    -0.008 C 
HETATM   13  C1  UNL     1     -16.068 -26.084  26.995  1.00  0.00     0.058 C 
BRANCH  12  14
HETATM   14  C3  UNL     1     -17.219 -24.249  28.153  1.00  0.00    -0.065 C 
BRANCH  14  15
HETATM   15  C4  UNL     1     -17.253 -23.556  29.167  1.00  0.00    -0.042 C 
BRANCH  15  16
HETATM   16  C5  UNL     1     -17.302 -22.727  30.338  1.00  0.00     0.105 A 
HETATM   17  C6  UNL     1     -17.648 -21.388  30.371  1.00  0.00     0.128 A 
HETATM   18  N1  UNL     1     -17.586 -20.928  31.637  1.00  0.00    -0.353 N 
HETATM   19  C7  UNL     1     -17.201 -21.976  32.407  1.00  0.00     0.079 A 
ATOM     20  H1  UNL     1     -17.789 -19.980  31.953  1.00  0.00     0.166 HD
HETATM   21  C8  UNL     1     -17.004 -21.912  33.889  1.00  0.00     0.089 C 
HETATM   22  N2  UNL     1     -17.033 -23.049  31.614  1.00  0.00    -0.333 N 
HETATM   23  C9  UNL     1     -16.626 -24.353  32.075  1.00  0.00     0.158 C 
ENDBRANCH  15  16
ENDBRANCH  14  15
ENDBRANCH  12  14
ENDBRANCH  11  12
ENDBRANCH   1  11
BRANCH   4  24
HETATM   24  C14 UNL     1     -16.067 -23.597  23.166  1.00  0.00     0.211 C 
BRANCH  24  25
HETATM   25  N4  UNL     1     -15.135 -24.687  22.820  1.00  0.00    -0.189 NA
HETATM   26  C15 UNL     1     -14.409 -25.034  24.000  1.00  0.00     0.131 C 
BRANCH  25  27
HETATM   27  S1  UNL     1     -13.992 -24.147  21.645  1.00  0.00     0.296 S 
HETATM   28  O2  UNL     1     -13.077 -25.224  21.196  1.00  0.00    -0.189 OA
HETATM   29  O3  UNL     1     -13.204 -23.031  22.283  1.00  0.00    -0.189 OA
BRANCH  27  30
HETATM   30  N5  UNL     1     -14.847 -23.446  20.309  1.00  0.00    -0.316 N 
ATOM     31  H52 UNL     1     -15.846 -23.557  20.135  1.00  0.00     0.170 HD
ATOM     32  H51 UNL     1     -14.191 -22.914  19.738  1.00  0.00     0.170 HD
ENDBRANCH  27  30
ENDBRANCH  25  27
ENDBRANCH  24  25
ENDBRANCH   4  24
BRANCH   6  33
HETATM   33  C17 UNL     1     -20.487 -24.913  22.422  1.00  0.00     0.052 C 
HETATM   34  C18 UNL     1     -21.990 -25.178  22.776  1.00  0.00     0.034 C 
HETATM   35  C19 UNL     1     -19.995 -26.265  21.958  1.00  0.00     0.034 C 
HETATM   36 CL1  UNL     1     -20.566 -23.842  21.036  1.00  0.00    -0.118 Cl
ENDBRANCH   6  33
TORSDOF 10
ENDMDL
MODEL 5
REMARK VINA RESULT: -6.145108732      3.335      5.222
REMARK  10 active torsions:
REMARK  status: ('A' for Active; 'I' for Inactive)
REMARK    1  A    between atoms: C2_2  and  C3_3 
REMARK    2  A    between atoms: C2_2  and  C10_13 
REMARK    3  A    between atoms: C3_3  and  C4_4 
REMARK    4  A    between atoms: C4_4  and  C5_5 
REMARK    5  A    between atoms: C10_13  and  C11_14 
REMARK       I    between atoms: N3_16  and  C13_17 
REMARK    6  A    between atoms: C13_17  and  C14_19 
REMARK    7  A    between atoms: C14_19  and  N4_20 
REMARK    8  A    between atoms: N4_20  and  S1_22 
REMARK    9  A    between atoms: S1_22  and  N5_23 
REMARK   10  A    between atoms: C16_28  and  C17_29 
ROOT
HETATM    1  C11 UNL     1     -20.770 -25.049  24.349  1.00  0.00     0.221 C 
HETATM    2  C12 UNL     1     -20.558 -26.516  24.659  1.00  0.00     0.076 C 
HETATM    3  N3  UNL     1     -20.431 -24.189  25.522  1.00  0.00    -0.306 N 
HETATM    4  C13 UNL     1     -19.405 -24.391  26.459  1.00  0.00     0.236 C 
HETATM    5  O1  UNL     1     -19.288 -23.546  27.408  1.00  0.00    -0.272 OA
HETATM    6  C16 UNL     1     -21.382 -23.135  25.378  1.00  0.00     0.139 C 
HETATM    7  C20 UNL     1     -22.645 -24.000  25.236  1.00  0.00     0.267 C 
HETATM    8  N6  UNL     1     -22.149 -24.826  24.106  1.00  0.00    -0.043 N 
HETATM    9  C21 UNL     1     -22.998 -26.022  24.199  1.00  0.00     0.275 C 
HETATM   10  C22 UNL     1     -22.528 -24.151  22.920  1.00  0.00     0.275 C 
ENDROOT
BRANCH   1  11
HETATM   11  C10 UNL     1     -19.829 -24.684  23.283  1.00  0.00     0.050 C 
BRANCH  11  12
HETATM   12  C2  UNL     1     -19.175 -25.412  22.442  1.00  0.00    -0.008 C 
HETATM   13  C1  UNL     1     -19.908 -26.386  21.532  1.00  0.00     0.058 C 
BRANCH  12  14
HETATM   14  C3  UNL     1     -17.758 -25.434  22.241  1.00  0.00    -0.065 C 
BRANCH  14  15
HETATM   15  C4  UNL     1     -16.546 -25.447  22.038  1.00  0.00    -0.042 C 
BRANCH  15  16
HETATM   16  C5  UNL     1     -15.127 -25.445  21.819  1.00  0.00     0.105 A 
HETATM   17  C6  UNL     1     -14.409 -26.414  21.141  1.00  0.00     0.128 A 
HETATM   18  N1  UNL     1     -13.101 -26.090  21.127  1.00  0.00    -0.353 N 
HETATM   19  C7  UNL     1     -12.988 -24.915  21.794  1.00  0.00     0.079 A 
ATOM     20  H1  UNL     1     -12.344 -26.623  20.698  1.00  0.00     0.166 HD
HETATM   21  C8  UNL     1     -11.701 -24.185  22.018  1.00  0.00     0.089 C 
HETATM   22  N2  UNL     1     -14.213 -24.539  22.204  1.00  0.00    -0.333 N 
HETATM   23  C9  UNL     1     -14.495 -23.337  22.948  1.00  0.00     0.158 C 
ENDBRANCH  15  16
ENDBRANCH  14  15
ENDBRANCH  12  14
ENDBRANCH  11  12
ENDBRANCH   1  11
BRANCH   4  24
HETATM   24  C14 UNL     1     -18.425 -25.478  26.473  1.00  0.00     0.211 C 
BRANCH  24  25
HETATM   25  N4  UNL     1     -17.083 -24.980  26.832  1.00  0.00    -0.189 NA
HETATM   26  C15 UNL     1     -16.168 -25.418  25.826  1.00  0.00     0.131 C 
BRANCH  25  27
HETATM   27  S1  UNL     1     -16.573 -25.662  28.333  1.00  0.00     0.296 S 
HETATM   28  O2  UNL     1     -15.428 -24.937  28.935  1.00  0.00    -0.189 OA
HETATM   29  O3  UNL     1     -16.189 -27.094  28.054  1.00  0.00    -0.189 OA
BRANCH  27  30
HETATM   30  N5  UNL     1     -17.927 -25.716  29.416  1.00  0.00    -0.316 N 
ATOM     31  H52 UNL     1     -18.896 -25.552  29.144  1.00  0.00     0.170 HD
ATOM     32  H51 UNL     1     -17.592 -25.936  30.354  1.00  0.00     0.170 HD
ENDBRANCH  27  30
ENDBRANCH  25  27
ENDBRANCH  24  25
ENDBRANCH   4  24
BRANCH   6  33
HETATM   33  C17 UNL     1     -21.529 -21.996  26.229  1.00  0.00     0.052 C 
HETATM   34  C18 UNL     1     -22.693 -21.146  25.615  1.00  0.00     0.034 C 
HETATM   35  C19 UNL     1     -20.347 -21.055  26.176  1.00  0.00     0.034 C 
HETATM   36 CL1  UNL     1     -22.001 -22.207  27.904  1.00  0.00    -0.118 Cl
ENDBRANCH   6  33
TORSDOF 10
ENDMDL
