MODEL 1
REMARK VINA RESULT: -7.900865352      0.000      0.000
REMARK  11 active torsions:
REMARK  status: ('A' for Active; 'I' for Inactive)
REMARK    1  A    between atoms: C2_2  and  C3_3 
REMARK    2  A    between atoms: C4_4  and  C5_5 
REMARK    3  A    between atoms: C9_9  and  C10_10 
REMARK    4  A    between atoms: C10_10  and  C11_11 
REMARK    5  A    between atoms: C11_11  and  C12_12 
REMARK    6  A    between atoms: C12_12  and  C13_13 
REMARK    7  A    between atoms: C12_12  and  C20_26 
REMARK    8  A    between atoms: C14_14  and  C15_15 
REMARK    9  A    between atoms: C15_15  and  O1_16 
REMARK   10  A    between atoms: C17_19  and  O2_20 
REMARK   11  A    between atoms: C20_26  and  O3_27 
ROOT
HETATM    1  C12 UNL     1      16.050 -29.354  36.846  1.00  0.00     0.032 C 
ENDROOT
BRANCH   1   2
HETATM    2  C11 UNL     1      16.685 -30.216  35.825  1.00  0.00     0.014 C 
BRANCH   2   3
HETATM    3  C10 UNL     1      18.010 -30.819  36.166  1.00  0.00     0.028 C 
BRANCH   3   4
HETATM    4  C9  UNL     1      18.447 -30.225  37.449  1.00  0.00    -0.020 C 
HETATM    5  C2  UNL     1      18.830 -30.879  38.506  1.00  0.00    -0.066 C 
HETATM    6  C1  UNL     1      18.887 -32.337  38.584  1.00  0.00     0.048 C 
BRANCH   5   7
HETATM    7  C3  UNL     1      19.228 -30.121  39.690  1.00  0.00     0.003 C 
HETATM    8  C4  UNL     1      18.799 -28.894  39.854  1.00  0.00    -0.018 C 
BRANCH   8   9
HETATM    9  C5  UNL     1      19.160 -28.060  41.033  1.00  0.00    -0.034 C 
HETATM   10  C6  UNL     1      17.943 -27.992  41.931  1.00  0.00     0.018 C 
HETATM   11  C7  UNL     1      19.462 -26.650  40.565  1.00  0.00     0.018 C 
HETATM   12  C8  UNL     1      20.339 -28.593  41.781  1.00  0.00     0.018 C 
ENDBRANCH   8   9
ENDBRANCH   5   7
ENDBRANCH   3   4
ENDBRANCH   2   3
ENDBRANCH   1   2
BRANCH   1  13
HETATM   13  C13 UNL     1      15.550 -28.121  36.125  1.00  0.00    -0.021 C 
HETATM   14  C14 UNL     1      16.147 -26.946  36.235  1.00  0.00     0.007 C 
BRANCH  14  15
HETATM   15  C15 UNL     1      15.644 -25.758  35.524  1.00  0.00     0.082 C 
HETATM   16  C16 UNL     1      14.580 -26.188  34.544  1.00  0.00     0.078 C 
HETATM   17  C17 UNL     1      14.548 -25.089  33.514  1.00  0.00     0.176 C 
HETATM   18  C18 UNL     1      15.795 -24.260  33.724  1.00  0.00     0.207 C 
HETATM   19  F1  UNL     1      15.511 -23.076  34.396  1.00  0.00    -0.223 F 
HETATM   20 CL1  UNL     1      16.600 -23.895  32.187  1.00  0.00    -0.080 Cl
HETATM   21  C19 UNL     1      16.674 -25.130  34.618  1.00  0.00     0.105 C 
BRANCH  15  22
HETATM   22  O1  UNL     1      15.152 -24.789  36.387  1.00  0.00    -0.386 OA
ATOM     23  H1  UNL     1      15.701 -24.015  36.417  1.00  0.00     0.211 HD
ENDBRANCH  15  22
BRANCH  17  24
HETATM   24  O2  UNL     1      14.548 -25.599  32.213  1.00  0.00    -0.391 OA
ATOM     25  H2  UNL     1      15.201 -25.175  31.669  1.00  0.00     0.210 HD
ENDBRANCH  17  24
ENDBRANCH  14  15
ENDBRANCH   1  13
BRANCH   1  26
HETATM   26  C20 UNL     1      14.900 -29.923  37.599  1.00  0.00     0.172 C 
BRANCH  26  27
HETATM   27  O3  UNL     1      13.955 -29.010  38.031  1.00  0.00    -0.400 OA
ATOM     28  H3  UNL     1      14.204 -28.480  38.779  1.00  0.00     0.209 HD
ENDBRANCH  26  27
ENDBRANCH   1  26
TORSDOF 11
ENDMDL
MODEL 2
REMARK VINA RESULT: -7.815409144      1.452      1.642
REMARK  11 active torsions:
REMARK  status: ('A' for Active; 'I' for Inactive)
REMARK    1  A    between atoms: C2_2  and  C3_3 
REMARK    2  A    between atoms: C4_4  and  C5_5 
REMARK    3  A    between atoms: C9_9  and  C10_10 
REMARK    4  A    between atoms: C10_10  and  C11_11 
REMARK    5  A    between atoms: C11_11  and  C12_12 
REMARK    6  A    between atoms: C12_12  and  C13_13 
REMARK    7  A    between atoms: C12_12  and  C20_26 
REMARK    8  A    between atoms: C14_14  and  C15_15 
REMARK    9  A    between atoms: C15_15  and  O1_16 
REMARK   10  A    between atoms: C17_19  and  O2_20 
REMARK   11  A    between atoms: C20_26  and  O3_27 
ROOT
HETATM    1  C12 UNL     1      16.100 -28.330  36.813  1.00  0.00     0.032 C 
ENDROOT
BRANCH   1   2
HETATM    2  C11 UNL     1      16.258 -29.654  36.174  1.00  0.00     0.014 C 
BRANCH   2   3
HETATM    3  C10 UNL     1      17.553 -30.369  36.389  1.00  0.00     0.028 C 
BRANCH   3   4
HETATM    4  C9  UNL     1      18.133 -29.857  37.651  1.00  0.00    -0.020 C 
HETATM    5  C2  UNL     1      18.726 -30.567  38.566  1.00  0.00    -0.066 C 
HETATM    6  C1  UNL     1      18.911 -32.014  38.480  1.00  0.00     0.048 C 
BRANCH   5   7
HETATM    7  C3  UNL     1      19.239 -29.889  39.753  1.00  0.00     0.003 C 
HETATM    8  C4  UNL     1      18.733 -28.736  40.116  1.00  0.00    -0.018 C 
BRANCH   8   9
HETATM    9  C5  UNL     1      19.202 -27.985  41.312  1.00  0.00    -0.034 C 
HETATM   10  C6  UNL     1      18.131 -28.110  42.376  1.00  0.00     0.018 C 
HETATM   11  C7  UNL     1      19.325 -26.517  40.956  1.00  0.00     0.018 C 
HETATM   12  C8  UNL     1      20.516 -28.477  41.828  1.00  0.00     0.018 C 
ENDBRANCH   8   9
ENDBRANCH   5   7
ENDBRANCH   3   4
ENDBRANCH   2   3
ENDBRANCH   1   2
BRANCH   1  13
HETATM   13  C13 UNL     1      15.934 -27.323  35.694  1.00  0.00    -0.021 C 
HETATM   14  C14 UNL     1      16.436 -26.101  35.762  1.00  0.00     0.007 C 
BRANCH  14  15
HETATM   15  C15 UNL     1      16.264 -25.138  34.663  1.00  0.00     0.082 C 
HETATM   16  C16 UNL     1      15.661 -23.868  35.213  1.00  0.00     0.078 C 
HETATM   17  C17 UNL     1      15.010 -23.211  34.024  1.00  0.00     0.176 C 
HETATM   18  C18 UNL     1      14.949 -24.254  32.930  1.00  0.00     0.207 C 
HETATM   19  F1  UNL     1      15.943 -24.051  31.979  1.00  0.00    -0.223 F 
HETATM   20 CL1  UNL     1      13.362 -24.276  32.140  1.00  0.00    -0.080 Cl
HETATM   21  C19 UNL     1      15.227 -25.568  33.653  1.00  0.00     0.105 C 
BRANCH  15  22
HETATM   22  O1  UNL     1      17.452 -24.867  34.000  1.00  0.00    -0.386 OA
ATOM     23  H1  UNL     1      17.784 -25.619  33.524  1.00  0.00     0.211 HD
ENDBRANCH  15  22
BRANCH  17  24
HETATM   24  O2  UNL     1      13.715 -22.777  34.317  1.00  0.00    -0.391 OA
ATOM     25  H2  UNL     1      13.057 -23.345  33.935  1.00  0.00     0.210 HD
ENDBRANCH  17  24
ENDBRANCH  14  15
ENDBRANCH   1  13
BRANCH   1  26
HETATM   26  C20 UNL     1      14.950 -28.153  37.741  1.00  0.00     0.172 C 
BRANCH  26  27
HETATM   27  O3  UNL     1      14.133 -29.258  37.902  1.00  0.00    -0.400 OA
ATOM     28  H3  UNL     1      13.227 -29.072  38.116  1.00  0.00     0.209 HD
ENDBRANCH  26  27
ENDBRANCH   1  26
TORSDOF 11
ENDMDL
MODEL 3
REMARK VINA RESULT: -7.628374153      1.563      2.435
REMARK  11 active torsions:
REMARK  status: ('A' for Active; 'I' for Inactive)
REMARK    1  A    between atoms: C2_2  and  C3_3 
REMARK    2  A    between atoms: C4_4  and  C5_5 
REMARK    3  A    between atoms: C9_9  and  C10_10 
REMARK    4  A    between atoms: C10_10  and  C11_11 
REMARK    5  A    between atoms: C11_11  and  C12_12 
REMARK    6  A    between atoms: C12_12  and  C13_13 
REMARK    7  A    between atoms: C12_12  and  C20_26 
REMARK    8  A    between atoms: C14_14  and  C15_15 
REMARK    9  A    between atoms: C15_15  and  O1_16 
REMARK   10  A    between atoms: C17_19  and  O2_20 
REMARK   11  A    between atoms: C20_26  and  O3_27 
ROOT
HETATM    1  C12 UNL     1      15.874 -27.175  36.444  1.00  0.00     0.032 C 
ENDROOT
BRANCH   1   2
HETATM    2  C11 UNL     1      15.552 -28.542  35.978  1.00  0.00     0.014 C 
BRANCH   2   3
HETATM    3  C10 UNL     1      16.594 -29.595  36.176  1.00  0.00     0.028 C 
BRANCH   3   4
HETATM    4  C9  UNL     1      17.312 -29.274  37.429  1.00  0.00    -0.020 C 
HETATM    5  C2  UNL     1      18.193 -30.025  38.023  1.00  0.00    -0.066 C 
HETATM    6  C1  UNL     1      18.613 -31.333  37.527  1.00  0.00     0.048 C 
BRANCH   5   7
HETATM    7  C3  UNL     1      18.802 -29.543  39.260  1.00  0.00     0.003 C 
HETATM    8  C4  UNL     1      18.359 -28.445  39.821  1.00  0.00    -0.018 C 
BRANCH   8   9
HETATM    9  C5  UNL     1      18.928 -27.891  41.080  1.00  0.00    -0.034 C 
HETATM   10  C6  UNL     1      19.144 -26.408  40.867  1.00  0.00     0.018 C 
HETATM   11  C7  UNL     1      20.284 -28.521  41.327  1.00  0.00     0.018 C 
HETATM   12  C8  UNL     1      18.051 -28.132  42.267  1.00  0.00     0.018 C 
ENDBRANCH   8   9
ENDBRANCH   5   7
ENDBRANCH   3   4
ENDBRANCH   2   3
ENDBRANCH   1   2
BRANCH   1  13
HETATM   13  C13 UNL     1      15.917 -26.294  35.214  1.00  0.00    -0.021 C 
HETATM   14  C14 UNL     1      14.842 -26.044  34.484  1.00  0.00     0.007 C 
BRANCH  14  15
HETATM   15  C15 UNL     1      14.906 -25.184  33.291  1.00  0.00     0.082 C 
HETATM   16  C16 UNL     1      16.352 -24.972  32.916  1.00  0.00     0.078 C 
HETATM   17  C17 UNL     1      16.354 -23.696  32.116  1.00  0.00     0.176 C 
HETATM   18  C18 UNL     1      15.010 -23.040  32.343  1.00  0.00     0.207 C 
HETATM   19  F1  UNL     1      14.160 -23.234  31.259  1.00  0.00    -0.223 F 
HETATM   20 CL1  UNL     1      15.180 -21.305  32.663  1.00  0.00    -0.080 Cl
HETATM   21  C19 UNL     1      14.436 -23.774  33.551  1.00  0.00     0.105 C 
BRANCH  15  22
HETATM   22  O1  UNL     1      14.195 -25.705  32.220  1.00  0.00    -0.386 OA
ATOM     23  H1  UNL     1      13.643 -25.057  31.798  1.00  0.00     0.211 HD
ENDBRANCH  15  22
BRANCH  17  24
HETATM   24  O2  UNL     1      17.366 -22.826  32.530  1.00  0.00    -0.391 OA
ATOM     25  H2  UNL     1      17.017 -21.990  32.814  1.00  0.00     0.210 HD
ENDBRANCH  17  24
ENDBRANCH  14  15
ENDBRANCH   1  13
BRANCH   1  26
HETATM   26  C20 UNL     1      14.931 -26.543  37.407  1.00  0.00     0.172 C 
BRANCH  26  27
HETATM   27  O3  UNL     1      13.659 -27.085  37.444  1.00  0.00    -0.400 OA
ATOM     28  H3  UNL     1      13.535 -27.806  38.051  1.00  0.00     0.209 HD
ENDBRANCH  26  27
ENDBRANCH   1  26
TORSDOF 11
ENDMDL
MODEL 4
REMARK VINA RESULT: -7.589641168      4.093      9.112
REMARK  11 active torsions:
REMARK  status: ('A' for Active; 'I' for Inactive)
REMARK    1  A    between atoms: C2_2  and  C3_3 
REMARK    2  A    between atoms: C4_4  and  C5_5 
REMARK    3  A    between atoms: C9_9  and  C10_10 
REMARK    4  A    between atoms: C10_10  and  C11_11 
REMARK    5  A    between atoms: C11_11  and  C12_12 
REMARK    6  A    between atoms: C12_12  and  C13_13 
REMARK    7  A    between atoms: C12_12  and  C20_26 
REMARK    8  A    between atoms: C14_14  and  C15_15 
REMARK    9  A    between atoms: C15_15  and  O1_16 
REMARK   10  A    between atoms: C17_19  and  O2_20 
REMARK   11  A    between atoms: C20_26  and  O3_27 
ROOT
HETATM    1  C12 UNL     1      14.511 -25.781  35.491  1.00  0.00     0.032 C 
ENDROOT
BRANCH   1   2
HETATM    2  C11 UNL     1      15.557 -25.483  34.489  1.00  0.00     0.014 C 
BRANCH   2   3
HETATM    3  C10 UNL     1      15.103 -25.116  33.112  1.00  0.00     0.028 C 
BRANCH   3   4
HETATM    4  C9  UNL     1      13.727 -25.636  32.950  1.00  0.00    -0.020 C 
HETATM    5  C2  UNL     1      12.761 -25.059  32.297  1.00  0.00    -0.066 C 
HETATM    6  C1  UNL     1      12.896 -23.778  31.609  1.00  0.00     0.048 C 
BRANCH   5   7
HETATM    7  C3  UNL     1      11.461 -25.722  32.243  1.00  0.00     0.003 C 
HETATM    8  C4  UNL     1      10.665 -25.518  31.223  1.00  0.00    -0.018 C 
BRANCH   8   9
HETATM    9  C5  UNL     1       9.327 -26.157  31.096  1.00  0.00    -0.034 C 
HETATM   10  C6  UNL     1       9.099 -26.447  29.628  1.00  0.00     0.018 C 
HETATM   11  C7  UNL     1       8.265 -25.170  31.539  1.00  0.00     0.018 C 
HETATM   12  C8  UNL     1       9.203 -27.408  31.906  1.00  0.00     0.018 C 
ENDBRANCH   8   9
ENDBRANCH   5   7
ENDBRANCH   3   4
ENDBRANCH   2   3
ENDBRANCH   1   2
BRANCH   1  13
HETATM   13  C13 UNL     1      14.973 -27.003  36.254  1.00  0.00    -0.021 C 
HETATM   14  C14 UNL     1      15.536 -28.040  35.655  1.00  0.00     0.007 C 
BRANCH  14  15
HETATM   15  C15 UNL     1      15.979 -29.220  36.416  1.00  0.00     0.082 C 
HETATM   16  C16 UNL     1      15.224 -29.273  37.722  1.00  0.00     0.078 C 
HETATM   17  C17 UNL     1      16.097 -30.099  38.632  1.00  0.00     0.176 C 
HETATM   18  C18 UNL     1      17.450 -30.198  37.962  1.00  0.00     0.207 C 
HETATM   19  F1  UNL     1      17.625 -31.435  37.351  1.00  0.00    -0.223 F 
HETATM   20 CL1  UNL     1      18.767 -29.910  39.114  1.00  0.00    -0.080 Cl
HETATM   21  C19 UNL     1      17.411 -29.121  36.883  1.00  0.00     0.105 C 
BRANCH  15  22
HETATM   22  O1  UNL     1      15.817 -30.402  35.710  1.00  0.00    -0.386 OA
ATOM     23  H1  UNL     1      15.443 -31.097  36.239  1.00  0.00     0.211 HD
ENDBRANCH  15  22
BRANCH  17  24
HETATM   24  O2  UNL     1      16.247 -29.503  39.886  1.00  0.00    -0.391 OA
ATOM     25  H2  UNL     1      15.659 -29.881  40.529  1.00  0.00     0.210 HD
ENDBRANCH  17  24
ENDBRANCH  14  15
ENDBRANCH   1  13
BRANCH   1  26
HETATM   26  C20 UNL     1      14.206 -24.723  36.492  1.00  0.00     0.172 C 
BRANCH  26  27
HETATM   27  O3  UNL     1      12.870 -24.386  36.621  1.00  0.00    -0.400 OA
ATOM     28  H3  UNL     1      12.626 -23.532  36.283  1.00  0.00     0.209 HD
ENDBRANCH  26  27
ENDBRANCH   1  26
TORSDOF 11
ENDMDL
MODEL 5
REMARK VINA RESULT: -7.576570867      2.196      2.927
REMARK  11 active torsions:
REMARK  status: ('A' for Active; 'I' for Inactive)
REMARK    1  A    between atoms: C2_2  and  C3_3 
REMARK    2  A    between atoms: C4_4  and  C5_5 
REMARK    3  A    between atoms: C9_9  and  C10_10 
REMARK    4  A    between atoms: C10_10  and  C11_11 
REMARK    5  A    between atoms: C11_11  and  C12_12 
REMARK    6  A    between atoms: C12_12  and  C13_13 
REMARK    7  A    between atoms: C12_12  and  C20_26 
REMARK    8  A    between atoms: C14_14  and  C15_15 
REMARK    9  A    between atoms: C15_15  and  O1_16 
REMARK   10  A    between atoms: C17_19  and  O2_20 
REMARK   11  A    between atoms: C20_26  and  O3_27 
ROOT
HETATM    1  C12 UNL     1      16.079 -31.404  35.918  1.00  0.00     0.032 C 
ENDROOT
BRANCH   1   2
HETATM    2  C11 UNL     1      17.480 -31.176  35.500  1.00  0.00     0.014 C 
BRANCH   2   3
HETATM    3  C10 UNL     1      18.551 -31.846  36.300  1.00  0.00     0.028 C 
BRANCH   3   4
HETATM    4  C9  UNL     1      18.827 -30.987  37.472  1.00  0.00    -0.020 C 
HETATM    5  C2  UNL     1      18.991 -31.392  38.698  1.00  0.00    -0.066 C 
HETATM    6  C1  UNL     1      18.923 -32.793  39.108  1.00  0.00     0.048 C 
BRANCH   5   7
HETATM    7  C3  UNL     1      19.257 -30.396  39.732  1.00  0.00     0.003 C 
HETATM    8  C4  UNL     1      18.881 -29.153  39.555  1.00  0.00    -0.018 C 
BRANCH   8   9
HETATM    9  C5  UNL     1      19.116 -28.083  40.562  1.00  0.00    -0.034 C 
HETATM   10  C6  UNL     1      20.168 -28.590  41.526  1.00  0.00     0.018 C 
HETATM   11  C7  UNL     1      17.841 -27.861  41.351  1.00  0.00     0.018 C 
HETATM   12  C8  UNL     1      19.544 -26.790  39.945  1.00  0.00     0.018 C 
ENDBRANCH   8   9
ENDBRANCH   5   7
ENDBRANCH   3   4
ENDBRANCH   2   3
ENDBRANCH   1   2
BRANCH   1  13
HETATM   13  C13 UNL     1      15.508 -30.052  36.287  1.00  0.00    -0.021 C 
HETATM   14  C14 UNL     1      16.257 -28.963  36.357  1.00  0.00     0.007 C 
BRANCH  14  15
HETATM   15  C15 UNL     1      15.681 -27.657  36.717  1.00  0.00     0.082 C 
HETATM   16  C16 UNL     1      15.855 -26.708  35.557  1.00  0.00     0.078 C 
HETATM   17  C17 UNL     1      15.789 -25.336  36.176  1.00  0.00     0.176 C 
HETATM   18  C18 UNL     1      15.931 -25.527  37.670  1.00  0.00     0.207 C 
HETATM   19  F1  UNL     1      14.703 -25.425  38.314  1.00  0.00    -0.223 F 
HETATM   20 CL1  UNL     1      17.069 -24.360  38.368  1.00  0.00    -0.080 Cl
HETATM   21  C19 UNL     1      16.443 -26.956  37.816  1.00  0.00     0.105 C 
BRANCH  15  22
HETATM   22  O1  UNL     1      14.345 -27.745  37.081  1.00  0.00    -0.386 OA
ATOM     23  H1  UNL     1      14.218 -27.690  38.021  1.00  0.00     0.211 HD
ENDBRANCH  15  22
BRANCH  17  24
HETATM   24  O2  UNL     1      16.820 -24.511  35.718  1.00  0.00    -0.391 OA
ATOM     25  H2  UNL     1      16.579 -24.058  34.919  1.00  0.00     0.210 HD
ENDBRANCH  17  24
ENDBRANCH  14  15
ENDBRANCH   1  13
BRANCH   1  26
HETATM   26  C20 UNL     1      15.161 -32.014  34.918  1.00  0.00     0.172 C 
BRANCH  26  27
HETATM   27  O3  UNL     1      15.213 -33.393  34.818  1.00  0.00    -0.400 OA
ATOM     28  H3  UNL     1      16.061 -33.759  34.593  1.00  0.00     0.209 HD
ENDBRANCH  26  27
ENDBRANCH   1  26
TORSDOF 11
ENDMDL
