MODEL 1
REMARK VINA RESULT: -9.008895051      0.000      0.000
REMARK  10 active torsions:
REMARK  status: ('A' for Active; 'I' for Inactive)
REMARK    1  A    between atoms: C3_3  and  O1_4 
REMARK    2  A    between atoms: C7_9  and  C8_10 
REMARK    3  A    between atoms: C9_11  and  C10_12 
REMARK    4  A    between atoms: C10_12  and  C12_14 
REMARK    5  A    between atoms: C12_14  and  O2_15 
REMARK    6  A    between atoms: C12_14  and  C13_17 
REMARK    7  A    between atoms: C13_17  and  O3_18 
REMARK    8  A    between atoms: C13_17  and  C14_20 
REMARK    9  A    between atoms: C14_20  and  C15_21 
REMARK   10  A    between atoms: C15_21  and  C17_23 
ROOT
HETATM    1  C12 UNL     1      16.005 -27.224  41.923  1.00  0.00     0.154 C 
ENDROOT
BRANCH   1   2
HETATM    2  C10 UNL     1      16.029 -27.888  43.345  1.00  0.00     0.035 C 
HETATM    3  C11 UNL     1      17.415 -28.504  43.381  1.00  0.00     0.017 C 
BRANCH   2   4
HETATM    4  C9  UNL     1      14.940 -28.867  43.390  1.00  0.00    -0.019 C 
HETATM    5  C8  UNL     1      14.584 -29.926  43.954  1.00  0.00     0.008 C 
BRANCH   5   6
HETATM    6  C7  UNL     1      15.028 -30.864  44.954  1.00  0.00    -0.028 A 
HETATM    7  C2  UNL     1      14.689 -32.165  45.089  1.00  0.00    -0.019 A 
HETATM    8  C1  UNL     1      13.996 -32.903  43.985  1.00  0.00     0.052 C 
HETATM    9  C3  UNL     1      15.079 -32.914  46.191  1.00  0.00     0.072 A 
HETATM   10  C4  UNL     1      15.836 -32.356  47.192  1.00  0.00     0.037 A 
HETATM   11  C5  UNL     1      16.207 -31.036  47.092  1.00  0.00     0.004 A 
HETATM   12  C6  UNL     1      15.809 -30.321  46.002  1.00  0.00     0.012 A 
BRANCH   9  13
HETATM   13  O1  UNL     1      14.683 -34.266  46.265  1.00  0.00    -0.360 OA
ATOM     14  H1  UNL     1      15.138 -34.903  45.727  1.00  0.00     0.217 HD
ENDBRANCH   9  13
ENDBRANCH   5   6
ENDBRANCH   2   4
ENDBRANCH   1   2
BRANCH   1  15
HETATM   15  O2  UNL     1      15.721 -25.860  42.127  1.00  0.00    -0.392 OA
ATOM     16  H2  UNL     1      14.925 -25.828  42.644  1.00  0.00     0.210 HD
ENDBRANCH   1  15
BRANCH   1  17
HETATM   17  C13 UNL     1      17.374 -27.258  41.292  1.00  0.00     0.147 C 
BRANCH  17  18
HETATM   18  O3  UNL     1      17.859 -25.937  41.186  1.00  0.00    -0.393 OA
ATOM     19  H3  UNL     1      17.126 -25.336  41.252  1.00  0.00     0.210 HD
ENDBRANCH  17  18
BRANCH  17  20
HETATM   20  C14 UNL     1      17.168 -27.854  39.897  1.00  0.00     0.039 C 
BRANCH  20  21
HETATM   21  C15 UNL     1      17.847 -29.175  39.706  1.00  0.00    -0.012 C 
HETATM   22  C16 UNL     1      19.275 -29.127  40.181  1.00  0.00     0.010 C 
BRANCH  21  23
HETATM   23  C17 UNL     1      17.792 -29.521  38.244  1.00  0.00    -0.000 C 
HETATM   24  C18 UNL     1      16.652 -30.460  37.884  1.00  0.00     0.016 C 
HETATM   25  C19 UNL     1      17.406 -31.417  36.997  1.00  0.00     0.059 C 
HETATM   26  C20 UNL     1      18.455 -30.549  36.285  1.00  0.00     0.021 C 
HETATM   27  C22 UNL     1      18.583 -31.788  37.911  1.00  0.00     0.251 C 
HETATM   28  C21 UNL     1      18.936 -30.323  37.736  1.00  0.00     0.063 C 
HETATM   29  F1  UNL     1      19.433 -32.610  37.199  1.00  0.00    -0.206 F 
HETATM   30  F2  UNL     1      18.238 -32.209  39.149  1.00  0.00    -0.206 F 
ENDBRANCH  21  23
ENDBRANCH  20  21
ENDBRANCH  17  20
ENDBRANCH   1  17
TORSDOF 10
ENDMDL
MODEL 2
REMARK VINA RESULT: -8.830574391      0.942      1.084
REMARK  10 active torsions:
REMARK  status: ('A' for Active; 'I' for Inactive)
REMARK    1  A    between atoms: C3_3  and  O1_4 
REMARK    2  A    between atoms: C7_9  and  C8_10 
REMARK    3  A    between atoms: C9_11  and  C10_12 
REMARK    4  A    between atoms: C10_12  and  C12_14 
REMARK    5  A    between atoms: C12_14  and  O2_15 
REMARK    6  A    between atoms: C12_14  and  C13_17 
REMARK    7  A    between atoms: C13_17  and  O3_18 
REMARK    8  A    between atoms: C13_17  and  C14_20 
REMARK    9  A    between atoms: C14_20  and  C15_21 
REMARK   10  A    between atoms: C15_21  and  C17_23 
ROOT
HETATM    1  C12 UNL     1      16.178 -27.331  41.909  1.00  0.00     0.154 C 
ENDROOT
BRANCH   1   2
HETATM    2  C10 UNL     1      16.118 -27.857  43.387  1.00  0.00     0.035 C 
HETATM    3  C11 UNL     1      17.460 -28.551  43.527  1.00  0.00     0.017 C 
BRANCH   2   4
HETATM    4  C9  UNL     1      14.968 -28.758  43.487  1.00  0.00    -0.019 C 
HETATM    5  C8  UNL     1      14.577 -29.805  44.048  1.00  0.00     0.008 C 
BRANCH   5   6
HETATM    6  C7  UNL     1      15.021 -30.802  44.989  1.00  0.00    -0.028 A 
HETATM    7  C2  UNL     1      14.687 -32.110  45.041  1.00  0.00    -0.019 A 
HETATM    8  C1  UNL     1      14.003 -32.781  43.890  1.00  0.00     0.052 C 
HETATM    9  C3  UNL     1      15.077 -32.925  46.096  1.00  0.00     0.072 A 
HETATM   10  C4  UNL     1      15.828 -32.428  47.133  1.00  0.00     0.037 A 
HETATM   11  C5  UNL     1      16.193 -31.103  47.117  1.00  0.00     0.004 A 
HETATM   12  C6  UNL     1      15.796 -30.323  46.072  1.00  0.00     0.012 A 
BRANCH   9  13
HETATM   13  O1  UNL     1      14.688 -34.281  46.083  1.00  0.00    -0.360 OA
ATOM     14  H1  UNL     1      14.763 -34.769  45.271  1.00  0.00     0.217 HD
ENDBRANCH   9  13
ENDBRANCH   5   6
ENDBRANCH   2   4
ENDBRANCH   1   2
BRANCH   1  15
HETATM   15  O2  UNL     1      15.645 -26.028  41.930  1.00  0.00    -0.392 OA
ATOM     16  H2  UNL     1      16.386 -25.436  41.887  1.00  0.00     0.210 HD
ENDBRANCH   1  15
BRANCH   1  17
HETATM   17  C13 UNL     1      17.606 -27.174  41.453  1.00  0.00     0.147 C 
BRANCH  17  18
HETATM   18  O3  UNL     1      17.954 -25.807  41.513  1.00  0.00    -0.393 OA
ATOM     19  H3  UNL     1      17.722 -25.395  40.689  1.00  0.00     0.210 HD
ENDBRANCH  17  18
BRANCH  17  20
HETATM   20  C14 UNL     1      17.627 -27.655  40.000  1.00  0.00     0.039 C 
BRANCH  20  21
HETATM   21  C15 UNL     1      18.231 -29.015  39.830  1.00  0.00    -0.012 C 
HETATM   22  C16 UNL     1      19.528 -29.133  40.584  1.00  0.00     0.010 C 
BRANCH  21  23
HETATM   23  C17 UNL     1      18.455 -29.247  38.363  1.00  0.00    -0.000 C 
HETATM   24  C18 UNL     1      17.431 -28.559  37.474  1.00  0.00     0.016 C 
HETATM   25  C19 UNL     1      17.137 -29.694  36.529  1.00  0.00     0.059 C 
HETATM   26  C20 UNL     1      18.472 -30.442  36.386  1.00  0.00     0.021 C 
HETATM   27  C22 UNL     1      16.811 -30.818  37.523  1.00  0.00     0.251 C 
HETATM   28  C21 UNL     1      18.270 -30.649  37.903  1.00  0.00     0.063 C 
HETATM   29  F1  UNL     1      16.598 -31.976  36.802  1.00  0.00    -0.206 F 
HETATM   30  F2  UNL     1      15.878 -30.510  38.452  1.00  0.00    -0.206 F 
ENDBRANCH  21  23
ENDBRANCH  20  21
ENDBRANCH  17  20
ENDBRANCH   1  17
TORSDOF 10
ENDMDL
MODEL 3
REMARK VINA RESULT: -8.810834464      5.622      7.626
REMARK  10 active torsions:
REMARK  status: ('A' for Active; 'I' for Inactive)
REMARK    1  A    between atoms: C3_3  and  O1_4 
REMARK    2  A    between atoms: C7_9  and  C8_10 
REMARK    3  A    between atoms: C9_11  and  C10_12 
REMARK    4  A    between atoms: C10_12  and  C12_14 
REMARK    5  A    between atoms: C12_14  and  O2_15 
REMARK    6  A    between atoms: C12_14  and  C13_17 
REMARK    7  A    between atoms: C13_17  and  O3_18 
REMARK    8  A    between atoms: C13_17  and  C14_20 
REMARK    9  A    between atoms: C14_20  and  C15_21 
REMARK   10  A    between atoms: C15_21  and  C17_23 
ROOT
HETATM    1  C12 UNL     1      14.781 -27.861  38.028  1.00  0.00     0.154 C 
ENDROOT
BRANCH   1   2
HETATM    2  C10 UNL     1      15.696 -27.768  39.300  1.00  0.00     0.035 C 
HETATM    3  C11 UNL     1      15.276 -26.435  39.891  1.00  0.00     0.017 C 
BRANCH   2   4
HETATM    4  C9  UNL     1      17.087 -27.806  38.844  1.00  0.00    -0.019 C 
HETATM    5  C8  UNL     1      17.964 -28.583  38.405  1.00  0.00     0.008 C 
BRANCH   5   6
HETATM    6  C7  UNL     1      18.154 -29.966  38.047  1.00  0.00    -0.028 A 
HETATM    7  C2  UNL     1      17.529 -30.671  37.078  1.00  0.00    -0.019 A 
HETATM    8  C1  UNL     1      16.728 -29.986  36.016  1.00  0.00     0.052 C 
HETATM    9  C3  UNL     1      17.706 -32.042  36.940  1.00  0.00     0.072 A 
HETATM   10  C4  UNL     1      18.534 -32.737  37.788  1.00  0.00     0.037 A 
HETATM   11  C5  UNL     1      19.192 -32.056  38.784  1.00  0.00     0.004 A 
HETATM   12  C6  UNL     1      19.001 -30.713  38.901  1.00  0.00     0.012 A 
BRANCH   9  13
HETATM   13  O1  UNL     1      17.017 -32.712  35.907  1.00  0.00    -0.360 OA
ATOM     14  H1  UNL     1      17.357 -32.656  35.022  1.00  0.00     0.217 HD
ENDBRANCH   9  13
ENDBRANCH   5   6
ENDBRANCH   2   4
ENDBRANCH   1   2
BRANCH   1  15
HETATM   15  O2  UNL     1      13.476 -28.107  38.495  1.00  0.00    -0.392 OA
ATOM     16  H2  UNL     1      13.142 -28.835  37.985  1.00  0.00     0.210 HD
ENDBRANCH   1  15
BRANCH   1  17
HETATM   17  C13 UNL     1      14.711 -26.533  37.319  1.00  0.00     0.147 C 
BRANCH  17  18
HETATM   18  O3  UNL     1      13.363 -26.259  37.000  1.00  0.00    -0.393 OA
ATOM     19  H3  UNL     1      12.982 -27.029  36.593  1.00  0.00     0.210 HD
ENDBRANCH  17  18
BRANCH  17  20
HETATM   20  C14 UNL     1      15.527 -26.709  36.036  1.00  0.00     0.039 C 
BRANCH  20  21
HETATM   21  C15 UNL     1      16.312 -25.492  35.656  1.00  0.00    -0.012 C 
HETATM   22  C16 UNL     1      16.727 -24.710  36.874  1.00  0.00     0.010 C 
BRANCH  21  23
HETATM   23  C17 UNL     1      15.457 -24.646  34.756  1.00  0.00    -0.000 C 
HETATM   24  C18 UNL     1      14.952 -25.383  33.526  1.00  0.00     0.016 C 
HETATM   25  C19 UNL     1      15.235 -24.331  32.487  1.00  0.00     0.059 C 
HETATM   26  C20 UNL     1      15.001 -22.994  33.207  1.00  0.00     0.021 C 
HETATM   27  C22 UNL     1      16.713 -24.032  32.776  1.00  0.00     0.251 C 
HETATM   28  C21 UNL     1      16.156 -23.516  34.089  1.00  0.00     0.063 C 
HETATM   29  F1  UNL     1      17.109 -23.002  31.946  1.00  0.00    -0.206 F 
HETATM   30  F2  UNL     1      17.521 -25.115  32.816  1.00  0.00    -0.206 F 
ENDBRANCH  21  23
ENDBRANCH  20  21
ENDBRANCH  17  20
ENDBRANCH   1  17
TORSDOF 10
ENDMDL
MODEL 4
REMARK VINA RESULT: -8.674779468      5.414      9.610
REMARK  10 active torsions:
REMARK  status: ('A' for Active; 'I' for Inactive)
REMARK    1  A    between atoms: C3_3  and  O1_4 
REMARK    2  A    between atoms: C7_9  and  C8_10 
REMARK    3  A    between atoms: C9_11  and  C10_12 
REMARK    4  A    between atoms: C10_12  and  C12_14 
REMARK    5  A    between atoms: C12_14  and  O2_15 
REMARK    6  A    between atoms: C12_14  and  C13_17 
REMARK    7  A    between atoms: C13_17  and  O3_18 
REMARK    8  A    between atoms: C13_17  and  C14_20 
REMARK    9  A    between atoms: C14_20  and  C15_21 
REMARK   10  A    between atoms: C15_21  and  C17_23 
ROOT
HETATM    1  C12 UNL     1      14.739 -26.416  37.711  1.00  0.00     0.154 C 
ENDROOT
BRANCH   1   2
HETATM    2  C10 UNL     1      15.939 -26.077  36.757  1.00  0.00     0.035 C 
HETATM    3  C11 UNL     1      15.974 -24.562  36.824  1.00  0.00     0.017 C 
BRANCH   2   4
HETATM    4  C9  UNL     1      15.610 -26.608  35.433  1.00  0.00    -0.019 C 
HETATM    5  C8  UNL     1      15.410 -26.259  34.248  1.00  0.00     0.008 C 
BRANCH   5   6
HETATM    6  C7  UNL     1      15.395 -25.081  33.417  1.00  0.00    -0.028 A 
HETATM    7  C2  UNL     1      14.415 -24.654  32.592  1.00  0.00    -0.019 A 
HETATM    8  C1  UNL     1      13.035 -25.232  32.663  1.00  0.00     0.052 C 
HETATM    9  C3  UNL     1      14.595 -23.575  31.736  1.00  0.00     0.072 A 
HETATM   10  C4  UNL     1      15.787 -22.894  31.700  1.00  0.00     0.037 A 
HETATM   11  C5  UNL     1      16.810 -23.293  32.527  1.00  0.00     0.004 A 
HETATM   12  C6  UNL     1      16.609 -24.356  33.356  1.00  0.00     0.012 A 
BRANCH   9  13
HETATM   13  O1  UNL     1      13.527 -23.189  30.899  1.00  0.00    -0.360 OA
ATOM     14  H1  UNL     1      13.457 -22.277  30.642  1.00  0.00     0.217 HD
ENDBRANCH   9  13
ENDBRANCH   5   6
ENDBRANCH   2   4
ENDBRANCH   1   2
BRANCH   1  15
HETATM   15  O2  UNL     1      13.609 -25.775  37.170  1.00  0.00    -0.392 OA
ATOM     16  H2  UNL     1      13.528 -24.945  37.626  1.00  0.00     0.210 HD
ENDBRANCH   1  15
BRANCH   1  17
HETATM   17  C13 UNL     1      14.422 -27.890  37.671  1.00  0.00     0.147 C 
BRANCH  17  18
HETATM   18  O3  UNL     1      13.251 -28.123  38.423  1.00  0.00    -0.393 OA
ATOM     19  H3  UNL     1      12.853 -28.934  38.128  1.00  0.00     0.210 HD
ENDBRANCH  17  18
BRANCH  17  20
HETATM   20  C14 UNL     1      15.615 -28.584  38.332  1.00  0.00     0.039 C 
BRANCH  20  21
HETATM   21  C15 UNL     1      16.333 -29.532  37.422  1.00  0.00    -0.012 C 
HETATM   22  C16 UNL     1      15.364 -30.318  36.580  1.00  0.00     0.010 C 
BRANCH  21  23
HETATM   23  C17 UNL     1      17.160 -30.457  38.270  1.00  0.00    -0.000 C 
HETATM   24  C18 UNL     1      18.527 -29.897  38.627  1.00  0.00     0.016 C 
HETATM   25  C19 UNL     1      19.364 -31.118  38.348  1.00  0.00     0.059 C 
HETATM   26  C20 UNL     1      18.467 -32.305  38.733  1.00  0.00     0.021 C 
HETATM   27  C22 UNL     1      18.908 -31.458  36.922  1.00  0.00     0.251 C 
HETATM   28  C21 UNL     1      17.582 -31.721  37.610  1.00  0.00     0.063 C 
HETATM   29  F1  UNL     1      19.532 -32.630  36.543  1.00  0.00    -0.206 F 
HETATM   30  F2  UNL     1      18.968 -30.435  36.040  1.00  0.00    -0.206 F 
ENDBRANCH  21  23
ENDBRANCH  20  21
ENDBRANCH  17  20
ENDBRANCH   1  17
TORSDOF 10
ENDMDL
MODEL 5
REMARK VINA RESULT: -8.609473758      5.757      7.556
REMARK  10 active torsions:
REMARK  status: ('A' for Active; 'I' for Inactive)
REMARK    1  A    between atoms: C3_3  and  O1_4 
REMARK    2  A    between atoms: C7_9  and  C8_10 
REMARK    3  A    between atoms: C9_11  and  C10_12 
REMARK    4  A    between atoms: C10_12  and  C12_14 
REMARK    5  A    between atoms: C12_14  and  O2_15 
REMARK    6  A    between atoms: C12_14  and  C13_17 
REMARK    7  A    between atoms: C13_17  and  O3_18 
REMARK    8  A    between atoms: C13_17  and  C14_20 
REMARK    9  A    between atoms: C14_20  and  C15_21 
REMARK   10  A    between atoms: C15_21  and  C17_23 
ROOT
HETATM    1  C12 UNL     1      14.805 -27.799  38.019  1.00  0.00     0.154 C 
ENDROOT
BRANCH   1   2
HETATM    2  C10 UNL     1      15.705 -27.677  39.300  1.00  0.00     0.035 C 
HETATM    3  C11 UNL     1      15.280 -26.330  39.855  1.00  0.00     0.017 C 
BRANCH   2   4
HETATM    4  C9  UNL     1      17.101 -27.727  38.861  1.00  0.00    -0.019 C 
HETATM    5  C8  UNL     1      17.974 -28.511  38.426  1.00  0.00     0.008 C 
BRANCH   5   6
HETATM    6  C7  UNL     1      18.153 -29.892  38.057  1.00  0.00    -0.028 A 
HETATM    7  C2  UNL     1      17.524 -30.584  37.081  1.00  0.00    -0.019 A 
HETATM    8  C1  UNL     1      16.732 -29.883  36.022  1.00  0.00     0.052 C 
HETATM    9  C3  UNL     1      17.689 -31.956  36.933  1.00  0.00     0.072 A 
HETATM   10  C4  UNL     1      18.508 -32.665  37.777  1.00  0.00     0.037 A 
HETATM   11  C5  UNL     1      19.169 -31.998  38.781  1.00  0.00     0.004 A 
HETATM   12  C6  UNL     1      18.990 -30.654  38.908  1.00  0.00     0.012 A 
BRANCH   9  13
HETATM   13  O1  UNL     1      16.996 -32.611  35.892  1.00  0.00    -0.360 OA
ATOM     14  H1  UNL     1      17.437 -33.308  35.421  1.00  0.00     0.217 HD
ENDBRANCH   9  13
ENDBRANCH   5   6
ENDBRANCH   2   4
ENDBRANCH   1   2
BRANCH   1  15
HETATM   15  O2  UNL     1      13.518 -28.150  38.471  1.00  0.00    -0.392 OA
ATOM     16  H2  UNL     1      12.921 -27.942  37.763  1.00  0.00     0.210 HD
ENDBRANCH   1  15
BRANCH   1  17
HETATM   17  C13 UNL     1      14.643 -26.459  37.347  1.00  0.00     0.147 C 
BRANCH  17  18
HETATM   18  O3  UNL     1      13.285 -26.282  37.008  1.00  0.00    -0.393 OA
ATOM     19  H3  UNL     1      13.103 -26.766  36.211  1.00  0.00     0.210 HD
ENDBRANCH  17  18
BRANCH  17  20
HETATM   20  C14 UNL     1      15.495 -26.533  36.077  1.00  0.00     0.039 C 
BRANCH  20  21
HETATM   21  C15 UNL     1      16.500 -25.429  35.967  1.00  0.00    -0.012 C 
HETATM   22  C16 UNL     1      16.073 -24.222  36.760  1.00  0.00     0.010 C 
BRANCH  21  23
HETATM   23  C17 UNL     1      16.650 -25.076  34.514  1.00  0.00    -0.000 C 
HETATM   24  C18 UNL     1      16.424 -23.602  34.220  1.00  0.00     0.016 C 
HETATM   25  C19 UNL     1      15.543 -23.735  33.006  1.00  0.00     0.059 C 
HETATM   26  C20 UNL     1      16.057 -24.991  32.284  1.00  0.00     0.021 C 
HETATM   27  C22 UNL     1      14.465 -24.692  33.537  1.00  0.00     0.251 C 
HETATM   28  C21 UNL     1      15.629 -25.663  33.607  1.00  0.00     0.063 C 
HETATM   29  F1  UNL     1      13.609 -24.990  32.496  1.00  0.00    -0.206 F 
HETATM   30  F2  UNL     1      13.888 -24.316  34.700  1.00  0.00    -0.206 F 
ENDBRANCH  21  23
ENDBRANCH  20  21
ENDBRANCH  17  20
ENDBRANCH   1  17
TORSDOF 10
ENDMDL
