MODEL 1
REMARK VINA RESULT: -8.370908243      0.000      0.000
REMARK  9 active torsions:
REMARK  status: ('A' for Active; 'I' for Inactive)
REMARK       I    between atoms: C1_2  and  N1_3 
REMARK    1  A    between atoms: C1_2  and  C8_17 
REMARK    2  A    between atoms: N1_3  and  C2_5 
REMARK    3  A    between atoms: C2_5  and  C3_6 
REMARK    4  A    between atoms: C3_6  and  C4_7 
REMARK    5  A    between atoms: C4_7  and  C5_8 
REMARK    6  A    between atoms: C5_8  and  C6_9 
REMARK    7  A    between atoms: C6_9  and  C7_10 
REMARK    8  A    between atoms: C7_10  and  O2_11 
REMARK    9  A    between atoms: N2_13  and  O3_15 
ROOT
HETATM    1  O1  UNL     1      13.725 -26.292  37.195  1.00  0.00    -0.272 OA
HETATM    2  C1  UNL     1      14.535 -26.875  36.376  1.00  0.00     0.238 C 
HETATM    3  N1  UNL     1      14.344 -26.514  35.018  1.00  0.00    -0.359 N 
ATOM      4  H1  UNL     1      14.948 -26.936  34.313  1.00  0.00     0.162 HD
ENDROOT
BRANCH   2   5
HETATM    5  C8  UNL     1      15.462 -27.759  36.942  1.00  0.00     0.083 A 
HETATM    6  C9  UNL     1      15.390 -27.846  38.501  1.00  0.00     0.037 C 
HETATM    7  C10 UNL     1      16.077 -29.100  39.139  1.00  0.00    -0.009 C 
HETATM    8  C11 UNL     1      17.489 -28.597  38.980  1.00  0.00     0.029 C 
HETATM    9  C15 UNL     1      16.305 -30.420  38.322  1.00  0.00     0.030 C 
HETATM   10  C12 UNL     1      17.102 -28.640  37.550  1.00  0.00     0.028 A 
HETATM   11 CL1  UNL     1      15.060 -29.378  37.673  1.00  0.00    -0.195 Cl
HETATM   12  C13 UNL     1      17.749 -29.684  36.730  1.00  0.00     0.050 C 
HETATM   13  C17 UNL     1      16.917 -27.329  36.901  1.00  0.00     0.056 A 
HETATM   14  C14 UNL     1      16.348 -30.260  36.761  1.00  0.00     0.041 C 
HETATM   15 CL2  UNL     1      16.028 -31.703  35.980  1.00  0.00    -0.119 Cl
HETATM   16  C16 UNL     1      15.672 -29.032  36.053  1.00  0.00     0.058 C 
ENDBRANCH   2   5
BRANCH   3  17
HETATM   17  C2  UNL     1      13.329 -25.572  34.586  1.00  0.00     0.122 C 
BRANCH  17  18
HETATM   18  C3  UNL     1      12.696 -25.945  33.293  1.00  0.00     0.020 C 
BRANCH  18  19
HETATM   19  C4  UNL     1      12.839 -24.881  32.229  1.00  0.00     0.002 C 
BRANCH  19  20
HETATM   20  C5  UNL     1      11.587 -24.851  31.399  1.00  0.00     0.008 C 
BRANCH  20  21
HETATM   21  C6  UNL     1      10.471 -25.691  31.920  1.00  0.00     0.086 C 
BRANCH  21  22
HETATM   22  C7  UNL     1       9.805 -26.343  30.774  1.00  0.00     0.135 C 
HETATM   23  N2  UNL     1       9.139 -27.425  30.936  1.00  0.00    -0.251 N 
ATOM     24  H2  UNL     1       8.685 -27.858  30.132  1.00  0.00     0.196 HD
BRANCH  22  25
HETATM   25  O2  UNL     1       9.896 -25.786  29.518  1.00  0.00    -0.348 OA
ATOM     26  H2  UNL     1       9.511 -26.232  28.773  1.00  0.00     0.219 HD
ENDBRANCH  22  25
BRANCH  23  27
HETATM   27  O3  UNL     1       9.026 -28.007  32.162  1.00  0.00    -0.288 OA
ATOM     28  H3  UNL     1       8.826 -28.931  32.252  1.00  0.00     0.244 HD
ENDBRANCH  23  27
ENDBRANCH  21  22
ENDBRANCH  20  21
ENDBRANCH  19  20
ENDBRANCH  18  19
ENDBRANCH  17  18
ENDBRANCH   3  17
TORSDOF 9
ENDMDL
MODEL 2
REMARK VINA RESULT: -8.251085779      1.333      2.097
REMARK  9 active torsions:
REMARK  status: ('A' for Active; 'I' for Inactive)
REMARK       I    between atoms: C1_2  and  N1_3 
REMARK    1  A    between atoms: C1_2  and  C8_17 
REMARK    2  A    between atoms: N1_3  and  C2_5 
REMARK    3  A    between atoms: C2_5  and  C3_6 
REMARK    4  A    between atoms: C3_6  and  C4_7 
REMARK    5  A    between atoms: C4_7  and  C5_8 
REMARK    6  A    between atoms: C5_8  and  C6_9 
REMARK    7  A    between atoms: C6_9  and  C7_10 
REMARK    8  A    between atoms: C7_10  and  O2_11 
REMARK    9  A    between atoms: N2_13  and  O3_15 
ROOT
HETATM    1  O1  UNL     1      16.233 -25.963  35.802  1.00  0.00    -0.272 OA
HETATM    2  C1  UNL     1      15.420 -26.966  35.771  1.00  0.00     0.238 C 
HETATM    3  N1  UNL     1      14.365 -26.827  34.833  1.00  0.00    -0.359 N 
ATOM      4  H1  UNL     1      13.683 -27.581  34.754  1.00  0.00     0.162 HD
ENDROOT
BRANCH   2   5
HETATM    5  C8  UNL     1      15.697 -28.019  36.652  1.00  0.00     0.083 A 
HETATM    6  C9  UNL     1      15.602 -29.437  36.000  1.00  0.00     0.037 C 
HETATM    7  C10 UNL     1      16.305 -30.592  36.791  1.00  0.00    -0.009 C 
HETATM    8  C11 UNL     1      15.234 -30.727  37.844  1.00  0.00     0.029 C 
HETATM    9  C15 UNL     1      17.466 -30.307  37.807  1.00  0.00     0.030 C 
HETATM   10  C12 UNL     1      15.637 -29.325  38.110  1.00  0.00     0.028 A 
HETATM   11 CL1  UNL     1      17.208 -29.036  36.634  1.00  0.00    -0.195 Cl
HETATM   12  C13 UNL     1      16.364 -29.083  39.372  1.00  0.00     0.050 C 
HETATM   13  C17 UNL     1      14.656 -28.296  37.721  1.00  0.00     0.056 A 
HETATM   14  C14 UNL     1      17.510 -28.857  38.407  1.00  0.00     0.041 C 
HETATM   15 CL2  UNL     1      19.027 -28.475  38.997  1.00  0.00    -0.119 Cl
HETATM   16  C16 UNL     1      16.835 -27.650  37.663  1.00  0.00     0.058 C 
ENDBRANCH   2   5
BRANCH   3  17
HETATM   17  C2  UNL     1      14.213 -25.662  33.983  1.00  0.00     0.122 C 
BRANCH  17  18
HETATM   18  C3  UNL     1      12.910 -25.626  33.266  1.00  0.00     0.020 C 
BRANCH  18  19
HETATM   19  C4  UNL     1      12.884 -24.641  32.121  1.00  0.00     0.002 C 
BRANCH  19  20
HETATM   20  C5  UNL     1      11.596 -24.806  31.365  1.00  0.00     0.008 C 
BRANCH  20  21
HETATM   21  C6  UNL     1      10.681 -25.850  31.909  1.00  0.00     0.086 C 
BRANCH  21  22
HETATM   22  C7  UNL     1       9.850 -26.363  30.801  1.00  0.00     0.135 C 
HETATM   23  N2  UNL     1       9.089 -27.379  30.973  1.00  0.00    -0.251 N 
ATOM     24  H2  UNL     1       8.522 -27.717  30.195  1.00  0.00     0.196 HD
BRANCH  22  25
HETATM   25  O2  UNL     1       9.890 -25.749  29.570  1.00  0.00    -0.348 OA
ATOM     26  H2  UNL     1       9.081 -25.555  29.110  1.00  0.00     0.219 HD
ENDBRANCH  22  25
BRANCH  23  27
HETATM   27  O3  UNL     1       9.022 -28.015  32.176  1.00  0.00    -0.288 OA
ATOM     28  H3  UNL     1       9.073 -28.962  32.236  1.00  0.00     0.244 HD
ENDBRANCH  23  27
ENDBRANCH  21  22
ENDBRANCH  20  21
ENDBRANCH  19  20
ENDBRANCH  18  19
ENDBRANCH  17  18
ENDBRANCH   3  17
TORSDOF 9
ENDMDL
MODEL 3
REMARK VINA RESULT: -7.879814884      1.655      2.753
REMARK  9 active torsions:
REMARK  status: ('A' for Active; 'I' for Inactive)
REMARK       I    between atoms: C1_2  and  N1_3 
REMARK    1  A    between atoms: C1_2  and  C8_17 
REMARK    2  A    between atoms: N1_3  and  C2_5 
REMARK    3  A    between atoms: C2_5  and  C3_6 
REMARK    4  A    between atoms: C3_6  and  C4_7 
REMARK    5  A    between atoms: C4_7  and  C5_8 
REMARK    6  A    between atoms: C5_8  and  C6_9 
REMARK    7  A    between atoms: C6_9  and  C7_10 
REMARK    8  A    between atoms: C7_10  and  O2_11 
REMARK    9  A    between atoms: N2_13  and  O3_15 
ROOT
HETATM    1  O1  UNL     1      13.147 -25.420  36.678  1.00  0.00    -0.272 OA
HETATM    2  C1  UNL     1      14.342 -25.823  36.397  1.00  0.00     0.238 C 
HETATM    3  N1  UNL     1      14.811 -25.400  35.128  1.00  0.00    -0.359 N 
ATOM      4  H1  UNL     1      15.747 -25.682  34.837  1.00  0.00     0.162 HD
ENDROOT
BRANCH   2   5
HETATM    5  C8  UNL     1      14.980 -26.602  37.370  1.00  0.00     0.083 A 
HETATM    6  C9  UNL     1      15.877 -27.741  36.785  1.00  0.00     0.037 C 
HETATM    7  C10 UNL     1      16.926 -28.349  37.776  1.00  0.00    -0.009 C 
HETATM    8  C11 UNL     1      15.938 -29.181  38.553  1.00  0.00     0.029 C 
HETATM    9  C15 UNL     1      17.444 -27.547  39.022  1.00  0.00     0.030 C 
HETATM   10  C12 UNL     1      15.375 -27.838  38.836  1.00  0.00     0.028 A 
HETATM   11 CL1  UNL     1      16.758 -26.550  37.759  1.00  0.00    -0.195 Cl
HETATM   12  C13 UNL     1      15.525 -27.347  40.220  1.00  0.00     0.050 C 
HETATM   13  C17 UNL     1      14.093 -27.534  38.176  1.00  0.00     0.056 A 
HETATM   14  C14 UNL     1      16.500 -26.407  39.542  1.00  0.00     0.041 C 
HETATM   15 CL2  UNL     1      17.333 -25.279  40.453  1.00  0.00    -0.119 Cl
HETATM   16  C16 UNL     1      15.431 -25.746  38.601  1.00  0.00     0.058 C 
ENDBRANCH   2   5
BRANCH   3  17
HETATM   17  C2  UNL     1      14.021 -24.586  34.224  1.00  0.00     0.122 C 
BRANCH  17  18
HETATM   18  C3  UNL     1      13.679 -25.282  32.954  1.00  0.00     0.020 C 
BRANCH  18  19
HETATM   19  C4  UNL     1      12.267 -25.819  32.928  1.00  0.00     0.002 C 
BRANCH  19  20
HETATM   20  C5  UNL     1      11.588 -25.340  31.676  1.00  0.00     0.008 C 
BRANCH  20  21
HETATM   21  C6  UNL     1      10.098 -25.405  31.708  1.00  0.00     0.086 C 
BRANCH  21  22
HETATM   22  C7  UNL     1       9.651 -26.343  30.659  1.00  0.00     0.135 C 
HETATM   23  N2  UNL     1       9.179 -27.492  30.970  1.00  0.00    -0.251 N 
ATOM     24  H2  UNL     1       8.874 -28.126  30.230  1.00  0.00     0.196 HD
BRANCH  22  25
HETATM   25  O2  UNL     1       9.740 -25.985  29.332  1.00  0.00    -0.348 OA
ATOM     26  H2  UNL     1       9.463 -26.594  28.657  1.00  0.00     0.219 HD
ENDBRANCH  22  25
BRANCH  23  27
HETATM   27  O3  UNL     1       9.075 -27.884  32.270  1.00  0.00    -0.288 OA
ATOM     28  H3  UNL     1       8.716 -27.305  32.932  1.00  0.00     0.244 HD
ENDBRANCH  23  27
ENDBRANCH  21  22
ENDBRANCH  20  21
ENDBRANCH  19  20
ENDBRANCH  18  19
ENDBRANCH  17  18
ENDBRANCH   3  17
TORSDOF 9
ENDMDL
MODEL 4
REMARK VINA RESULT: -7.799002171      3.901      7.210
REMARK  9 active torsions:
REMARK  status: ('A' for Active; 'I' for Inactive)
REMARK       I    between atoms: C1_2  and  N1_3 
REMARK    1  A    between atoms: C1_2  and  C8_17 
REMARK    2  A    between atoms: N1_3  and  C2_5 
REMARK    3  A    between atoms: C2_5  and  C3_6 
REMARK    4  A    between atoms: C3_6  and  C4_7 
REMARK    5  A    between atoms: C4_7  and  C5_8 
REMARK    6  A    between atoms: C5_8  and  C6_9 
REMARK    7  A    between atoms: C6_9  and  C7_10 
REMARK    8  A    between atoms: C7_10  and  O2_11 
REMARK    9  A    between atoms: N2_13  and  O3_15 
ROOT
HETATM    1  O1  UNL     1      15.153 -27.411  34.956  1.00  0.00    -0.272 OA
HETATM    2  C1  UNL     1      15.559 -26.308  35.491  1.00  0.00     0.238 C 
HETATM    3  N1  UNL     1      15.988 -26.441  36.836  1.00  0.00    -0.359 N 
ATOM      4  H1  UNL     1      16.321 -25.611  37.325  1.00  0.00     0.162 HD
ENDROOT
BRANCH   2   5
HETATM    5  C8  UNL     1      15.512 -25.168  34.679  1.00  0.00     0.083 A 
HETATM    6  C9  UNL     1      16.842 -24.879  33.910  1.00  0.00     0.037 C 
HETATM    7  C10 UNL     1      16.718 -23.904  32.691  1.00  0.00    -0.009 C 
HETATM    8  C11 UNL     1      16.622 -22.644  33.512  1.00  0.00     0.029 C 
HETATM    9  C15 UNL     1      15.356 -23.689  31.943  1.00  0.00     0.030 C 
HETATM   10  C12 UNL     1      15.406 -23.331  34.010  1.00  0.00     0.028 A 
HETATM   11 CL1  UNL     1      15.447 -25.176  32.859  1.00  0.00    -0.195 Cl
HETATM   12  C13 UNL     1      14.113 -22.749  33.597  1.00  0.00     0.050 C 
HETATM   13  C17 UNL     1      15.479 -23.830  35.395  1.00  0.00     0.056 A 
HETATM   14  C14 UNL     1      14.062 -24.017  32.770  1.00  0.00     0.041 C 
HETATM   15 CL2  UNL     1      12.749 -24.307  31.777  1.00  0.00    -0.119 Cl
HETATM   16  C16 UNL     1      14.111 -24.993  33.999  1.00  0.00     0.058 C 
ENDBRANCH   2   5
BRANCH   3  17
HETATM   17  C2  UNL     1      15.976 -27.705  37.548  1.00  0.00     0.122 C 
BRANCH  17  18
HETATM   18  C3  UNL     1      17.333 -28.169  37.943  1.00  0.00     0.020 C 
BRANCH  18  19
HETATM   19  C4  UNL     1      17.515 -29.664  37.812  1.00  0.00     0.002 C 
BRANCH  19  20
HETATM   20  C5  UNL     1      17.280 -30.059  36.382  1.00  0.00     0.008 C 
BRANCH  20  21
HETATM   21  C6  UNL     1      16.680 -31.411  36.197  1.00  0.00     0.086 C 
BRANCH  21  22
HETATM   22  C7  UNL     1      15.544 -31.291  35.261  1.00  0.00     0.135 C 
HETATM   23  N2  UNL     1      15.221 -32.269  34.499  1.00  0.00    -0.251 N 
ATOM     24  H2  UNL     1      14.432 -32.167  33.860  1.00  0.00     0.196 HD
BRANCH  22  25
HETATM   25  O2  UNL     1      14.822 -30.121  35.202  1.00  0.00    -0.348 OA
ATOM     26  H2  UNL     1      13.901 -30.119  35.437  1.00  0.00     0.219 HD
ENDBRANCH  22  25
BRANCH  23  27
HETATM   27  O3  UNL     1      15.910 -33.444  34.527  1.00  0.00    -0.288 OA
ATOM     28  H3  UNL     1      16.049 -33.952  33.737  1.00  0.00     0.244 HD
ENDBRANCH  23  27
ENDBRANCH  21  22
ENDBRANCH  20  21
ENDBRANCH  19  20
ENDBRANCH  18  19
ENDBRANCH  17  18
ENDBRANCH   3  17
TORSDOF 9
ENDMDL
MODEL 5
REMARK VINA RESULT: -7.798739521      1.347      1.823
REMARK  9 active torsions:
REMARK  status: ('A' for Active; 'I' for Inactive)
REMARK       I    between atoms: C1_2  and  N1_3 
REMARK    1  A    between atoms: C1_2  and  C8_17 
REMARK    2  A    between atoms: N1_3  and  C2_5 
REMARK    3  A    between atoms: C2_5  and  C3_6 
REMARK    4  A    between atoms: C3_6  and  C4_7 
REMARK    5  A    between atoms: C4_7  and  C5_8 
REMARK    6  A    between atoms: C5_8  and  C6_9 
REMARK    7  A    between atoms: C6_9  and  C7_10 
REMARK    8  A    between atoms: C7_10  and  O2_11 
REMARK    9  A    between atoms: N2_13  and  O3_15 
ROOT
HETATM    1  O1  UNL     1      13.221 -25.223  36.707  1.00  0.00    -0.272 OA
HETATM    2  C1  UNL     1      14.200 -25.974  36.325  1.00  0.00     0.238 C 
HETATM    3  N1  UNL     1      14.156 -26.329  34.954  1.00  0.00    -0.359 N 
ATOM      4  H1  UNL     1      14.897 -26.922  34.581  1.00  0.00     0.162 HD
ENDROOT
BRANCH   2   5
HETATM    5  C8  UNL     1      15.138 -26.318  37.306  1.00  0.00     0.083 A 
HETATM    6  C9  UNL     1      14.940 -25.575  38.667  1.00  0.00     0.037 C 
HETATM    7  C10 UNL     1      15.662 -26.219  39.899  1.00  0.00    -0.009 C 
HETATM    8  C11 UNL     1      17.040 -25.725  39.542  1.00  0.00     0.029 C 
HETATM    9  C15 UNL     1      16.057 -27.737  39.922  1.00  0.00     0.030 C 
HETATM   10  C12 UNL     1      16.781 -26.560  38.344  1.00  0.00     0.028 A 
HETATM   11 CL1  UNL     1      14.797 -27.339  38.776  1.00  0.00    -0.195 Cl
HETATM   12  C13 UNL     1      17.573 -27.801  38.230  1.00  0.00     0.050 C 
HETATM   13  C17 UNL     1      16.555 -25.819  37.089  1.00  0.00     0.056 A 
HETATM   14  C14 UNL     1      16.221 -28.422  38.519  1.00  0.00     0.041 C 
HETATM   15 CL2  UNL     1      16.078 -30.085  38.621  1.00  0.00    -0.119 Cl
HETATM   16  C16 UNL     1      15.519 -27.837  37.243  1.00  0.00     0.058 C 
ENDBRANCH   2   5
BRANCH   3  17
HETATM   17  C2  UNL     1      13.105 -25.887  34.056  1.00  0.00     0.122 C 
BRANCH  17  18
HETATM   18  C3  UNL     1      13.533 -24.788  33.149  1.00  0.00     0.020 C 
BRANCH  18  19
HETATM   19  C4  UNL     1      12.566 -24.540  32.014  1.00  0.00     0.002 C 
BRANCH  19  20
HETATM   20  C5  UNL     1      11.674 -25.740  31.863  1.00  0.00     0.008 C 
BRANCH  20  21
HETATM   21  C6  UNL     1      10.226 -25.426  31.694  1.00  0.00     0.086 C 
BRANCH  21  22
HETATM   22  C7  UNL     1       9.675 -26.322  30.657  1.00  0.00     0.135 C 
HETATM   23  N2  UNL     1       9.130 -27.435  30.980  1.00  0.00    -0.251 N 
ATOM     24  H2  UNL     1       8.754 -28.039  30.248  1.00  0.00     0.196 HD
BRANCH  22  25
HETATM   25  O2  UNL     1       9.744 -25.962  29.330  1.00  0.00    -0.348 OA
ATOM     26  H2  UNL     1      10.488 -26.230  28.803  1.00  0.00     0.219 HD
ENDBRANCH  22  25
BRANCH  23  27
HETATM   27  O3  UNL     1       9.043 -27.827  32.281  1.00  0.00    -0.288 OA
ATOM     28  H3  UNL     1       8.235 -27.734  32.771  1.00  0.00     0.244 HD
ENDBRANCH  23  27
ENDBRANCH  21  22
ENDBRANCH  20  21
ENDBRANCH  19  20
ENDBRANCH  18  19
ENDBRANCH  17  18
ENDBRANCH   3  17
TORSDOF 9
ENDMDL
