MODEL 1
REMARK VINA RESULT: -7.746586908      0.000      0.000
REMARK  10 active torsions:
REMARK  status: ('A' for Active; 'I' for Inactive)
REMARK    1  A    between atoms: C2_2  and  C3_3 
REMARK    2  A    between atoms: C3_3  and  O1_4 
REMARK    3  A    between atoms: C4_6  and  O2_7 
REMARK    4  A    between atoms: C9_13  and  C10_14 
REMARK    5  A    between atoms: C10_14  and  O3_15 
REMARK    6  A    between atoms: C10_14  and  C11_17 
REMARK    7  A    between atoms: C11_17  and  C12_18 
REMARK    8  A    between atoms: C12_18  and  C13_19 
REMARK    9  A    between atoms: C13_19  and  C14_20 
REMARK   10  A    between atoms: C14_20  and  C15_21 
ROOT
HETATM    1  C1  UNL     1      16.923 -29.068  45.193  1.00  0.00     0.020 C 
HETATM    2  C2  UNL     1      16.131 -28.245  44.137  1.00  0.00     0.007 C 
HETATM    3  C4  UNL     1      16.124 -26.859  44.710  1.00  0.00     0.128 C 
HETATM    4  C5  UNL     1      15.868 -25.789  43.718  1.00  0.00     0.033 C 
HETATM    5  C6  UNL     1      16.718 -25.889  42.508  1.00  0.00     0.012 C 
HETATM    6  C7  UNL     1      16.622 -27.283  41.840  1.00  0.00    -0.034 C 
HETATM    7  C8  UNL     1      15.239 -27.357  41.272  1.00  0.00     0.016 C 
HETATM    8  C9  UNL     1      17.651 -27.296  40.764  1.00  0.00     0.023 C 
HETATM    9  C18 UNL     1      18.598 -28.504  40.877  1.00  0.00     0.008 C 
HETATM   10  C19 UNL     1      19.381 -28.277  42.135  1.00  0.00     0.001 C 
HETATM   11  C20 UNL     1      18.402 -28.192  43.266  1.00  0.00     0.006 C 
HETATM   12  C21 UNL     1      16.945 -28.337  42.859  1.00  0.00     0.007 C 
ENDROOT
BRANCH   8  13
HETATM   13  C10 UNL     1      17.221 -27.171  39.342  1.00  0.00     0.123 C 
BRANCH  13  14
HETATM   14  O3  UNL     1      18.200 -26.237  38.794  1.00  0.00    -0.395 OA
ATOM     15  H3  UNL     1      18.021 -25.441  39.281  1.00  0.00     0.210 HD
ENDBRANCH  13  14
BRANCH  13  16
HETATM   16  C11 UNL     1      17.503 -28.376  38.470  1.00  0.00     0.032 C 
BRANCH  16  17
HETATM   17  C12 UNL     1      16.215 -29.131  38.163  1.00  0.00     0.002 C 
BRANCH  17  18
HETATM   18  C13 UNL     1      16.274 -29.937  36.909  1.00  0.00     0.001 C 
BRANCH  18  19
HETATM   19  C14 UNL     1      17.739 -30.325  36.687  1.00  0.00     0.011 C 
BRANCH  19  20
HETATM   20  C15 UNL     1      17.978 -31.765  37.064  1.00  0.00     0.064 A 
HETATM   21  C16 UNL     1      19.378 -32.242  36.872  1.00  0.00     0.090 A 
HETATM   22  C17 UNL     1      18.839 -32.103  38.246  1.00  0.00     0.248 A 
HETATM   23  F1  UNL     1      18.596 -33.284  38.931  1.00  0.00    -0.206 F 
HETATM   24  F2  UNL     1      19.359 -31.112  39.032  1.00  0.00    -0.206 F 
ENDBRANCH  19  20
ENDBRANCH  18  19
ENDBRANCH  17  18
ENDBRANCH  16  17
ENDBRANCH  13  16
ENDBRANCH   8  13
BRANCH   2  25
HETATM   25  C3  UNL     1      14.791 -28.890  44.079  1.00  0.00     0.176 C 
BRANCH  25  26
HETATM   26  O1  UNL     1      14.524 -29.629  45.265  1.00  0.00    -0.400 OA
ATOM     27  H1  UNL     1      14.843 -30.521  45.194  1.00  0.00     0.209 HD
ENDBRANCH  25  26
ENDBRANCH   2  25
BRANCH   3  28
HETATM   28  O2  UNL     1      15.160 -26.774  45.724  1.00  0.00    -0.395 OA
ATOM     29  H2  UNL     1      15.550 -27.014  46.556  1.00  0.00     0.210 HD
ENDBRANCH   3  28
TORSDOF 10
ENDMDL
MODEL 2
REMARK VINA RESULT: -7.715920846      1.342      1.718
REMARK  10 active torsions:
REMARK  status: ('A' for Active; 'I' for Inactive)
REMARK    1  A    between atoms: C2_2  and  C3_3 
REMARK    2  A    between atoms: C3_3  and  O1_4 
REMARK    3  A    between atoms: C4_6  and  O2_7 
REMARK    4  A    between atoms: C9_13  and  C10_14 
REMARK    5  A    between atoms: C10_14  and  O3_15 
REMARK    6  A    between atoms: C10_14  and  C11_17 
REMARK    7  A    between atoms: C11_17  and  C12_18 
REMARK    8  A    between atoms: C12_18  and  C13_19 
REMARK    9  A    between atoms: C13_19  and  C14_20 
REMARK   10  A    between atoms: C14_20  and  C15_21 
ROOT
HETATM    1  C1  UNL     1      16.768 -29.723  45.985  1.00  0.00     0.020 C 
HETATM    2  C2  UNL     1      16.123 -28.843  44.876  1.00  0.00     0.007 C 
HETATM    3  C4  UNL     1      15.816 -27.558  45.586  1.00  0.00     0.128 C 
HETATM    4  C5  UNL     1      15.644 -26.391  44.690  1.00  0.00     0.033 C 
HETATM    5  C6  UNL     1      16.740 -26.236  43.705  1.00  0.00     0.012 C 
HETATM    6  C7  UNL     1      16.970 -27.526  42.879  1.00  0.00    -0.034 C 
HETATM    7  C8  UNL     1      15.762 -27.656  42.003  1.00  0.00     0.016 C 
HETATM    8  C9  UNL     1      18.199 -27.286  42.073  1.00  0.00     0.023 C 
HETATM    9  C18 UNL     1      19.247 -28.398  42.262  1.00  0.00     0.008 C 
HETATM   10  C19 UNL     1      19.704 -28.272  43.684  1.00  0.00     0.001 C 
HETATM   11  C20 UNL     1      18.502 -28.443  44.562  1.00  0.00     0.006 C 
HETATM   12  C21 UNL     1      17.198 -28.674  43.817  1.00  0.00     0.007 C 
ENDROOT
BRANCH   8  13
HETATM   13  C10 UNL     1      18.072 -27.007  40.614  1.00  0.00     0.123 C 
BRANCH  13  14
HETATM   14  O3  UNL     1      18.421 -25.592  40.529  1.00  0.00    -0.395 OA
ATOM     15  H3  UNL     1      19.366 -25.616  40.438  1.00  0.00     0.210 HD
ENDBRANCH  13  14
BRANCH  13  16
HETATM   16  C11 UNL     1      19.165 -27.591  39.745  1.00  0.00     0.032 C 
BRANCH  16  17
HETATM   17  C12 UNL     1      18.567 -28.403  38.602  1.00  0.00     0.002 C 
BRANCH  17  18
HETATM   18  C13 UNL     1      17.169 -28.860  38.856  1.00  0.00     0.001 C 
BRANCH  18  19
HETATM   19  C14 UNL     1      17.124 -30.364  38.565  1.00  0.00     0.011 C 
BRANCH  19  20
HETATM   20  C15 UNL     1      18.450 -30.851  38.040  1.00  0.00     0.064 A 
HETATM   21  C16 UNL     1      18.846 -32.215  38.498  1.00  0.00     0.090 A 
HETATM   22  C17 UNL     1      18.503 -31.997  37.072  1.00  0.00     0.248 A 
HETATM   23  F1  UNL     1      19.557 -32.060  36.172  1.00  0.00    -0.206 F 
HETATM   24  F2  UNL     1      17.350 -32.566  36.605  1.00  0.00    -0.206 F 
ENDBRANCH  19  20
ENDBRANCH  18  19
ENDBRANCH  17  18
ENDBRANCH  16  17
ENDBRANCH  13  16
ENDBRANCH   8  13
BRANCH   2  25
HETATM   25  C3  UNL     1      14.921 -29.604  44.438  1.00  0.00     0.176 C 
BRANCH  25  26
HETATM   26  O1  UNL     1      14.657 -30.695  45.311  1.00  0.00    -0.400 OA
ATOM     27  H1  UNL     1      14.313 -31.442  44.835  1.00  0.00     0.209 HD
ENDBRANCH  25  26
ENDBRANCH   2  25
BRANCH   3  28
HETATM   28  O2  UNL     1      14.653 -27.712  46.354  1.00  0.00    -0.395 OA
ATOM     29  H2  UNL     1      14.832 -27.472  47.256  1.00  0.00     0.210 HD
ENDBRANCH   3  28
TORSDOF 10
ENDMDL
MODEL 3
REMARK VINA RESULT: -7.606191794      1.428      1.899
REMARK  10 active torsions:
REMARK  status: ('A' for Active; 'I' for Inactive)
REMARK    1  A    between atoms: C2_2  and  C3_3 
REMARK    2  A    between atoms: C3_3  and  O1_4 
REMARK    3  A    between atoms: C4_6  and  O2_7 
REMARK    4  A    between atoms: C9_13  and  C10_14 
REMARK    5  A    between atoms: C10_14  and  O3_15 
REMARK    6  A    between atoms: C10_14  and  C11_17 
REMARK    7  A    between atoms: C11_17  and  C12_18 
REMARK    8  A    between atoms: C12_18  and  C13_19 
REMARK    9  A    between atoms: C13_19  and  C14_20 
REMARK   10  A    between atoms: C14_20  and  C15_21 
ROOT
HETATM    1  C1  UNL     1      16.434 -30.002  45.658  1.00  0.00     0.020 C 
HETATM    2  C2  UNL     1      15.963 -28.866  44.706  1.00  0.00     0.007 C 
HETATM    3  C4  UNL     1      15.650 -27.735  45.642  1.00  0.00     0.128 C 
HETATM    4  C5  UNL     1      15.642 -26.398  45.004  1.00  0.00     0.033 C 
HETATM    5  C6  UNL     1      16.846 -26.128  44.183  1.00  0.00     0.012 C 
HETATM    6  C7  UNL     1      17.093 -27.233  43.126  1.00  0.00    -0.034 C 
HETATM    7  C8  UNL     1      15.983 -27.087  42.132  1.00  0.00     0.016 C 
HETATM    8  C9  UNL     1      18.414 -26.926  42.512  1.00  0.00     0.023 C 
HETATM    9  C18 UNL     1      19.372 -28.130  42.558  1.00  0.00     0.008 C 
HETATM   10  C19 UNL     1      19.678 -28.336  44.010  1.00  0.00     0.001 C 
HETATM   11  C20 UNL     1      18.380 -28.593  44.714  1.00  0.00     0.006 C 
HETATM   12  C21 UNL     1      17.154 -28.564  43.816  1.00  0.00     0.007 C 
ENDROOT
BRANCH   8  13
HETATM   13  C10 UNL     1      18.463 -26.343  41.140  1.00  0.00     0.123 C 
BRANCH  13  14
HETATM   14  O3  UNL     1      19.254 -25.132  41.338  1.00  0.00    -0.395 OA
ATOM     15  H3  UNL     1      18.686 -24.455  40.988  1.00  0.00     0.210 HD
ENDBRANCH  13  14
BRANCH  13  16
HETATM   16  C11 UNL     1      19.354 -27.071  40.157  1.00  0.00     0.032 C 
BRANCH  16  17
HETATM   17  C12 UNL     1      18.527 -27.672  39.026  1.00  0.00     0.002 C 
BRANCH  17  18
HETATM   18  C13 UNL     1      17.798 -28.917  39.409  1.00  0.00     0.001 C 
BRANCH  18  19
HETATM   19  C14 UNL     1      18.588 -30.099  38.839  1.00  0.00     0.011 C 
BRANCH  19  20
HETATM   20  C15 UNL     1      17.862 -30.721  37.674  1.00  0.00     0.064 A 
HETATM   21  C16 UNL     1      18.629 -30.746  36.395  1.00  0.00     0.090 A 
HETATM   22  C17 UNL     1      18.337 -32.021  37.094  1.00  0.00     0.248 A 
HETATM   23  F1  UNL     1      17.413 -32.857  36.484  1.00  0.00    -0.206 F 
HETATM   24  F2  UNL     1      19.390 -32.688  37.657  1.00  0.00    -0.206 F 
ENDBRANCH  19  20
ENDBRANCH  18  19
ENDBRANCH  17  18
ENDBRANCH  16  17
ENDBRANCH  13  16
ENDBRANCH   8  13
BRANCH   2  25
HETATM   25  C3  UNL     1      14.776 -29.425  44.005  1.00  0.00     0.176 C 
BRANCH  25  26
HETATM   26  O1  UNL     1      14.316 -30.613  44.638  1.00  0.00    -0.400 OA
ATOM     27  H1  UNL     1      13.406 -30.532  44.901  1.00  0.00     0.209 HD
ENDBRANCH  25  26
ENDBRANCH   2  25
BRANCH   3  28
HETATM   28  O2  UNL     1      14.404 -27.955  46.245  1.00  0.00    -0.395 OA
ATOM     29  H2  UNL     1      13.829 -27.220  46.066  1.00  0.00     0.210 HD
ENDBRANCH   3  28
TORSDOF 10
ENDMDL
MODEL 4
REMARK VINA RESULT: -7.450441227      3.619      6.812
REMARK  10 active torsions:
REMARK  status: ('A' for Active; 'I' for Inactive)
REMARK    1  A    between atoms: C2_2  and  C3_3 
REMARK    2  A    between atoms: C3_3  and  O1_4 
REMARK    3  A    between atoms: C4_6  and  O2_7 
REMARK    4  A    between atoms: C9_13  and  C10_14 
REMARK    5  A    between atoms: C10_14  and  O3_15 
REMARK    6  A    between atoms: C10_14  and  C11_17 
REMARK    7  A    between atoms: C11_17  and  C12_18 
REMARK    8  A    between atoms: C12_18  and  C13_19 
REMARK    9  A    between atoms: C13_19  and  C14_20 
REMARK   10  A    between atoms: C14_20  and  C15_21 
ROOT
HETATM    1  C1  UNL     1      15.897 -25.554  33.507  1.00  0.00     0.020 C 
HETATM    2  C2  UNL     1      15.622 -25.036  34.948  1.00  0.00     0.007 C 
HETATM    3  C4  UNL     1      14.146 -24.769  34.947  1.00  0.00     0.128 C 
HETATM    4  C5  UNL     1      13.531 -24.728  36.294  1.00  0.00     0.033 C 
HETATM    5  C6  UNL     1      13.889 -25.889  37.142  1.00  0.00     0.012 C 
HETATM    6  C7  UNL     1      15.421 -26.084  37.250  1.00  0.00    -0.034 C 
HETATM    7  C8  UNL     1      15.913 -24.926  38.061  1.00  0.00     0.016 C 
HETATM    8  C9  UNL     1      15.623 -27.373  37.968  1.00  0.00     0.023 C 
HETATM    9  C18 UNL     1      16.546 -28.333  37.196  1.00  0.00     0.008 C 
HETATM   10  C19 UNL     1      15.781 -28.711  35.964  1.00  0.00     0.001 C 
HETATM   11  C20 UNL     1      15.485 -27.450  35.211  1.00  0.00     0.006 C 
HETATM   12  C21 UNL     1      16.001 -26.181  35.869  1.00  0.00     0.007 C 
ENDROOT
BRANCH   8  13
HETATM   13  C10 UNL     1      16.058 -27.353  39.394  1.00  0.00     0.123 C 
BRANCH  13  14
HETATM   14  O3  UNL     1      14.804 -27.555  40.113  1.00  0.00    -0.395 OA
ATOM     15  H3  UNL     1      15.030 -28.232  40.739  1.00  0.00     0.210 HD
ENDBRANCH  13  14
BRANCH  13  16
HETATM   16  C11 UNL     1      16.818 -28.578  39.858  1.00  0.00     0.032 C 
BRANCH  16  17
HETATM   17  C12 UNL     1      18.249 -28.212  40.233  1.00  0.00     0.002 C 
BRANCH  17  18
HETATM   18  C13 UNL     1      19.236 -29.302  39.976  1.00  0.00     0.001 C 
BRANCH  18  19
HETATM   19  C14 UNL     1      18.449 -30.518  39.475  1.00  0.00     0.011 C 
BRANCH  19  20
HETATM   20  C15 UNL     1      19.247 -31.293  38.459  1.00  0.00     0.064 A 
HETATM   21  C16 UNL     1      18.933 -32.750  38.390  1.00  0.00     0.090 A 
HETATM   22  C17 UNL     1      18.571 -31.873  37.250  1.00  0.00     0.248 A 
HETATM   23  F1  UNL     1      19.312 -32.041  36.089  1.00  0.00    -0.206 F 
HETATM   24  F2  UNL     1      17.242 -31.647  37.024  1.00  0.00    -0.206 F 
ENDBRANCH  19  20
ENDBRANCH  18  19
ENDBRANCH  17  18
ENDBRANCH  16  17
ENDBRANCH  13  16
ENDBRANCH   8  13
BRANCH   2  25
HETATM   25  C3  UNL     1      16.464 -23.815  35.079  1.00  0.00     0.176 C 
BRANCH  25  26
HETATM   26  O1  UNL     1      16.982 -23.409  33.819  1.00  0.00    -0.400 OA
ATOM     27  H1  UNL     1      16.541 -22.630  33.500  1.00  0.00     0.209 HD
ENDBRANCH  25  26
ENDBRANCH   2  25
BRANCH   3  28
HETATM   28  O2  UNL     1      13.888 -23.555  34.296  1.00  0.00    -0.395 OA
ATOM     29  H2  UNL     1      12.949 -23.429  34.216  1.00  0.00     0.210 HD
ENDBRANCH   3  28
TORSDOF 10
ENDMDL
MODEL 5
REMARK VINA RESULT: -7.440873105      1.837      2.356
REMARK  10 active torsions:
REMARK  status: ('A' for Active; 'I' for Inactive)
REMARK    1  A    between atoms: C2_2  and  C3_3 
REMARK    2  A    between atoms: C3_3  and  O1_4 
REMARK    3  A    between atoms: C4_6  and  O2_7 
REMARK    4  A    between atoms: C9_13  and  C10_14 
REMARK    5  A    between atoms: C10_14  and  O3_15 
REMARK    6  A    between atoms: C10_14  and  C11_17 
REMARK    7  A    between atoms: C11_17  and  C12_18 
REMARK    8  A    between atoms: C12_18  and  C13_19 
REMARK    9  A    between atoms: C13_19  and  C14_20 
REMARK   10  A    between atoms: C14_20  and  C15_21 
ROOT
HETATM    1  C1  UNL     1      16.641 -29.889  45.762  1.00  0.00     0.020 C 
HETATM    2  C2  UNL     1      16.066 -28.937  44.675  1.00  0.00     0.007 C 
HETATM    3  C4  UNL     1      15.699 -27.706  45.450  1.00  0.00     0.128 C 
HETATM    4  C5  UNL     1      15.578 -26.480  44.627  1.00  0.00     0.033 C 
HETATM    5  C6  UNL     1      16.737 -26.252  43.732  1.00  0.00     0.012 C 
HETATM    6  C7  UNL     1      17.034 -27.480  42.836  1.00  0.00    -0.034 C 
HETATM    7  C8  UNL     1      15.890 -27.555  41.873  1.00  0.00     0.016 C 
HETATM    8  C9  UNL     1      18.312 -27.179  42.136  1.00  0.00     0.023 C 
HETATM    9  C18 UNL     1      19.355 -28.298  42.318  1.00  0.00     0.008 C 
HETATM   10  C19 UNL     1      19.714 -28.269  43.773  1.00  0.00     0.001 C 
HETATM   11  C20 UNL     1      18.457 -28.506  44.553  1.00  0.00     0.006 C 
HETATM   12  C21 UNL     1      17.208 -28.690  43.707  1.00  0.00     0.007 C 
ENDROOT
BRANCH   8  13
HETATM   13  C10 UNL     1      18.283 -26.800  40.694  1.00  0.00     0.123 C 
BRANCH  13  14
HETATM   14  O3  UNL     1      19.016 -25.537  40.682  1.00  0.00    -0.395 OA
ATOM     15  H3  UNL     1      19.588 -25.623  41.436  1.00  0.00     0.210 HD
ENDBRANCH  13  14
BRANCH  13  16
HETATM   16  C11 UNL     1      19.176 -27.621  39.788  1.00  0.00     0.032 C 
BRANCH  16  17
HETATM   17  C12 UNL     1      18.346 -28.572  38.933  1.00  0.00     0.002 C 
BRANCH  17  18
HETATM   18  C13 UNL     1      18.756 -30.001  39.051  1.00  0.00     0.001 C 
BRANCH  18  19
HETATM   19  C14 UNL     1      17.726 -30.835  38.283  1.00  0.00     0.011 C 
BRANCH  19  20
HETATM   20  C15 UNL     1      17.301 -30.133  37.019  1.00  0.00     0.064 A 
HETATM   21  C16 UNL     1      16.642 -31.006  36.004  1.00  0.00     0.090 A 
HETATM   22  C17 UNL     1      15.843 -29.968  36.700  1.00  0.00     0.248 A 
HETATM   23  F1  UNL     1      15.447 -28.883  35.932  1.00  0.00    -0.206 F 
HETATM   24  F2  UNL     1      14.888 -30.392  37.582  1.00  0.00    -0.206 F 
ENDBRANCH  19  20
ENDBRANCH  18  19
ENDBRANCH  17  18
ENDBRANCH  16  17
ENDBRANCH  13  16
ENDBRANCH   8  13
BRANCH   2  25
HETATM   25  C3  UNL     1      14.902 -29.671  44.105  1.00  0.00     0.176 C 
BRANCH  25  26
HETATM   26  O1  UNL     1      14.518 -30.755  44.941  1.00  0.00    -0.400 OA
ATOM     27  H1  UNL     1      13.832 -30.497  45.545  1.00  0.00     0.209 HD
ENDBRANCH  25  26
ENDBRANCH   2  25
BRANCH   3  28
HETATM   28  O2  UNL     1      14.488 -27.918  46.123  1.00  0.00    -0.395 OA
ATOM     29  H2  UNL     1      14.588 -27.686  47.040  1.00  0.00     0.210 HD
ENDBRANCH   3  28
TORSDOF 10
ENDMDL
