MODEL 1
REMARK VINA RESULT: -7.114670269      0.000      0.000
REMARK  10 active torsions:
REMARK  status: ('A' for Active; 'I' for Inactive)
REMARK    1  A    between atoms: N1_1  and  C1_4 
REMARK    2  A    between atoms: C2_9  and  S1_10 
REMARK    3  A    between atoms: S1_10  and  C3_11 
REMARK    4  A    between atoms: C3_11  and  C4_12 
REMARK       I    between atoms: C4_12  and  N4_14 
REMARK    5  A    between atoms: C6_16  and  O2_17 
REMARK    6  A    between atoms: C7_19  and  O3_20 
REMARK    7  A    between atoms: O3_20  and  C8_21 
REMARK    8  A    between atoms: C8_21  and  N5_23 
REMARK    9  A    between atoms: N5_23  and  N6_25 
REMARK   10  A    between atoms: N6_25  and  N7_26 
ROOT
HETATM    1  C4  UNL     1       2.698  -3.801  17.358  1.00  0.00     0.245 C 
HETATM    2  O1  UNL     1       3.208  -4.070  18.464  1.00  0.00    -0.271 OA
HETATM    3  N4  UNL     1       1.505  -3.015  17.251  1.00  0.00    -0.259 N 
HETATM    4  C5  UNL     1       0.843  -2.654  16.015  1.00  0.00     0.183 C 
HETATM    5  C6  UNL     1      -0.600  -2.594  16.472  1.00  0.00     0.184 C 
HETATM    6  C7  UNL     1      -0.451  -2.027  17.866  1.00  0.00     0.274 C 
HETATM    7  N8  UNL     1       0.823  -2.494  18.343  1.00  0.00    -0.101 NA
ENDROOT
BRANCH   1   8
HETATM    8  C3  UNL     1       3.360  -4.320  16.133  1.00  0.00     0.185 C 
BRANCH   8   9
HETATM    9  S1  UNL     1       4.278  -5.827  16.537  1.00  0.00    -0.094 SA
BRANCH   9  10
HETATM   10  C2  UNL     1       3.560  -7.199  15.625  1.00  0.00     0.130 A 
HETATM   11  N3  UNL     1       2.433  -7.262  14.938  1.00  0.00    -0.286 N 
HETATM   12  N2  UNL     1       2.086  -8.331  14.353  1.00  0.00    -0.279 N 
ATOM     13  H3  UNL     1       1.834  -6.439  14.878  1.00  0.00     0.188 HD
HETATM   14  C1  UNL     1       2.882  -9.399  14.441  1.00  0.00     0.159 A 
ATOM     15  H2  UNL     1       1.215  -8.374  13.823  1.00  0.00     0.189 HD
HETATM   16  S3  UNL     1       4.161  -8.800  15.408  1.00  0.00    -0.027 SA
BRANCH  14  17
HETATM   17  N1  UNL     1       2.696 -10.585  13.910  1.00  0.00    -0.379 N 
ATOM     18  H12 UNL     1       2.108 -11.362  14.211  1.00  0.00     0.158 HD
ATOM     19  H11 UNL     1       3.122 -10.963  13.064  1.00  0.00     0.158 HD
ENDBRANCH  14  17
ENDBRANCH   9  10
ENDBRANCH   8   9
ENDBRANCH   1   8
BRANCH   5  20
HETATM   20  O2  UNL     1      -1.360  -1.742  15.676  1.00  0.00    -0.390 OA
ATOM     21  H2  UNL     1      -2.289  -1.828  15.853  1.00  0.00     0.210 HD
ENDBRANCH   5  20
BRANCH   6  22
HETATM   22  O3  UNL     1      -0.500  -0.603  17.784  1.00  0.00    -0.299 OA
BRANCH  22  23
HETATM   23  C8  UNL     1      -0.865   0.144  18.895  1.00  0.00     0.229 C 
HETATM   24  S2  UNL     1      -2.182  -0.355  19.735  1.00  0.00    -0.032 SA
BRANCH  23  25
HETATM   25  N5  UNL     1      -0.159   1.296  19.321  1.00  0.00    -0.255 N 
ATOM     26  H5  UNL     1       0.566   1.177  20.029  1.00  0.00     0.187 HD
BRANCH  25  27
HETATM   27  N6  UNL     1      -0.390   2.572  18.838  1.00  0.00    -0.027 NA
BRANCH  27  28
HETATM   28  N7  UNL     1      -1.222   2.564  17.740  1.00  0.00    -0.329 N 
ATOM     29  H72 UNL     1      -1.668   1.718  17.384  1.00  0.00     0.174 HD
ATOM     30  H71 UNL     1      -1.331   3.495  17.338  1.00  0.00     0.174 HD
ENDBRANCH  27  28
ENDBRANCH  25  27
ENDBRANCH  23  25
ENDBRANCH  22  23
ENDBRANCH   6  22
TORSDOF 10
ENDMDL
MODEL 2
REMARK VINA RESULT: -7.049992061      1.337      1.372
REMARK  10 active torsions:
REMARK  status: ('A' for Active; 'I' for Inactive)
REMARK    1  A    between atoms: N1_1  and  C1_4 
REMARK    2  A    between atoms: C2_9  and  S1_10 
REMARK    3  A    between atoms: S1_10  and  C3_11 
REMARK    4  A    between atoms: C3_11  and  C4_12 
REMARK       I    between atoms: C4_12  and  N4_14 
REMARK    5  A    between atoms: C6_16  and  O2_17 
REMARK    6  A    between atoms: C7_19  and  O3_20 
REMARK    7  A    between atoms: O3_20  and  C8_21 
REMARK    8  A    between atoms: C8_21  and  N5_23 
REMARK    9  A    between atoms: N5_23  and  N6_25 
REMARK   10  A    between atoms: N6_25  and  N7_26 
ROOT
HETATM    1  C4  UNL     1       2.486  -3.529  17.560  1.00  0.00     0.245 C 
HETATM    2  O1  UNL     1       2.956  -3.761  18.692  1.00  0.00    -0.271 OA
HETATM    3  N4  UNL     1       1.246  -2.835  17.389  1.00  0.00    -0.259 N 
HETATM    4  C5  UNL     1       0.625  -2.523  16.118  1.00  0.00     0.183 C 
HETATM    5  C6  UNL     1      -0.841  -2.571  16.498  1.00  0.00     0.184 C 
HETATM    6  C7  UNL     1      -0.807  -1.995  17.896  1.00  0.00     0.274 C 
HETATM    7  N8  UNL     1       0.470  -2.366  18.441  1.00  0.00    -0.101 NA
ENDROOT
BRANCH   1   8
HETATM    8  C3  UNL     1       3.249  -3.997  16.373  1.00  0.00     0.185 C 
BRANCH   8   9
HETATM    9  S1  UNL     1       4.732  -4.881  16.919  1.00  0.00    -0.094 SA
BRANCH   9  10
HETATM   10  C2  UNL     1       4.900  -6.380  15.943  1.00  0.00     0.130 A 
HETATM   11  N3  UNL     1       3.969  -7.185  15.460  1.00  0.00    -0.286 N 
HETATM   12  N2  UNL     1       4.282  -8.210  14.784  1.00  0.00    -0.279 N 
ATOM     13  H3  UNL     1       2.985  -6.978  15.633  1.00  0.00     0.188 HD
HETATM   14  C1  UNL     1       5.574  -8.466  14.566  1.00  0.00     0.159 A 
ATOM     15  H2  UNL     1       3.560  -8.828  14.413  1.00  0.00     0.189 HD
HETATM   16  S3  UNL     1       6.328  -7.162  15.378  1.00  0.00    -0.027 SA
BRANCH  14  17
HETATM   17  N1  UNL     1       6.092  -9.469  13.896  1.00  0.00    -0.379 N 
ATOM     18  H12 UNL     1       6.208  -9.607  12.893  1.00  0.00     0.158 HD
ATOM     19  H11 UNL     1       6.489 -10.330  14.271  1.00  0.00     0.158 HD
ENDBRANCH  14  17
ENDBRANCH   9  10
ENDBRANCH   8   9
ENDBRANCH   1   8
BRANCH   5  20
HETATM   20  O2  UNL     1      -1.619  -1.776  15.661  1.00  0.00    -0.390 OA
ATOM     21  H2  UNL     1      -1.306  -0.880  15.634  1.00  0.00     0.210 HD
ENDBRANCH   5  20
BRANCH   6  22
HETATM   22  O3  UNL     1      -0.958  -0.578  17.808  1.00  0.00    -0.299 OA
BRANCH  22  23
HETATM   23  C8  UNL     1      -0.970   0.193  18.962  1.00  0.00     0.229 C 
HETATM   24  S2  UNL     1      -2.064  -0.206  20.118  1.00  0.00    -0.032 SA
BRANCH  23  25
HETATM   25  N5  UNL     1      -0.095   1.286  19.174  1.00  0.00    -0.255 N 
ATOM     26  H5  UNL     1       0.813   1.095  19.598  1.00  0.00     0.187 HD
BRANCH  25  27
HETATM   27  N6  UNL     1      -0.394   2.596  18.842  1.00  0.00    -0.027 NA
BRANCH  27  28
HETATM   28  N7  UNL     1      -1.360   2.672  17.863  1.00  0.00    -0.329 N 
ATOM     29  H72 UNL     1      -1.704   1.857  17.354  1.00  0.00     0.174 HD
ATOM     30  H71 UNL     1      -1.681   3.630  17.717  1.00  0.00     0.174 HD
ENDBRANCH  27  28
ENDBRANCH  25  27
ENDBRANCH  23  25
ENDBRANCH  22  23
ENDBRANCH   6  22
TORSDOF 10
ENDMDL
MODEL 3
REMARK VINA RESULT: -6.967924939      1.869      1.945
REMARK  10 active torsions:
REMARK  status: ('A' for Active; 'I' for Inactive)
REMARK    1  A    between atoms: N1_1  and  C1_4 
REMARK    2  A    between atoms: C2_9  and  S1_10 
REMARK    3  A    between atoms: S1_10  and  C3_11 
REMARK    4  A    between atoms: C3_11  and  C4_12 
REMARK       I    between atoms: C4_12  and  N4_14 
REMARK    5  A    between atoms: C6_16  and  O2_17 
REMARK    6  A    between atoms: C7_19  and  O3_20 
REMARK    7  A    between atoms: O3_20  and  C8_21 
REMARK    8  A    between atoms: C8_21  and  N5_23 
REMARK    9  A    between atoms: N5_23  and  N6_25 
REMARK   10  A    between atoms: N6_25  and  N7_26 
ROOT
HETATM    1  C4  UNL     1       3.728  -4.217  17.646  1.00  0.00     0.245 C 
HETATM    2  O1  UNL     1       3.858  -4.648  18.810  1.00  0.00    -0.271 OA
HETATM    3  N4  UNL     1       2.578  -3.463  17.249  1.00  0.00    -0.259 N 
HETATM    4  C5  UNL     1       2.341  -2.924  15.925  1.00  0.00     0.183 C 
HETATM    5  C6  UNL     1       0.829  -2.985  15.858  1.00  0.00     0.184 C 
HETATM    6  C7  UNL     1       0.452  -2.651  17.284  1.00  0.00     0.274 C 
HETATM    7  N8  UNL     1       1.526  -3.149  18.100  1.00  0.00    -0.101 NA
ENDROOT
BRANCH   1   8
HETATM    8  C3  UNL     1       4.805  -4.506  16.665  1.00  0.00     0.185 C 
BRANCH   8   9
HETATM    9  S1  UNL     1       5.794  -5.905  17.250  1.00  0.00    -0.094 SA
BRANCH   9  10
HETATM   10  C2  UNL     1       5.784  -7.185  15.988  1.00  0.00     0.130 A 
HETATM   11  N3  UNL     1       6.009  -7.095  14.689  1.00  0.00    -0.286 N 
HETATM   12  N2  UNL     1       5.958  -8.120  13.947  1.00  0.00    -0.279 N 
ATOM     13  H3  UNL     1       6.227  -6.187  14.278  1.00  0.00     0.188 HD
HETATM   14  C1  UNL     1       5.672  -9.301  14.501  1.00  0.00     0.159 A 
ATOM     15  H2  UNL     1       6.132  -8.045  12.944  1.00  0.00     0.189 HD
HETATM   16  S3  UNL     1       5.478  -8.874  16.147  1.00  0.00    -0.027 SA
BRANCH  14  17
HETATM   17  N1  UNL     1       5.574 -10.465  13.904  1.00  0.00    -0.379 N 
ATOM     18  H12 UNL     1       5.093 -10.732  13.045  1.00  0.00     0.158 HD
ATOM     19  H11 UNL     1       5.977 -11.354  14.200  1.00  0.00     0.158 HD
ENDBRANCH  14  17
ENDBRANCH   9  10
ENDBRANCH   8   9
ENDBRANCH   1   8
BRANCH   5  20
HETATM   20  O2  UNL     1       0.311  -2.038  14.980  1.00  0.00    -0.390 OA
ATOM     21  H2  UNL     1      -0.612  -1.878  15.139  1.00  0.00     0.210 HD
ENDBRANCH   5  20
BRANCH   6  22
HETATM   22  O3  UNL     1       0.311  -1.235  17.397  1.00  0.00    -0.299 OA
BRANCH  22  23
HETATM   23  C8  UNL     1      -0.776  -0.696  18.071  1.00  0.00     0.229 C 
HETATM   24  S2  UNL     1      -1.781  -1.745  18.833  1.00  0.00    -0.032 SA
BRANCH  23  25
HETATM   25  N5  UNL     1      -1.044   0.694  18.124  1.00  0.00    -0.255 N 
ATOM     26  H5  UNL     1      -2.015   0.996  18.049  1.00  0.00     0.187 HD
BRANCH  25  27
HETATM   27  N6  UNL     1      -0.071   1.668  18.273  1.00  0.00    -0.027 NA
BRANCH  27  28
HETATM   28  N7  UNL     1      -0.431   2.615  19.206  1.00  0.00    -0.329 N 
ATOM     29  H72 UNL     1      -0.679   3.574  18.962  1.00  0.00     0.174 HD
ATOM     30  H71 UNL     1      -0.416   2.239  20.155  1.00  0.00     0.174 HD
ENDBRANCH  27  28
ENDBRANCH  25  27
ENDBRANCH  23  25
ENDBRANCH  22  23
ENDBRANCH   6  22
TORSDOF 10
ENDMDL
MODEL 4
REMARK VINA RESULT: -6.957821384      1.835      1.979
REMARK  10 active torsions:
REMARK  status: ('A' for Active; 'I' for Inactive)
REMARK    1  A    between atoms: N1_1  and  C1_4 
REMARK    2  A    between atoms: C2_9  and  S1_10 
REMARK    3  A    between atoms: S1_10  and  C3_11 
REMARK    4  A    between atoms: C3_11  and  C4_12 
REMARK       I    between atoms: C4_12  and  N4_14 
REMARK    5  A    between atoms: C6_16  and  O2_17 
REMARK    6  A    between atoms: C7_19  and  O3_20 
REMARK    7  A    between atoms: O3_20  and  C8_21 
REMARK    8  A    between atoms: C8_21  and  N5_23 
REMARK    9  A    between atoms: N5_23  and  N6_25 
REMARK   10  A    between atoms: N6_25  and  N7_26 
ROOT
HETATM    1  C4  UNL     1       2.276  -3.534  18.329  1.00  0.00     0.245 C 
HETATM    2  O1  UNL     1       2.540  -3.734  19.531  1.00  0.00    -0.271 OA
HETATM    3  N4  UNL     1       1.089  -2.842  17.925  1.00  0.00    -0.259 N 
HETATM    4  C5  UNL     1       0.701  -2.565  16.557  1.00  0.00     0.183 C 
HETATM    5  C6  UNL     1      -0.809  -2.599  16.677  1.00  0.00     0.184 C 
HETATM    6  C7  UNL     1      -1.016  -1.984  18.044  1.00  0.00     0.274 C 
HETATM    7  N8  UNL     1       0.145  -2.342  18.813  1.00  0.00    -0.101 NA
ENDROOT
BRANCH   1   8
HETATM    8  C3  UNL     1       3.230  -4.036  17.306  1.00  0.00     0.185 C 
BRANCH   8   9
HETATM    9  S1  UNL     1       4.428  -5.144  18.091  1.00  0.00    -0.094 SA
BRANCH   9  10
HETATM   10  C2  UNL     1       5.147  -6.201  16.829  1.00  0.00     0.130 A 
HETATM   11  N3  UNL     1       6.414  -6.386  16.500  1.00  0.00    -0.286 N 
HETATM   12  N2  UNL     1       6.735  -7.183  15.569  1.00  0.00    -0.279 N 
ATOM     13  H3  UNL     1       7.143  -5.880  17.002  1.00  0.00     0.188 HD
HETATM   14  C1  UNL     1       5.768  -7.838  14.922  1.00  0.00     0.159 A 
ATOM     15  H2  UNL     1       7.714  -7.323  15.318  1.00  0.00     0.189 HD
HETATM   16  S3  UNL     1       4.365  -7.257  15.713  1.00  0.00    -0.027 SA
BRANCH  14  17
HETATM   17  N1  UNL     1       5.899  -8.698  13.939  1.00  0.00    -0.379 N 
ATOM     18  H12 UNL     1       6.720  -9.201  13.603  1.00  0.00     0.158 HD
ATOM     19  H11 UNL     1       5.175  -9.035  13.305  1.00  0.00     0.158 HD
ENDBRANCH  14  17
ENDBRANCH   9  10
ENDBRANCH   8   9
ENDBRANCH   1   8
BRANCH   5  20
HETATM   20  O2  UNL     1      -1.424  -1.827  15.696  1.00  0.00    -0.390 OA
ATOM     21  H2  UNL     1      -1.728  -2.357  14.969  1.00  0.00     0.210 HD
ENDBRANCH   5  20
BRANCH   6  22
HETATM   22  O3  UNL     1      -1.139  -0.570  17.892  1.00  0.00    -0.299 OA
BRANCH  22  23
HETATM   23  C8  UNL     1      -1.085   0.255  19.006  1.00  0.00     0.229 C 
HETATM   24  S2  UNL     1      -2.126  -0.071  20.232  1.00  0.00    -0.032 SA
BRANCH  23  25
HETATM   25  N5  UNL     1      -0.188   1.344  19.122  1.00  0.00    -0.255 N 
ATOM     26  H5  UNL     1       0.712   1.176  19.573  1.00  0.00     0.187 HD
BRANCH  25  27
HETATM   27  N6  UNL     1      -0.453   2.623  18.663  1.00  0.00    -0.027 NA
BRANCH  27  28
HETATM   28  N7  UNL     1      -1.553   2.654  17.835  1.00  0.00    -0.329 N 
ATOM     29  H72 UNL     1      -1.686   2.006  17.058  1.00  0.00     0.174 HD
ATOM     30  H71 UNL     1      -2.206   3.395  18.095  1.00  0.00     0.174 HD
ENDBRANCH  27  28
ENDBRANCH  25  27
ENDBRANCH  23  25
ENDBRANCH  22  23
ENDBRANCH   6  22
TORSDOF 10
ENDMDL
MODEL 5
REMARK VINA RESULT: -6.809007369      1.596      1.784
REMARK  10 active torsions:
REMARK  status: ('A' for Active; 'I' for Inactive)
REMARK    1  A    between atoms: N1_1  and  C1_4 
REMARK    2  A    between atoms: C2_9  and  S1_10 
REMARK    3  A    between atoms: S1_10  and  C3_11 
REMARK    4  A    between atoms: C3_11  and  C4_12 
REMARK       I    between atoms: C4_12  and  N4_14 
REMARK    5  A    between atoms: C6_16  and  O2_17 
REMARK    6  A    between atoms: C7_19  and  O3_20 
REMARK    7  A    between atoms: O3_20  and  C8_21 
REMARK    8  A    between atoms: C8_21  and  N5_23 
REMARK    9  A    between atoms: N5_23  and  N6_25 
REMARK   10  A    between atoms: N6_25  and  N7_26 
ROOT
HETATM    1  C4  UNL     1       2.822  -5.544  17.229  1.00  0.00     0.245 C 
HETATM    2  O1  UNL     1       2.294  -6.409  17.956  1.00  0.00    -0.271 OA
HETATM    3  N4  UNL     1       2.270  -4.228  17.106  1.00  0.00    -0.259 N 
HETATM    4  C5  UNL     1       2.812  -3.161  16.289  1.00  0.00     0.183 C 
HETATM    5  C6  UNL     1       1.546  -2.420  15.912  1.00  0.00     0.184 C 
HETATM    6  C7  UNL     1       0.731  -2.553  17.179  1.00  0.00     0.274 C 
HETATM    7  N8  UNL     1       1.124  -3.804  17.768  1.00  0.00    -0.101 NA
ENDROOT
BRANCH   1   8
HETATM    8  C3  UNL     1       4.052  -5.909  16.481  1.00  0.00     0.185 C 
BRANCH   8   9
HETATM    9  S1  UNL     1       4.235  -7.710  16.464  1.00  0.00    -0.094 SA
BRANCH   9  10
HETATM   10  C2  UNL     1       3.210  -8.381  15.149  1.00  0.00     0.130 A 
HETATM   11  N3  UNL     1       2.205  -7.827  14.493  1.00  0.00    -0.286 N 
HETATM   12  N2  UNL     1       1.593  -8.462  13.584  1.00  0.00    -0.279 N 
ATOM     13  H3  UNL     1       1.919  -6.875  14.721  1.00  0.00     0.188 HD
HETATM   14  C1  UNL     1       1.980  -9.707  13.297  1.00  0.00     0.159 A 
ATOM     15  H2  UNL     1       0.817  -8.030  13.080  1.00  0.00     0.189 HD
HETATM   16  S3  UNL     1       3.273  -9.930  14.397  1.00  0.00    -0.027 SA
BRANCH  14  17
HETATM   17  N1  UNL     1       1.475 -10.518  12.398  1.00  0.00    -0.379 N 
ATOM     18  H12 UNL     1       0.790 -10.348  11.662  1.00  0.00     0.158 HD
ATOM     19  H11 UNL     1       1.683 -11.507  12.263  1.00  0.00     0.158 HD
ENDBRANCH  14  17
ENDBRANCH   9  10
ENDBRANCH   8   9
ENDBRANCH   1   8
BRANCH   5  20
HETATM   20  O2  UNL     1       1.796  -1.081  15.629  1.00  0.00    -0.390 OA
ATOM     21  H2  UNL     1       1.799  -0.549  16.416  1.00  0.00     0.210 HD
ENDBRANCH   5  20
BRANCH   6  22
HETATM   22  O3  UNL     1       1.031  -1.447  18.030  1.00  0.00    -0.299 OA
BRANCH  22  23
HETATM   23  C8  UNL     1       0.007  -0.770  18.677  1.00  0.00     0.229 C 
HETATM   24  S2  UNL     1      -0.483  -1.359  20.127  1.00  0.00    -0.032 SA
BRANCH  23  25
HETATM   25  N5  UNL     1      -0.617   0.384  18.144  1.00  0.00    -0.255 N 
ATOM     26  H5  UNL     1      -1.547   0.280  17.737  1.00  0.00     0.187 HD
BRANCH  25  27
HETATM   27  N6  UNL     1      -0.046   1.646  18.142  1.00  0.00    -0.027 NA
BRANCH  27  28
HETATM   28  N7  UNL     1      -0.439   2.390  19.232  1.00  0.00    -0.329 N 
ATOM     29  H72 UNL     1       0.133   2.498  20.070  1.00  0.00     0.174 HD
ATOM     30  H71 UNL     1      -1.358   2.812  19.094  1.00  0.00     0.174 HD
ENDBRANCH  27  28
ENDBRANCH  25  27
ENDBRANCH  23  25
ENDBRANCH  22  23
ENDBRANCH   6  22
TORSDOF 10
ENDMDL
