MODEL 1
REMARK VINA RESULT: -8.721406970      0.000      0.000
REMARK  7 active torsions:
REMARK  status: ('A' for Active; 'I' for Inactive)
REMARK    1  A    between atoms: N1_1  and  N2_4 
REMARK    2  A    between atoms: N2_4  and  C1_6 
REMARK    3  A    between atoms: C4_16  and  N6_17 
REMARK    4  A    between atoms: N6_17  and  C5_19 
REMARK    5  A    between atoms: N10_26  and  N11_27 
REMARK    6  A    between atoms: N11_27  and  C6_29 
REMARK    7  A    between atoms: C6_29  and  C7_30 
ROOT
HETATM    1  N6  UNL     1      -0.325   0.457  21.079  1.00  0.00    -0.168 N 
ATOM      2  H6  UNL     1       0.594   0.015  21.124  1.00  0.00     0.186 HD
ENDROOT
BRANCH   1   3
HETATM    3  C4  UNL     1      -1.077   0.375  22.121  1.00  0.00     0.165 A 
HETATM    4  N5  UNL     1      -2.378  -0.026  22.192  1.00  0.00    -0.282 N 
HETATM    5  N4  UNL     1      -2.744   0.051  23.468  1.00  0.00    -0.292 N 
ATOM      6  H5  UNL     1      -2.962  -0.328  21.412  1.00  0.00     0.188 HD
HETATM    7  C3  UNL     1      -1.715   0.488  24.215  1.00  0.00     0.148 A 
ATOM      8  H4  UNL     1      -3.669  -0.186  23.827  1.00  0.00     0.187 HD
HETATM    9  C2  UNL     1      -1.541   0.743  25.556  1.00  0.00     0.290 A 
HETATM   10  C11 UNL     1      -0.632   0.705  23.386  1.00  0.00     0.128 A 
HETATM   11  N3  UNL     1      -0.356   1.187  26.018  1.00  0.00    -0.153 N 
HETATM   12  O1  UNL     1      -2.531   0.544  26.311  1.00  0.00    -0.265 OA
HETATM   13  C1  UNL     1       0.702   1.399  25.207  1.00  0.00     0.700 A 
ATOM     14  H3  UNL     1      -0.255   1.369  27.017  1.00  0.00     0.187 HD
HETATM   15  N14 UNL     1       0.529   1.149  23.900  1.00  0.00    -0.184 N 
ATOM     16  H14 UNL     1       1.314   1.302  23.266  1.00  0.00     0.184 HD
BRANCH  13  17
HETATM   17  N2  UNL     1       1.829   1.828  25.690  1.00  0.00    -0.138 N 
ATOM     18  H2  UNL     1       2.205   2.738  25.424  1.00  0.00     0.205 HD
BRANCH  17  19
HETATM   19  N1  UNL     1       2.510   0.996  26.588  1.00  0.00    -0.331 N 
ATOM     20  H12 UNL     1       2.551  -0.010  26.426  1.00  0.00     0.177 HD
ATOM     21  H11 UNL     1       2.955   1.434  27.394  1.00  0.00     0.177 HD
ENDBRANCH  17  19
ENDBRANCH  13  17
ENDBRANCH   1   3
BRANCH   1  22
HETATM   22  C5  UNL     1      -0.677   1.110  19.882  1.00  0.00     0.737 A 
HETATM   23  N7  UNL     1      -0.452   2.371  19.542  1.00  0.00    -0.113 N 
HETATM   24  N8  UNL     1      -0.951   2.560  18.337  1.00  0.00    -0.212 N 
ATOM     25  H7  UNL     1       0.023   3.071  20.112  1.00  0.00     0.207 HD
HETATM   26  N9  UNL     1      -1.483   1.429  17.929  1.00  0.00    -0.192 N 
ATOM     27  H8  UNL     1      -0.928   3.434  17.811  1.00  0.00     0.210 HD
HETATM   28  N10 UNL     1      -1.325   0.520  18.869  1.00  0.00    -0.007 N 
ATOM     29  H9  UNL     1      -1.943   1.280  17.031  1.00  0.00     0.212 HD
BRANCH  28  30
HETATM   30  N11 UNL     1      -1.749  -0.811  18.825  1.00  0.00    -0.293 N 
ATOM     31  H11 UNL     1      -2.718  -1.028  18.590  1.00  0.00     0.183 HD
BRANCH  30  32
HETATM   32  C6  UNL     1      -0.834  -1.865  19.107  1.00  0.00     0.200 C 
BRANCH  32  33
HETATM   33  C7  UNL     1       0.100  -2.215  18.038  1.00  0.00     0.047 A 
HETATM   34  C8  UNL     1       1.260  -2.931  18.325  1.00  0.00     0.114 A 
HETATM   35  N12 UNL     1       2.135  -3.271  17.362  1.00  0.00    -0.369 N 
HETATM   36  C9  UNL     1       1.926  -2.933  16.084  1.00  0.00     0.162 A 
ATOM     37  H12 UNL     1       2.974  -3.796  17.610  1.00  0.00     0.164 HD
HETATM   38  C10 UNL     1       0.787  -2.225  15.773  1.00  0.00     0.261 A 
HETATM   39  O2  UNL     1       0.586  -1.902  14.563  1.00  0.00    -0.267 OA
HETATM   40  N13 UNL     1      -0.099  -1.880  16.751  1.00  0.00    -0.323 N 
ATOM     41  H13 UNL     1      -0.936  -1.354  16.499  1.00  0.00     0.169 HD
ENDBRANCH  32  33
ENDBRANCH  30  32
ENDBRANCH  28  30
ENDBRANCH   1  22
TORSDOF 7
ENDMDL
MODEL 2
REMARK VINA RESULT: -8.561146382      5.708      9.428
REMARK  7 active torsions:
REMARK  status: ('A' for Active; 'I' for Inactive)
REMARK    1  A    between atoms: N1_1  and  N2_4 
REMARK    2  A    between atoms: N2_4  and  C1_6 
REMARK    3  A    between atoms: C4_16  and  N6_17 
REMARK    4  A    between atoms: N6_17  and  C5_19 
REMARK    5  A    between atoms: N10_26  and  N11_27 
REMARK    6  A    between atoms: N11_27  and  C6_29 
REMARK    7  A    between atoms: C6_29  and  C7_30 
ROOT
HETATM    1  N6  UNL     1       1.641  -3.542  16.390  1.00  0.00    -0.168 N 
ATOM      2  H6  UNL     1       0.922  -4.026  15.853  1.00  0.00     0.186 HD
ENDROOT
BRANCH   1   3
HETATM    3  C4  UNL     1       2.848  -3.979  16.299  1.00  0.00     0.165 A 
HETATM    4  N5  UNL     1       4.010  -3.302  16.529  1.00  0.00    -0.282 N 
HETATM    5  N4  UNL     1       5.010  -4.151  16.311  1.00  0.00    -0.292 N 
ATOM      6  H5  UNL     1       4.096  -2.327  16.815  1.00  0.00     0.188 HD
HETATM    7  C3  UNL     1       4.522  -5.351  15.949  1.00  0.00     0.148 A 
ATOM      8  H4  UNL     1       6.000  -3.926  16.403  1.00  0.00     0.187 HD
HETATM    9  C2  UNL     1       5.091  -6.559  15.616  1.00  0.00     0.290 A 
HETATM   10  C11 UNL     1       3.143  -5.277  15.931  1.00  0.00     0.128 A 
HETATM   11  N3  UNL     1       4.316  -7.611  15.288  1.00  0.00    -0.153 N 
HETATM   12  O1  UNL     1       6.350  -6.624  15.633  1.00  0.00    -0.265 OA
HETATM   13  C1  UNL     1       2.969  -7.538  15.270  1.00  0.00     0.700 A 
ATOM     14  H3  UNL     1       4.764  -8.494  15.044  1.00  0.00     0.187 HD
HETATM   15  N14 UNL     1       2.417  -6.358  15.596  1.00  0.00    -0.184 N 
ATOM     16  H14 UNL     1       1.400  -6.278  15.589  1.00  0.00     0.184 HD
BRANCH  13  17
HETATM   17  N2  UNL     1       2.254  -8.574  14.949  1.00  0.00    -0.138 N 
ATOM     18  H2  UNL     1       2.149  -9.361  15.590  1.00  0.00     0.205 HD
BRANCH  17  19
HETATM   19  N1  UNL     1       1.634  -8.573  13.694  1.00  0.00    -0.331 N 
ATOM     20  H12 UNL     1       0.781  -8.035  13.544  1.00  0.00     0.177 HD
ATOM     21  H11 UNL     1       2.066  -9.123  12.952  1.00  0.00     0.177 HD
ENDBRANCH  17  19
ENDBRANCH  13  17
ENDBRANCH   1   3
BRANCH   1  22
HETATM   22  C5  UNL     1       1.241  -2.444  17.177  1.00  0.00     0.737 A 
HETATM   23  N7  UNL     1       1.076  -1.184  16.800  1.00  0.00    -0.113 N 
HETATM   24  N8  UNL     1       0.697  -0.492  17.856  1.00  0.00    -0.212 N 
ATOM     25  H7  UNL     1       1.218  -0.815  15.860  1.00  0.00     0.207 HD
HETATM   26  N9  UNL     1       0.626  -1.312  18.882  1.00  0.00    -0.192 N 
ATOM     27  H8  UNL     1       0.493   0.507  17.874  1.00  0.00     0.210 HD
HETATM   28  N10 UNL     1       0.959  -2.523  18.484  1.00  0.00    -0.007 N 
ATOM     29  H9  UNL     1       0.357  -1.052  19.831  1.00  0.00     0.212 HD
BRANCH  28  30
HETATM   30  N11 UNL     1       1.009  -3.677  19.271  1.00  0.00    -0.293 N 
ATOM     31  H11 UNL     1       0.154  -4.200  19.461  1.00  0.00     0.183 HD
BRANCH  30  32
HETATM   32  C6  UNL     1       2.249  -4.125  19.809  1.00  0.00     0.200 C 
BRANCH  32  33
HETATM   33  C7  UNL     1       2.524  -5.556  19.696  1.00  0.00     0.047 A 
HETATM   34  C8  UNL     1       1.539  -6.488  20.013  1.00  0.00     0.114 A 
HETATM   35  N12 UNL     1       1.761  -7.811  19.914  1.00  0.00    -0.369 N 
HETATM   36  C9  UNL     1       2.943  -8.287  19.504  1.00  0.00     0.162 A 
ATOM     37  H12 UNL     1       1.015  -8.464  20.155  1.00  0.00     0.164 HD
HETATM   38  C10 UNL     1       3.935  -7.387  19.184  1.00  0.00     0.261 A 
HETATM   39  O2  UNL     1       5.056  -7.834  18.797  1.00  0.00    -0.267 OA
HETATM   40  N13 UNL     1       3.708  -6.046  19.287  1.00  0.00    -0.323 N 
ATOM     41  H13 UNL     1       4.457  -5.396  19.046  1.00  0.00     0.169 HD
ENDBRANCH  32  33
ENDBRANCH  30  32
ENDBRANCH  28  30
ENDBRANCH   1  22
TORSDOF 7
ENDMDL
MODEL 3
REMARK VINA RESULT: -8.551487713      4.091      9.518
REMARK  7 active torsions:
REMARK  status: ('A' for Active; 'I' for Inactive)
REMARK    1  A    between atoms: N1_1  and  N2_4 
REMARK    2  A    between atoms: N2_4  and  C1_6 
REMARK    3  A    between atoms: C4_16  and  N6_17 
REMARK    4  A    between atoms: N6_17  and  C5_19 
REMARK    5  A    between atoms: N10_26  and  N11_27 
REMARK    6  A    between atoms: N11_27  and  C6_29 
REMARK    7  A    between atoms: C6_29  and  C7_30 
ROOT
HETATM    1  N6  UNL     1       2.200  -4.125  17.525  1.00  0.00    -0.168 N 
ATOM      2  H6  UNL     1       1.859  -4.403  18.445  1.00  0.00     0.186 HD
ENDROOT
BRANCH   1   3
HETATM    3  C4  UNL     1       3.333  -4.600  17.141  1.00  0.00     0.165 A 
HETATM    4  N5  UNL     1       4.579  -4.092  17.363  1.00  0.00    -0.282 N 
HETATM    5  N4  UNL     1       5.448  -4.914  16.781  1.00  0.00    -0.292 N 
ATOM      6  H5  UNL     1       4.803  -3.241  17.878  1.00  0.00     0.188 HD
HETATM    7  C3  UNL     1       4.795  -5.933  16.196  1.00  0.00     0.148 A 
ATOM      8  H4  UNL     1       6.460  -4.790  16.779  1.00  0.00     0.187 HD
HETATM    9  C2  UNL     1       5.186  -7.038  15.476  1.00  0.00     0.290 A 
HETATM   10  C11 UNL     1       3.440  -5.764  16.406  1.00  0.00     0.128 A 
HETATM   11  N3  UNL     1       4.269  -7.906  15.005  1.00  0.00    -0.153 N 
HETATM   12  O1  UNL     1       6.423  -7.191  15.285  1.00  0.00    -0.265 OA
HETATM   13  C1  UNL     1       2.946  -7.740  15.210  1.00  0.00     0.700 A 
ATOM     14  H3  UNL     1       4.587  -8.716  14.473  1.00  0.00     0.187 HD
HETATM   15  N14 UNL     1       2.567  -6.661  15.913  1.00  0.00    -0.184 N 
ATOM     16  H14 UNL     1       1.572  -6.514  16.082  1.00  0.00     0.184 HD
BRANCH  13  17
HETATM   17  N2  UNL     1       2.091  -8.598  14.741  1.00  0.00    -0.138 N 
ATOM     18  H2  UNL     1       1.898  -9.473  15.229  1.00  0.00     0.205 HD
BRANCH  17  19
HETATM   19  N1  UNL     1       1.444  -8.281  13.540  1.00  0.00    -0.331 N 
ATOM     20  H12 UNL     1       1.784  -7.514  12.961  1.00  0.00     0.177 HD
ATOM     21  H11 UNL     1       0.633  -8.841  13.277  1.00  0.00     0.177 HD
ENDBRANCH  17  19
ENDBRANCH  13  17
ENDBRANCH   1   3
BRANCH   1  22
HETATM   22  C5  UNL     1       1.398  -3.249  16.768  1.00  0.00     0.737 A 
HETATM   23  N7  UNL     1       1.566  -2.867  15.510  1.00  0.00    -0.113 N 
HETATM   24  N8  UNL     1       0.585  -2.042  15.203  1.00  0.00    -0.212 N 
ATOM     25  H7  UNL     1       2.321  -3.159  14.890  1.00  0.00     0.207 HD
HETATM   26  N9  UNL     1      -0.188  -1.911  16.259  1.00  0.00    -0.192 N 
ATOM     27  H8  UNL     1       0.448  -1.585  14.302  1.00  0.00     0.210 HD
HETATM   28  N10 UNL     1       0.296  -2.648  17.237  1.00  0.00    -0.007 N 
ATOM     29  H9  UNL     1      -1.027  -1.332  16.312  1.00  0.00     0.212 HD
BRANCH  28  30
HETATM   30  N11 UNL     1      -0.234  -2.783  18.523  1.00  0.00    -0.293 N 
ATOM     31  H11 UNL     1      -0.859  -3.561  18.737  1.00  0.00     0.183 HD
BRANCH  30  32
HETATM   32  C6  UNL     1       0.096  -1.839  19.538  1.00  0.00     0.200 C 
BRANCH  32  33
HETATM   33  C7  UNL     1      -0.632  -0.571  19.502  1.00  0.00     0.047 A 
HETATM   34  C8  UNL     1      -2.022  -0.557  19.582  1.00  0.00     0.114 A 
HETATM   35  N12 UNL     1      -2.717   0.595  19.557  1.00  0.00    -0.369 N 
HETATM   36  C9  UNL     1      -2.098   1.777  19.454  1.00  0.00     0.162 A 
ATOM     37  H12 UNL     1      -3.735   0.566  19.618  1.00  0.00     0.164 HD
HETATM   38  C10 UNL     1      -0.724   1.790  19.373  1.00  0.00     0.261 A 
HETATM   39  O2  UNL     1      -0.134   2.908  19.274  1.00  0.00    -0.267 OA
HETATM   40  N13 UNL     1      -0.021   0.622  19.398  1.00  0.00    -0.323 N 
ATOM     41  H13 UNL     1       0.997   0.655  19.336  1.00  0.00     0.169 HD
ENDBRANCH  32  33
ENDBRANCH  30  32
ENDBRANCH  28  30
ENDBRANCH   1  22
TORSDOF 7
ENDMDL
MODEL 4
REMARK VINA RESULT: -8.500174916      1.609      1.919
REMARK  7 active torsions:
REMARK  status: ('A' for Active; 'I' for Inactive)
REMARK    1  A    between atoms: N1_1  and  N2_4 
REMARK    2  A    between atoms: N2_4  and  C1_6 
REMARK    3  A    between atoms: C4_16  and  N6_17 
REMARK    4  A    between atoms: N6_17  and  C5_19 
REMARK    5  A    between atoms: N10_26  and  N11_27 
REMARK    6  A    between atoms: N11_27  and  C6_29 
REMARK    7  A    between atoms: C6_29  and  C7_30 
ROOT
HETATM    1  N6  UNL     1      -0.233   0.539  20.990  1.00  0.00    -0.168 N 
ATOM      2  H6  UNL     1       0.724   0.191  21.057  1.00  0.00     0.186 HD
ENDROOT
BRANCH   1   3
HETATM    3  C4  UNL     1      -0.995   0.389  22.017  1.00  0.00     0.165 A 
HETATM    4  N5  UNL     1      -2.280  -0.065  22.055  1.00  0.00    -0.282 N 
HETATM    5  N4  UNL     1      -2.666  -0.050  23.327  1.00  0.00    -0.292 N 
ATOM      6  H5  UNL     1      -2.841  -0.360  21.255  1.00  0.00     0.188 HD
HETATM    7  C3  UNL     1      -1.665   0.398  24.105  1.00  0.00     0.148 A 
ATOM      8  H4  UNL     1      -3.585  -0.336  23.664  1.00  0.00     0.187 HD
HETATM    9  C2  UNL     1      -1.519   0.611  25.457  1.00  0.00     0.290 A 
HETATM   10  C11 UNL     1      -0.581   0.689  23.300  1.00  0.00     0.128 A 
HETATM   11  N3  UNL     1      -0.358   1.083  25.952  1.00  0.00    -0.153 N 
HETATM   12  O1  UNL     1      -2.510   0.345  26.189  1.00  0.00    -0.265 OA
HETATM   13  C1  UNL     1       0.701   1.367  25.165  1.00  0.00     0.700 A 
ATOM     14  H3  UNL     1      -0.277   1.232  26.958  1.00  0.00     0.187 HD
HETATM   15  N14 UNL     1       0.555   1.159  23.846  1.00  0.00    -0.184 N 
ATOM     16  H14 UNL     1       1.342   1.366  23.231  1.00  0.00     0.184 HD
BRANCH  13  17
HETATM   17  N2  UNL     1       1.804   1.821  25.679  1.00  0.00    -0.138 N 
ATOM     18  H2  UNL     1       2.152   2.751  25.444  1.00  0.00     0.205 HD
BRANCH  17  19
HETATM   19  N1  UNL     1       2.498   0.989  26.567  1.00  0.00    -0.331 N 
ATOM     20  H12 UNL     1       3.190   0.328  26.215  1.00  0.00     0.177 HD
ATOM     21  H11 UNL     1       2.285   1.075  27.560  1.00  0.00     0.177 HD
ENDBRANCH  17  19
ENDBRANCH  13  17
ENDBRANCH   1   3
BRANCH   1  22
HETATM   22  C5  UNL     1      -0.624   1.148  19.782  1.00  0.00     0.737 A 
HETATM   23  N7  UNL     1      -0.665   2.440  19.492  1.00  0.00    -0.113 N 
HETATM   24  N8  UNL     1      -1.091   2.564  18.251  1.00  0.00    -0.212 N 
ATOM     25  H7  UNL     1      -0.413   3.204  20.119  1.00  0.00     0.207 HD
HETATM   26  N9  UNL     1      -1.313   1.361  17.770  1.00  0.00    -0.192 N 
ATOM     27  H8  UNL     1      -1.224   3.442  17.750  1.00  0.00     0.210 HD
HETATM   28  N10 UNL     1      -1.031   0.471  18.700  1.00  0.00    -0.007 N 
ATOM     29  H9  UNL     1      -1.650   1.150  16.830  1.00  0.00     0.212 HD
BRANCH  28  30
HETATM   30  N11 UNL     1      -1.135  -0.918  18.586  1.00  0.00    -0.293 N 
ATOM     31  H11 UNL     1      -1.829  -1.423  19.136  1.00  0.00     0.183 HD
BRANCH  30  32
HETATM   32  C6  UNL     1      -0.273  -1.632  17.704  1.00  0.00     0.200 C 
BRANCH  32  33
HETATM   33  C7  UNL     1       0.860  -2.319  18.322  1.00  0.00     0.047 A 
HETATM   34  C8  UNL     1       1.471  -3.389  17.673  1.00  0.00     0.114 A 
HETATM   35  N12 UNL     1       2.518  -4.037  18.215  1.00  0.00    -0.369 N 
HETATM   36  C9  UNL     1       3.016  -3.678  19.403  1.00  0.00     0.162 A 
ATOM     37  H12 UNL     1       2.940  -4.817  17.710  1.00  0.00     0.164 HD
HETATM   38  C10 UNL     1       2.430  -2.623  20.066  1.00  0.00     0.261 A 
HETATM   39  O2  UNL     1       2.900  -2.280  21.193  1.00  0.00    -0.267 OA
HETATM   40  N13 UNL     1       1.368  -1.968  19.516  1.00  0.00    -0.323 N 
ATOM     41  H13 UNL     1       0.948  -1.189  20.024  1.00  0.00     0.169 HD
ENDBRANCH  32  33
ENDBRANCH  30  32
ENDBRANCH  28  30
ENDBRANCH   1  22
TORSDOF 7
ENDMDL
MODEL 5
REMARK VINA RESULT: -8.454840943      4.933     10.716
REMARK  7 active torsions:
REMARK  status: ('A' for Active; 'I' for Inactive)
REMARK    1  A    between atoms: N1_1  and  N2_4 
REMARK    2  A    between atoms: N2_4  and  C1_6 
REMARK    3  A    between atoms: C4_16  and  N6_17 
REMARK    4  A    between atoms: N6_17  and  C5_19 
REMARK    5  A    between atoms: N10_26  and  N11_27 
REMARK    6  A    between atoms: N11_27  and  C6_29 
REMARK    7  A    between atoms: C6_29  and  C7_30 
ROOT
HETATM    1  N6  UNL     1       4.480  -5.228  16.277  1.00  0.00    -0.168 N 
ATOM      2  H6  UNL     1       4.283  -4.655  15.457  1.00  0.00     0.186 HD
ENDROOT
BRANCH   1   3
HETATM    3  C4  UNL     1       5.023  -6.380  16.083  1.00  0.00     0.165 A 
HETATM    4  N5  UNL     1       6.301  -6.766  16.357  1.00  0.00    -0.282 N 
HETATM    5  N4  UNL     1       6.415  -8.040  15.991  1.00  0.00    -0.292 N 
ATOM      6  H5  UNL     1       7.034  -6.187  16.767  1.00  0.00     0.188 HD
HETATM    7  C3  UNL     1       5.246  -8.479  15.492  1.00  0.00     0.148 A 
ATOM      8  H4  UNL     1       7.262  -8.600  16.076  1.00  0.00     0.187 HD
HETATM    9  C2  UNL     1       4.810  -9.680  14.980  1.00  0.00     0.290 A 
HETATM   10  C11 UNL     1       4.333  -7.444  15.535  1.00  0.00     0.128 A 
HETATM   11  N3  UNL     1       3.542  -9.816  14.544  1.00  0.00    -0.153 N 
HETATM   12  O1  UNL     1       5.645 -10.624  14.941  1.00  0.00    -0.265 OA
HETATM   13  C1  UNL     1       2.651  -8.804  14.587  1.00  0.00     0.700 A 
ATOM     14  H3  UNL     1       3.246 -10.717  14.169  1.00  0.00     0.187 HD
HETATM   15  N14 UNL     1       3.079  -7.634  15.087  1.00  0.00    -0.184 N 
ATOM     16  H14 UNL     1       2.424  -6.853  15.129  1.00  0.00     0.184 HD
BRANCH  13  17
HETATM   17  N2  UNL     1       1.437  -8.973  14.158  1.00  0.00    -0.138 N 
ATOM     18  H2  UNL     1       0.773  -9.556  14.669  1.00  0.00     0.205 HD
BRANCH  17  19
HETATM   19  N1  UNL     1       1.071  -8.328  12.970  1.00  0.00    -0.331 N 
ATOM     20  H12 UNL     1       1.280  -7.339  12.838  1.00  0.00     0.177 HD
ATOM     21  H11 UNL     1       0.596  -8.882  12.258  1.00  0.00     0.177 HD
ENDBRANCH  17  19
ENDBRANCH  13  17
ENDBRANCH   1   3
BRANCH   1  22
HETATM   22  C5  UNL     1       4.139  -4.703  17.538  1.00  0.00     0.737 A 
HETATM   23  N7  UNL     1       4.556  -5.103  18.731  1.00  0.00    -0.113 N 
HETATM   24  N8  UNL     1       3.987  -4.335  19.638  1.00  0.00    -0.212 N 
ATOM     25  H7  UNL     1       5.202  -5.871  18.915  1.00  0.00     0.207 HD
HETATM   26  N9  UNL     1       3.222  -3.463  19.018  1.00  0.00    -0.192 N 
ATOM     27  H8  UNL     1       4.117  -4.403  20.647  1.00  0.00     0.210 HD
HETATM   28  N10 UNL     1       3.302  -3.673  17.720  1.00  0.00    -0.007 N 
ATOM     29  H9  UNL     1       2.659  -2.741  19.468  1.00  0.00     0.212 HD
BRANCH  28  30
HETATM   30  N11 UNL     1       2.641  -2.961  16.715  1.00  0.00    -0.293 N 
ATOM     31  H11 UNL     1       3.164  -2.319  16.119  1.00  0.00     0.183 HD
BRANCH  30  32
HETATM   32  C6  UNL     1       1.240  -3.126  16.521  1.00  0.00     0.200 C 
BRANCH  32  33
HETATM   33  C7  UNL     1       0.372  -2.193  17.238  1.00  0.00     0.047 A 
HETATM   34  C8  UNL     1      -0.852  -2.620  17.746  1.00  0.00     0.114 A 
HETATM   35  N12 UNL     1      -1.668  -1.785  18.414  1.00  0.00    -0.369 N 
HETATM   36  C9  UNL     1      -1.335  -0.505  18.617  1.00  0.00     0.162 A 
ATOM     37  H12 UNL     1      -2.558  -2.134  18.771  1.00  0.00     0.164 HD
HETATM   38  C10 UNL     1      -0.130  -0.057  18.125  1.00  0.00     0.261 A 
HETATM   39  O2  UNL     1       0.188   1.156  18.316  1.00  0.00    -0.267 OA
HETATM   40  N13 UNL     1       0.696  -0.905  17.448  1.00  0.00    -0.323 N 
ATOM     41  H13 UNL     1       1.584  -0.552  17.090  1.00  0.00     0.169 HD
ENDBRANCH  32  33
ENDBRANCH  30  32
ENDBRANCH  28  30
ENDBRANCH   1  22
TORSDOF 7
ENDMDL
