MODEL 1
REMARK VINA RESULT: -6.939731757      0.000      0.000
REMARK  7 active torsions:
REMARK  status: ('A' for Active; 'I' for Inactive)
REMARK    1  A    between atoms: C4_9  and  N3_10 
REMARK    2  A    between atoms: N4_12  and  N5_13 
REMARK    3  A    between atoms: N5_13  and  C6_14 
REMARK    4  A    between atoms: C8_16  and  O1_18 
REMARK    5  A    between atoms: C10_23  and  N7_24 
REMARK    6  A    between atoms: C11_29  and  O2_30 
REMARK    7  A    between atoms: C12_32  and  N9_33 
ROOT
HETATM    1  N3  UNL     1       4.283  -7.159  17.088  1.00  0.00    -0.319 N 
HETATM    2  C5  UNL     1       3.390  -8.073  16.346  1.00  0.00     0.258 C 
HETATM    3  N4  UNL     1       3.862  -7.921  15.000  1.00  0.00    -0.126 NA
HETATM    4  N8  UNL     1       5.158  -7.452  15.046  1.00  0.00    -0.094 NA
HETATM    5  C11 UNL     1       5.548  -7.381  16.460  1.00  0.00     0.337 C 
ENDROOT
BRANCH   1   6
HETATM    6  C4  UNL     1       3.802  -6.359  18.126  1.00  0.00     0.123 A 
HETATM    7  C3  UNL     1       3.740  -6.841  19.406  1.00  0.00     0.131 A 
HETATM    8  N1  UNL     1       3.278  -6.067  20.433  1.00  0.00    -0.331 N 
HETATM    9  N2  UNL     1       4.094  -8.002  19.723  1.00  0.00    -0.383 N 
HETATM   10  C2  UNL     1       2.871  -4.824  20.246  1.00  0.00     0.080 A 
ATOM     11  H1  UNL     1       3.247  -6.461  21.373  1.00  0.00     0.168 HD
HETATM   12  C1  UNL     1       2.370  -4.018  21.417  1.00  0.00     0.089 C 
HETATM   13  N10 UNL     1       2.911  -4.307  19.015  1.00  0.00    -0.331 N 
HETATM   14  C12 UNL     1       3.369  -5.054  17.958  1.00  0.00     0.135 A 
ATOM     15  H10 UNL     1       2.598  -3.349  18.860  1.00  0.00     0.168 HD
ATOM     16  H22 UNL     1       4.047  -8.361  20.676  1.00  0.00     0.157 HD
ATOM     17  H21 UNL     1       4.438  -8.580  18.956  1.00  0.00     0.157 HD
BRANCH  14  18
HETATM   18  N9  UNL     1       3.380  -4.454  16.672  1.00  0.00    -0.374 N 
HETATM   19  C13 UNL     1       2.251  -4.588  15.789  1.00  0.00     0.150 C 
HETATM   20  C14 UNL     1       4.521  -3.690  16.243  1.00  0.00     0.150 C 
ENDBRANCH  14  18
ENDBRANCH   1   6
BRANCH   5  21
HETATM   21  O2  UNL     1       6.123  -8.628  16.765  1.00  0.00    -0.362 OA
ATOM     22  H2  UNL     1       6.366  -9.137  16.000  1.00  0.00     0.213 HD
ENDBRANCH   5  21
BRANCH   3  23
HETATM   23  N5  UNL     1       3.768  -9.142  14.296  1.00  0.00    -0.138 NA
BRANCH  23  24
HETATM   24  C6  UNL     1       2.573  -9.799  14.780  1.00  0.00     0.158 C 
HETATM   25  C7  UNL     1       2.854 -11.284  14.843  1.00  0.00     0.094 C 
HETATM   26  C8  UNL     1       2.104 -11.833  13.638  1.00  0.00     0.224 C 
HETATM   27  C9  UNL     1       2.874 -12.898  12.915  1.00  0.00     0.078 C 
HETATM   28  N6  UNL     1       1.866 -10.665  12.777  1.00  0.00    -0.013 N 
HETATM   29  C10 UNL     1       1.466  -9.687  13.762  1.00  0.00     0.404 C 
ATOM     30  H62 UNL     1       2.645 -10.393  12.177  1.00  0.00     0.283 HD
ATOM     31  H61 UNL     1       1.212 -10.809  12.008  1.00  0.00     0.283 HD
BRANCH  26  32
HETATM   32  O1  UNL     1       0.872 -12.265  14.066  1.00  0.00    -0.365 OA
ATOM     33  H1  UNL     1       0.518 -12.847  13.404  1.00  0.00     0.212 HD
ENDBRANCH  26  32
BRANCH  29  34
HETATM   34  N7  UNL     1       1.412  -8.353  13.240  1.00  0.00    -0.048 N 
ATOM     35  H73 UNL     1       0.915  -7.718  13.866  1.00  0.00     0.276 HD
ATOM     36  H72 UNL     1       2.324  -7.899  13.259  1.00  0.00     0.276 HD
ATOM     37  H71 UNL     1       1.008  -8.360  12.304  1.00  0.00     0.276 HD
ENDBRANCH  29  34
ENDBRANCH  23  24
ENDBRANCH   3  23
TORSDOF 7
ENDMDL
MODEL 2
REMARK VINA RESULT: -6.862992095      4.213      6.784
REMARK  7 active torsions:
REMARK  status: ('A' for Active; 'I' for Inactive)
REMARK    1  A    between atoms: C4_9  and  N3_10 
REMARK    2  A    between atoms: N4_12  and  N5_13 
REMARK    3  A    between atoms: N5_13  and  C6_14 
REMARK    4  A    between atoms: C8_16  and  O1_18 
REMARK    5  A    between atoms: C10_23  and  N7_24 
REMARK    6  A    between atoms: C11_29  and  O2_30 
REMARK    7  A    between atoms: C12_32  and  N9_33 
ROOT
HETATM    1  N3  UNL     1       0.829  -2.294  19.493  1.00  0.00    -0.319 N 
HETATM    2  C5  UNL     1       0.740  -3.409  18.528  1.00  0.00     0.258 C 
HETATM    3  N4  UNL     1       2.120  -3.644  18.218  1.00  0.00    -0.126 NA
HETATM    4  N8  UNL     1       2.887  -3.147  19.251  1.00  0.00    -0.094 NA
HETATM    5  C11 UNL     1       1.965  -2.655  20.283  1.00  0.00     0.337 C 
ENDROOT
BRANCH   1   6
HETATM    6  C4  UNL     1      -0.086  -1.240  19.470  1.00  0.00     0.123 A 
HETATM    7  C3  UNL     1      -0.035  -0.295  18.481  1.00  0.00     0.131 A 
HETATM    8  N1  UNL     1      -0.929   0.739  18.443  1.00  0.00    -0.331 N 
HETATM    9  N2  UNL     1       0.815  -0.307  17.559  1.00  0.00    -0.383 N 
HETATM   10  C2  UNL     1      -1.879   0.879  19.350  1.00  0.00     0.080 A 
ATOM     11  H1  UNL     1      -0.860   1.424  17.690  1.00  0.00     0.168 HD
HETATM   12  C1  UNL     1      -2.835   2.040  19.257  1.00  0.00     0.089 C 
HETATM   13  N10 UNL     1      -1.971  -0.017  20.336  1.00  0.00    -0.331 N 
HETATM   14  C12 UNL     1      -1.091  -1.070  20.408  1.00  0.00     0.135 A 
ATOM     15  H10 UNL     1      -2.700   0.082  21.042  1.00  0.00     0.168 HD
ATOM     16  H22 UNL     1       0.853   0.397  16.822  1.00  0.00     0.157 HD
ATOM     17  H21 UNL     1       1.482  -1.078  17.588  1.00  0.00     0.157 HD
BRANCH  14  18
HETATM   18  N9  UNL     1      -1.231  -1.985  21.484  1.00  0.00    -0.374 N 
HETATM   19  C13 UNL     1      -1.935  -3.227  21.303  1.00  0.00     0.150 C 
HETATM   20  C14 UNL     1      -0.654  -1.683  22.766  1.00  0.00     0.150 C 
ENDBRANCH  14  18
ENDBRANCH   1   6
BRANCH   5  21
HETATM   21  O2  UNL     1       1.735  -3.743  21.145  1.00  0.00    -0.362 OA
ATOM     22  H2  UNL     1       2.512  -4.258  21.329  1.00  0.00     0.213 HD
ENDBRANCH   5  21
BRANCH   3  23
HETATM   23  N5  UNL     1       2.358  -5.019  18.001  1.00  0.00    -0.138 NA
BRANCH  23  24
HETATM   24  C6  UNL     1       3.290  -5.100  16.897  1.00  0.00     0.158 C 
HETATM   25  C7  UNL     1       2.688  -6.010  15.849  1.00  0.00     0.094 C 
HETATM   26  C8  UNL     1       3.484  -7.298  16.005  1.00  0.00     0.224 C 
HETATM   27  C9  UNL     1       2.626  -8.524  15.889  1.00  0.00     0.078 C 
HETATM   28  N6  UNL     1       4.103  -7.200  17.336  1.00  0.00    -0.013 N 
HETATM   29  C10 UNL     1       4.543  -5.824  17.322  1.00  0.00     0.404 C 
ATOM     30  H62 UNL     1       3.506  -7.465  18.120  1.00  0.00     0.283 HD
ATOM     31  H61 UNL     1       4.824  -7.892  17.538  1.00  0.00     0.283 HD
BRANCH  26  32
HETATM   32  O1  UNL     1       4.509  -7.276  15.090  1.00  0.00    -0.365 OA
ATOM     33  H1  UNL     1       5.187  -6.700  15.423  1.00  0.00     0.212 HD
ENDBRANCH  26  32
BRANCH  29  34
HETATM   34  N7  UNL     1       4.967  -5.358  18.609  1.00  0.00    -0.048 N 
ATOM     35  H73 UNL     1       4.615  -4.422  18.811  1.00  0.00     0.276 HD
ATOM     36  H72 UNL     1       4.504  -5.858  19.368  1.00  0.00     0.276 HD
ATOM     37  H71 UNL     1       5.983  -5.408  18.682  1.00  0.00     0.276 HD
ENDBRANCH  29  34
ENDBRANCH  23  24
ENDBRANCH   3  23
TORSDOF 7
ENDMDL
MODEL 3
REMARK VINA RESULT: -6.682929917      6.163      9.271
REMARK  7 active torsions:
REMARK  status: ('A' for Active; 'I' for Inactive)
REMARK    1  A    between atoms: C4_9  and  N3_10 
REMARK    2  A    between atoms: N4_12  and  N5_13 
REMARK    3  A    between atoms: N5_13  and  C6_14 
REMARK    4  A    between atoms: C8_16  and  O1_18 
REMARK    5  A    between atoms: C10_23  and  N7_24 
REMARK    6  A    between atoms: C11_29  and  O2_30 
REMARK    7  A    between atoms: C12_32  and  N9_33 
ROOT
HETATM    1  N3  UNL     1      -0.375  -0.326  22.022  1.00  0.00    -0.319 N 
HETATM    2  C5  UNL     1       0.652  -1.059  21.254  1.00  0.00     0.258 C 
HETATM    3  N4  UNL     1      -0.113  -1.580  20.158  1.00  0.00    -0.126 NA
HETATM    4  N8  UNL     1      -1.247  -0.807  20.015  1.00  0.00    -0.094 NA
HETATM    5  C11 UNL     1      -1.160   0.284  20.994  1.00  0.00     0.337 C 
ENDROOT
BRANCH   1   6
HETATM    6  C4  UNL     1      -0.391  -0.351  23.418  1.00  0.00     0.123 A 
HETATM    7  C3  UNL     1       0.360   0.537  24.140  1.00  0.00     0.131 A 
HETATM    8  N1  UNL     1       0.347   0.528  25.507  1.00  0.00    -0.331 N 
HETATM    9  N2  UNL     1       1.097   1.404  23.613  1.00  0.00    -0.383 N 
HETATM   10  C2  UNL     1      -0.383  -0.330  26.196  1.00  0.00     0.080 A 
ATOM     11  H1  UNL     1       0.921   1.205  26.010  1.00  0.00     0.168 HD
HETATM   12  C1  UNL     1      -0.355  -0.294  27.702  1.00  0.00     0.089 C 
HETATM   13  N10 UNL     1      -1.133  -1.218  25.538  1.00  0.00    -0.331 N 
HETATM   14  C12 UNL     1      -1.147  -1.240  24.165  1.00  0.00     0.135 A 
ATOM     15  H10 UNL     1      -1.700  -1.886  26.061  1.00  0.00     0.168 HD
ATOM     16  H22 UNL     1       1.657   2.065  24.151  1.00  0.00     0.157 HD
ATOM     17  H21 UNL     1       1.106   1.410  22.593  1.00  0.00     0.157 HD
BRANCH  14  18
HETATM   18  N9  UNL     1      -1.957  -2.211  23.521  1.00  0.00    -0.374 N 
HETATM   19  C13 UNL     1      -1.431  -3.515  23.210  1.00  0.00     0.150 C 
HETATM   20  C14 UNL     1      -3.322  -1.905  23.187  1.00  0.00     0.150 C 
ENDBRANCH  14  18
ENDBRANCH   1   6
BRANCH   5  21
HETATM   21  O2  UNL     1      -0.507   1.342  20.335  1.00  0.00    -0.362 OA
ATOM     22  H2  UNL     1       0.372   1.130  20.045  1.00  0.00     0.213 HD
ENDBRANCH   5  21
BRANCH   3  23
HETATM   23  N5  UNL     1       0.658  -1.607  18.975  1.00  0.00    -0.138 NA
BRANCH  23  24
HETATM   24  C6  UNL     1       0.272  -2.808  18.266  1.00  0.00     0.158 C 
HETATM   25  C7  UNL     1       1.529  -3.593  17.967  1.00  0.00     0.094 C 
HETATM   26  C8  UNL     1       1.750  -3.348  16.481  1.00  0.00     0.224 C 
HETATM   27  C9  UNL     1       3.195  -3.134  16.139  1.00  0.00     0.078 C 
HETATM   28  N6  UNL     1       0.945  -2.156  16.172  1.00  0.00    -0.013 N 
HETATM   29  C10 UNL     1      -0.265  -2.458  16.901  1.00  0.00     0.404 C 
ATOM     30  H62 UNL     1       1.380  -1.260  16.392  1.00  0.00     0.283 HD
ATOM     31  H61 UNL     1       0.823  -1.951  15.180  1.00  0.00     0.283 HD
BRANCH  26  32
HETATM   32  O1  UNL     1       1.188  -4.394  15.790  1.00  0.00    -0.365 OA
ATOM     33  H1  UNL     1       1.732  -4.571  15.032  1.00  0.00     0.212 HD
ENDBRANCH  26  32
BRANCH  29  34
HETATM   34  N7  UNL     1      -1.158  -1.342  16.996  1.00  0.00    -0.048 N 
ATOM     35  H73 UNL     1      -0.895  -0.588  16.360  1.00  0.00     0.276 HD
ATOM     36  H72 UNL     1      -2.076  -1.553  16.605  1.00  0.00     0.276 HD
ATOM     37  H71 UNL     1      -1.218  -1.022  17.962  1.00  0.00     0.276 HD
ENDBRANCH  29  34
ENDBRANCH  23  24
ENDBRANCH   3  23
TORSDOF 7
ENDMDL
MODEL 4
REMARK VINA RESULT: -6.662519812      4.763      7.530
REMARK  7 active torsions:
REMARK  status: ('A' for Active; 'I' for Inactive)
REMARK    1  A    between atoms: C4_9  and  N3_10 
REMARK    2  A    between atoms: N4_12  and  N5_13 
REMARK    3  A    between atoms: N5_13  and  C6_14 
REMARK    4  A    between atoms: C8_16  and  O1_18 
REMARK    5  A    between atoms: C10_23  and  N7_24 
REMARK    6  A    between atoms: C11_29  and  O2_30 
REMARK    7  A    between atoms: C12_32  and  N9_33 
ROOT
HETATM    1  N3  UNL     1       0.262  -1.853  19.816  1.00  0.00    -0.319 N 
HETATM    2  C5  UNL     1       1.678  -2.219  20.025  1.00  0.00     0.258 C 
HETATM    3  N4  UNL     1       1.805  -3.392  19.209  1.00  0.00    -0.126 NA
HETATM    4  N8  UNL     1       0.808  -3.366  18.255  1.00  0.00    -0.094 NA
HETATM    5  C11 UNL     1       0.078  -2.103  18.419  1.00  0.00     0.337 C 
ENDROOT
BRANCH   1   6
HETATM    6  C4  UNL     1      -0.530  -1.389  20.867  1.00  0.00     0.123 A 
HETATM    7  C3  UNL     1      -0.865  -0.064  20.956  1.00  0.00     0.131 A 
HETATM    8  N1  UNL     1      -1.645   0.402  21.976  1.00  0.00    -0.331 N 
HETATM    9  N2  UNL     1      -0.488   0.798  20.127  1.00  0.00    -0.383 N 
HETATM   10  C2  UNL     1      -2.114  -0.393  22.921  1.00  0.00     0.080 A 
ATOM     11  H1  UNL     1      -1.873   1.396  22.008  1.00  0.00     0.168 HD
HETATM   12  C1  UNL     1      -2.969   0.179  24.022  1.00  0.00     0.089 C 
HETATM   13  N10 UNL     1      -1.815  -1.694  22.880  1.00  0.00    -0.331 N 
HETATM   14  C12 UNL     1      -1.034  -2.200  21.870  1.00  0.00     0.135 A 
ATOM     15  H10 UNL     1      -2.171  -2.317  23.605  1.00  0.00     0.168 HD
ATOM     16  H22 UNL     1      -0.737   1.786  20.193  1.00  0.00     0.157 HD
ATOM     17  H21 UNL     1       0.095   0.450  19.366  1.00  0.00     0.157 HD
BRANCH  14  18
HETATM   18  N9  UNL     1      -0.743  -3.589  21.884  1.00  0.00    -0.374 N 
HETATM   19  C13 UNL     1       0.288  -4.115  22.741  1.00  0.00     0.150 C 
HETATM   20  C14 UNL     1      -1.491  -4.490  21.049  1.00  0.00     0.150 C 
ENDBRANCH  14  18
ENDBRANCH   1   6
BRANCH   5  21
HETATM   21  O2  UNL     1       0.725  -1.171  17.586  1.00  0.00    -0.362 OA
ATOM     22  H2  UNL     1       0.147  -0.505  17.234  1.00  0.00     0.213 HD
ENDBRANCH   5  21
BRANCH   3  23
HETATM   23  N5  UNL     1       3.089  -3.459  18.625  1.00  0.00    -0.138 NA
BRANCH  23  24
HETATM   24  C6  UNL     1       3.030  -4.514  17.636  1.00  0.00     0.158 C 
HETATM   25  C7  UNL     1       4.141  -5.495  17.939  1.00  0.00     0.094 C 
HETATM   26  C8  UNL     1       5.179  -5.189  16.869  1.00  0.00     0.224 C 
HETATM   27  C9  UNL     1       6.583  -5.222  17.400  1.00  0.00     0.078 C 
HETATM   28  N6  UNL     1       4.826  -3.850  16.373  1.00  0.00    -0.013 N 
HETATM   29  C10 UNL     1       3.390  -3.975  16.275  1.00  0.00     0.404 C 
ATOM     30  H62 UNL     1       5.164  -3.068  16.934  1.00  0.00     0.283 HD
ATOM     31  H61 UNL     1       5.302  -3.555  15.520  1.00  0.00     0.283 HD
BRANCH  26  32
HETATM   32  O1  UNL     1       4.983  -6.061  15.825  1.00  0.00    -0.365 OA
ATOM     33  H1  UNL     1       4.054  -6.077  15.627  1.00  0.00     0.212 HD
ENDBRANCH  26  32
BRANCH  29  34
HETATM   34  N7  UNL     1       2.731  -2.722  16.053  1.00  0.00    -0.048 N 
ATOM     35  H73 UNL     1       2.267  -2.690  15.145  1.00  0.00     0.276 HD
ATOM     36  H72 UNL     1       1.909  -2.613  16.645  1.00  0.00     0.276 HD
ATOM     37  H71 UNL     1       3.391  -1.953  16.172  1.00  0.00     0.276 HD
ENDBRANCH  29  34
ENDBRANCH  23  24
ENDBRANCH   3  23
TORSDOF 7
ENDMDL
MODEL 5
REMARK VINA RESULT: -6.603501212      2.699      4.518
REMARK  7 active torsions:
REMARK  status: ('A' for Active; 'I' for Inactive)
REMARK    1  A    between atoms: C4_9  and  N3_10 
REMARK    2  A    between atoms: N4_12  and  N5_13 
REMARK    3  A    between atoms: N5_13  and  C6_14 
REMARK    4  A    between atoms: C8_16  and  O1_18 
REMARK    5  A    between atoms: C10_23  and  N7_24 
REMARK    6  A    between atoms: C11_29  and  O2_30 
REMARK    7  A    between atoms: C12_32  and  N9_33 
ROOT
HETATM    1  N3  UNL     1       2.913  -4.281  17.562  1.00  0.00    -0.319 N 
HETATM    2  C5  UNL     1       2.623  -5.721  17.409  1.00  0.00     0.258 C 
HETATM    3  N4  UNL     1       3.490  -6.085  16.326  1.00  0.00    -0.126 NA
HETATM    4  N8  UNL     1       4.509  -5.158  16.257  1.00  0.00    -0.094 NA
HETATM    5  C11 UNL     1       4.330  -4.226  17.377  1.00  0.00     0.337 C 
ENDROOT
BRANCH   1   6
HETATM    6  C4  UNL     1       1.897  -3.361  17.828  1.00  0.00     0.123 A 
HETATM    7  C3  UNL     1       1.263  -2.708  16.806  1.00  0.00     0.131 A 
HETATM    8  N1  UNL     1       0.262  -1.810  17.052  1.00  0.00    -0.331 N 
HETATM    9  N2  UNL     1       1.546  -2.881  15.596  1.00  0.00    -0.383 N 
HETATM   10  C2  UNL     1      -0.141  -1.528  18.277  1.00  0.00     0.080 A 
ATOM     11  H1  UNL     1      -0.187  -1.343  16.264  1.00  0.00     0.168 HD
HETATM   12  C1  UNL     1      -1.249  -0.528  18.488  1.00  0.00     0.089 C 
HETATM   13  N10 UNL     1       0.446  -2.138  19.310  1.00  0.00    -0.331 N 
HETATM   14  C12 UNL     1       1.455  -3.047  19.103  1.00  0.00     0.135 A 
ATOM     15  H10 UNL     1       0.143  -1.927  20.261  1.00  0.00     0.168 HD
ATOM     16  H22 UNL     1       1.074  -2.395  14.834  1.00  0.00     0.157 HD
ATOM     17  H21 UNL     1       2.293  -3.551  15.413  1.00  0.00     0.157 HD
BRANCH  14  18
HETATM   18  N9  UNL     1       2.048  -3.656  20.239  1.00  0.00    -0.374 N 
HETATM   19  C13 UNL     1       3.206  -3.074  20.864  1.00  0.00     0.150 C 
HETATM   20  C14 UNL     1       1.483  -4.860  20.787  1.00  0.00     0.150 C 
ENDBRANCH  14  18
ENDBRANCH   1   6
BRANCH   5  21
HETATM   21  O2  UNL     1       5.063  -4.766  18.450  1.00  0.00    -0.362 OA
ATOM     22  H2  UNL     1       4.540  -4.936  19.225  1.00  0.00     0.213 HD
ENDBRANCH   5  21
BRANCH   3  23
HETATM   23  N5  UNL     1       3.983  -7.397  16.498  1.00  0.00    -0.138 NA
BRANCH  23  24
HETATM   24  C6  UNL     1       4.743  -7.705  15.305  1.00  0.00     0.158 C 
HETATM   25  C7  UNL     1       4.216  -9.006  14.743  1.00  0.00     0.094 C 
HETATM   26  C8  UNL     1       5.293 -10.012  15.123  1.00  0.00     0.224 C 
HETATM   27  C9  UNL     1       4.724 -11.324  15.578  1.00  0.00     0.078 C 
HETATM   28  N6  UNL     1       6.058  -9.359  16.196  1.00  0.00    -0.013 N 
HETATM   29  C10 UNL     1       6.173  -8.022  15.663  1.00  0.00     0.404 C 
ATOM     30  H62 UNL     1       5.654  -9.428  17.131  1.00  0.00     0.283 HD
ATOM     31  H61 UNL     1       6.937  -9.810  16.449  1.00  0.00     0.283 HD
BRANCH  26  32
HETATM   32  O1  UNL     1       6.147 -10.144  14.054  1.00  0.00    -0.365 OA
ATOM     33  H1  UNL     1       6.369 -11.064  13.968  1.00  0.00     0.212 HD
ENDBRANCH  26  32
BRANCH  29  34
HETATM   34  N7  UNL     1       6.661  -7.075  16.621  1.00  0.00    -0.048 N 
ATOM     35  H73 UNL     1       6.607  -7.434  17.574  1.00  0.00     0.276 HD
ATOM     36  H72 UNL     1       7.672  -6.959  16.562  1.00  0.00     0.276 HD
ATOM     37  H71 UNL     1       6.168  -6.188  16.519  1.00  0.00     0.276 HD
ENDBRANCH  29  34
ENDBRANCH  23  24
ENDBRANCH   3  23
TORSDOF 7
ENDMDL
