MODEL 1
REMARK VINA RESULT: -7.242851746      0.000      0.000
REMARK  6 active torsions:
REMARK  status: ('A' for Active; 'I' for Inactive)
REMARK    1  A    between atoms: C5_15  and  O1_16 
REMARK    2  A    between atoms: O1_16  and  C6_17 
REMARK    3  A    between atoms: C6_17  and  C7_18 
REMARK    4  A    between atoms: C7_18  and  N5_19 
REMARK    5  A    between atoms: C12_27  and  N7_28 
REMARK    6  A    between atoms: N10_36  and  O3_37 
ROOT
HETATM    1  N1  UNL     1       0.791  -0.129  17.776  1.00  0.00    -0.383 N 
ATOM      2  H11 UNL     1       0.712   0.781  17.320  1.00  0.00     0.157 HD
ATOM      3  H12 UNL     1       1.407  -0.929  17.637  1.00  0.00     0.157 HD
HETATM    4  C1  UNL     1      -0.067  -0.280  18.714  1.00  0.00     0.148 C 
HETATM    5  C2  UNL     1       0.046  -1.573  19.363  1.00  0.00     0.106 A 
HETATM    6  C3  UNL     1      -0.449  -2.036  20.584  1.00  0.00     0.138 A 
HETATM    7  N2  UNL     1      -0.188  -3.314  20.926  1.00  0.00    -0.176 N 
ATOM      8  H2  UNL     1      -0.538  -3.676  21.813  1.00  0.00     0.186 HD
HETATM    9  C4  UNL     1       0.529  -4.123  20.114  1.00  0.00     0.679 A 
HETATM   10  N3  UNL     1       0.767  -5.364  20.475  1.00  0.00    -0.234 N 
ATOM     11  H31 UNL     1       1.307  -5.974  19.863  1.00  0.00     0.174 HD
ATOM     12  H32 UNL     1       0.405  -5.702  21.367  1.00  0.00     0.174 HD
HETATM   13  N4  UNL     1       1.004  -3.679  18.943  1.00  0.00    -0.170 N 
ATOM     14  H4  UNL     1       1.543  -4.305  18.344  1.00  0.00     0.186 HD
HETATM   15  C5  UNL     1       0.771  -2.397  18.547  1.00  0.00     0.175 A 
HETATM   16  N6  UNL     1      -1.209  -1.448  21.632  1.00  0.00    -0.332 N 
ATOM     17  H6  UNL     1      -1.700  -2.140  22.198  1.00  0.00     0.165 HD
HETATM   18  C12 UNL     1      -1.443  -0.095  22.078  1.00  0.00     0.390 C 
HETATM   19  N8  UNL     1      -2.069   0.760  21.102  1.00  0.00    -0.319 N 
ATOM     20  H8  UNL     1      -2.899   1.190  21.511  1.00  0.00     0.166 HD
HETATM   21  C13 UNL     1      -1.934   1.165  19.889  1.00  0.00     0.219 C 
HETATM   22  N9  UNL     1      -2.931   2.070  19.444  1.00  0.00    -0.061 NA
HETATM   23  N10 UNL     1      -0.940   0.855  18.912  1.00  0.00    -0.177 N 
ENDROOT
BRANCH  15  24
HETATM   24  O1  UNL     1       1.243  -1.887  17.336  1.00  0.00    -0.329 OA
BRANCH  24  25
HETATM   25  C6  UNL     1       1.453  -2.889  16.323  1.00  0.00     0.222 C 
BRANCH  25  26
HETATM   26  C7  UNL     1       2.908  -3.087  15.988  1.00  0.00     0.095 C 
BRANCH  26  27
HETATM   27  N5  UNL     1       3.375  -4.257  16.616  1.00  0.00    -0.348 N 
HETATM   28  C8  UNL     1       4.176  -4.153  17.760  1.00  0.00     0.094 C 
HETATM   29  C9  UNL     1       4.360  -5.443  18.520  1.00  0.00     0.213 C 
HETATM   30  O2  UNL     1       3.142  -6.130  18.464  1.00  0.00    -0.381 OA
HETATM   31  C10 UNL     1       3.005  -6.616  17.184  1.00  0.00     0.213 C 
HETATM   32  C11 UNL     1       2.954  -5.511  16.159  1.00  0.00     0.094 C 
ENDBRANCH  26  27
ENDBRANCH  25  26
ENDBRANCH  24  25
ENDBRANCH  15  24
BRANCH  23  33
HETATM   33  O3  UNL     1      -0.809   1.825  18.001  1.00  0.00    -0.279 OA
ATOM     34  H3  UNL     1      -0.377   2.610  18.318  1.00  0.00     0.245 HD
ENDBRANCH  23  33
BRANCH  18  35
HETATM   35  N7  UNL     1      -0.153   0.528  22.409  1.00  0.00    -0.041 N 
ATOM     36  H73 UNL     1       0.210   0.216  23.310  1.00  0.00     0.279 HD
ATOM     37  H72 UNL     1       0.607   0.183  21.823  1.00  0.00     0.279 HD
ATOM     38  H71 UNL     1      -0.253   1.542  22.360  1.00  0.00     0.279 HD
ENDBRANCH  18  35
TORSDOF 6
ENDMDL
MODEL 2
REMARK VINA RESULT: -7.235275257      2.423      3.591
REMARK  6 active torsions:
REMARK  status: ('A' for Active; 'I' for Inactive)
REMARK    1  A    between atoms: C5_15  and  O1_16 
REMARK    2  A    between atoms: O1_16  and  C6_17 
REMARK    3  A    between atoms: C6_17  and  C7_18 
REMARK    4  A    between atoms: C7_18  and  N5_19 
REMARK    5  A    between atoms: C12_27  and  N7_28 
REMARK    6  A    between atoms: N10_36  and  O3_37 
ROOT
HETATM    1  N1  UNL     1       2.404  -3.046  19.191  1.00  0.00    -0.383 N 
ATOM      2  H11 UNL     1       3.160  -3.163  19.866  1.00  0.00     0.157 HD
ATOM      3  H12 UNL     1       2.313  -3.268  18.199  1.00  0.00     0.157 HD
HETATM    4  C1  UNL     1       1.365  -2.508  19.709  1.00  0.00     0.148 C 
HETATM    5  C2  UNL     1       0.290  -2.342  18.748  1.00  0.00     0.106 A 
HETATM    6  C3  UNL     1      -1.073  -2.099  18.926  1.00  0.00     0.138 A 
HETATM    7  N2  UNL     1      -1.840  -1.979  17.824  1.00  0.00    -0.176 N 
ATOM      8  H2  UNL     1      -2.840  -1.802  17.926  1.00  0.00     0.186 HD
HETATM    9  C4  UNL     1      -1.309  -2.088  16.585  1.00  0.00     0.679 A 
HETATM   10  N3  UNL     1      -2.082  -1.967  15.530  1.00  0.00    -0.234 N 
ATOM     11  H31 UNL     1      -1.681  -2.049  14.597  1.00  0.00     0.174 HD
ATOM     12  H32 UNL     1      -3.079  -1.789  15.660  1.00  0.00     0.174 HD
HETATM   13  N4  UNL     1      -0.001  -2.321  16.415  1.00  0.00    -0.170 N 
ATOM     14  H4  UNL     1       0.382  -2.401  15.472  1.00  0.00     0.186 HD
HETATM   15  C5  UNL     1       0.821  -2.452  17.493  1.00  0.00     0.175 A 
HETATM   16  N6  UNL     1      -1.912  -1.943  20.063  1.00  0.00    -0.332 N 
ATOM     17  H6  UNL     1      -2.767  -1.429  19.854  1.00  0.00     0.165 HD
HETATM   18  C12 UNL     1      -1.829  -2.346  21.447  1.00  0.00     0.390 C 
HETATM   19  N8  UNL     1      -0.702  -1.806  22.164  1.00  0.00    -0.319 N 
ATOM     20  H8  UNL     1      -1.031  -1.343  23.012  1.00  0.00     0.166 HD
HETATM   21  C13 UNL     1       0.579  -1.711  22.097  1.00  0.00     0.219 C 
HETATM   22  N9  UNL     1       1.186  -1.015  23.173  1.00  0.00    -0.061 NA
HETATM   23  N10 UNL     1       1.495  -2.194  21.115  1.00  0.00    -0.177 N 
ENDROOT
BRANCH  15  24
HETATM   24  O1  UNL     1       2.191  -2.694  17.369  1.00  0.00    -0.329 OA
BRANCH  24  25
HETATM   25  C6  UNL     1       2.543  -3.464  16.203  1.00  0.00     0.222 C 
BRANCH  25  26
HETATM   26  C7  UNL     1       4.003  -3.835  16.167  1.00  0.00     0.095 C 
BRANCH  26  27
HETATM   27  N5  UNL     1       4.128  -5.236  16.213  1.00  0.00    -0.348 N 
HETATM   28  C8  UNL     1       3.001  -6.036  15.992  1.00  0.00     0.094 C 
HETATM   29  C9  UNL     1       3.300  -7.497  15.760  1.00  0.00     0.213 C 
HETATM   30  O2  UNL     1       4.479  -7.560  15.008  1.00  0.00    -0.381 OA
HETATM   31  C10 UNL     1       5.518  -7.225  15.846  1.00  0.00     0.213 C 
HETATM   32  C11 UNL     1       5.389  -5.820  16.378  1.00  0.00     0.094 C 
ENDBRANCH  26  27
ENDBRANCH  25  26
ENDBRANCH  24  25
ENDBRANCH  15  24
BRANCH  23  33
HETATM   33  O3  UNL     1       2.719  -2.385  21.617  1.00  0.00    -0.279 OA
ATOM     34  H3  UNL     1       2.793  -2.224  22.551  1.00  0.00     0.245 HD
ENDBRANCH  23  33
BRANCH  18  35
HETATM   35  N7  UNL     1      -1.697  -3.810  21.510  1.00  0.00    -0.041 N 
ATOM     36  H73 UNL     1      -2.566  -4.266  21.786  1.00  0.00     0.279 HD
ATOM     37  H72 UNL     1      -1.602  -4.232  20.586  1.00  0.00     0.279 HD
ATOM     38  H71 UNL     1      -0.921  -4.046  22.128  1.00  0.00     0.279 HD
ENDBRANCH  18  35
TORSDOF 6
ENDMDL
MODEL 3
REMARK VINA RESULT: -7.199789475      2.345      3.463
REMARK  6 active torsions:
REMARK  status: ('A' for Active; 'I' for Inactive)
REMARK    1  A    between atoms: C5_15  and  O1_16 
REMARK    2  A    between atoms: O1_16  and  C6_17 
REMARK    3  A    between atoms: C6_17  and  C7_18 
REMARK    4  A    between atoms: C7_18  and  N5_19 
REMARK    5  A    between atoms: C12_27  and  N7_28 
REMARK    6  A    between atoms: N10_36  and  O3_37 
ROOT
HETATM    1  N1  UNL     1       2.419  -3.099  19.224  1.00  0.00    -0.383 N 
ATOM      2  H11 UNL     1       3.172  -3.227  19.900  1.00  0.00     0.157 HD
ATOM      3  H12 UNL     1       2.330  -3.306  18.229  1.00  0.00     0.157 HD
HETATM    4  C1  UNL     1       1.379  -2.567  19.748  1.00  0.00     0.148 C 
HETATM    5  C2  UNL     1       0.308  -2.385  18.787  1.00  0.00     0.106 A 
HETATM    6  C3  UNL     1      -1.056  -2.142  18.964  1.00  0.00     0.138 A 
HETATM    7  N2  UNL     1      -1.820  -2.004  17.862  1.00  0.00    -0.176 N 
ATOM      8  H2  UNL     1      -2.820  -1.827  17.964  1.00  0.00     0.186 HD
HETATM    9  C4  UNL     1      -1.285  -2.097  16.623  1.00  0.00     0.679 A 
HETATM   10  N3  UNL     1      -2.056  -1.959  15.568  1.00  0.00    -0.234 N 
ATOM     11  H31 UNL     1      -1.652  -2.028  14.635  1.00  0.00     0.174 HD
ATOM     12  H32 UNL     1      -3.052  -1.781  15.698  1.00  0.00     0.174 HD
HETATM   13  N4  UNL     1       0.023  -2.329  16.453  1.00  0.00    -0.170 N 
ATOM     14  H4  UNL     1       0.408  -2.397  15.510  1.00  0.00     0.186 HD
HETATM   15  C5  UNL     1       0.842  -2.477  17.531  1.00  0.00     0.175 A 
HETATM   16  N6  UNL     1      -1.897  -2.001  20.101  1.00  0.00    -0.332 N 
ATOM     17  H6  UNL     1      -2.751  -1.482  19.897  1.00  0.00     0.165 HD
HETATM   18  C12 UNL     1      -1.819  -2.424  21.479  1.00  0.00     0.390 C 
HETATM   19  N8  UNL     1      -0.693  -1.896  22.207  1.00  0.00    -0.319 N 
ATOM     20  H8  UNL     1      -1.024  -1.445  23.060  1.00  0.00     0.166 HD
HETATM   21  C13 UNL     1       0.588  -1.803  22.144  1.00  0.00     0.219 C 
HETATM   22  N9  UNL     1       1.194  -1.123  23.232  1.00  0.00    -0.061 NA
HETATM   23  N10 UNL     1       1.506  -2.273  21.158  1.00  0.00    -0.177 N 
ENDROOT
BRANCH  15  24
HETATM   24  O1  UNL     1       2.211  -2.720  17.407  1.00  0.00    -0.329 OA
BRANCH  24  25
HETATM   25  C6  UNL     1       2.611  -3.144  16.089  1.00  0.00     0.222 C 
BRANCH  25  26
HETATM   26  C7  UNL     1       2.636  -4.643  15.940  1.00  0.00     0.095 C 
BRANCH  26  27
HETATM   27  N5  UNL     1       3.854  -5.140  16.441  1.00  0.00    -0.348 N 
HETATM   28  C8  UNL     1       5.021  -4.379  16.295  1.00  0.00     0.094 C 
HETATM   29  C9  UNL     1       6.189  -4.851  17.126  1.00  0.00     0.213 C 
HETATM   30  O2  UNL     1       5.672  -5.286  18.351  1.00  0.00    -0.381 OA
HETATM   31  C10 UNL     1       5.031  -6.483  18.124  1.00  0.00     0.213 C 
HETATM   32  C11 UNL     1       3.876  -6.336  17.168  1.00  0.00     0.094 C 
ENDBRANCH  26  27
ENDBRANCH  25  26
ENDBRANCH  24  25
ENDBRANCH  15  24
BRANCH  23  33
HETATM   33  O3  UNL     1       2.728  -2.473  21.661  1.00  0.00    -0.279 OA
ATOM     34  H3  UNL     1       3.070  -1.749  22.173  1.00  0.00     0.245 HD
ENDBRANCH  23  33
BRANCH  18  35
HETATM   35  N7  UNL     1      -1.690  -3.888  21.522  1.00  0.00    -0.041 N 
ATOM     36  H73 UNL     1      -1.502  -4.235  22.462  1.00  0.00     0.279 HD
ATOM     37  H72 UNL     1      -2.582  -4.362  21.371  1.00  0.00     0.279 HD
ATOM     38  H71 UNL     1      -0.978  -4.178  20.850  1.00  0.00     0.279 HD
ENDBRANCH  18  35
TORSDOF 6
ENDMDL
MODEL 4
REMARK VINA RESULT: -7.019166508      1.967      4.109
REMARK  6 active torsions:
REMARK  status: ('A' for Active; 'I' for Inactive)
REMARK    1  A    between atoms: C5_15  and  O1_16 
REMARK    2  A    between atoms: O1_16  and  C6_17 
REMARK    3  A    between atoms: C6_17  and  C7_18 
REMARK    4  A    between atoms: C7_18  and  N5_19 
REMARK    5  A    between atoms: C12_27  and  N7_28 
REMARK    6  A    between atoms: N10_36  and  O3_37 
ROOT
HETATM    1  N1  UNL     1      -1.242  -3.015  19.834  1.00  0.00    -0.383 N 
ATOM      2  H11 UNL     1      -1.145  -3.956  20.216  1.00  0.00     0.157 HD
ATOM      3  H12 UNL     1      -1.699  -2.644  19.001  1.00  0.00     0.157 HD
HETATM    4  C1  UNL     1      -0.667  -2.132  20.559  1.00  0.00     0.148 C 
HETATM    5  C2  UNL     1      -0.807  -0.793  20.015  1.00  0.00     0.106 A 
HETATM    6  C3  UNL     1      -0.621   0.461  20.599  1.00  0.00     0.138 A 
HETATM    7  N2  UNL     1      -0.817   1.550  19.829  1.00  0.00    -0.176 N 
ATOM      8  H2  UNL     1      -0.689   2.479  20.232  1.00  0.00     0.186 HD
HETATM    9  C4  UNL     1      -1.183   1.434  18.532  1.00  0.00     0.679 A 
HETATM   10  N3  UNL     1      -1.368   2.514  17.807  1.00  0.00    -0.234 N 
ATOM     11  H31 UNL     1      -1.643   2.425  16.830  1.00  0.00     0.174 HD
ATOM     12  H32 UNL     1      -1.231   3.430  18.234  1.00  0.00     0.174 HD
HETATM   13  N4  UNL     1      -1.361   0.230  17.972  1.00  0.00    -0.170 N 
ATOM     14  H4  UNL     1      -1.638   0.163  16.992  1.00  0.00     0.186 HD
HETATM   15  C5  UNL     1      -1.176  -0.904  18.703  1.00  0.00     0.175 A 
HETATM   16  N6  UNL     1      -0.255   0.904  21.900  1.00  0.00    -0.332 N 
ATOM     17  H6  UNL     1       0.137   1.846  21.899  1.00  0.00     0.165 HD
HETATM   18  C12 UNL     1      -0.310   0.325  23.221  1.00  0.00     0.390 C 
HETATM   19  N8  UNL     1       0.459  -0.883  23.381  1.00  0.00    -0.319 N 
ATOM     20  H8  UNL     1       1.088  -0.780  24.178  1.00  0.00     0.166 HD
HETATM   21  C13 UNL     1       0.621  -2.046  22.859  1.00  0.00     0.219 C 
HETATM   22  N9  UNL     1       1.592  -2.860  23.496  1.00  0.00    -0.061 NA
HETATM   23  N10 UNL     1      -0.019  -2.659  21.740  1.00  0.00    -0.177 N 
ENDROOT
BRANCH  15  24
HETATM   24  O1  UNL     1      -1.349  -2.181  18.166  1.00  0.00    -0.329 OA
BRANCH  24  25
HETATM   25  C6  UNL     1      -0.631  -2.399  16.936  1.00  0.00     0.222 C 
BRANCH  25  26
HETATM   26  C7  UNL     1       0.822  -2.013  17.031  1.00  0.00     0.095 C 
BRANCH  26  27
HETATM   27  N5  UNL     1       1.606  -3.177  17.134  1.00  0.00    -0.348 N 
HETATM   28  C8  UNL     1       2.084  -3.791  15.970  1.00  0.00     0.094 C 
HETATM   29  C9  UNL     1       3.152  -4.833  16.199  1.00  0.00     0.213 C 
HETATM   30  O2  UNL     1       3.962  -4.367  17.241  1.00  0.00    -0.381 OA
HETATM   31  C10 UNL     1       3.241  -4.492  18.407  1.00  0.00     0.213 C 
HETATM   32  C11 UNL     1       1.988  -3.654  18.393  1.00  0.00     0.094 C 
ENDBRANCH  26  27
ENDBRANCH  25  26
ENDBRANCH  24  25
ENDBRANCH  15  24
BRANCH  23  33
HETATM   33  O3  UNL     1      -0.003  -3.993  21.817  1.00  0.00    -0.279 OA
ATOM     34  H3  UNL     1      -0.847  -4.390  21.998  1.00  0.00     0.245 HD
ENDBRANCH  23  33
BRANCH  18  35
HETATM   35  N7  UNL     1      -1.704  -0.028  23.528  1.00  0.00    -0.041 N 
ATOM     36  H73 UNL     1      -2.072  -0.743  22.901  1.00  0.00     0.279 HD
ATOM     37  H72 UNL     1      -1.790  -0.549  24.402  1.00  0.00     0.279 HD
ATOM     38  H71 UNL     1      -2.269   0.821  23.524  1.00  0.00     0.279 HD
ENDBRANCH  18  35
TORSDOF 6
ENDMDL
MODEL 5
REMARK VINA RESULT: -6.975847184      2.690      3.886
REMARK  6 active torsions:
REMARK  status: ('A' for Active; 'I' for Inactive)
REMARK    1  A    between atoms: C5_15  and  O1_16 
REMARK    2  A    between atoms: O1_16  and  C6_17 
REMARK    3  A    between atoms: C6_17  and  C7_18 
REMARK    4  A    between atoms: C7_18  and  N5_19 
REMARK    5  A    between atoms: C12_27  and  N7_28 
REMARK    6  A    between atoms: N10_36  and  O3_37 
ROOT
HETATM    1  N1  UNL     1       2.569  -2.831  16.091  1.00  0.00    -0.383 N 
ATOM      2  H11 UNL     1       2.349  -2.421  15.184  1.00  0.00     0.157 HD
ATOM      3  H12 UNL     1       3.428  -3.196  16.503  1.00  0.00     0.157 HD
HETATM    4  C1  UNL     1       1.547  -2.895  16.859  1.00  0.00     0.148 C 
HETATM    5  C2  UNL     1       1.860  -3.479  18.150  1.00  0.00     0.106 A 
HETATM    6  C3  UNL     1       1.164  -3.462  19.360  1.00  0.00     0.138 A 
HETATM    7  N2  UNL     1       1.708  -4.114  20.408  1.00  0.00    -0.176 N 
ATOM      8  H2  UNL     1       1.219  -4.116  21.304  1.00  0.00     0.186 HD
HETATM    9  C4  UNL     1       2.888  -4.763  20.293  1.00  0.00     0.679 A 
HETATM   10  N3  UNL     1       3.392  -5.389  21.333  1.00  0.00    -0.234 N 
ATOM     11  H31 UNL     1       4.282  -5.878  21.245  1.00  0.00     0.174 HD
ATOM     12  H32 UNL     1       2.883  -5.377  22.217  1.00  0.00     0.174 HD
HETATM   13  N4  UNL     1       3.556  -4.779  19.132  1.00  0.00    -0.170 N 
ATOM     14  H4  UNL     1       4.446  -5.274  19.065  1.00  0.00     0.186 HD
HETATM   15  C5  UNL     1       3.054  -4.137  18.040  1.00  0.00     0.175 A 
HETATM   16  N6  UNL     1      -0.060  -2.882  19.791  1.00  0.00    -0.332 N 
ATOM     17  H6  UNL     1      -0.451  -3.350  20.609  1.00  0.00     0.165 HD
HETATM   18  C12 UNL     1      -0.876  -1.782  19.336  1.00  0.00     0.390 C 
HETATM   19  N8  UNL     1      -1.378  -1.921  17.993  1.00  0.00    -0.319 N 
ATOM     20  H8  UNL     1      -2.391  -1.799  17.997  1.00  0.00     0.166 HD
HETATM   21  C13 UNL     1      -0.981  -2.146  16.791  1.00  0.00     0.219 C 
HETATM   22  N9  UNL     1      -2.008  -2.168  15.814  1.00  0.00    -0.061 NA
HETATM   23  N10 UNL     1       0.330  -2.377  16.274  1.00  0.00    -0.177 N 
ENDROOT
BRANCH  15  24
HETATM   24  O1  UNL     1       3.711  -4.124  16.808  1.00  0.00    -0.329 OA
BRANCH  24  25
HETATM   25  C6  UNL     1       4.244  -5.404  16.418  1.00  0.00     0.222 C 
BRANCH  25  26
HETATM   26  C7  UNL     1       3.187  -6.345  15.900  1.00  0.00     0.095 C 
BRANCH  26  27
HETATM   27  N5  UNL     1       3.778  -7.585  15.595  1.00  0.00    -0.348 N 
HETATM   28  C8  UNL     1       2.980  -8.628  15.108  1.00  0.00     0.094 C 
HETATM   29  C9  UNL     1       3.748  -9.791  14.529  1.00  0.00     0.213 C 
HETATM   30  O2  UNL     1       4.855  -9.260  13.860  1.00  0.00    -0.381 OA
HETATM   31  C10 UNL     1       5.745  -8.830  14.817  1.00  0.00     0.213 C 
HETATM   32  C11 UNL     1       5.166  -7.738  15.681  1.00  0.00     0.094 C 
ENDBRANCH  26  27
ENDBRANCH  25  26
ENDBRANCH  24  25
ENDBRANCH  15  24
BRANCH  23  33
HETATM   33  O3  UNL     1       0.429  -2.043  14.984  1.00  0.00    -0.279 OA
ATOM     34  H3  UNL     1      -0.398  -1.846  14.561  1.00  0.00     0.245 HD
ENDBRANCH  23  33
BRANCH  18  35
HETATM   35  N7  UNL     1      -0.069  -0.552  19.352  1.00  0.00    -0.041 N 
ATOM     36  H73 UNL     1      -0.156  -0.041  20.230  1.00  0.00     0.279 HD
ATOM     37  H72 UNL     1       0.932  -0.744  19.397  1.00  0.00     0.279 HD
ATOM     38  H71 UNL     1      -0.319   0.018  18.543  1.00  0.00     0.279 HD
ENDBRANCH  18  35
TORSDOF 6
ENDMDL
