MODEL 1
REMARK VINA RESULT: -7.647150225      0.000      0.000
REMARK  9 active torsions:
REMARK  status: ('A' for Active; 'I' for Inactive)
REMARK    1  A    between atoms: N1_1  and  C1_5 
REMARK    2  A    between atoms: C5_12  and  N3_13 
REMARK    3  A    between atoms: N3_13  and  C6_15 
REMARK    4  A    between atoms: C6_15  and  C7_16 
REMARK    5  A    between atoms: C7_16  and  N4_17 
REMARK    6  A    between atoms: N5_20  and  N6_21 
REMARK    7  A    between atoms: N6_21  and  O2_22 
REMARK    8  A    between atoms: N7_24  and  O3_26 
REMARK    9  A    between atoms: N9_33  and  O4_34 
ROOT
HETATM    1  C1  UNL     1       1.865 -12.542  12.344  1.00  0.00     0.425 C 
HETATM    2  O1  UNL     1       3.091 -11.878  12.309  1.00  0.00    -0.344 OA
HETATM    3  C2  UNL     1       3.287 -11.352  13.584  1.00  0.00     0.203 C 
HETATM    4  C3  UNL     1       1.902 -10.902  13.961  1.00  0.00     0.097 C 
HETATM    5  C4  UNL     1       1.608  -9.540  13.378  1.00  0.00     0.169 C 
HETATM    6  N2  UNL     1       2.330  -8.515  14.094  1.00  0.00    -0.225 N 
ATOM      7  H2  UNL     1       2.435  -7.606  13.643  1.00  0.00     0.177 HD
HETATM    8  C5  UNL     1       2.846  -8.666  15.248  1.00  0.00     0.669 C 
HETATM    9  N8  UNL     1       2.742  -9.900  15.934  1.00  0.00    -0.225 N 
ATOM     10  H8  UNL     1       3.350 -10.133  16.719  1.00  0.00     0.177 HD
HETATM   11  C12 UNL     1       1.718 -10.816  15.457  1.00  0.00     0.169 C 
HETATM   12  N9  UNL     1       1.066 -11.923  13.368  1.00  0.00    -0.131 NA
ENDROOT
BRANCH   8  13
HETATM   13  N3  UNL     1       3.530  -7.587  15.848  1.00  0.00    -0.225 N 
ATOM     14  H3  UNL     1       4.397  -7.793  16.346  1.00  0.00     0.177 HD
BRANCH  13  15
HETATM   15  C6  UNL     1       3.091  -6.215  15.808  1.00  0.00     0.168 C 
BRANCH  15  16
HETATM   16  C7  UNL     1       2.722  -5.727  17.185  1.00  0.00     0.292 C 
BRANCH  16  17
HETATM   17  N4  UNL     1       3.098  -4.364  17.357  1.00  0.00     0.093 N 
HETATM   18  C8  UNL     1       2.787  -3.848  18.671  1.00  0.00     0.294 C 
HETATM   19  C9  UNL     1       1.396  -3.289  18.766  1.00  0.00     0.177 C 
HETATM   20  N5  UNL     1       0.949  -2.569  17.619  1.00  0.00    -0.282 N 
HETATM   21  C10 UNL     1       1.231  -3.177  16.307  1.00  0.00     0.177 C 
HETATM   22  C11 UNL     1       2.711  -3.462  16.308  1.00  0.00     0.294 C 
BRANCH  20  23
HETATM   23  N6  UNL     1       0.270  -1.347  17.634  1.00  0.00    -0.077 N 
HETATM   24  N7  UNL     1       0.858  -0.320  18.109  1.00  0.00    -0.168 N 
ATOM     25  H7  UNL     1       1.809  -0.414  18.465  1.00  0.00     0.220 HD
BRANCH  23  26
HETATM   26  O2  UNL     1      -1.008  -1.249  17.148  1.00  0.00    -0.252 OA
ATOM     27  H2  UNL     1      -1.538  -0.480  17.326  1.00  0.00     0.248 HD
ENDBRANCH  23  26
BRANCH  24  28
HETATM   28  O3  UNL     1       0.248   0.910  18.154  1.00  0.00    -0.271 OA
ATOM     29  H3  UNL     1      -0.383   1.183  17.498  1.00  0.00     0.246 HD
ENDBRANCH  24  28
ENDBRANCH  20  23
ENDBRANCH  16  17
ENDBRANCH  15  16
ENDBRANCH  13  15
ENDBRANCH   8  13
BRANCH  12  30
HETATM   30  O4  UNL     1       0.809 -12.880  14.306  1.00  0.00    -0.308 OA
ATOM     31  H4  UNL     1       0.719 -12.434  15.141  1.00  0.00     0.237 HD
ENDBRANCH  12  30
BRANCH   1  32
HETATM   32  N1  UNL     1       2.151 -13.944  12.625  1.00  0.00    -0.037 N 
ATOM     33  H13 UNL     1       2.412 -14.114  13.596  1.00  0.00     0.279 HD
ATOM     34  H12 UNL     1       1.319 -14.535  12.610  1.00  0.00     0.279 HD
ATOM     35  H11 UNL     1       2.866 -14.239  11.960  1.00  0.00     0.279 HD
ENDBRANCH   1  32
TORSDOF 9
ENDMDL
MODEL 2
REMARK VINA RESULT: -7.504356808      3.934      5.498
REMARK  9 active torsions:
REMARK  status: ('A' for Active; 'I' for Inactive)
REMARK    1  A    between atoms: N1_1  and  C1_5 
REMARK    2  A    between atoms: C5_12  and  N3_13 
REMARK    3  A    between atoms: N3_13  and  C6_15 
REMARK    4  A    between atoms: C6_15  and  C7_16 
REMARK    5  A    between atoms: C7_16  and  N4_17 
REMARK    6  A    between atoms: N5_20  and  N6_21 
REMARK    7  A    between atoms: N6_21  and  O2_22 
REMARK    8  A    between atoms: N7_24  and  O3_26 
REMARK    9  A    between atoms: N9_33  and  O4_34 
ROOT
HETATM    1  C1  UNL     1       5.486  -8.401  15.731  1.00  0.00     0.425 C 
HETATM    2  O1  UNL     1       4.167  -7.952  15.674  1.00  0.00    -0.344 OA
HETATM    3  C2  UNL     1       4.199  -6.602  16.018  1.00  0.00     0.203 C 
HETATM    4  C3  UNL     1       5.233  -6.576  17.112  1.00  0.00     0.097 C 
HETATM    5  C4  UNL     1       4.616  -6.961  18.436  1.00  0.00     0.169 C 
HETATM    6  N2  UNL     1       3.792  -5.890  18.943  1.00  0.00    -0.225 N 
ATOM      7  H2  UNL     1       3.116  -6.117  19.672  1.00  0.00     0.177 HD
HETATM    8  C5  UNL     1       3.848  -4.683  18.543  1.00  0.00     0.669 C 
HETATM    9  N8  UNL     1       4.760  -4.295  17.532  1.00  0.00    -0.225 N 
ATOM     10  H8  UNL     1       4.653  -3.421  17.017  1.00  0.00     0.177 HD
HETATM   11  C12 UNL     1       5.858  -5.211  17.272  1.00  0.00     0.169 C 
HETATM   12  N9  UNL     1       6.190  -7.565  16.666  1.00  0.00    -0.131 NA
ENDROOT
BRANCH   8  13
HETATM   13  N3  UNL     1       2.988  -3.721  19.117  1.00  0.00    -0.225 N 
ATOM     14  H3  UNL     1       3.375  -2.799  19.318  1.00  0.00     0.177 HD
BRANCH  13  15
HETATM   15  C6  UNL     1       1.603  -3.950  19.439  1.00  0.00     0.168 C 
BRANCH  15  16
HETATM   16  C7  UNL     1       1.040  -2.807  20.243  1.00  0.00     0.292 C 
BRANCH  16  17
HETATM   17  N4  UNL     1      -0.163  -2.319  19.657  1.00  0.00     0.093 N 
HETATM   18  C8  UNL     1       0.006  -1.879  18.289  1.00  0.00     0.294 C 
HETATM   19  C9  UNL     1       0.429  -0.442  18.184  1.00  0.00     0.177 C 
HETATM   20  N5  UNL     1      -0.181   0.443  19.123  1.00  0.00    -0.282 N 
HETATM   21  C10 UNL     1      -0.263  -0.027  20.516  1.00  0.00     0.177 C 
HETATM   22  C11 UNL     1      -0.917  -1.383  20.443  1.00  0.00     0.294 C 
BRANCH  20  23
HETATM   23  N6  UNL     1      -0.701   1.708  18.834  1.00  0.00    -0.077 N 
HETATM   24  N7  UNL     1      -1.569   1.822  17.907  1.00  0.00    -0.168 N 
ATOM     25  H7  UNL     1      -1.864   0.988  17.399  1.00  0.00     0.220 HD
BRANCH  23  26
HETATM   26  O2  UNL     1      -0.287   2.813  19.533  1.00  0.00    -0.252 OA
ATOM     27  H2  UNL     1      -0.638   3.673  19.334  1.00  0.00     0.248 HD
ENDBRANCH  23  26
BRANCH  24  28
HETATM   28  O3  UNL     1      -2.120   3.035  17.573  1.00  0.00    -0.271 OA
ATOM     29  H3  UNL     1      -2.759   3.467  18.126  1.00  0.00     0.246 HD
ENDBRANCH  24  28
ENDBRANCH  20  23
ENDBRANCH  16  17
ENDBRANCH  15  16
ENDBRANCH  13  15
ENDBRANCH   8  13
BRANCH  12  30
HETATM   30  O4  UNL     1       7.180  -6.934  15.970  1.00  0.00    -0.308 OA
ATOM     31  H4  UNL     1       7.624  -6.357  16.580  1.00  0.00     0.237 HD
ENDBRANCH  12  30
BRANCH   1  32
HETATM   32  N1  UNL     1       6.022  -8.308  14.378  1.00  0.00    -0.037 N 
ATOM     33  H13 UNL     1       5.896  -7.388  13.958  1.00  0.00     0.279 HD
ATOM     34  H12 UNL     1       7.042  -8.324  14.348  1.00  0.00     0.279 HD
ATOM     35  H11 UNL     1       5.592  -9.059  13.837  1.00  0.00     0.279 HD
ENDBRANCH   1  32
TORSDOF 9
ENDMDL
MODEL 3
REMARK VINA RESULT: -7.458907894      2.095      2.789
REMARK  9 active torsions:
REMARK  status: ('A' for Active; 'I' for Inactive)
REMARK    1  A    between atoms: N1_1  and  C1_5 
REMARK    2  A    between atoms: C5_12  and  N3_13 
REMARK    3  A    between atoms: N3_13  and  C6_15 
REMARK    4  A    between atoms: C6_15  and  C7_16 
REMARK    5  A    between atoms: C7_16  and  N4_17 
REMARK    6  A    between atoms: N5_20  and  N6_21 
REMARK    7  A    between atoms: N6_21  and  O2_22 
REMARK    8  A    between atoms: N7_24  and  O3_26 
REMARK    9  A    between atoms: N9_33  and  O4_34 
ROOT
HETATM    1  C1  UNL     1       1.627 -12.932  13.725  1.00  0.00     0.425 C 
HETATM    2  O1  UNL     1       1.586 -11.651  13.174  1.00  0.00    -0.344 OA
HETATM    3  C2  UNL     1       2.911 -11.244  13.033  1.00  0.00     0.203 C 
HETATM    4  C3  UNL     1       3.548 -11.790  14.283  1.00  0.00     0.097 C 
HETATM    5  C4  UNL     1       3.321 -10.854  15.447  1.00  0.00     0.169 C 
HETATM    6  N2  UNL     1       4.149  -9.679  15.322  1.00  0.00    -0.225 N 
ATOM      7  H2  UNL     1       3.900  -8.862  15.880  1.00  0.00     0.177 HD
HETATM    8  C5  UNL     1       5.168  -9.589  14.564  1.00  0.00     0.669 C 
HETATM    9  N8  UNL     1       5.573 -10.681  13.760  1.00  0.00    -0.225 N 
ATOM     10  H8  UNL     1       6.205 -10.562  12.969  1.00  0.00     0.177 HD
HETATM   11  C12 UNL     1       5.037 -11.982  14.126  1.00  0.00     0.169 C 
HETATM   12  N9  UNL     1       2.853 -13.045  14.469  1.00  0.00    -0.131 NA
ENDROOT
BRANCH   8  13
HETATM   13  N3  UNL     1       5.901  -8.383  14.528  1.00  0.00    -0.225 N 
ATOM     14  H3  UNL     1       6.154  -8.009  13.613  1.00  0.00     0.177 HD
BRANCH  13  15
HETATM   15  C6  UNL     1       6.317  -7.643  15.692  1.00  0.00     0.168 C 
BRANCH  15  16
HETATM   16  C7  UNL     1       5.777  -6.236  15.657  1.00  0.00     0.292 C 
BRANCH  16  17
HETATM   17  N4  UNL     1       4.836  -6.028  16.705  1.00  0.00     0.093 N 
HETATM   18  C8  UNL     1       3.506  -6.493  16.378  1.00  0.00     0.294 C 
HETATM   19  C9  UNL     1       2.681  -5.455  15.673  1.00  0.00     0.177 C 
HETATM   20  N5  UNL     1       2.847  -4.119  16.146  1.00  0.00    -0.282 N 
HETATM   21  C10 UNL     1       4.230  -3.676  16.395  1.00  0.00     0.177 C 
HETATM   22  C11 UNL     1       4.828  -4.721  17.300  1.00  0.00     0.294 C 
BRANCH  20  23
HETATM   23  N6  UNL     1       1.819  -3.203  16.388  1.00  0.00    -0.077 N 
HETATM   24  N7  UNL     1       2.116  -1.976  16.567  1.00  0.00    -0.168 N 
ATOM     25  H7  UNL     1       3.095  -1.692  16.529  1.00  0.00     0.220 HD
BRANCH  23  26
HETATM   26  O2  UNL     1       0.512  -3.612  16.433  1.00  0.00    -0.252 OA
ATOM     27  H2  UNL     1      -0.062  -3.331  17.137  1.00  0.00     0.248 HD
ENDBRANCH  23  26
BRANCH  24  28
HETATM   28  O3  UNL     1       1.155  -1.025  16.810  1.00  0.00    -0.271 OA
ATOM     29  H3  UNL     1       1.234  -0.401  17.522  1.00  0.00     0.246 HD
ENDBRANCH  24  28
ENDBRANCH  20  23
ENDBRANCH  16  17
ENDBRANCH  15  16
ENDBRANCH  13  15
ENDBRANCH   8  13
BRANCH  12  30
HETATM   30  O4  UNL     1       3.582 -14.041  13.887  1.00  0.00    -0.308 OA
ATOM     31  H4  UNL     1       4.325 -13.629  13.461  1.00  0.00     0.237 HD
ENDBRANCH  12  30
BRANCH   1  32
HETATM   32  N1  UNL     1       1.554 -13.873  12.614  1.00  0.00    -0.037 N 
ATOM     33  H13 UNL     1       1.285 -13.435  11.733  1.00  0.00     0.279 HD
ATOM     34  H12 UNL     1       2.468 -14.213  12.315  1.00  0.00     0.279 HD
ATOM     35  H11 UNL     1       0.921 -14.620  12.900  1.00  0.00     0.279 HD
ENDBRANCH   1  32
TORSDOF 9
ENDMDL
MODEL 4
REMARK VINA RESULT: -7.342210036      1.044      1.526
REMARK  9 active torsions:
REMARK  status: ('A' for Active; 'I' for Inactive)
REMARK    1  A    between atoms: N1_1  and  C1_5 
REMARK    2  A    between atoms: C5_12  and  N3_13 
REMARK    3  A    between atoms: N3_13  and  C6_15 
REMARK    4  A    between atoms: C6_15  and  C7_16 
REMARK    5  A    between atoms: C7_16  and  N4_17 
REMARK    6  A    between atoms: N5_20  and  N6_21 
REMARK    7  A    between atoms: N6_21  and  O2_22 
REMARK    8  A    between atoms: N7_24  and  O3_26 
REMARK    9  A    between atoms: N9_33  and  O4_34 
ROOT
HETATM    1  C1  UNL     1       2.770 -13.054  13.051  1.00  0.00     0.425 C 
HETATM    2  O1  UNL     1       2.657 -12.883  14.430  1.00  0.00    -0.344 OA
HETATM    3  C2  UNL     1       2.147 -11.601  14.624  1.00  0.00     0.203 C 
HETATM    4  C3  UNL     1       2.859 -10.810  13.560  1.00  0.00     0.097 C 
HETATM    5  C4  UNL     1       4.235 -10.401  14.032  1.00  0.00     0.169 C 
HETATM    6  N2  UNL     1       4.142  -9.343  15.009  1.00  0.00    -0.225 N 
ATOM      7  H2  UNL     1       4.957  -9.168  15.597  1.00  0.00     0.177 HD
HETATM    8  C5  UNL     1       3.115  -8.613  15.190  1.00  0.00     0.669 C 
HETATM    9  N8  UNL     1       1.947  -8.800  14.413  1.00  0.00    -0.225 N 
ATOM     10  H8  UNL     1       1.043  -8.423  14.700  1.00  0.00     0.177 HD
HETATM   11  C12 UNL     1       2.108  -9.556  13.182  1.00  0.00     0.169 C 
HETATM   12  N9  UNL     1       2.934 -11.752  12.464  1.00  0.00    -0.131 NA
ENDROOT
BRANCH   8  13
HETATM   13  N3  UNL     1       3.145  -7.607  16.180  1.00  0.00    -0.225 N 
ATOM     14  H3  UNL     1       2.762  -7.833  17.098  1.00  0.00     0.177 HD
BRANCH  13  15
HETATM   15  C6  UNL     1       3.678  -6.283  15.985  1.00  0.00     0.168 C 
BRANCH  15  16
HETATM   16  C7  UNL     1       2.577  -5.254  15.978  1.00  0.00     0.292 C 
BRANCH  16  17
HETATM   17  N4  UNL     1       3.010  -4.045  16.593  1.00  0.00     0.093 N 
HETATM   18  C8  UNL     1       2.818  -4.033  18.026  1.00  0.00     0.294 C 
HETATM   19  C9  UNL     1       1.458  -3.542  18.431  1.00  0.00     0.177 C 
HETATM   20  N5  UNL     1       0.947  -2.456  17.658  1.00  0.00    -0.282 N 
HETATM   21  C10 UNL     1       1.107  -2.555  16.197  1.00  0.00     0.177 C 
HETATM   22  C11 UNL     1       2.572  -2.826  15.972  1.00  0.00     0.294 C 
BRANCH  20  23
HETATM   23  N6  UNL     1       0.311  -1.319  18.165  1.00  0.00    -0.077 N 
HETATM   24  N7  UNL     1       0.749  -0.168  17.834  1.00  0.00    -0.168 N 
ATOM     25  H7  UNL     1       1.551  -0.104  17.207  1.00  0.00     0.220 HD
BRANCH  23  26
HETATM   26  O2  UNL     1      -0.765  -1.434  19.006  1.00  0.00    -0.252 OA
ATOM     27  H2  UNL     1      -1.642  -1.223  18.706  1.00  0.00     0.248 HD
ENDBRANCH  23  26
BRANCH  24  28
HETATM   28  O3  UNL     1       0.171   0.989  18.297  1.00  0.00    -0.271 OA
ATOM     29  H3  UNL     1      -0.727   1.220  18.090  1.00  0.00     0.246 HD
ENDBRANCH  24  28
ENDBRANCH  20  23
ENDBRANCH  16  17
ENDBRANCH  15  16
ENDBRANCH  13  15
ENDBRANCH   8  13
BRANCH  12  30
HETATM   30  O4  UNL     1       1.867 -11.548  11.638  1.00  0.00    -0.308 OA
ATOM     31  H4  UNL     1       1.389 -12.369  11.594  1.00  0.00     0.237 HD
ENDBRANCH  12  30
BRANCH   1  32
HETATM   32  N1  UNL     1       1.552 -13.722  12.606  1.00  0.00    -0.037 N 
ATOM     33  H13 UNL     1       0.737 -13.491  13.174  1.00  0.00     0.279 HD
ATOM     34  H12 UNL     1       1.198 -13.362  11.720  1.00  0.00     0.279 HD
ATOM     35  H11 UNL     1       1.755 -14.722  12.583  1.00  0.00     0.279 HD
ENDBRANCH   1  32
TORSDOF 9
ENDMDL
MODEL 5
REMARK VINA RESULT: -7.328473765      3.750      5.250
REMARK  9 active torsions:
REMARK  status: ('A' for Active; 'I' for Inactive)
REMARK    1  A    between atoms: N1_1  and  C1_5 
REMARK    2  A    between atoms: C5_12  and  N3_13 
REMARK    3  A    between atoms: N3_13  and  C6_15 
REMARK    4  A    between atoms: C6_15  and  C7_16 
REMARK    5  A    between atoms: C7_16  and  N4_17 
REMARK    6  A    between atoms: N5_20  and  N6_21 
REMARK    7  A    between atoms: N6_21  and  O2_22 
REMARK    8  A    between atoms: N7_24  and  O3_26 
REMARK    9  A    between atoms: N9_33  and  O4_34 
ROOT
HETATM    1  C1  UNL     1       5.337  -8.506  15.554  1.00  0.00     0.425 C 
HETATM    2  O1  UNL     1       4.034  -8.016  15.637  1.00  0.00    -0.344 OA
HETATM    3  C2  UNL     1       4.145  -6.653  15.907  1.00  0.00     0.203 C 
HETATM    4  C3  UNL     1       5.307  -6.611  16.862  1.00  0.00     0.097 C 
HETATM    5  C4  UNL     1       4.849  -6.914  18.270  1.00  0.00     0.169 C 
HETATM    6  N2  UNL     1       4.124  -5.794  18.820  1.00  0.00    -0.225 N 
ATOM      7  H2  UNL     1       3.538  -5.963  19.637  1.00  0.00     0.177 HD
HETATM    8  C5  UNL     1       4.163  -4.608  18.356  1.00  0.00     0.669 C 
HETATM    9  N8  UNL     1       4.953  -4.298  17.223  1.00  0.00    -0.225 N 
ATOM     10  H8  UNL     1       4.807  -3.447  16.681  1.00  0.00     0.177 HD
HETATM   11  C12 UNL     1       5.985  -5.262  16.876  1.00  0.00     0.169 C 
HETATM   12  N9  UNL     1       6.174  -7.651  16.352  1.00  0.00    -0.131 NA
ENDROOT
BRANCH   8  13
HETATM   13  N3  UNL     1       3.408  -3.593  18.983  1.00  0.00    -0.225 N 
ATOM     14  H3  UNL     1       3.772  -2.641  18.946  1.00  0.00     0.177 HD
BRANCH  13  15
HETATM   15  C6  UNL     1       2.160  -3.807  19.669  1.00  0.00     0.168 C 
BRANCH  15  16
HETATM   16  C7  UNL     1       0.990  -3.562  18.751  1.00  0.00     0.292 C 
BRANCH  16  17
HETATM   17  N4  UNL     1      -0.118  -3.035  19.471  1.00  0.00     0.093 N 
HETATM   18  C8  UNL     1      -1.324  -2.945  18.678  1.00  0.00     0.294 C 
HETATM   19  C9  UNL     1      -1.432  -1.653  17.920  1.00  0.00     0.177 C 
HETATM   20  N5  UNL     1      -0.980  -0.495  18.622  1.00  0.00    -0.282 N 
HETATM   21  C10 UNL     1       0.291  -0.623  19.355  1.00  0.00     0.177 C 
HETATM   22  C11 UNL     1       0.128  -1.839  20.229  1.00  0.00     0.294 C 
BRANCH  20  23
HETATM   23  N6  UNL     1      -1.635   0.739  18.670  1.00  0.00    -0.077 N 
HETATM   24  N7  UNL     1      -1.315   1.641  17.826  1.00  0.00    -0.168 N 
ATOM     25  H7  UNL     1      -0.590   1.440  17.137  1.00  0.00     0.220 HD
BRANCH  23  26
HETATM   26  O2  UNL     1      -2.606   0.982  19.606  1.00  0.00    -0.252 OA
ATOM     27  H2  UNL     1      -2.493   1.663  20.259  1.00  0.00     0.248 HD
ENDBRANCH  23  26
BRANCH  24  28
HETATM   28  O3  UNL     1      -1.918   2.875  17.818  1.00  0.00    -0.271 OA
ATOM     29  H3  UNL     1      -2.848   2.978  17.656  1.00  0.00     0.246 HD
ENDBRANCH  24  28
ENDBRANCH  20  23
ENDBRANCH  16  17
ENDBRANCH  15  16
ENDBRANCH  13  15
ENDBRANCH   8  13
BRANCH  12  30
HETATM   30  O4  UNL     1       7.087  -7.087  15.510  1.00  0.00    -0.308 OA
ATOM     31  H4  UNL     1       6.923  -6.151  15.508  1.00  0.00     0.237 HD
ENDBRANCH  12  30
BRANCH   1  32
HETATM   32  N1  UNL     1       5.704  -8.493  14.143  1.00  0.00    -0.037 N 
ATOM     33  H13 UNL     1       6.610  -8.061  13.967  1.00  0.00     0.279 HD
ATOM     34  H12 UNL     1       5.930  -9.419  13.778  1.00  0.00     0.279 HD
ATOM     35  H11 UNL     1       4.939  -8.040  13.642  1.00  0.00     0.279 HD
ENDBRANCH   1  32
TORSDOF 9
ENDMDL
