MODEL 1
REMARK VINA RESULT: -9.554108905      0.000      0.000
REMARK  10 active torsions:
REMARK  status: ('A' for Active; 'I' for Inactive)
REMARK    1  A    between atoms: C2_2  and  C3_3 
REMARK    2  A    between atoms: C3_3  and  C4_4 
REMARK    3  A    between atoms: C4_4  and  C5_5 
REMARK    4  A    between atoms: C5_5  and  C6_6 
REMARK    5  A    between atoms: C13_14  and  O2_15 
REMARK    6  A    between atoms: C14_17  and  C15_18 
REMARK    7  A    between atoms: N1_20  and  C17_22 
REMARK    8  A    between atoms: N2_24  and  O3_26 
REMARK    9  A    between atoms: C19_28  and  C20_29 
REMARK   10  A    between atoms: C20_29  and  O5_31 
ROOT
HETATM    1  C6  UNL     1      25.806 -24.727   4.985  1.00  0.00     0.015 C 
HETATM    2  C7  UNL     1      26.125 -25.359   3.890  1.00  0.00     0.123 A 
HETATM    3  O1  UNL     1      25.618 -26.623   3.515  1.00  0.00    -0.305 OA
HETATM    4  C8  UNL     1      26.169 -26.980   2.282  1.00  0.00     0.100 A 
HETATM    5  C9  UNL     1      27.021 -26.039   1.804  1.00  0.00     0.052 A 
HETATM    6  C10 UNL     1      27.657 -26.174   0.593  1.00  0.00     0.028 A 
HETATM    7  C11 UNL     1      27.425 -27.291  -0.152  1.00  0.00    -0.027 A 
HETATM    8  C12 UNL     1      28.089 -27.506  -1.475  1.00  0.00     0.051 C 
HETATM    9  C13 UNL     1      26.537 -28.319   0.288  1.00  0.00     0.081 A 
HETATM   10  C14 UNL     1      25.935 -28.135   1.494  1.00  0.00     0.021 A 
HETATM   11  C23 UNL     1      27.023 -24.948   2.829  1.00  0.00     0.218 A 
HETATM   12  O6  UNL     1      27.698 -23.920   2.711  1.00  0.00    -0.284 OA
ENDROOT
BRANCH  10  13
HETATM   13  C15 UNL     1      25.011 -29.088   2.138  1.00  0.00     0.090 C 
HETATM   14  C16 UNL     1      24.930 -30.502   1.734  1.00  0.00     0.013 C 
HETATM   15  N1  UNL     1      25.558 -31.586   1.538  1.00  0.00    -0.350 N 
HETATM   16  C19 UNL     1      23.406 -30.314   1.708  1.00  0.00     0.151 C 
ATOM     17  H1  UNL     1      26.562 -31.578   1.714  1.00  0.00     0.166 HD
HETATM   18  C22 UNL     1      23.648 -28.881   1.416  1.00  0.00     0.115 C 
HETATM   19 CL1  UNL     1      22.546 -27.825   2.349  1.00  0.00    -0.123 Cl
BRANCH  15  20
HETATM   20  C17 UNL     1      24.996 -32.794   1.101  1.00  0.00     0.097 C 
HETATM   21  C18 UNL     1      24.588 -33.848   2.108  1.00  0.00     0.091 C 
HETATM   22  N2  UNL     1      24.805 -33.052  -0.116  1.00  0.00    -0.257 N 
ATOM     23  H2  UNL     1      25.079 -32.334  -0.786  1.00  0.00     0.195 HD
BRANCH  22  24
HETATM   24  O3  UNL     1      24.280 -34.169  -0.619  1.00  0.00    -0.288 OA
ATOM     25  H3  UNL     1      24.739 -34.841  -1.110  1.00  0.00     0.244 HD
ENDBRANCH  22  24
ENDBRANCH  15  20
BRANCH  16  26
HETATM   26  C20 UNL     1      22.849 -30.599   3.033  1.00  0.00     0.269 C 
HETATM   27  O4  UNL     1      21.658 -31.092   3.104  1.00  0.00    -0.264 OA
BRANCH  26  28
HETATM   28  O5  UNL     1      23.498 -30.371   4.197  1.00  0.00    -0.326 OA
HETATM   29  C21 UNL     1      23.826 -31.507   5.039  1.00  0.00     0.213 C 
ENDBRANCH  26  28
ENDBRANCH  16  26
ENDBRANCH  10  13
BRANCH   9  30
HETATM   30  O2  UNL     1      26.358 -29.377  -0.504  1.00  0.00    -0.359 OA
ATOM     31  H2  UNL     1      27.025 -30.054  -0.505  1.00  0.00     0.217 HD
ENDBRANCH   9  30
BRANCH   1  32
HETATM   32  C5  UNL     1      26.261 -23.431   5.428  1.00  0.00     0.030 C 
BRANCH  32  33
HETATM   33  C4  UNL     1      25.347 -22.681   6.382  1.00  0.00     0.004 C 
BRANCH  33  34
HETATM   34  C3  UNL     1      24.942 -23.614   7.461  1.00  0.00    -0.000 C 
BRANCH  34  35
HETATM   35  C2  UNL     1      23.835 -23.144   8.352  1.00  0.00    -0.005 C 
HETATM   36  C1  UNL     1      23.114 -21.962   7.834  1.00  0.00     0.005 C 
ENDBRANCH  34  35
ENDBRANCH  33  34
ENDBRANCH  32  33
ENDBRANCH   1  32
TORSDOF 10
ENDMDL
MODEL 2
REMARK VINA RESULT: -8.608714721      1.080      1.342
REMARK  10 active torsions:
REMARK  status: ('A' for Active; 'I' for Inactive)
REMARK    1  A    between atoms: C2_2  and  C3_3 
REMARK    2  A    between atoms: C3_3  and  C4_4 
REMARK    3  A    between atoms: C4_4  and  C5_5 
REMARK    4  A    between atoms: C5_5  and  C6_6 
REMARK    5  A    between atoms: C13_14  and  O2_15 
REMARK    6  A    between atoms: C14_17  and  C15_18 
REMARK    7  A    between atoms: N1_20  and  C17_22 
REMARK    8  A    between atoms: N2_24  and  O3_26 
REMARK    9  A    between atoms: C19_28  and  C20_29 
REMARK   10  A    between atoms: C20_29  and  O5_31 
ROOT
HETATM    1  C6  UNL     1      25.814 -24.746   4.791  1.00  0.00     0.015 C 
HETATM    2  C7  UNL     1      26.112 -25.492   3.764  1.00  0.00     0.123 A 
HETATM    3  O1  UNL     1      25.533 -26.751   3.492  1.00  0.00    -0.305 OA
HETATM    4  C8  UNL     1      26.081 -27.251   2.308  1.00  0.00     0.100 A 
HETATM    5  C9  UNL     1      26.999 -26.410   1.768  1.00  0.00     0.052 A 
HETATM    6  C10 UNL     1      27.645 -26.692   0.589  1.00  0.00     0.028 A 
HETATM    7  C11 UNL     1      27.357 -27.855  -0.059  1.00  0.00    -0.027 A 
HETATM    8  C12 UNL     1      28.029 -28.228  -1.342  1.00  0.00     0.051 C 
HETATM    9  C13 UNL     1      26.399 -28.783   0.450  1.00  0.00     0.081 A 
HETATM   10  C14 UNL     1      25.789 -28.456   1.621  1.00  0.00     0.021 A 
HETATM   11  C23 UNL     1      27.051 -25.233   2.692  1.00  0.00     0.218 A 
HETATM   12  O6  UNL     1      27.791 -24.263   2.498  1.00  0.00    -0.284 OA
ENDROOT
BRANCH  10  13
HETATM   13  C15 UNL     1      24.797 -29.289   2.327  1.00  0.00     0.090 C 
HETATM   14  C16 UNL     1      24.823 -30.761   2.273  1.00  0.00     0.013 C 
HETATM   15  N1  UNL     1      25.505 -31.815   2.449  1.00  0.00    -0.350 N 
HETATM   16  C19 UNL     1      23.321 -30.687   1.964  1.00  0.00     0.151 C 
ATOM     17  H1  UNL     1      26.465 -31.698   2.773  1.00  0.00     0.166 HD
HETATM   18  C22 UNL     1      23.569 -29.351   1.372  1.00  0.00     0.115 C 
HETATM   19 CL1  UNL     1      22.297 -28.181   1.834  1.00  0.00    -0.123 Cl
BRANCH  15  20
HETATM   20  C17 UNL     1      25.058 -33.127   2.238  1.00  0.00     0.097 C 
HETATM   21  C18 UNL     1      25.320 -33.814   0.914  1.00  0.00     0.091 C 
HETATM   22  N2  UNL     1      24.438 -33.783   3.116  1.00  0.00    -0.257 N 
ATOM     23  H2  UNL     1      24.271 -33.313   4.005  1.00  0.00     0.195 HD
BRANCH  22  24
HETATM   24  O3  UNL     1      23.978 -35.028   3.002  1.00  0.00    -0.288 OA
ATOM     25  H3  UNL     1      24.475 -35.795   2.740  1.00  0.00     0.244 HD
ENDBRANCH  22  24
ENDBRANCH  15  20
BRANCH  16  26
HETATM   26  C20 UNL     1      22.558 -30.687   3.214  1.00  0.00     0.269 C 
HETATM   27  O4  UNL     1      23.153 -30.308   4.296  1.00  0.00    -0.264 OA
BRANCH  26  28
HETATM   28  O5  UNL     1      21.264 -31.066   3.317  1.00  0.00    -0.326 OA
HETATM   29  C21 UNL     1      20.927 -32.451   3.046  1.00  0.00     0.213 C 
ENDBRANCH  26  28
ENDBRANCH  16  26
ENDBRANCH  10  13
BRANCH   9  30
HETATM   30  O2  UNL     1      26.168 -29.896  -0.248  1.00  0.00    -0.359 OA
ATOM     31  H2  UNL     1      25.416 -29.913  -0.829  1.00  0.00     0.217 HD
ENDBRANCH   9  30
BRANCH   1  32
HETATM   32  C5  UNL     1      26.341 -23.445   5.128  1.00  0.00     0.030 C 
BRANCH  32  33
HETATM   33  C4  UNL     1      25.587 -22.660   6.188  1.00  0.00     0.004 C 
BRANCH  33  34
HETATM   34  C3  UNL     1      25.247 -23.588   7.294  1.00  0.00    -0.000 C 
BRANCH  34  35
HETATM   35  C2  UNL     1      24.086 -23.191   8.150  1.00  0.00    -0.005 C 
HETATM   36  C1  UNL     1      23.333 -22.028   7.630  1.00  0.00     0.005 C 
ENDBRANCH  34  35
ENDBRANCH  33  34
ENDBRANCH  32  33
ENDBRANCH   1  32
TORSDOF 10
ENDMDL
MODEL 3
REMARK VINA RESULT: -8.319187835      3.651      8.093
REMARK  10 active torsions:
REMARK  status: ('A' for Active; 'I' for Inactive)
REMARK    1  A    between atoms: C2_2  and  C3_3 
REMARK    2  A    between atoms: C3_3  and  C4_4 
REMARK    3  A    between atoms: C4_4  and  C5_5 
REMARK    4  A    between atoms: C5_5  and  C6_6 
REMARK    5  A    between atoms: C13_14  and  O2_15 
REMARK    6  A    between atoms: C14_17  and  C15_18 
REMARK    7  A    between atoms: N1_20  and  C17_22 
REMARK    8  A    between atoms: N2_24  and  O3_26 
REMARK    9  A    between atoms: C19_28  and  C20_29 
REMARK   10  A    between atoms: C20_29  and  O5_31 
ROOT
HETATM    1  C6  UNL     1      23.661 -30.310   4.214  1.00  0.00     0.015 C 
HETATM    2  C7  UNL     1      24.151 -29.363   3.465  1.00  0.00     0.123 A 
HETATM    3  O1  UNL     1      25.041 -28.363   3.916  1.00  0.00    -0.305 OA
HETATM    4  C8  UNL     1      25.364 -27.530   2.842  1.00  0.00     0.100 A 
HETATM    5  C9  UNL     1      24.742 -27.903   1.694  1.00  0.00     0.052 A 
HETATM    6  C10 UNL     1      24.936 -27.238   0.507  1.00  0.00     0.028 A 
HETATM    7  C11 UNL     1      25.780 -26.168   0.482  1.00  0.00    -0.027 A 
HETATM    8  C12 UNL     1      26.030 -25.395  -0.774  1.00  0.00     0.051 C 
HETATM    9  C13 UNL     1      26.470 -25.725   1.650  1.00  0.00     0.081 A 
HETATM   10  C14 UNL     1      26.241 -26.418   2.799  1.00  0.00     0.021 A 
HETATM   11  C23 UNL     1      23.933 -29.110   2.054  1.00  0.00     0.218 A 
HETATM   12  O6  UNL     1      23.235 -29.716   1.236  1.00  0.00    -0.284 OA
ENDROOT
BRANCH  10  13
HETATM   13  C15 UNL     1      26.829 -26.103   4.115  1.00  0.00     0.090 C 
HETATM   14  C16 UNL     1      26.481 -24.882   4.861  1.00  0.00     0.013 C 
HETATM   15  N1  UNL     1      25.555 -24.169   5.353  1.00  0.00    -0.350 N 
HETATM   16  C19 UNL     1      27.990 -24.681   5.059  1.00  0.00     0.151 C 
ATOM     17  H1  UNL     1      24.599 -24.505   5.237  1.00  0.00     0.166 HD
HETATM   18  C22 UNL     1      28.195 -25.428   3.795  1.00  0.00     0.115 C 
HETATM   19 CL1  UNL     1      29.560 -26.577   3.925  1.00  0.00    -0.123 Cl
BRANCH  15  20
HETATM   20  C17 UNL     1      25.727 -22.960   6.042  1.00  0.00     0.097 C 
HETATM   21  C18 UNL     1      26.086 -21.700   5.283  1.00  0.00     0.091 C 
HETATM   22  N2  UNL     1      25.592 -22.865   7.290  1.00  0.00    -0.257 N 
ATOM     23  H2  UNL     1      25.346 -23.718   7.790  1.00  0.00     0.195 HD
BRANCH  22  24
HETATM   24  O3  UNL     1      25.737 -21.761   8.024  1.00  0.00    -0.288 OA
ATOM     25  H3  UNL     1      25.190 -21.488   8.752  1.00  0.00     0.244 HD
ENDBRANCH  22  24
ENDBRANCH  15  20
BRANCH  16  26
HETATM   26  C20 UNL     1      28.427 -25.372   6.274  1.00  0.00     0.269 C 
HETATM   27  O4  UNL     1      27.647 -26.264   6.787  1.00  0.00    -0.264 OA
BRANCH  26  28
HETATM   28  O5  UNL     1      29.598 -25.133   6.907  1.00  0.00    -0.326 OA
HETATM   29  C21 UNL     1      30.277 -26.244   7.547  1.00  0.00     0.213 C 
ENDBRANCH  26  28
ENDBRANCH  16  26
ENDBRANCH  10  13
BRANCH   9  30
HETATM   30  O2  UNL     1      27.284 -24.674   1.540  1.00  0.00    -0.359 OA
ATOM     31  H2  UNL     1      27.319 -24.056   2.261  1.00  0.00     0.217 HD
ENDBRANCH   9  30
BRANCH   1  32
HETATM   32  C5  UNL     1      22.767 -31.376   3.827  1.00  0.00     0.030 C 
BRANCH  32  33
HETATM   33  C4  UNL     1      23.367 -32.770   3.749  1.00  0.00     0.004 C 
BRANCH  33  34
HETATM   34  C3  UNL     1      22.563 -33.667   4.613  1.00  0.00    -0.000 C 
BRANCH  34  35
HETATM   35  C2  UNL     1      21.229 -34.075   4.074  1.00  0.00    -0.005 C 
HETATM   36  C1  UNL     1      21.234 -34.356   2.622  1.00  0.00     0.005 C 
ENDBRANCH  34  35
ENDBRANCH  33  34
ENDBRANCH  32  33
ENDBRANCH   1  32
TORSDOF 10
ENDMDL
MODEL 4
REMARK VINA RESULT: -8.291027744      1.150      1.270
REMARK  10 active torsions:
REMARK  status: ('A' for Active; 'I' for Inactive)
REMARK    1  A    between atoms: C2_2  and  C3_3 
REMARK    2  A    between atoms: C3_3  and  C4_4 
REMARK    3  A    between atoms: C4_4  and  C5_5 
REMARK    4  A    between atoms: C5_5  and  C6_6 
REMARK    5  A    between atoms: C13_14  and  O2_15 
REMARK    6  A    between atoms: C14_17  and  C15_18 
REMARK    7  A    between atoms: N1_20  and  C17_22 
REMARK    8  A    between atoms: N2_24  and  O3_26 
REMARK    9  A    between atoms: C19_28  and  C20_29 
REMARK   10  A    between atoms: C20_29  and  O5_31 
ROOT
HETATM    1  C6  UNL     1      26.247 -25.954   6.048  1.00  0.00     0.015 C 
HETATM    2  C7  UNL     1      26.351 -26.302   4.796  1.00  0.00     0.123 A 
HETATM    3  O1  UNL     1      25.962 -27.557   4.277  1.00  0.00    -0.305 OA
HETATM    4  C8  UNL     1      26.205 -27.570   2.902  1.00  0.00     0.100 A 
HETATM    5  C9  UNL     1      26.740 -26.403   2.460  1.00  0.00     0.052 A 
HETATM    6  C10 UNL     1      27.036 -26.188   1.136  1.00  0.00     0.028 A 
HETATM    7  C11 UNL     1      26.785 -27.179   0.236  1.00  0.00    -0.027 A 
HETATM    8  C12 UNL     1      27.090 -27.015  -1.220  1.00  0.00     0.051 C 
HETATM    9  C13 UNL     1      26.219 -28.429   0.629  1.00  0.00     0.081 A 
HETATM   10  C14 UNL     1      25.947 -28.590   1.953  1.00  0.00     0.021 A 
HETATM   11  C23 UNL     1      26.852 -25.534   3.674  1.00  0.00     0.218 A 
HETATM   12  O6  UNL     1      27.303 -24.384   3.634  1.00  0.00    -0.284 OA
ENDROOT
BRANCH  10  13
HETATM   13  C15 UNL     1      25.391 -29.812   2.565  1.00  0.00     0.090 C 
HETATM   14  C16 UNL     1      25.320 -31.093   1.842  1.00  0.00     0.013 C 
HETATM   15  N1  UNL     1      25.951 -31.976   1.186  1.00  0.00    -0.350 N 
HETATM   16  C19 UNL     1      23.865 -31.181   2.324  1.00  0.00     0.151 C 
ATOM     17  H1  UNL     1      26.950 -31.827   1.049  1.00  0.00     0.166 HD
HETATM   18  C22 UNL     1      23.851 -29.699   2.366  1.00  0.00     0.115 C 
HETATM   19 CL1  UNL     1      23.026 -29.091   3.831  1.00  0.00    -0.123 Cl
BRANCH  15  20
HETATM   20  C17 UNL     1      25.398 -33.139   0.631  1.00  0.00     0.097 C 
HETATM   21  C18 UNL     1      25.553 -34.466   1.344  1.00  0.00     0.091 C 
HETATM   22  N2  UNL     1      24.759 -33.137  -0.454  1.00  0.00    -0.257 N 
ATOM     23  H2  UNL     1      24.656 -32.237  -0.922  1.00  0.00     0.195 HD
BRANCH  22  24
HETATM   24  O3  UNL     1      24.202 -34.190  -1.052  1.00  0.00    -0.288 OA
ATOM     25  H3  UNL     1      24.417 -35.104  -0.905  1.00  0.00     0.244 HD
ENDBRANCH  22  24
ENDBRANCH  15  20
BRANCH  16  26
HETATM   26  C20 UNL     1      23.814 -31.846   3.628  1.00  0.00     0.269 C 
HETATM   27  O4  UNL     1      22.661 -32.182   4.101  1.00  0.00    -0.264 OA
BRANCH  26  28
HETATM   28  O5  UNL     1      24.901 -32.128   4.382  1.00  0.00    -0.326 OA
HETATM   29  C21 UNL     1      24.710 -32.401   5.794  1.00  0.00     0.213 C 
ENDBRANCH  26  28
ENDBRANCH  16  26
ENDBRANCH  10  13
BRANCH   9  30
HETATM   30  O2  UNL     1      25.998 -29.346  -0.315  1.00  0.00    -0.359 OA
ATOM     31  H2  UNL     1      25.157 -29.788  -0.322  1.00  0.00     0.217 HD
ENDBRANCH   9  30
BRANCH   1  32
HETATM   32  C5  UNL     1      26.601 -24.691   6.651  1.00  0.00     0.030 C 
BRANCH  32  33
HETATM   33  C4  UNL     1      25.468 -23.900   7.283  1.00  0.00     0.004 C 
BRANCH  33  34
HETATM   34  C3  UNL     1      25.123 -22.782   6.373  1.00  0.00    -0.000 C 
BRANCH  34  35
HETATM   35  C2  UNL     1      24.874 -21.459   7.025  1.00  0.00    -0.005 C 
HETATM   36  C1  UNL     1      23.619 -21.405   7.805  1.00  0.00     0.005 C 
ENDBRANCH  34  35
ENDBRANCH  33  34
ENDBRANCH  32  33
ENDBRANCH   1  32
TORSDOF 10
ENDMDL
MODEL 5
REMARK VINA RESULT: -8.249593482      3.525      8.044
REMARK  10 active torsions:
REMARK  status: ('A' for Active; 'I' for Inactive)
REMARK    1  A    between atoms: C2_2  and  C3_3 
REMARK    2  A    between atoms: C3_3  and  C4_4 
REMARK    3  A    between atoms: C4_4  and  C5_5 
REMARK    4  A    between atoms: C5_5  and  C6_6 
REMARK    5  A    between atoms: C13_14  and  O2_15 
REMARK    6  A    between atoms: C14_17  and  C15_18 
REMARK    7  A    between atoms: N1_20  and  C17_22 
REMARK    8  A    between atoms: N2_24  and  O3_26 
REMARK    9  A    between atoms: C19_28  and  C20_29 
REMARK   10  A    between atoms: C20_29  and  O5_31 
ROOT
HETATM    1  C6  UNL     1      23.580 -30.355   4.260  1.00  0.00     0.015 C 
HETATM    2  C7  UNL     1      24.037 -29.388   3.515  1.00  0.00     0.123 A 
HETATM    3  O1  UNL     1      24.920 -28.379   3.961  1.00  0.00    -0.305 OA
HETATM    4  C8  UNL     1      25.205 -27.526   2.893  1.00  0.00     0.100 A 
HETATM    5  C9  UNL     1      24.564 -27.891   1.754  1.00  0.00     0.052 A 
HETATM    6  C10 UNL     1      24.720 -27.206   0.574  1.00  0.00     0.028 A 
HETATM    7  C11 UNL     1      25.545 -26.121   0.546  1.00  0.00    -0.027 A 
HETATM    8  C12 UNL     1      25.754 -25.325  -0.703  1.00  0.00     0.051 C 
HETATM    9  C13 UNL     1      26.253 -25.684   1.705  1.00  0.00     0.081 A 
HETATM   10  C14 UNL     1      26.062 -26.398   2.848  1.00  0.00     0.021 A 
HETATM   11  C23 UNL     1      23.784 -29.117   2.113  1.00  0.00     0.218 A 
HETATM   12  O6  UNL     1      23.077 -29.723   1.301  1.00  0.00    -0.284 OA
ENDROOT
BRANCH  10  13
HETATM   13  C15 UNL     1      26.674 -26.093   4.155  1.00  0.00     0.090 C 
HETATM   14  C16 UNL     1      26.370 -24.857   4.898  1.00  0.00     0.013 C 
HETATM   15  N1  UNL     1      25.472 -24.114   5.395  1.00  0.00    -0.350 N 
HETATM   16  C19 UNL     1      27.887 -24.700   5.078  1.00  0.00     0.151 C 
ATOM     17  H1  UNL     1      24.505 -24.422   5.291  1.00  0.00     0.166 HD
HETATM   18  C22 UNL     1      28.056 -25.461   3.816  1.00  0.00     0.115 C 
HETATM   19 CL1  UNL     1      29.387 -26.649   3.938  1.00  0.00    -0.123 Cl
BRANCH  15  20
HETATM   20  C17 UNL     1      25.688 -22.907   6.075  1.00  0.00     0.097 C 
HETATM   21  C18 UNL     1      26.090 -21.666   5.305  1.00  0.00     0.091 C 
HETATM   22  N2  UNL     1      25.558 -22.797   7.322  1.00  0.00    -0.257 N 
ATOM     23  H2  UNL     1      25.282 -23.637   7.829  1.00  0.00     0.195 HD
BRANCH  22  24
HETATM   24  O3  UNL     1      25.743 -21.694   8.047  1.00  0.00    -0.288 OA
ATOM     25  H3  UNL     1      25.545 -20.802   7.783  1.00  0.00     0.244 HD
ENDBRANCH  22  24
ENDBRANCH  15  20
BRANCH  16  26
HETATM   26  C20 UNL     1      28.317 -25.396   6.292  1.00  0.00     0.269 C 
HETATM   27  O4  UNL     1      27.562 -26.332   6.762  1.00  0.00    -0.264 OA
BRANCH  26  28
HETATM   28  O5  UNL     1      29.456 -25.119   6.966  1.00  0.00    -0.326 OA
HETATM   29  C21 UNL     1      30.283 -26.226   7.410  1.00  0.00     0.213 C 
ENDBRANCH  26  28
ENDBRANCH  16  26
ENDBRANCH  10  13
BRANCH   9  30
HETATM   30  O2  UNL     1      27.047 -24.617   1.593  1.00  0.00    -0.359 OA
ATOM     31  H2  UNL     1      26.641 -23.761   1.521  1.00  0.00     0.217 HD
ENDBRANCH   9  30
BRANCH   1  32
HETATM   32  C5  UNL     1      22.696 -31.430   3.876  1.00  0.00     0.030 C 
BRANCH  32  33
HETATM   33  C4  UNL     1      23.076 -32.822   4.349  1.00  0.00     0.004 C 
BRANCH  33  34
HETATM   34  C3  UNL     1      24.245 -33.275   3.558  1.00  0.00    -0.000 C 
BRANCH  34  35
HETATM   35  C2  UNL     1      24.079 -33.253   2.071  1.00  0.00    -0.005 C 
HETATM   36  C1  UNL     1      25.205 -32.617   1.355  1.00  0.00     0.005 C 
ENDBRANCH  34  35
ENDBRANCH  33  34
ENDBRANCH  32  33
ENDBRANCH   1  32
TORSDOF 10
ENDMDL
