MODEL 1
REMARK VINA RESULT: -6.444714688      0.000      0.000
REMARK  3 active torsions:
REMARK  status: ('A' for Active; 'I' for Inactive)
REMARK    1  A    between atoms: N2_4  and  N3_6 
REMARK    2  A    between atoms: N3_6  and  C3_8 
REMARK    3  A    between atoms: N4_9  and  C4_10 
ROOT
HETATM    1  C3  UNL     1      14.357 -19.922  -7.390  1.00  0.00     0.770 A 
HETATM    2  N4  UNL     1      13.871 -20.290  -8.595  1.00  0.00     0.110 N 
HETATM    3  N9  UNL     1      13.974 -21.605  -8.684  1.00  0.00    -0.094 N 
ATOM      4  H9  UNL     1      13.685 -22.166  -9.485  1.00  0.00     0.207 HD
HETATM    5  C5  UNL     1      14.520 -22.086  -7.552  1.00  0.00     0.736 A 
HETATM    6  N10 UNL     1      14.844 -23.312  -7.109  1.00  0.00    -0.177 N 
ATOM      7  H10 UNL     1      14.661 -24.106  -7.722  1.00  0.00     0.185 HD
HETATM    8  C6  UNL     1      15.394 -23.558  -5.909  1.00  0.00     0.116 A 
HETATM    9  N11 UNL     1      15.621 -22.495  -5.125  1.00  0.00    -0.170 N 
HETATM   10  C7  UNL     1      15.312 -21.208  -5.516  1.00  0.00     0.716 A 
HETATM   11  N12 UNL     1      15.553 -20.251  -4.728  1.00  0.00    -0.233 N 
ATOM     12 1H12 UNL     1      15.324 -19.299  -5.017  1.00  0.00     0.174 HD
ATOM     13 2H12 UNL     1      15.968 -20.386  -3.806  1.00  0.00     0.174 HD
HETATM   14  N13 UNL     1      14.763 -21.031  -6.731  1.00  0.00     0.204 N 
HETATM   15  C8  UNL     1      16.187 -22.450  -3.815  1.00  0.00     0.149 C 
HETATM   16  C9  UNL     1      17.543 -23.166  -3.842  1.00  0.00     0.021 C 
HETATM   17  C10 UNL     1      17.254 -24.625  -3.705  1.00  0.00     0.002 C 
HETATM   18  C11 UNL     1      17.049 -25.219  -5.073  1.00  0.00     0.007 C 
HETATM   19  C12 UNL     1      15.670 -24.967  -5.620  1.00  0.00     0.078 C 
ENDROOT
BRANCH   2  20
HETATM   20  C4  UNL     1      13.347 -19.420  -9.585  1.00  0.00     0.750 A 
HETATM   21  N5  UNL     1      13.988 -18.605 -10.427  1.00  0.00    -0.113 N 
HETATM   22  N6  UNL     1      13.086 -17.989 -11.160  1.00  0.00    -0.213 N 
ATOM     23  H5  UNL     1      14.999 -18.482 -10.491  1.00  0.00     0.207 HD
HETATM   24  N7  UNL     1      11.881 -18.386 -10.812  1.00  0.00    -0.213 N 
ATOM     25  H6  UNL     1      13.290 -17.307 -11.890  1.00  0.00     0.210 HD
HETATM   26  N8  UNL     1      12.040 -19.266  -9.843  1.00  0.00    -0.113 N 
ATOM     27  H7  UNL     1      10.996 -18.073 -11.213  1.00  0.00     0.210 HD
ATOM     28  H8  UNL     1      11.285 -19.755  -9.363  1.00  0.00     0.207 HD
ENDBRANCH   2  20
BRANCH   1  29
HETATM   29  N3  UNL     1      14.419 -18.718  -6.953  1.00  0.00    -0.127 N 
ATOM     30  H3  UNL     1      15.269 -18.180  -7.127  1.00  0.00     0.205 HD
BRANCH  29  31
HETATM   31  N2  UNL     1      13.384 -18.112  -6.253  1.00  0.00    -0.277 N 
HETATM   32  C2  UNL     1      12.625 -17.197  -6.720  1.00  0.00     0.104 C 
HETATM   33  C1  UNL     1      11.558 -16.631  -5.879  1.00  0.00     0.086 C 
HETATM   34  N1  UNL     1      12.799 -16.725  -8.027  1.00  0.00    -0.087 NA
ATOM     35  H2  UNL     1      13.217 -18.421  -5.295  1.00  0.00     0.188 HD
ENDBRANCH  29  31
ENDBRANCH   1  29
TORSDOF 3
ENDMDL
MODEL 2
REMARK VINA RESULT: -5.916554763      3.001      4.135
REMARK  3 active torsions:
REMARK  status: ('A' for Active; 'I' for Inactive)
REMARK    1  A    between atoms: N2_4  and  N3_6 
REMARK    2  A    between atoms: N3_6  and  C3_8 
REMARK    3  A    between atoms: N4_9  and  C4_10 
ROOT
HETATM    1  C3  UNL     1      15.309 -22.086 -10.303  1.00  0.00     0.770 A 
HETATM    2  N4  UNL     1      16.352 -22.524 -11.043  1.00  0.00     0.110 N 
HETATM    3  N9  UNL     1      17.198 -23.126 -10.224  1.00  0.00    -0.094 N 
ATOM      4  H9  UNL     1      18.080 -23.557 -10.501  1.00  0.00     0.207 HD
HETATM    5  C5  UNL     1      16.714 -23.081  -8.970  1.00  0.00     0.736 A 
HETATM    6  N10 UNL     1      17.143 -23.522  -7.777  1.00  0.00    -0.177 N 
ATOM      7  H10 UNL     1      18.036 -24.014  -7.742  1.00  0.00     0.185 HD
HETATM    8  C6  UNL     1      16.472 -23.357  -6.626  1.00  0.00     0.116 A 
HETATM    9  N11 UNL     1      15.301 -22.709  -6.703  1.00  0.00    -0.170 N 
HETATM   10  C7  UNL     1      14.799 -22.229  -7.895  1.00  0.00     0.716 A 
HETATM   11  N12 UNL     1      13.689 -21.625  -7.898  1.00  0.00    -0.233 N 
ATOM     12 1H12 UNL     1      13.318 -21.271  -8.779  1.00  0.00     0.174 HD
ATOM     13 2H12 UNL     1      13.141 -21.476  -7.051  1.00  0.00     0.174 HD
HETATM   14  N13 UNL     1      15.523 -22.427  -9.012  1.00  0.00     0.204 N 
HETATM   15  C8  UNL     1      14.380 -22.391  -5.660  1.00  0.00     0.149 C 
HETATM   16  C9  UNL     1      15.131 -21.635  -4.556  1.00  0.00     0.021 C 
HETATM   17  C10 UNL     1      15.790 -22.672  -3.707  1.00  0.00     0.002 C 
HETATM   18  C11 UNL     1      17.156 -22.972  -4.263  1.00  0.00     0.007 C 
HETATM   19  C12 UNL     1      17.116 -23.916  -5.435  1.00  0.00     0.078 C 
ENDROOT
BRANCH   2  20
HETATM   20  C4  UNL     1      16.508 -22.364 -12.443  1.00  0.00     0.750 A 
HETATM   21  N5  UNL     1      16.253 -23.225 -13.431  1.00  0.00    -0.113 N 
HETATM   22  N6  UNL     1      16.556 -22.638 -14.569  1.00  0.00    -0.213 N 
ATOM     23  H5  UNL     1      15.889 -24.172 -13.323  1.00  0.00     0.207 HD
HETATM   24  N7  UNL     1      16.998 -21.420 -14.339  1.00  0.00    -0.213 N 
ATOM     25  H6  UNL     1      16.461 -23.062 -15.491  1.00  0.00     0.210 HD
HETATM   26  N8  UNL     1      16.969 -21.250 -13.032  1.00  0.00    -0.113 N 
ATOM     27  H7  UNL     1      17.304 -20.741 -15.036  1.00  0.00     0.210 HD
ATOM     28  H8  UNL     1      17.253 -20.402 -12.542  1.00  0.00     0.207 HD
ENDBRANCH   2  20
BRANCH   1  29
HETATM   29  N3  UNL     1      14.292 -21.453 -10.760  1.00  0.00    -0.127 N 
ATOM     30  H3  UNL     1      13.475 -21.991 -11.052  1.00  0.00     0.205 HD
BRANCH  29  31
HETATM   31  N2  UNL     1      14.250 -20.070 -10.875  1.00  0.00    -0.277 N 
HETATM   32  C2  UNL     1      13.278 -19.335 -10.494  1.00  0.00     0.104 C 
HETATM   33  C1  UNL     1      13.350 -17.876 -10.669  1.00  0.00     0.086 C 
HETATM   34  N1  UNL     1      12.140 -19.905  -9.909  1.00  0.00    -0.087 NA
ATOM     35  H2  UNL     1      15.055 -19.607 -11.296  1.00  0.00     0.188 HD
ENDBRANCH  29  31
ENDBRANCH   1  29
TORSDOF 3
ENDMDL
MODEL 3
REMARK VINA RESULT: -5.884747439      2.507      7.062
REMARK  3 active torsions:
REMARK  status: ('A' for Active; 'I' for Inactive)
REMARK    1  A    between atoms: N2_4  and  N3_6 
REMARK    2  A    between atoms: N3_6  and  C3_8 
REMARK    3  A    between atoms: N4_9  and  C4_10 
ROOT
HETATM    1  C3  UNL     1      14.871 -23.515  -7.587  1.00  0.00     0.770 A 
HETATM    2  N4  UNL     1      14.747 -24.160  -6.406  1.00  0.00     0.110 N 
HETATM    3  N9  UNL     1      14.132 -23.344  -5.567  1.00  0.00    -0.094 N 
ATOM      4  H9  UNL     1      13.900 -23.560  -4.598  1.00  0.00     0.207 HD
HETATM    5  C5  UNL     1      13.860 -22.184  -6.192  1.00  0.00     0.736 A 
HETATM    6  N10 UNL     1      13.266 -21.035  -5.831  1.00  0.00    -0.177 N 
ATOM      7  H10 UNL     1      12.916 -20.956  -4.877  1.00  0.00     0.185 HD
HETATM    8  C6  UNL     1      13.102 -19.983  -6.649  1.00  0.00     0.116 A 
HETATM    9  N11 UNL     1      13.570 -20.115  -7.897  1.00  0.00    -0.170 N 
HETATM   10  C7  UNL     1      14.190 -21.267  -8.336  1.00  0.00     0.716 A 
HETATM   11  N12 UNL     1      14.609 -21.326  -9.526  1.00  0.00    -0.233 N 
ATOM     12 1H12 UNL     1      15.068 -22.177  -9.851  1.00  0.00     0.174 HD
ATOM     13 2H12 UNL     1      14.508 -20.554 -10.186  1.00  0.00     0.174 HD
HETATM   14  N13 UNL     1      14.323 -22.285  -7.466  1.00  0.00     0.204 N 
HETATM   15  C8  UNL     1      13.538 -19.177  -8.973  1.00  0.00     0.149 C 
HETATM   16  C9  UNL     1      14.170 -17.863  -8.496  1.00  0.00     0.021 C 
HETATM   17  C10 UNL     1      13.099 -17.118  -7.768  1.00  0.00     0.002 C 
HETATM   18  C11 UNL     1      13.121 -17.515  -6.316  1.00  0.00     0.007 C 
HETATM   19  C12 UNL     1      12.427 -18.825  -6.058  1.00  0.00     0.078 C 
ENDROOT
BRANCH   2  20
HETATM   20  C4  UNL     1      15.196 -25.474  -6.122  1.00  0.00     0.750 A 
HETATM   21  N5  UNL     1      15.056 -26.595  -6.835  1.00  0.00    -0.113 N 
HETATM   22  N6  UNL     1      15.633 -27.573  -6.171  1.00  0.00    -0.213 N 
ATOM     23  H5  UNL     1      14.584 -26.677  -7.736  1.00  0.00     0.207 HD
HETATM   24  N7  UNL     1      16.141 -27.112  -5.049  1.00  0.00    -0.213 N 
ATOM     25  H6  UNL     1      15.680 -28.544  -6.481  1.00  0.00     0.210 HD
HETATM   26  N8  UNL     1      15.874 -25.821  -5.017  1.00  0.00    -0.113 N 
ATOM     27  H7  UNL     1      16.644 -27.648  -4.342  1.00  0.00     0.210 HD
ATOM     28  H8  UNL     1      16.141 -25.183  -4.268  1.00  0.00     0.207 HD
ENDBRANCH   2  20
BRANCH   1  29
HETATM   29  N3  UNL     1      15.420 -23.998  -8.640  1.00  0.00    -0.127 N 
ATOM     30  H3  UNL     1      14.831 -24.484  -9.316  1.00  0.00     0.205 HD
BRANCH  29  31
HETATM   31  N2  UNL     1      16.780 -23.890  -8.903  1.00  0.00    -0.277 N 
HETATM   32  C2  UNL     1      17.280 -23.471 -10.000  1.00  0.00     0.104 C 
HETATM   33  C1  UNL     1      18.742 -23.401 -10.159  1.00  0.00     0.086 C 
HETATM   34  N1  UNL     1      16.450 -23.078 -11.057  1.00  0.00    -0.087 NA
ATOM     35  H2  UNL     1      17.427 -24.166  -8.164  1.00  0.00     0.188 HD
ENDBRANCH  29  31
ENDBRANCH   1  29
TORSDOF 3
ENDMDL
MODEL 4
REMARK VINA RESULT: -5.769650219      2.135      4.316
REMARK  3 active torsions:
REMARK  status: ('A' for Active; 'I' for Inactive)
REMARK    1  A    between atoms: N2_4  and  N3_6 
REMARK    2  A    between atoms: N3_6  and  C3_8 
REMARK    3  A    between atoms: N4_9  and  C4_10 
ROOT
HETATM    1  C3  UNL     1      13.499 -17.870  -6.045  1.00  0.00     0.770 A 
HETATM    2  N4  UNL     1      12.936 -17.401  -4.910  1.00  0.00     0.110 N 
HETATM    3  N9  UNL     1      13.419 -18.108  -3.903  1.00  0.00    -0.094 N 
ATOM      4  H9  UNL     1      13.174 -17.978  -2.921  1.00  0.00     0.207 HD
HETATM    5  C5  UNL     1      14.283 -19.024  -4.375  1.00  0.00     0.736 A 
HETATM    6  N10 UNL     1      15.044 -19.980  -3.816  1.00  0.00    -0.177 N 
ATOM      7  H10 UNL     1      15.005 -20.090  -2.803  1.00  0.00     0.185 HD
HETATM    8  C6  UNL     1      15.852 -20.799  -4.507  1.00  0.00     0.116 A 
HETATM    9  N11 UNL     1      15.884 -20.630  -5.836  1.00  0.00    -0.170 N 
HETATM   10  C7  UNL     1      15.130 -19.668  -6.476  1.00  0.00     0.716 A 
HETATM   11  N12 UNL     1      15.205 -19.563  -7.733  1.00  0.00    -0.233 N 
ATOM     12 1H12 UNL     1      14.648 -18.852  -8.207  1.00  0.00     0.174 HD
ATOM     13 2H12 UNL     1      15.805 -20.160  -8.302  1.00  0.00     0.174 HD
HETATM   14  N13 UNL     1      14.339 -18.880  -5.726  1.00  0.00     0.204 N 
HETATM   15  C8  UNL     1      16.639 -21.344  -6.815  1.00  0.00     0.149 C 
HETATM   16  C9  UNL     1      16.356 -22.843  -6.656  1.00  0.00     0.021 C 
HETATM   17  C10 UNL     1      17.249 -23.328  -5.561  1.00  0.00     0.002 C 
HETATM   18  C11 UNL     1      16.541 -23.177  -4.241  1.00  0.00     0.007 C 
HETATM   19  C12 UNL     1      16.597 -21.773  -3.705  1.00  0.00     0.078 C 
ENDROOT
BRANCH   2  20
HETATM   20  C4  UNL     1      11.998 -16.342  -4.820  1.00  0.00     0.750 A 
HETATM   21  N5  UNL     1      10.809 -16.205  -5.415  1.00  0.00    -0.113 N 
HETATM   22  N6  UNL     1      10.297 -15.055  -5.034  1.00  0.00    -0.213 N 
ATOM     23  H5  UNL     1      10.377 -16.874  -6.051  1.00  0.00     0.207 HD
HETATM   24  N7  UNL     1      11.123 -14.448  -4.210  1.00  0.00    -0.213 N 
ATOM     25  H6  UNL     1       9.392 -14.689  -5.333  1.00  0.00     0.210 HD
HETATM   26  N8  UNL     1      12.170 -15.239  -4.077  1.00  0.00    -0.113 N 
ATOM     27  H7  UNL     1      10.982 -13.542  -3.762  1.00  0.00     0.210 HD
ATOM     28  H8  UNL     1      12.986 -15.042  -3.498  1.00  0.00     0.207 HD
ENDBRANCH   2  20
BRANCH   1  29
HETATM   29  N3  UNL     1      13.267 -17.425  -7.225  1.00  0.00    -0.127 N 
ATOM     30  H3  UNL     1      13.806 -16.625  -7.558  1.00  0.00     0.205 HD
BRANCH  29  31
HETATM   31  N2  UNL     1      12.316 -17.981  -8.072  1.00  0.00    -0.277 N 
HETATM   32  C2  UNL     1      12.492 -18.212  -9.315  1.00  0.00     0.104 C 
HETATM   33  C1  UNL     1      11.406 -18.807 -10.110  1.00  0.00     0.086 C 
HETATM   34  N1  UNL     1      13.711 -17.902  -9.932  1.00  0.00    -0.087 NA
ATOM     35  H2  UNL     1      11.411 -18.223  -7.670  1.00  0.00     0.188 HD
ENDBRANCH  29  31
ENDBRANCH   1  29
TORSDOF 3
ENDMDL
MODEL 5
REMARK VINA RESULT: -5.760677941      2.532      7.334
REMARK  3 active torsions:
REMARK  status: ('A' for Active; 'I' for Inactive)
REMARK    1  A    between atoms: N2_4  and  N3_6 
REMARK    2  A    between atoms: N3_6  and  C3_8 
REMARK    3  A    between atoms: N4_9  and  C4_10 
ROOT
HETATM    1  C3  UNL     1      13.513 -19.054  -6.182  1.00  0.00     0.770 A 
HETATM    2  N4  UNL     1      14.497 -19.332  -5.299  1.00  0.00     0.110 N 
HETATM    3  N9  UNL     1      14.472 -18.397  -4.364  1.00  0.00    -0.094 N 
ATOM      4  H9  UNL     1      15.101 -18.347  -3.563  1.00  0.00     0.207 HD
HETATM    5  C5  UNL     1      13.485 -17.524  -4.634  1.00  0.00     0.736 A 
HETATM    6  N10 UNL     1      13.019 -16.413  -4.040  1.00  0.00    -0.177 N 
ATOM      7  H10 UNL     1      13.473 -16.105  -3.180  1.00  0.00     0.185 HD
HETATM    8  C6  UNL     1      11.994 -15.683  -4.505  1.00  0.00     0.116 A 
HETATM    9  N11 UNL     1      11.416 -16.113  -5.635  1.00  0.00    -0.170 N 
HETATM   10  C7  UNL     1      11.842 -17.245  -6.299  1.00  0.00     0.716 A 
HETATM   11  N12 UNL     1      11.253 -17.595  -7.360  1.00  0.00    -0.233 N 
ATOM     12 1H12 UNL     1      11.568 -18.432  -7.851  1.00  0.00     0.174 HD
ATOM     13 2H12 UNL     1      10.469 -17.075  -7.754  1.00  0.00     0.174 HD
HETATM   14  N13 UNL     1      12.876 -17.932  -5.779  1.00  0.00     0.204 N 
HETATM   15  C8  UNL     1      10.319 -15.549  -6.355  1.00  0.00     0.149 C 
HETATM   16  C9  UNL     1      10.636 -14.078  -6.657  1.00  0.00     0.021 C 
HETATM   17  C10 UNL     1      10.273 -13.307  -5.429  1.00  0.00     0.002 C 
HETATM   18  C11 UNL     1      11.465 -13.250  -4.512  1.00  0.00     0.007 C 
HETATM   19  C12 UNL     1      11.643 -14.507  -3.705  1.00  0.00     0.078 C 
ENDROOT
BRANCH   2  20
HETATM   20  C4  UNL     1      15.395 -20.428  -5.367  1.00  0.00     0.750 A 
HETATM   21  N5  UNL     1      16.579 -20.521  -5.977  1.00  0.00    -0.113 N 
HETATM   22  N6  UNL     1      17.046 -21.734  -5.771  1.00  0.00    -0.213 N 
ATOM     23  H5  UNL     1      17.040 -19.783  -6.509  1.00  0.00     0.207 HD
HETATM   24  N7  UNL     1      16.194 -22.423  -5.044  1.00  0.00    -0.213 N 
ATOM     25  H6  UNL     1      17.937 -22.086  -6.121  1.00  0.00     0.210 HD
HETATM   26  N8  UNL     1      15.177 -21.621  -4.794  1.00  0.00    -0.113 N 
ATOM     27  H7  UNL     1      16.299 -23.389  -4.734  1.00  0.00     0.210 HD
ATOM     28  H8  UNL     1      14.352 -21.869  -4.249  1.00  0.00     0.207 HD
ENDBRANCH   2  20
BRANCH   1  29
HETATM   29  N3  UNL     1      13.238 -19.746  -7.226  1.00  0.00    -0.127 N 
ATOM     30  H3  UNL     1      12.727 -20.621  -7.108  1.00  0.00     0.205 HD
BRANCH  29  31
HETATM   31  N2  UNL     1      13.603 -19.359  -8.509  1.00  0.00    -0.277 N 
HETATM   32  C2  UNL     1      12.841 -19.412  -9.531  1.00  0.00     0.104 C 
HETATM   33  C1  UNL     1      13.343 -18.972 -10.843  1.00  0.00     0.086 C 
HETATM   34  N1  UNL     1      11.528 -19.886  -9.418  1.00  0.00    -0.087 NA
ATOM     35  H2  UNL     1      14.551 -19.007  -8.644  1.00  0.00     0.188 HD
ENDBRANCH  29  31
ENDBRANCH   1  29
TORSDOF 3
ENDMDL
