MODEL 1
REMARK VINA RESULT: -7.099141100      0.000      0.000
REMARK  2 active torsions:
REMARK  status: ('A' for Active; 'I' for Inactive)
REMARK    1  A    between atoms: N2_8  and  O1_9 
REMARK    2  A    between atoms: C6_11  and  C7_12 
ROOT
HETATM    1  C1  UNL     1      17.115 -23.566 -10.210  1.00  0.00     0.057 C 
HETATM    2  C2  UNL     1      17.627 -22.865 -11.414  1.00  0.00     0.036 A 
HETATM    3  C3  UNL     1      18.969 -22.586 -11.510  1.00  0.00     0.029 A 
HETATM    4  C4  UNL     1      19.919 -22.977 -10.423  1.00  0.00     0.069 C 
HETATM    5  N1  UNL     1      19.401 -21.946 -12.624  1.00  0.00    -0.268 N 
HETATM    6  C5  UNL     1      20.626 -21.544 -13.001  1.00  0.00     0.212 A 
HETATM    7  S1  UNL     1      21.974 -21.768 -12.105  1.00  0.00    -0.038 SA
HETATM    8  N2  UNL     1      20.537 -20.943 -14.215  1.00  0.00    -0.189 N 
HETATM    9  C6  UNL     1      19.263 -20.947 -14.636  1.00  0.00     0.162 A 
HETATM   10  C10 UNL     1      18.560 -21.589 -13.610  1.00  0.00     0.194 A 
HETATM   11  O3  UNL     1      17.291 -21.869 -13.487  1.00  0.00    -0.254 OA
HETATM   12  C11 UNL     1      16.803 -22.483 -12.445  1.00  0.00     0.297 A 
HETATM   13  O4  UNL     1      15.554 -22.745 -12.350  1.00  0.00    -0.259 OA
ENDROOT
BRANCH   9  14
HETATM   14  C7  UNL     1      18.705 -20.414 -15.871  1.00  0.00     0.159 C 
HETATM   15  N3  UNL     1      17.436 -20.524 -16.210  1.00  0.00    -0.307 N 
HETATM   16  C8  UNL     1      17.240 -19.885 -17.491  1.00  0.00     0.265 C 
ATOM     17  H3  UNL     1      16.711 -20.984 -15.659  1.00  0.00     0.170 HD
HETATM   18  O2  UNL     1      16.119 -19.543 -17.907  1.00  0.00    -0.269 OA
HETATM   19  C9  UNL     1      18.583 -19.756 -18.116  1.00  0.00     0.309 C 
HETATM   20  N4  UNL     1      18.883 -18.456 -18.630  1.00  0.00    -0.091 NA
HETATM   21  N7  UNL     1      19.395 -19.719 -16.875  1.00  0.00    -0.229 N 
HETATM   22  N5  UNL     1      19.936 -17.908 -17.911  1.00  0.00    -0.015 NA
HETATM   23  N6  UNL     1      20.506 -18.993 -17.232  1.00  0.00    -0.006 NA
ENDBRANCH   9  14
BRANCH   8  24
HETATM   24  O1  UNL     1      21.600 -20.416 -14.892  1.00  0.00    -0.280 OA
ATOM     25  H1  UNL     1      21.880 -19.511 -14.827  1.00  0.00     0.245 HD
ENDBRANCH   8  24
TORSDOF 2
ENDMDL
MODEL 2
REMARK VINA RESULT: -6.913773983      3.608      5.299
REMARK  2 active torsions:
REMARK  status: ('A' for Active; 'I' for Inactive)
REMARK    1  A    between atoms: N2_8  and  O1_9 
REMARK    2  A    between atoms: C6_11  and  C7_12 
ROOT
HETATM    1  C1  UNL     1      12.379 -19.857  -8.346  1.00  0.00     0.057 C 
HETATM    2  C2  UNL     1      13.447 -20.521  -9.134  1.00  0.00     0.036 A 
HETATM    3  C3  UNL     1      14.175 -21.535  -8.560  1.00  0.00     0.029 A 
HETATM    4  C4  UNL     1      13.908 -21.979  -7.156  1.00  0.00     0.069 C 
HETATM    5  N1  UNL     1      15.142 -22.119  -9.309  1.00  0.00    -0.268 N 
HETATM    6  C5  UNL     1      16.002 -23.114  -9.035  1.00  0.00     0.212 A 
HETATM    7  S1  UNL     1      16.062 -23.896  -7.602  1.00  0.00    -0.038 SA
HETATM    8  N2  UNL     1      16.778 -23.337 -10.125  1.00  0.00    -0.189 N 
HETATM    9  C6  UNL     1      16.435 -22.495 -11.113  1.00  0.00     0.162 A 
HETATM   10  C10 UNL     1      15.394 -21.732 -10.572  1.00  0.00     0.194 A 
HETATM   11  O3  UNL     1      14.684 -20.765 -11.087  1.00  0.00    -0.254 OA
HETATM   12  C11 UNL     1      13.738 -20.157 -10.427  1.00  0.00     0.297 A 
HETATM   13  O4  UNL     1      13.057 -19.212 -10.957  1.00  0.00    -0.259 OA
ENDROOT
BRANCH   9  14
HETATM   14  C7  UNL     1      16.996 -22.377 -12.451  1.00  0.00     0.159 C 
HETATM   15  N3  UNL     1      16.310 -22.596 -13.556  1.00  0.00    -0.307 N 
HETATM   16  C8  UNL     1      17.179 -22.388 -14.692  1.00  0.00     0.265 C 
ATOM     17  H3  UNL     1      15.328 -22.868 -13.601  1.00  0.00     0.170 HD
HETATM   18  O2  UNL     1      16.747 -22.200 -15.842  1.00  0.00    -0.269 OA
HETATM   19  C9  UNL     1      18.573 -22.449 -14.181  1.00  0.00     0.309 C 
HETATM   20  N4  UNL     1      19.414 -21.371 -14.600  1.00  0.00    -0.091 NA
HETATM   21  N7  UNL     1      18.311 -22.023 -12.785  1.00  0.00    -0.229 N 
HETATM   22  N5  UNL     1      19.785 -20.619 -13.494  1.00  0.00    -0.015 NA
HETATM   23  N6  UNL     1      19.491 -21.435 -12.394  1.00  0.00    -0.006 NA
ENDBRANCH   9  14
BRANCH   8  24
HETATM   24  O1  UNL     1      17.762 -24.282 -10.189  1.00  0.00    -0.280 OA
ATOM     25  H1  UNL     1      17.653 -25.188  -9.923  1.00  0.00     0.245 HD
ENDBRANCH   8  24
TORSDOF 2
ENDMDL
MODEL 3
REMARK VINA RESULT: -6.789564141      1.469      1.719
REMARK  2 active torsions:
REMARK  status: ('A' for Active; 'I' for Inactive)
REMARK    1  A    between atoms: N2_8  and  O1_9 
REMARK    2  A    between atoms: C6_11  and  C7_12 
ROOT
HETATM    1  C1  UNL     1      16.586 -23.509  -9.712  1.00  0.00     0.057 C 
HETATM    2  C2  UNL     1      17.169 -22.794 -10.876  1.00  0.00     0.036 A 
HETATM    3  C3  UNL     1      18.528 -22.832 -11.075  1.00  0.00     0.029 A 
HETATM    4  C4  UNL     1      19.426 -23.579 -10.141  1.00  0.00     0.069 C 
HETATM    5  N1  UNL     1      19.026 -22.169 -12.148  1.00  0.00    -0.268 N 
HETATM    6  C5  UNL     1      20.282 -22.023 -12.600  1.00  0.00     0.212 A 
HETATM    7  S1  UNL     1      21.592 -22.678 -11.877  1.00  0.00    -0.038 SA
HETATM    8  N2  UNL     1      20.259 -21.260 -13.723  1.00  0.00    -0.189 N 
HETATM    9  C6  UNL     1      18.997 -20.904 -14.010  1.00  0.00     0.162 A 
HETATM   10  C10 UNL     1      18.231 -21.493 -12.997  1.00  0.00     0.194 A 
HETATM   11  O3  UNL     1      16.945 -21.478 -12.777  1.00  0.00    -0.254 OA
HETATM   12  C11 UNL     1      16.395 -22.092 -11.767  1.00  0.00     0.297 A 
HETATM   13  O4  UNL     1      15.130 -22.061 -11.576  1.00  0.00    -0.259 OA
ENDROOT
BRANCH   9  14
HETATM   14  C7  UNL     1      18.503 -20.093 -15.114  1.00  0.00     0.159 C 
HETATM   15  N3  UNL     1      18.523 -18.775 -15.122  1.00  0.00    -0.307 N 
HETATM   16  C8  UNL     1      17.957 -18.308 -16.367  1.00  0.00     0.265 C 
ATOM     17  H3  UNL     1      18.880 -18.181 -14.372  1.00  0.00     0.170 HD
HETATM   18  O2  UNL     1      18.138 -17.156 -16.797  1.00  0.00    -0.269 OA
HETATM   19  C9  UNL     1      17.184 -19.444 -16.937  1.00  0.00     0.309 C 
HETATM   20  N4  UNL     1      17.455 -19.721 -18.314  1.00  0.00    -0.091 NA
HETATM   21  N7  UNL     1      17.942 -20.555 -16.312  1.00  0.00    -0.229 N 
HETATM   22  N5  UNL     1      18.038 -20.976 -18.424  1.00  0.00    -0.015 NA
HETATM   23  N6  UNL     1      17.783 -21.597 -17.195  1.00  0.00    -0.006 NA
ENDBRANCH   9  14
BRANCH   8  24
HETATM   24  O1  UNL     1      21.368 -20.914 -14.441  1.00  0.00    -0.280 OA
ATOM     25  H1  UNL     1      21.595 -20.023 -14.679  1.00  0.00     0.245 HD
ENDBRANCH   8  24
TORSDOF 2
ENDMDL
MODEL 4
REMARK VINA RESULT: -6.722150947      8.522     10.583
REMARK  2 active torsions:
REMARK  status: ('A' for Active; 'I' for Inactive)
REMARK    1  A    between atoms: N2_8  and  O1_9 
REMARK    2  A    between atoms: C6_11  and  C7_12 
ROOT
HETATM    1  C1  UNL     1      12.528 -18.390 -10.454  1.00  0.00     0.057 C 
HETATM    2  C2  UNL     1      13.210 -19.078  -9.329  1.00  0.00     0.036 A 
HETATM    3  C3  UNL     1      13.227 -18.485  -8.089  1.00  0.00     0.029 A 
HETATM    4  C4  UNL     1      12.569 -17.162  -7.857  1.00  0.00     0.069 C 
HETATM    5  N1  UNL     1      13.858 -19.141  -7.086  1.00  0.00    -0.268 N 
HETATM    6  C5  UNL     1      14.040 -18.828  -5.792  1.00  0.00     0.212 A 
HETATM    7  S1  UNL     1      13.484 -17.456  -5.102  1.00  0.00    -0.038 SA
HETATM    8  N2  UNL     1      14.744 -19.821  -5.194  1.00  0.00    -0.189 N 
HETATM    9  C6  UNL     1      15.026 -20.785  -6.085  1.00  0.00     0.162 A 
HETATM   10  C10 UNL     1      14.453 -20.332  -7.279  1.00  0.00     0.194 A 
HETATM   11  O3  UNL     1      14.418 -20.867  -8.469  1.00  0.00    -0.254 OA
HETATM   12  C11 UNL     1      13.830 -20.294  -9.482  1.00  0.00     0.297 A 
HETATM   13  O4  UNL     1      13.812 -20.841 -10.638  1.00  0.00    -0.259 OA
ENDROOT
BRANCH   9  14
HETATM   14  C7  UNL     1      15.757 -22.029  -5.888  1.00  0.00     0.159 C 
HETATM   15  N3  UNL     1      16.923 -22.106  -5.278  1.00  0.00    -0.307 N 
HETATM   16  C8  UNL     1      17.352 -23.486  -5.264  1.00  0.00     0.265 C 
ATOM     17  H3  UNL     1      17.439 -21.320  -4.881  1.00  0.00     0.170 HD
HETATM   18  O2  UNL     1      18.228 -23.909  -4.491  1.00  0.00    -0.269 OA
HETATM   19  C9  UNL     1      16.556 -24.191  -6.304  1.00  0.00     0.309 C 
HETATM   20  N4  UNL     1      15.951 -25.411  -5.870  1.00  0.00    -0.091 NA
HETATM   21  N7  UNL     1      15.362 -23.311  -6.296  1.00  0.00    -0.229 N 
HETATM   22  N5  UNL     1      14.569 -25.277  -5.903  1.00  0.00    -0.015 NA
HETATM   23  N6  UNL     1      14.340 -24.142  -6.691  1.00  0.00    -0.006 NA
ENDBRANCH   9  14
BRANCH   8  24
HETATM   24  O1  UNL     1      15.105 -19.823  -3.876  1.00  0.00    -0.280 OA
ATOM     25  H1  UNL     1      15.210 -20.607  -3.351  1.00  0.00     0.245 HD
ENDBRANCH   8  24
TORSDOF 2
ENDMDL
MODEL 5
REMARK VINA RESULT: -6.619791196      2.116      3.449
REMARK  2 active torsions:
REMARK  status: ('A' for Active; 'I' for Inactive)
REMARK    1  A    between atoms: N2_8  and  O1_9 
REMARK    2  A    between atoms: C6_11  and  C7_12 
ROOT
HETATM    1  C1  UNL     1      20.776 -23.063 -10.480  1.00  0.00     0.057 C 
HETATM    2  C2  UNL     1      20.203 -22.352 -11.651  1.00  0.00     0.036 A 
HETATM    3  C3  UNL     1      18.844 -22.372 -11.851  1.00  0.00     0.029 A 
HETATM    4  C4  UNL     1      17.935 -23.096 -10.909  1.00  0.00     0.069 C 
HETATM    5  N1  UNL     1      18.356 -21.712 -12.929  1.00  0.00    -0.268 N 
HETATM    6  C5  UNL     1      17.102 -21.552 -13.383  1.00  0.00     0.212 A 
HETATM    7  S1  UNL     1      15.783 -22.182 -12.655  1.00  0.00    -0.038 SA
HETATM    8  N2  UNL     1      17.135 -20.800 -14.512  1.00  0.00    -0.189 N 
HETATM    9  C6  UNL     1      18.403 -20.466 -14.804  1.00  0.00     0.162 A 
HETATM   10  C10 UNL     1      19.160 -21.056 -13.785  1.00  0.00     0.194 A 
HETATM   11  O3  UNL     1      20.446 -21.057 -13.565  1.00  0.00    -0.254 OA
HETATM   12  C11 UNL     1      20.987 -21.670 -12.549  1.00  0.00     0.297 A 
HETATM   13  O4  UNL     1      22.252 -21.655 -12.358  1.00  0.00    -0.259 OA
ENDROOT
BRANCH   9  14
HETATM   14  C7  UNL     1      18.908 -19.674 -15.916  1.00  0.00     0.159 C 
HETATM   15  N3  UNL     1      20.153 -19.250 -16.008  1.00  0.00    -0.307 N 
HETATM   16  C8  UNL     1      20.299 -18.498 -17.233  1.00  0.00     0.265 C 
ATOM     17  H3  UNL     1      20.892 -19.424 -15.326  1.00  0.00     0.170 HD
HETATM   18  O2  UNL     1      21.406 -18.260 -17.747  1.00  0.00    -0.269 OA
HETATM   19  C9  UNL     1      18.929 -18.124 -17.671  1.00  0.00     0.309 C 
HETATM   20  N4  UNL     1      18.642 -18.402 -19.044  1.00  0.00    -0.091 NA
HETATM   21  N7  UNL     1      18.187 -19.241 -17.037  1.00  0.00    -0.229 N 
HETATM   22  N5  UNL     1      17.646 -19.367 -19.120  1.00  0.00    -0.015 NA
HETATM   23  N6  UNL     1      17.081 -19.397 -17.839  1.00  0.00    -0.006 NA
ENDBRANCH   9  14
BRANCH   8  24
HETATM   24  O1  UNL     1      16.031 -20.446 -15.234  1.00  0.00    -0.280 OA
ATOM     25  H1  UNL     1      15.333 -19.891 -14.908  1.00  0.00     0.245 HD
ENDBRANCH   8  24
TORSDOF 2
ENDMDL
