MODEL 1
REMARK VINA RESULT: -6.794162503      0.000      0.000
REMARK  5 active torsions:
REMARK  status: ('A' for Active; 'I' for Inactive)
REMARK    1  A    between atoms: C3_4  and  C4_5 
REMARK    2  A    between atoms: N2_6  and  N3_8 
REMARK    3  A    between atoms: N3_8  and  C5_10 
REMARK    4  A    between atoms: C6_13  and  N5_14 
REMARK    5  A    between atoms: C7_19  and  N7_20 
ROOT
HETATM    1  N3  UNL     1      32.901 -36.518 -17.030  1.00  0.00    -0.131 N 
ATOM      2  H3  UNL     1      32.495 -36.393 -17.957  1.00  0.00     0.205 HD
ENDROOT
BRANCH   1   3
HETATM    3  N2  UNL     1      33.619 -35.488 -16.460  1.00  0.00    -0.297 N 
HETATM    4  C4  UNL     1      33.099 -34.458 -15.881  1.00  0.00     0.120 C 
ATOM      5  H2  UNL     1      34.637 -35.545 -16.497  1.00  0.00     0.186 HD
BRANCH   4   6
HETATM    6  C3  UNL     1      33.992 -33.451 -15.324  1.00  0.00    -0.003 A 
HETATM    7  C2  UNL     1      34.326 -32.315 -16.020  1.00  0.00     0.105 A 
HETATM    8  N1  UNL     1      35.149 -31.369 -15.527  1.00  0.00    -0.346 N 
HETATM    9  C1  UNL     1      35.452 -30.196 -16.328  1.00  0.00     0.157 C 
HETATM   10  C12 UNL     1      35.657 -31.561 -14.297  1.00  0.00     0.117 A 
HETATM   11  C9  UNL     1      35.380 -32.673 -13.516  1.00  0.00     0.010 A 
HETATM   12  N9  UNL     1      36.501 -30.789 -13.556  1.00  0.00    -0.351 N 
HETATM   13  C8  UNL     1      34.525 -33.626 -14.065  1.00  0.00     0.029 A 
HETATM   14  C10 UNL     1      36.049 -32.573 -12.315  1.00  0.00     0.032 A 
HETATM   15  C11 UNL     1      36.742 -31.385 -12.369  1.00  0.00     0.090 A 
ATOM     16  H9  UNL     1      36.892 -29.896 -13.854  1.00  0.00     0.166 HD
ENDBRANCH   4   6
ENDBRANCH   1   3
BRANCH   1  17
HETATM   17  C5  UNL     1      32.736 -37.633 -16.411  1.00  0.00     0.725 A 
HETATM   18  N4  UNL     1      33.558 -38.655 -16.707  1.00  0.00    -0.020 N 
HETATM   19  C6  UNL     1      33.417 -39.839 -16.080  1.00  0.00     0.705 A 
ATOM     20  H4  UNL     1      34.291 -38.534 -17.407  1.00  0.00     0.203 HD
HETATM   21  N6  UNL     1      32.447 -39.971 -15.166  1.00  0.00    -0.022 N 
HETATM   22  C7  UNL     1      31.617 -38.960 -14.859  1.00  0.00     0.705 A 
ATOM     23  H6  UNL     1      32.336 -40.866 -14.689  1.00  0.00     0.203 HD
HETATM   24  N8  UNL     1      31.763 -37.774 -15.491  1.00  0.00    -0.020 N 
ATOM     25  H8  UNL     1      31.143 -36.994 -15.273  1.00  0.00     0.203 HD
BRANCH  19  26
HETATM   26  N5  UNL     1      34.216 -40.834 -16.367  1.00  0.00    -0.234 N 
ATOM     27  H52 UNL     1      34.861 -40.781 -17.155  1.00  0.00     0.174 HD
ATOM     28  H51 UNL     1      34.203 -41.681 -15.800  1.00  0.00     0.174 HD
ENDBRANCH  19  26
BRANCH  22  29
HETATM   29  N7  UNL     1      30.696 -39.125 -13.972  1.00  0.00    -0.234 N 
ATOM     30  H72 UNL     1      30.926 -39.466 -13.038  1.00  0.00     0.174 HD
ATOM     31  H71 UNL     1      29.724 -38.915 -14.199  1.00  0.00     0.174 HD
ENDBRANCH  22  29
ENDBRANCH   1  17
TORSDOF 5
ENDMDL
MODEL 2
REMARK VINA RESULT: -6.789490118      0.060      1.747
REMARK  5 active torsions:
REMARK  status: ('A' for Active; 'I' for Inactive)
REMARK    1  A    between atoms: C3_4  and  C4_5 
REMARK    2  A    between atoms: N2_6  and  N3_8 
REMARK    3  A    between atoms: N3_8  and  C5_10 
REMARK    4  A    between atoms: C6_13  and  N5_14 
REMARK    5  A    between atoms: C7_19  and  N7_20 
ROOT
HETATM    1  N3  UNL     1      32.906 -36.490 -17.020  1.00  0.00    -0.131 N 
ATOM      2  H3  UNL     1      32.462 -36.336 -17.925  1.00  0.00     0.205 HD
ENDROOT
BRANCH   1   3
HETATM    3  N2  UNL     1      33.631 -35.471 -16.438  1.00  0.00    -0.297 N 
HETATM    4  C4  UNL     1      33.117 -34.440 -15.857  1.00  0.00     0.120 C 
ATOM      5  H2  UNL     1      34.648 -35.539 -16.468  1.00  0.00     0.186 HD
BRANCH   4   6
HETATM    6  C3  UNL     1      34.017 -33.445 -15.287  1.00  0.00    -0.003 A 
HETATM    7  C2  UNL     1      34.363 -32.306 -15.971  1.00  0.00     0.105 A 
HETATM    8  N1  UNL     1      35.192 -31.372 -15.466  1.00  0.00    -0.346 N 
HETATM    9  C1  UNL     1      35.508 -30.194 -16.255  1.00  0.00     0.157 C 
HETATM   10  C12 UNL     1      35.694 -31.579 -14.236  1.00  0.00     0.117 A 
HETATM   11  C9  UNL     1      35.405 -32.696 -13.467  1.00  0.00     0.010 A 
HETATM   12  N9  UNL     1      36.542 -30.822 -13.485  1.00  0.00    -0.351 N 
HETATM   13  C8  UNL     1      34.544 -33.636 -14.028  1.00  0.00     0.029 A 
HETATM   14  C10 UNL     1      36.071 -32.613 -12.263  1.00  0.00     0.032 A 
HETATM   15  C11 UNL     1      36.774 -31.430 -12.303  1.00  0.00     0.090 A 
ATOM     16  H9  UNL     1      36.941 -29.929 -13.773  1.00  0.00     0.166 HD
ENDBRANCH   4   6
ENDBRANCH   1   3
BRANCH   1  17
HETATM   17  C5  UNL     1      32.782 -37.630 -16.439  1.00  0.00     0.725 A 
HETATM   18  N4  UNL     1      31.796 -37.784 -15.537  1.00  0.00    -0.020 N 
HETATM   19  C6  UNL     1      31.634 -38.963 -14.907  1.00  0.00     0.705 A 
ATOM     20  H4  UNL     1      31.169 -37.006 -15.329  1.00  0.00     0.203 HD
HETATM   21  N6  UNL     1      32.471 -39.968 -15.197  1.00  0.00    -0.022 N 
HETATM   22  C7  UNL     1      33.461 -39.831 -16.095  1.00  0.00     0.705 A 
ATOM     23  H6  UNL     1      32.352 -40.863 -14.722  1.00  0.00     0.203 HD
HETATM   24  N8  UNL     1      33.619 -38.645 -16.725  1.00  0.00    -0.020 N 
ATOM     25  H8  UNL     1      34.366 -38.521 -17.409  1.00  0.00     0.203 HD
BRANCH  19  26
HETATM   26  N5  UNL     1      30.675 -39.113 -14.030  1.00  0.00    -0.234 N 
ATOM     27  H52 UNL     1      30.672 -38.587 -13.157  1.00  0.00     0.174 HD
ATOM     28  H51 UNL     1      29.912 -39.766 -14.212  1.00  0.00     0.174 HD
ENDBRANCH  19  26
BRANCH  22  29
HETATM   29  N7  UNL     1      34.246 -40.822 -16.349  1.00  0.00    -0.234 N 
ATOM     30  H72 UNL     1      35.259 -40.712 -16.296  1.00  0.00     0.174 HD
ATOM     31  H71 UNL     1      33.857 -41.729 -16.607  1.00  0.00     0.174 HD
ENDBRANCH  22  29
ENDBRANCH   1  17
TORSDOF 5
ENDMDL
MODEL 3
REMARK VINA RESULT: -6.527901145      1.222      1.385
REMARK  5 active torsions:
REMARK  status: ('A' for Active; 'I' for Inactive)
REMARK    1  A    between atoms: C3_4  and  C4_5 
REMARK    2  A    between atoms: N2_6  and  N3_8 
REMARK    3  A    between atoms: N3_8  and  C5_10 
REMARK    4  A    between atoms: C6_13  and  N5_14 
REMARK    5  A    between atoms: C7_19  and  N7_20 
ROOT
HETATM    1  N3  UNL     1      32.530 -36.714 -16.675  1.00  0.00    -0.131 N 
ATOM      2  H3  UNL     1      32.538 -36.849 -17.686  1.00  0.00     0.205 HD
ENDROOT
BRANCH   1   3
HETATM    3  N2  UNL     1      33.284 -35.702 -16.120  1.00  0.00    -0.297 N 
HETATM    4  C4  UNL     1      33.119 -34.444 -16.356  1.00  0.00     0.120 C 
ATOM      5  H2  UNL     1      34.028 -35.968 -15.474  1.00  0.00     0.186 HD
BRANCH   4   6
HETATM    6  C3  UNL     1      33.998 -33.493 -15.690  1.00  0.00    -0.003 A 
HETATM    7  C2  UNL     1      34.373 -32.314 -16.287  1.00  0.00     0.105 A 
HETATM    8  N1  UNL     1      35.185 -31.418 -15.693  1.00  0.00    -0.346 N 
HETATM    9  C1  UNL     1      35.534 -30.194 -16.393  1.00  0.00     0.157 C 
HETATM   10  C12 UNL     1      35.638 -31.705 -14.460  1.00  0.00     0.117 A 
HETATM   11  C9  UNL     1      35.317 -32.867 -13.775  1.00  0.00     0.010 A 
HETATM   12  N9  UNL     1      36.458 -31.000 -13.631  1.00  0.00    -0.351 N 
HETATM   13  C8  UNL     1      34.476 -33.765 -14.426  1.00  0.00     0.029 A 
HETATM   14  C10 UNL     1      35.936 -32.863 -12.543  1.00  0.00     0.032 A 
HETATM   15  C11 UNL     1      36.643 -31.683 -12.482  1.00  0.00     0.090 A 
ATOM     16  H9  UNL     1      36.871 -30.093 -13.846  1.00  0.00     0.166 HD
ENDBRANCH   4   6
ENDBRANCH   1   3
BRANCH   1  17
HETATM   17  C5  UNL     1      31.817 -37.490 -15.938  1.00  0.00     0.725 A 
HETATM   18  N4  UNL     1      31.608 -38.752 -16.354  1.00  0.00    -0.020 N 
HETATM   19  C6  UNL     1      30.866 -39.594 -15.609  1.00  0.00     0.705 A 
ATOM     20  H4  UNL     1      32.012 -39.072 -17.234  1.00  0.00     0.203 HD
HETATM   21  N6  UNL     1      30.347 -39.149 -14.458  1.00  0.00    -0.022 N 
HETATM   22  C7  UNL     1      30.546 -37.891 -14.029  1.00  0.00     0.705 A 
ATOM     23  H6  UNL     1      29.784 -39.783 -13.891  1.00  0.00     0.203 HD
HETATM   24  N8  UNL     1      31.291 -37.050 -14.779  1.00  0.00    -0.020 N 
ATOM     25  H8  UNL     1      31.453 -36.091 -14.471  1.00  0.00     0.203 HD
BRANCH  19  26
HETATM   26  N5  UNL     1      30.663 -40.822 -16.013  1.00  0.00    -0.234 N 
ATOM     27  H52 UNL     1      31.010 -41.144 -16.916  1.00  0.00     0.174 HD
ATOM     28  H51 UNL     1      30.150 -41.477 -15.423  1.00  0.00     0.174 HD
ENDBRANCH  19  26
BRANCH  22  29
HETATM   29  N7  UNL     1      30.031 -37.499 -12.914  1.00  0.00    -0.234 N 
ATOM     30  H72 UNL     1      30.576 -36.946 -12.252  1.00  0.00     0.174 HD
ATOM     31  H71 UNL     1      29.067 -37.741 -12.683  1.00  0.00     0.174 HD
ENDBRANCH  22  29
ENDBRANCH   1  17
TORSDOF 5
ENDMDL
MODEL 4
REMARK VINA RESULT: -6.527468542      1.301      2.494
REMARK  5 active torsions:
REMARK  status: ('A' for Active; 'I' for Inactive)
REMARK    1  A    between atoms: C3_4  and  C4_5 
REMARK    2  A    between atoms: N2_6  and  N3_8 
REMARK    3  A    between atoms: N3_8  and  C5_10 
REMARK    4  A    between atoms: C6_13  and  N5_14 
REMARK    5  A    between atoms: C7_19  and  N7_20 
ROOT
HETATM    1  N3  UNL     1      31.109 -36.742 -14.901  1.00  0.00    -0.131 N 
ATOM      2  H3  UNL     1      30.127 -36.509 -15.048  1.00  0.00     0.205 HD
ENDROOT
BRANCH   1   3
HETATM    3  N2  UNL     1      32.047 -35.732 -14.859  1.00  0.00    -0.297 N 
HETATM    4  C4  UNL     1      32.150 -34.785 -15.730  1.00  0.00     0.120 C 
ATOM      5  H2  UNL     1      32.709 -35.734 -14.083  1.00  0.00     0.186 HD
BRANCH   4   6
HETATM    6  C3  UNL     1      33.196 -33.788 -15.549  1.00  0.00    -0.003 A 
HETATM    7  C2  UNL     1      34.035 -33.808 -14.462  1.00  0.00     0.105 A 
HETATM    8  N1  UNL     1      35.010 -32.897 -14.272  1.00  0.00    -0.346 N 
HETATM    9  C1  UNL     1      35.855 -32.989 -13.095  1.00  0.00     0.157 C 
HETATM   10  C12 UNL     1      35.155 -31.933 -15.198  1.00  0.00     0.117 A 
HETATM   11  C9  UNL     1      34.359 -31.828 -16.329  1.00  0.00     0.010 A 
HETATM   12  N9  UNL     1      36.037 -30.898 -15.269  1.00  0.00    -0.351 N 
HETATM   13  C8  UNL     1      33.364 -32.789 -16.485  1.00  0.00     0.029 A 
HETATM   14  C10 UNL     1      34.758 -30.741 -17.075  1.00  0.00     0.032 A 
HETATM   15  C11 UNL     1      35.810 -30.178 -16.387  1.00  0.00     0.090 A 
ATOM     16  H9  UNL     1      36.762 -30.696 -14.579  1.00  0.00     0.166 HD
ENDBRANCH   4   6
ENDBRANCH   1   3
BRANCH   1  17
HETATM   17  C5  UNL     1      31.454 -37.972 -14.757  1.00  0.00     0.725 A 
HETATM   18  N4  UNL     1      32.403 -38.470 -15.570  1.00  0.00    -0.020 N 
HETATM   19  C6  UNL     1      32.790 -39.754 -15.450  1.00  0.00     0.705 A 
ATOM     20  H4  UNL     1      32.830 -37.874 -16.279  1.00  0.00     0.203 HD
HETATM   21  N6  UNL     1      32.212 -40.515 -14.511  1.00  0.00    -0.022 N 
HETATM   22  C7  UNL     1      31.263 -40.034 -13.691  1.00  0.00     0.705 A 
ATOM     23  H6  UNL     1      32.502 -41.489 -14.417  1.00  0.00     0.203 HD
HETATM   24  N8  UNL     1      30.878 -38.745 -13.816  1.00  0.00    -0.020 N 
ATOM     25  H8  UNL     1      30.158 -38.361 -13.203  1.00  0.00     0.203 HD
BRANCH  19  26
HETATM   26  N5  UNL     1      33.713 -40.239 -16.240  1.00  0.00    -0.234 N 
ATOM     27  H52 UNL     1      33.569 -41.113 -16.745  1.00  0.00     0.174 HD
ATOM     28  H51 UNL     1      34.596 -39.742 -16.361  1.00  0.00     0.174 HD
ENDBRANCH  19  26
BRANCH  22  29
HETATM   29  N7  UNL     1      30.731 -40.798 -12.799  1.00  0.00    -0.234 N 
ATOM     30  H72 UNL     1      30.079 -41.537 -13.066  1.00  0.00     0.174 HD
ATOM     31  H71 UNL     1      30.959 -40.668 -11.813  1.00  0.00     0.174 HD
ENDBRANCH  22  29
ENDBRANCH   1  17
TORSDOF 5
ENDMDL
MODEL 5
REMARK VINA RESULT: -6.517447298      1.297      2.971
REMARK  5 active torsions:
REMARK  status: ('A' for Active; 'I' for Inactive)
REMARK    1  A    between atoms: C3_4  and  C4_5 
REMARK    2  A    between atoms: N2_6  and  N3_8 
REMARK    3  A    between atoms: N3_8  and  C5_10 
REMARK    4  A    between atoms: C6_13  and  N5_14 
REMARK    5  A    between atoms: C7_19  and  N7_20 
ROOT
HETATM    1  N3  UNL     1      31.118 -36.753 -14.894  1.00  0.00    -0.131 N 
ATOM      2  H3  UNL     1      30.131 -36.522 -15.013  1.00  0.00     0.205 HD
ENDROOT
BRANCH   1   3
HETATM    3  N2  UNL     1      32.051 -35.739 -14.852  1.00  0.00    -0.297 N 
HETATM    4  C4  UNL     1      32.164 -34.803 -15.734  1.00  0.00     0.120 C 
ATOM      5  H2  UNL     1      32.701 -35.727 -14.065  1.00  0.00     0.186 HD
BRANCH   4   6
HETATM    6  C3  UNL     1      33.203 -33.799 -15.551  1.00  0.00    -0.003 A 
HETATM    7  C2  UNL     1      34.038 -33.812 -14.460  1.00  0.00     0.105 A 
HETATM    8  N1  UNL     1      35.006 -32.896 -14.268  1.00  0.00    -0.346 N 
HETATM    9  C1  UNL     1      35.847 -32.980 -13.087  1.00  0.00     0.157 C 
HETATM   10  C12 UNL     1      35.150 -31.933 -15.195  1.00  0.00     0.117 A 
HETATM   11  C9  UNL     1      34.358 -31.835 -16.330  1.00  0.00     0.010 A 
HETATM   12  N9  UNL     1      36.027 -30.892 -15.265  1.00  0.00    -0.351 N 
HETATM   13  C8  UNL     1      33.369 -32.802 -16.488  1.00  0.00     0.029 A 
HETATM   14  C10 UNL     1      34.754 -30.747 -17.077  1.00  0.00     0.032 A 
HETATM   15  C11 UNL     1      35.800 -30.177 -16.386  1.00  0.00     0.090 A 
ATOM     16  H9  UNL     1      36.747 -30.685 -14.573  1.00  0.00     0.166 HD
ENDBRANCH   4   6
ENDBRANCH   1   3
BRANCH   1  17
HETATM   17  C5  UNL     1      31.471 -37.984 -14.784  1.00  0.00     0.725 A 
HETATM   18  N4  UNL     1      30.864 -38.744 -13.855  1.00  0.00    -0.020 N 
HETATM   19  C6  UNL     1      31.208 -40.037 -13.710  1.00  0.00     0.705 A 
ATOM     20  H4  UNL     1      30.141 -38.339 -13.259  1.00  0.00     0.203 HD
HETATM   21  N6  UNL     1      32.159 -40.543 -14.503  1.00  0.00    -0.022 N 
HETATM   22  C7  UNL     1      32.777 -39.799 -15.436  1.00  0.00     0.705 A 
ATOM     23  H6  UNL     1      32.424 -41.523 -14.397  1.00  0.00     0.203 HD
HETATM   24  N8  UNL     1      32.428 -38.500 -15.578  1.00  0.00    -0.020 N 
ATOM     25  H8  UNL     1      32.886 -37.918 -16.280  1.00  0.00     0.203 HD
BRANCH  19  26
HETATM   26  N5  UNL     1      30.616 -40.776 -12.806  1.00  0.00    -0.234 N 
ATOM     27  H52 UNL     1      29.684 -41.158 -12.965  1.00  0.00     0.174 HD
ATOM     28  H51 UNL     1      31.086 -40.980 -11.924  1.00  0.00     0.174 HD
ENDBRANCH  19  26
BRANCH  22  29
HETATM   29  N7  UNL     1      33.688 -40.322 -16.183  1.00  0.00    -0.234 N 
ATOM     30  H72 UNL     1      34.672 -40.084 -16.050  1.00  0.00     0.174 HD
ATOM     31  H71 UNL     1      33.431 -40.982 -16.917  1.00  0.00     0.174 HD
ENDBRANCH  22  29
ENDBRANCH   1  17
TORSDOF 5
ENDMDL
