MODEL 1
REMARK VINA RESULT: -5.264175220      0.000      0.000
REMARK  4 active torsions:
REMARK  status: ('A' for Active; 'I' for Inactive)
REMARK    1  A    between atoms: N1_2  and  C3_4 
REMARK    2  A    between atoms: C3_4  and  C4_5 
REMARK    3  A    between atoms: C13_20  and  O1_21 
REMARK    4  A    between atoms: C14_23  and  N4_24 
ROOT
HETATM    1  C4  UNL     1      33.415 -34.813 -17.614  1.00  0.00     0.186 C 
HETATM    2  N2  UNL     1      32.171 -34.350 -17.105  1.00  0.00    -0.057 N 
ATOM      3  H21 UNL     1      31.982 -34.656 -16.150  1.00  0.00     0.278 HD
ATOM      4  H22 UNL     1      31.363 -34.795 -17.539  1.00  0.00     0.278 HD
HETATM    5  C5  UNL     1      32.188 -32.921 -17.256  1.00  0.00     0.193 C 
HETATM    6  C6  UNL     1      31.479 -32.452 -18.471  1.00  0.00     0.066 C 
HETATM    7  C7  UNL     1      31.758 -33.195 -19.717  1.00  0.00     0.188 C 
HETATM    8  C8  UNL     1      33.010 -32.834 -20.445  1.00  0.00     0.035 C 
HETATM    9  C9  UNL     1      34.006 -33.887 -19.937  1.00  0.00     0.038 C 
HETATM   10  C10 UNL     1      33.283 -34.831 -19.107  1.00  0.00     0.224 C 
HETATM   11  N3  UNL     1      31.894 -34.621 -19.557  1.00  0.00    -0.064 N 
ATOM     12  H31 UNL     1      31.646 -35.154 -20.391  1.00  0.00     0.278 HD
ATOM     13  H32 UNL     1      31.195 -35.034 -18.940  1.00  0.00     0.278 HD
HETATM   14  C11 UNL     1      33.625 -32.499 -17.182  1.00  0.00     0.027 C 
HETATM   15  C12 UNL     1      33.949 -31.710 -15.912  1.00  0.00     0.041 C 
HETATM   16  C13 UNL     1      35.244 -32.409 -15.475  1.00  0.00     0.149 C 
HETATM   17  C14 UNL     1      34.773 -33.867 -15.680  1.00  0.00     0.219 C 
HETATM   18  C15 UNL     1      34.381 -33.801 -17.092  1.00  0.00     0.065 C 
ENDROOT
BRANCH   1  19
HETATM   19  C3  UNL     1      33.841 -36.187 -17.154  1.00  0.00     0.312 C 
BRANCH  19  20
HETATM   20  N1  UNL     1      34.452 -37.024 -18.125  1.00  0.00     0.082 N 
HETATM   21  C1  UNL     1      35.875 -37.138 -17.722  1.00  0.00     0.309 C 
HETATM   22  C2  UNL     1      34.000 -38.388 -18.170  1.00  0.00     0.309 C 
ENDBRANCH  19  20
ENDBRANCH   1  19
BRANCH  17  23
HETATM   23  N4  UNL     1      33.803 -34.080 -14.679  1.00  0.00    -0.072 N 
ATOM     24  H43 UNL     1      33.732 -33.319 -14.003  1.00  0.00     0.274 HD
ATOM     25  H42 UNL     1      32.842 -34.026 -15.017  1.00  0.00     0.274 HD
ATOM     26  H41 UNL     1      34.046 -34.980 -14.264  1.00  0.00     0.274 HD
ENDBRANCH  17  23
BRANCH  16  27
HETATM   27  O1  UNL     1      35.557 -32.164 -14.168  1.00  0.00    -0.393 OA
ATOM     28  H1  UNL     1      36.494 -32.170 -14.011  1.00  0.00     0.210 HD
ENDBRANCH  16  27
TORSDOF 4
ENDMDL
MODEL 2
REMARK VINA RESULT: -4.829190585      1.511      1.894
REMARK  4 active torsions:
REMARK  status: ('A' for Active; 'I' for Inactive)
REMARK    1  A    between atoms: N1_2  and  C3_4 
REMARK    2  A    between atoms: C3_4  and  C4_5 
REMARK    3  A    between atoms: C13_20  and  O1_21 
REMARK    4  A    between atoms: C14_23  and  N4_24 
ROOT
HETATM    1  C4  UNL     1      33.700 -34.173 -19.041  1.00  0.00     0.186 C 
HETATM    2  N2  UNL     1      32.292 -34.349 -18.960  1.00  0.00    -0.057 N 
ATOM      3  H21 UNL     1      32.015 -35.219 -18.507  1.00  0.00     0.278 HD
ATOM      4  H22 UNL     1      31.853 -34.534 -19.862  1.00  0.00     0.278 HD
HETATM    5  C5  UNL     1      31.783 -33.176 -18.306  1.00  0.00     0.193 C 
HETATM    6  C6  UNL     1      31.262 -32.157 -19.249  1.00  0.00     0.066 C 
HETATM    7  C7  UNL     1      32.099 -31.875 -20.433  1.00  0.00     0.188 C 
HETATM    8  C8  UNL     1      33.244 -30.938 -20.234  1.00  0.00     0.035 C 
HETATM    9  C9  UNL     1      34.420 -31.897 -19.991  1.00  0.00     0.038 C 
HETATM   10  C10 UNL     1      33.948 -33.253 -20.198  1.00  0.00     0.224 C 
HETATM   11  N3  UNL     1      32.740 -33.027 -21.013  1.00  0.00    -0.064 N 
ATOM     12  H31 UNL     1      32.929 -32.934 -22.012  1.00  0.00     0.278 HD
ATOM     13  H32 UNL     1      32.133 -33.844 -21.083  1.00  0.00     0.278 HD
HETATM   14  C11 UNL     1      32.877 -32.677 -17.408  1.00  0.00     0.027 C 
HETATM   15  C12 UNL     1      32.551 -32.844 -15.923  1.00  0.00     0.041 C 
HETATM   16  C13 UNL     1      33.870 -33.444 -15.417  1.00  0.00     0.149 C 
HETATM   17  C14 UNL     1      34.073 -34.485 -16.542  1.00  0.00     0.219 C 
HETATM   18  C15 UNL     1      34.037 -33.593 -17.708  1.00  0.00     0.065 C 
ENDROOT
BRANCH   1  19
HETATM   19  C3  UNL     1      34.507 -35.433 -19.251  1.00  0.00     0.312 C 
BRANCH  19  20
HETATM   20  N1  UNL     1      33.786 -36.599 -19.621  1.00  0.00     0.082 N 
HETATM   21  C1  UNL     1      34.181 -36.892 -21.021  1.00  0.00     0.309 C 
HETATM   22  C2  UNL     1      34.114 -37.806 -18.914  1.00  0.00     0.309 C 
ENDBRANCH  19  20
ENDBRANCH   1  19
BRANCH  17  23
HETATM   23  N4  UNL     1      33.054 -35.439 -16.342  1.00  0.00    -0.072 N 
ATOM     24  H43 UNL     1      32.950 -35.735 -15.372  1.00  0.00     0.274 HD
ATOM     25  H42 UNL     1      32.111 -35.066 -16.453  1.00  0.00     0.274 HD
ATOM     26  H41 UNL     1      33.277 -36.199 -16.985  1.00  0.00     0.274 HD
ENDBRANCH  17  23
BRANCH  16  27
HETATM   27  O1  UNL     1      33.739 -34.046 -14.197  1.00  0.00    -0.393 OA
ATOM     28  H1  UNL     1      34.573 -34.162 -13.757  1.00  0.00     0.210 HD
ENDBRANCH  16  27
TORSDOF 4
ENDMDL
MODEL 3
REMARK VINA RESULT: -4.577961003      2.568      5.164
REMARK  4 active torsions:
REMARK  status: ('A' for Active; 'I' for Inactive)
REMARK    1  A    between atoms: N1_2  and  C3_4 
REMARK    2  A    between atoms: C3_4  and  C4_5 
REMARK    3  A    between atoms: C13_20  and  O1_21 
REMARK    4  A    between atoms: C14_23  and  N4_24 
ROOT
HETATM    1  C4  UNL     1      32.273 -33.067 -19.014  1.00  0.00     0.186 C 
HETATM    2  N2  UNL     1      32.005 -34.458 -18.897  1.00  0.00    -0.057 N 
ATOM      3  H21 UNL     1      31.613 -34.870 -19.744  1.00  0.00     0.278 HD
ATOM      4  H22 UNL     1      31.221 -34.671 -18.281  1.00  0.00     0.278 HD
HETATM    5  C5  UNL     1      33.239 -35.066 -18.483  1.00  0.00     0.193 C 
HETATM    6  C6  UNL     1      33.315 -35.302 -17.021  1.00  0.00     0.066 C 
HETATM    7  C7  UNL     1      32.867 -34.192 -16.156  1.00  0.00     0.188 C 
HETATM    8  C8  UNL     1      33.850 -33.095 -15.914  1.00  0.00     0.035 C 
HETATM    9  C9  UNL     1      33.450 -32.051 -16.968  1.00  0.00     0.038 C 
HETATM   10  C10 UNL     1      32.240 -32.509 -17.622  1.00  0.00     0.224 C 
HETATM   11  N3  UNL     1      31.715 -33.473 -16.637  1.00  0.00    -0.064 N 
ATOM     12  H31 UNL     1      31.160 -33.043 -15.897  1.00  0.00     0.278 HD
ATOM     13  H32 UNL     1      30.977 -34.075 -17.004  1.00  0.00     0.278 HD
HETATM   14  C11 UNL     1      34.343 -34.205 -19.023  1.00  0.00     0.027 C 
HETATM   15  C12 UNL     1      35.141 -34.890 -20.134  1.00  0.00     0.041 C 
HETATM   16  C13 UNL     1      35.201 -33.757 -21.169  1.00  0.00     0.149 C 
HETATM   17  C14 UNL     1      33.718 -33.327 -21.093  1.00  0.00     0.219 C 
HETATM   18  C15 UNL     1      33.620 -33.043 -19.656  1.00  0.00     0.065 C 
ENDROOT
BRANCH   1  19
HETATM   19  C3  UNL     1      31.303 -32.282 -19.866  1.00  0.00     0.312 C 
BRANCH  19  20
HETATM   20  N1  UNL     1      30.024 -32.860 -20.075  1.00  0.00     0.082 N 
HETATM   21  C1  UNL     1      29.041 -31.815 -19.698  1.00  0.00     0.309 C 
HETATM   22  C2  UNL     1      29.679 -33.178 -21.434  1.00  0.00     0.309 C 
ENDBRANCH  19  20
ENDBRANCH   1  19
BRANCH  17  23
HETATM   23  N4  UNL     1      32.999 -34.399 -21.660  1.00  0.00    -0.072 N 
ATOM     24  H43 UNL     1      33.238 -34.590 -22.633  1.00  0.00     0.274 HD
ATOM     25  H42 UNL     1      33.263 -35.313 -21.293  1.00  0.00     0.274 HD
ATOM     26  H41 UNL     1      32.017 -34.163 -21.514  1.00  0.00     0.274 HD
ENDBRANCH  17  23
BRANCH  16  27
HETATM   27  O1  UNL     1      35.528 -34.204 -22.418  1.00  0.00    -0.393 OA
ATOM     28  H1  UNL     1      36.465 -34.302 -22.536  1.00  0.00     0.210 HD
ENDBRANCH  16  27
TORSDOF 4
ENDMDL
MODEL 4
REMARK VINA RESULT: -4.571646332      2.246      4.721
REMARK  4 active torsions:
REMARK  status: ('A' for Active; 'I' for Inactive)
REMARK    1  A    between atoms: N1_2  and  C3_4 
REMARK    2  A    between atoms: C3_4  and  C4_5 
REMARK    3  A    between atoms: C13_20  and  O1_21 
REMARK    4  A    between atoms: C14_23  and  N4_24 
ROOT
HETATM    1  C4  UNL     1      32.595 -33.660 -18.145  1.00  0.00     0.186 C 
HETATM    2  N2  UNL     1      32.244 -34.466 -17.028  1.00  0.00    -0.057 N 
ATOM      3  H21 UNL     1      31.661 -35.267 -17.271  1.00  0.00     0.278 HD
ATOM      4  H22 UNL     1      31.581 -34.019 -16.396  1.00  0.00     0.278 HD
HETATM    5  C5  UNL     1      33.482 -34.829 -16.397  1.00  0.00     0.193 C 
HETATM    6  C6  UNL     1      33.825 -33.968 -15.239  1.00  0.00     0.066 C 
HETATM    7  C7  UNL     1      33.647 -32.515 -15.431  1.00  0.00     0.188 C 
HETATM    8  C8  UNL     1      34.744 -31.796 -16.145  1.00  0.00     0.035 C 
HETATM    9  C9  UNL     1      34.230 -31.756 -17.592  1.00  0.00     0.038 C 
HETATM   10  C10 UNL     1      32.881 -32.290 -17.608  1.00  0.00     0.224 C 
HETATM   11  N3  UNL     1      32.484 -32.140 -16.195  1.00  0.00    -0.064 N 
ATOM     12  H31 UNL     1      32.122 -31.214 -15.966  1.00  0.00     0.278 HD
ATOM     13  H32 UNL     1      31.643 -32.661 -15.947  1.00  0.00     0.278 HD
HETATM   14  C11 UNL     1      34.524 -34.848 -17.476  1.00  0.00     0.027 C 
HETATM   15  C12 UNL     1      35.031 -36.257 -17.789  1.00  0.00     0.041 C 
HETATM   16  C13 UNL     1      34.977 -36.236 -19.323  1.00  0.00     0.149 C 
HETATM   17  C14 UNL     1      33.577 -35.596 -19.474  1.00  0.00     0.219 C 
HETATM   18  C15 UNL     1      33.786 -34.367 -18.700  1.00  0.00     0.065 C 
ENDROOT
BRANCH   1  19
HETATM   19  C3  UNL     1      31.543 -33.540 -19.224  1.00  0.00     0.312 C 
BRANCH  19  20
HETATM   20  N1  UNL     1      31.266 -32.233 -19.702  1.00  0.00     0.082 N 
HETATM   21  C1  UNL     1      31.822 -32.178 -21.076  1.00  0.00     0.309 C 
HETATM   22  C2  UNL     1      29.879 -31.898 -19.882  1.00  0.00     0.309 C 
ENDBRANCH  19  20
ENDBRANCH   1  19
BRANCH  17  23
HETATM   23  N4  UNL     1      32.676 -36.581 -19.019  1.00  0.00    -0.072 N 
ATOM     24  H43 UNL     1      32.098 -36.282 -18.234  1.00  0.00     0.274 HD
ATOM     25  H42 UNL     1      31.909 -36.768 -19.665  1.00  0.00     0.274 HD
ATOM     26  H41 UNL     1      33.257 -37.396 -18.819  1.00  0.00     0.274 HD
ENDBRANCH  17  23
BRANCH  16  27
HETATM   27  O1  UNL     1      35.015 -37.488 -19.867  1.00  0.00    -0.393 OA
ATOM     28  H1  UNL     1      34.314 -37.636 -20.491  1.00  0.00     0.210 HD
ENDBRANCH  16  27
TORSDOF 4
ENDMDL
MODEL 5
REMARK VINA RESULT: -4.451749036      2.525      4.297
REMARK  4 active torsions:
REMARK  status: ('A' for Active; 'I' for Inactive)
REMARK    1  A    between atoms: N1_2  and  C3_4 
REMARK    2  A    between atoms: C3_4  and  C4_5 
REMARK    3  A    between atoms: C13_20  and  O1_21 
REMARK    4  A    between atoms: C14_23  and  N4_24 
ROOT
HETATM    1  C4  UNL     1      33.250 -34.405 -18.389  1.00  0.00     0.186 C 
HETATM    2  N2  UNL     1      34.248 -33.522 -18.886  1.00  0.00    -0.057 N 
ATOM      3  H21 UNL     1      34.545 -33.739 -19.837  1.00  0.00     0.278 HD
ATOM      4  H22 UNL     1      35.157 -33.645 -18.442  1.00  0.00     0.278 HD
HETATM    5  C5  UNL     1      33.713 -32.197 -18.741  1.00  0.00     0.193 C 
HETATM    6  C6  UNL     1      34.189 -31.504 -17.520  1.00  0.00     0.066 C 
HETATM    7  C7  UNL     1      34.185 -32.297 -16.274  1.00  0.00     0.188 C 
HETATM    8  C8  UNL     1      32.879 -32.415 -15.560  1.00  0.00     0.035 C 
HETATM    9  C9  UNL     1      32.337 -33.757 -16.075  1.00  0.00     0.038 C 
HETATM   10  C10 UNL     1      33.363 -34.375 -16.894  1.00  0.00     0.224 C 
HETATM   11  N3  UNL     1      34.576 -33.676 -16.430  1.00  0.00    -0.064 N 
ATOM     12  H31 UNL     1      34.991 -34.083 -15.592  1.00  0.00     0.278 HD
ATOM     13  H32 UNL     1      35.384 -33.808 -17.039  1.00  0.00     0.278 HD
HETATM   14  C11 UNL     1      32.220 -32.324 -18.831  1.00  0.00     0.027 C 
HETATM   15  C12 UNL     1      31.647 -31.706 -20.107  1.00  0.00     0.041 C 
HETATM   16  C13 UNL     1      30.698 -32.826 -20.555  1.00  0.00     0.149 C 
HETATM   17  C14 UNL     1      31.663 -34.015 -20.341  1.00  0.00     0.219 C 
HETATM   18  C15 UNL     1      31.989 -33.812 -18.924  1.00  0.00     0.065 C 
ENDROOT
BRANCH   1  19
HETATM   19  C3  UNL     1      33.356 -35.840 -18.847  1.00  0.00     0.312 C 
BRANCH  19  20
HETATM   20  N1  UNL     1      33.824 -36.782 -17.894  1.00  0.00     0.082 N 
HETATM   21  C1  UNL     1      32.890 -37.932 -17.968  1.00  0.00     0.309 C 
HETATM   22  C2  UNL     1      35.110 -37.370 -18.154  1.00  0.00     0.309 C 
ENDBRANCH  19  20
ENDBRANCH   1  19
BRANCH  17  23
HETATM   23  N4  UNL     1      32.655 -33.861 -21.330  1.00  0.00    -0.072 N 
ATOM     24  H43 UNL     1      32.803 -32.895 -21.622  1.00  0.00     0.274 HD
ATOM     25  H42 UNL     1      33.604 -34.027 -20.994  1.00  0.00     0.274 HD
ATOM     26  H41 UNL     1      32.370 -34.483 -22.087  1.00  0.00     0.274 HD
ENDBRANCH  17  23
BRANCH  16  27
HETATM   27  O1  UNL     1      30.332 -32.710 -21.866  1.00  0.00    -0.393 OA
ATOM     28  H1  UNL     1      29.567 -33.233 -22.078  1.00  0.00     0.210 HD
ENDBRANCH  16  27
TORSDOF 4
ENDMDL
