MODEL 1
REMARK VINA RESULT: -4.148815780      0.000      0.000
REMARK  2 active torsions:
REMARK  status: ('A' for Active; 'I' for Inactive)
REMARK    1  A    between atoms: N1_2  and  C2_4 
REMARK    2  A    between atoms: C10_14  and  C11_15 
ROOT
HETATM    1  C2  UNL     1       5.488 114.531  -8.319  1.00  0.00     0.148 C 
HETATM    2  C3  UNL     1       5.602 116.019  -8.683  1.00  0.00     0.255 C 
HETATM    3  C4  UNL     1       5.905 116.911  -7.529  1.00  0.00     0.038 C 
HETATM    4  C5  UNL     1       4.927 116.928  -6.418  1.00  0.00     0.009 C 
HETATM    5  C6  UNL     1       3.804 117.913  -6.581  1.00  0.00     0.009 C 
HETATM    6  C7  UNL     1       3.372 117.885  -8.007  1.00  0.00     0.043 C 
HETATM    7  C8  UNL     1       4.196 118.695  -8.943  1.00  0.00     0.120 C 
HETATM    8  N2  UNL     1       5.360 119.189  -8.292  1.00  0.00    -0.420 N 
ATOM      9  H2  UNL     1       5.458 120.173  -8.041  1.00  0.00     0.153 HD
HETATM   10  C9  UNL     1       6.384 118.237  -8.007  1.00  0.00     0.120 C 
HETATM   11  C10 UNL     1       3.204 116.445  -8.485  1.00  0.00     0.293 C 
HETATM   12  N5  UNL     1       4.313 115.960  -9.179  1.00  0.00     0.118 N 
HETATM   13  C12 UNL     1       4.481 114.561  -9.435  1.00  0.00     0.176 C 
HETATM   14  C13 UNL     1       3.290 113.669  -9.233  1.00  0.00     0.051 C 
HETATM   15  C14 UNL     1       5.076 114.343 -10.817  1.00  0.00     0.051 C 
ENDROOT
BRANCH  11  16
HETATM   16  C11 UNL     1       2.047 116.504  -9.387  1.00  0.00     0.121 C 
HETATM   17  N3  UNL     1       2.164 116.809 -10.614  1.00  0.00    -0.389 N 
ATOM     18  H32 UNL     1       3.086 116.975 -11.016  1.00  0.00     0.157 HD
ATOM     19  H31 UNL     1       1.361 116.850 -11.240  1.00  0.00     0.157 HD
HETATM   20  N4  UNL     1       0.746 116.270  -8.820  1.00  0.00    -0.086 NA
ENDBRANCH  11  16
BRANCH   1  21
HETATM   21  N1  UNL     1       6.729 113.904  -8.485  1.00  0.00    -0.417 N 
HETATM   22  C1  UNL     1       6.931 112.562  -8.160  1.00  0.00     0.140 C 
ATOM     23  H1  UNL     1       7.511 114.446  -8.854  1.00  0.00     0.153 HD
ENDBRANCH   1  21
TORSDOF 2
ENDMDL
MODEL 2
REMARK VINA RESULT: -4.055728352      7.516     10.289
REMARK  2 active torsions:
REMARK  status: ('A' for Active; 'I' for Inactive)
REMARK    1  A    between atoms: N1_2  and  C2_4 
REMARK    2  A    between atoms: C10_14  and  C11_15 
ROOT
HETATM    1  C2  UNL     1       8.704 123.032 -10.134  1.00  0.00     0.148 C 
HETATM    2  C3  UNL     1       9.025 124.475  -9.718  1.00  0.00     0.255 C 
HETATM    3  C4  UNL     1      10.082 125.129 -10.539  1.00  0.00     0.038 C 
HETATM    4  C5  UNL     1      11.419 124.493 -10.542  1.00  0.00     0.009 C 
HETATM    5  C6  UNL     1      12.333 124.940  -9.436  1.00  0.00     0.009 C 
HETATM    6  C7  UNL     1      11.523 125.057  -8.190  1.00  0.00     0.043 C 
HETATM    7  C8  UNL     1      10.754 126.321  -8.043  1.00  0.00     0.120 C 
HETATM    8  N2  UNL     1      10.813 127.090  -9.238  1.00  0.00    -0.420 N 
ATOM      9  H2  UNL     1      11.368 127.944  -9.300  1.00  0.00     0.153 HD
HETATM   10  C9  UNL     1      10.054 126.606 -10.345  1.00  0.00     0.120 C 
HETATM   11  C10 UNL     1      10.643 123.823  -8.008  1.00  0.00     0.293 C 
HETATM   12  N5  UNL     1       9.335 124.005  -8.456  1.00  0.00     0.118 N 
HETATM   13  C12 UNL     1       8.452 122.895  -8.658  1.00  0.00     0.176 C 
HETATM   14  C13 UNL     1       8.853 121.573  -8.072  1.00  0.00     0.051 C 
HETATM   15  C14 UNL     1       7.039 123.257  -8.231  1.00  0.00     0.051 C 
ENDROOT
BRANCH  11  16
HETATM   16  C11 UNL     1      10.640 123.602  -6.557  1.00  0.00     0.121 C 
HETATM   17  N3  UNL     1       9.854 124.229  -5.782  1.00  0.00    -0.389 N 
ATOM     18  H32 UNL     1       9.163 124.874  -6.164  1.00  0.00     0.157 HD
ATOM     19  H31 UNL     1       9.852 124.076  -4.774  1.00  0.00     0.157 HD
HETATM   20  N4  UNL     1      11.615 122.692  -6.017  1.00  0.00    -0.086 NA
ENDBRANCH  11  16
BRANCH   1  21
HETATM   21  N1  UNL     1       7.644 123.026 -11.050  1.00  0.00    -0.417 N 
HETATM   22  C1  UNL     1       7.277 121.875 -11.750  1.00  0.00     0.140 C 
ATOM     23  H1  UNL     1       7.124 123.888 -11.210  1.00  0.00     0.153 HD
ENDBRANCH   1  21
TORSDOF 2
ENDMDL
MODEL 3
REMARK VINA RESULT: -4.044352516      2.393      4.695
REMARK  2 active torsions:
REMARK  status: ('A' for Active; 'I' for Inactive)
REMARK    1  A    between atoms: N1_2  and  C2_4 
REMARK    2  A    between atoms: C10_14  and  C11_15 
ROOT
HETATM    1  C2  UNL     1       5.547 119.300  -5.821  1.00  0.00     0.148 C 
HETATM    2  C3  UNL     1       6.795 118.891  -6.618  1.00  0.00     0.255 C 
HETATM    3  C4  UNL     1       7.437 120.008  -7.367  1.00  0.00     0.038 C 
HETATM    4  C5  UNL     1       6.615 120.690  -8.390  1.00  0.00     0.009 C 
HETATM    5  C6  UNL     1       6.659 120.064  -9.755  1.00  0.00     0.009 C 
HETATM    6  C7  UNL     1       6.628 118.584  -9.583  1.00  0.00     0.043 C 
HETATM    7  C8  UNL     1       7.934 117.948  -9.267  1.00  0.00     0.120 C 
HETATM    8  N2  UNL     1       8.926 118.935  -9.010  1.00  0.00    -0.420 N 
ATOM      9  H2  UNL     1       9.674 119.130  -9.675  1.00  0.00     0.153 HD
HETATM   10  C9  UNL     1       8.821 119.636  -7.772  1.00  0.00     0.120 C 
HETATM   11  C10 UNL     1       5.538 118.186  -8.590  1.00  0.00     0.293 C 
HETATM   12  N5  UNL     1       6.018 117.973  -7.297  1.00  0.00     0.118 N 
HETATM   13  C12 UNL     1       5.133 117.898  -6.174  1.00  0.00     0.176 C 
HETATM   14  C13 UNL     1       3.668 117.727  -6.454  1.00  0.00     0.051 C 
HETATM   15  C14 UNL     1       5.611 116.842  -5.192  1.00  0.00     0.051 C 
ENDROOT
BRANCH  11  16
HETATM   16  C11 UNL     1       5.010 116.928  -9.132  1.00  0.00     0.121 C 
HETATM   17  N3  UNL     1       4.026 116.900  -9.934  1.00  0.00    -0.389 N 
ATOM     18  H32 UNL     1       3.607 117.770 -10.262  1.00  0.00     0.157 HD
ATOM     19  H31 UNL     1       3.659 116.027 -10.310  1.00  0.00     0.157 HD
HETATM   20  N4  UNL     1       5.601 115.700  -8.669  1.00  0.00    -0.086 NA
ENDBRANCH  11  16
BRANCH   1  21
HETATM   21  N1  UNL     1       5.908 119.636  -4.511  1.00  0.00    -0.417 N 
HETATM   22  C1  UNL     1       4.964 120.028  -3.560  1.00  0.00     0.140 C 
ATOM     23  H1  UNL     1       6.891 119.595  -4.243  1.00  0.00     0.153 HD
ENDBRANCH   1  21
TORSDOF 2
ENDMDL
MODEL 4
REMARK VINA RESULT: -4.024904115      1.888      4.735
REMARK  2 active torsions:
REMARK  status: ('A' for Active; 'I' for Inactive)
REMARK    1  A    between atoms: N1_2  and  C2_4 
REMARK    2  A    between atoms: C10_14  and  C11_15 
ROOT
HETATM    1  C2  UNL     1       3.639 117.798  -5.798  1.00  0.00     0.148 C 
HETATM    2  C3  UNL     1       3.553 118.274  -7.256  1.00  0.00     0.255 C 
HETATM    3  C4  UNL     1       2.318 117.844  -7.970  1.00  0.00     0.038 C 
HETATM    4  C5  UNL     1       2.089 116.387  -8.095  1.00  0.00     0.009 C 
HETATM    5  C6  UNL     1       2.723 115.750  -9.300  1.00  0.00     0.009 C 
HETATM    6  C7  UNL     1       4.076 116.350  -9.477  1.00  0.00     0.043 C 
HETATM    7  C8  UNL     1       4.109 117.662 -10.175  1.00  0.00     0.120 C 
HETATM    8  N2  UNL     1       2.792 118.165 -10.366  1.00  0.00    -0.420 N 
ATOM      9  H2  UNL     1       2.350 118.178 -11.285  1.00  0.00     0.153 HD
HETATM   10  C9  UNL     1       2.121 118.653  -9.204  1.00  0.00     0.120 C 
HETATM   11  C10 UNL     1       4.822 116.386  -8.146  1.00  0.00     0.293 C 
HETATM   12  N5  UNL     1       4.746 117.621  -7.502  1.00  0.00     0.118 N 
HETATM   13  C12 UNL     1       5.106 117.770  -6.124  1.00  0.00     0.176 C 
HETATM   14  C13 UNL     1       5.872 116.650  -5.481  1.00  0.00     0.051 C 
HETATM   15  C14 UNL     1       5.819 119.094  -5.902  1.00  0.00     0.051 C 
ENDROOT
BRANCH  11  16
HETATM   16  C11 UNL     1       6.216 116.108  -8.514  1.00  0.00     0.121 C 
HETATM   17  N3  UNL     1       7.065 117.036  -8.686  1.00  0.00    -0.389 N 
ATOM     18  H32 UNL     1       6.804 118.008  -8.521  1.00  0.00     0.157 HD
ATOM     19  H31 UNL     1       8.033 116.843  -8.941  1.00  0.00     0.157 HD
HETATM   20  N4  UNL     1       6.585 114.737  -8.746  1.00  0.00    -0.086 NA
ENDBRANCH  11  16
BRANCH   1  21
HETATM   21  N1  UNL     1       3.108 118.775  -4.946  1.00  0.00    -0.417 N 
HETATM   22  C1  UNL     1       1.808 118.696  -4.446  1.00  0.00     0.140 C 
ATOM     23  H1  UNL     1       3.691 119.570  -4.683  1.00  0.00     0.153 HD
ENDBRANCH   1  21
TORSDOF 2
ENDMDL
MODEL 5
REMARK VINA RESULT: -4.017821480      1.436      4.637
REMARK  2 active torsions:
REMARK  status: ('A' for Active; 'I' for Inactive)
REMARK    1  A    between atoms: N1_2  and  C2_4 
REMARK    2  A    between atoms: C10_14  and  C11_15 
ROOT
HETATM    1  C2  UNL     1       2.259 116.200  -8.906  1.00  0.00     0.148 C 
HETATM    2  C3  UNL     1       3.543 116.099  -9.743  1.00  0.00     0.255 C 
HETATM    3  C4  UNL     1       3.946 114.705 -10.083  1.00  0.00     0.038 C 
HETATM    4  C5  UNL     1       4.230 113.795  -8.951  1.00  0.00     0.009 C 
HETATM    5  C6  UNL     1       5.647 113.831  -8.453  1.00  0.00     0.009 C 
HETATM    6  C7  UNL     1       6.096 115.252  -8.448  1.00  0.00     0.043 C 
HETATM    7  C8  UNL     1       6.560 115.782  -9.757  1.00  0.00     0.120 C 
HETATM    8  N2  UNL     1       6.298 114.851 -10.800  1.00  0.00    -0.420 N 
ATOM      9  H2  UNL     1       7.045 114.316 -11.243  1.00  0.00     0.153 HD
HETATM   10  C9  UNL     1       4.935 114.705 -11.196  1.00  0.00     0.120 C 
HETATM   11  C10 UNL     1       5.034 116.144  -7.809  1.00  0.00     0.293 C 
HETATM   12  N5  UNL     1       4.209 116.776  -8.740  1.00  0.00     0.118 N 
HETATM   13  C12 UNL     1       2.979 117.396  -8.349  1.00  0.00     0.176 C 
HETATM   14  C13 UNL     1       2.758 117.638  -6.883  1.00  0.00     0.051 C 
HETATM   15  C14 UNL     1       2.759 118.678  -9.135  1.00  0.00     0.051 C 
ENDROOT
BRANCH  11  16
HETATM   16  C11 UNL     1       5.813 117.152  -7.078  1.00  0.00     0.121 C 
HETATM   17  N3  UNL     1       6.134 117.001  -5.859  1.00  0.00    -0.389 N 
ATOM     18  H32 UNL     1       5.895 116.139  -5.368  1.00  0.00     0.157 HD
ATOM     19  H31 UNL     1       6.674 117.700  -5.351  1.00  0.00     0.157 HD
HETATM   20  N4  UNL     1       6.150 118.367  -7.770  1.00  0.00    -0.086 NA
ENDBRANCH  11  16
BRANCH   1  21
HETATM   21  N1  UNL     1       1.152 116.353  -9.749  1.00  0.00    -0.417 N 
HETATM   22  C1  UNL     1       0.091 115.446  -9.752  1.00  0.00     0.140 C 
ATOM     23  H1  UNL     1       1.119 117.153 -10.381  1.00  0.00     0.153 HD
ENDBRANCH   1  21
TORSDOF 2
ENDMDL
