MODEL 1
REMARK VINA RESULT: -8.142436274      0.000      0.000
REMARK  4 active torsions:
REMARK  status: ('A' for Active; 'I' for Inactive)
REMARK    1  A    between atoms: N2_5  and  C3_6 
REMARK    2  A    between atoms: C6_14  and  N5_15 
REMARK    3  A    between atoms: C7_18  and  C8_19 
REMARK    4  A    between atoms: C8_19  and  C9_20 
ROOT
HETATM    1  C1  UNL     1       6.631 118.857  -4.432  1.00  0.00     0.045 C 
HETATM    2  C2  UNL     1       5.375 119.181  -4.244  1.00  0.00     0.053 A 
HETATM    3  N1  UNL     1       4.988 120.275  -3.522  1.00  0.00    -0.291 N 
ATOM      4  H1  UNL     1       5.625 120.931  -3.069  1.00  0.00     0.187 HD
HETATM    5  N2  UNL     1       3.692 120.358  -3.495  1.00  0.00    -0.221 N 
HETATM    6  C6  UNL     1       3.173 119.347  -4.182  1.00  0.00     0.135 A 
HETATM    7  C7  UNL     1       4.226 118.563  -4.682  1.00  0.00     0.039 A 
ENDROOT
BRANCH   5   8
HETATM    8  C3  UNL     1       2.948 121.382  -2.827  1.00  0.00     0.149 A 
HETATM    9  C4  UNL     1       3.030 122.736  -3.080  1.00  0.00     0.127 A 
HETATM   10  C5  UNL     1       2.144 123.323  -2.206  1.00  0.00     0.263 A 
HETATM   11  O1  UNL     1       1.918 124.564  -2.117  1.00  0.00    -0.267 OA
HETATM   12  N3  UNL     1       1.552 122.365  -1.455  1.00  0.00    -0.265 N 
HETATM   13  N4  UNL     1       2.048 121.202  -1.842  1.00  0.00    -0.281 N 
ATOM     14  H3  UNL     1       0.853 122.512  -0.726  1.00  0.00     0.190 HD
ATOM     15  H4  UNL     1       1.785 120.298  -1.451  1.00  0.00     0.188 HD
ENDBRANCH   5   8
BRANCH   6  16
HETATM   16  N5  UNL     1       1.931 119.091  -4.380  1.00  0.00    -0.383 N 
ATOM     17  H52 UNL     1       1.269 119.754  -4.783  1.00  0.00     0.157 HD
ATOM     18  H51 UNL     1       1.435 118.223  -4.177  1.00  0.00     0.157 HD
ENDBRANCH   6  16
BRANCH   7  19
HETATM   19  C8  UNL     1       4.065 117.484  -5.406  1.00  0.00     0.054 C 
BRANCH  19  20
HETATM   20  C9  UNL     1       4.546 117.148  -6.710  1.00  0.00     0.076 A 
HETATM   21  C10 UNL     1       4.041 117.631  -7.925  1.00  0.00     0.040 A 
HETATM   22  C11 UNL     1       4.815 117.030  -8.892  1.00  0.00     0.035 A 
HETATM   23  C12 UNL     1       5.732 116.229  -8.245  1.00  0.00     0.050 A 
HETATM   24  C13 UNL     1       6.742 115.420  -8.997  1.00  0.00     0.076 C 
HETATM   25  O2  UNL     1       5.543 116.326  -6.967  1.00  0.00    -0.316 OA
ENDBRANCH  19  20
ENDBRANCH   7  19
TORSDOF 4
ENDMDL
MODEL 2
REMARK VINA RESULT: -8.138339935      1.196      1.796
REMARK  4 active torsions:
REMARK  status: ('A' for Active; 'I' for Inactive)
REMARK    1  A    between atoms: N2_5  and  C3_6 
REMARK    2  A    between atoms: C6_14  and  N5_15 
REMARK    3  A    between atoms: C7_18  and  C8_19 
REMARK    4  A    between atoms: C8_19  and  C9_20 
ROOT
HETATM    1  C1  UNL     1       6.615 118.850  -4.384  1.00  0.00     0.045 C 
HETATM    2  C2  UNL     1       5.361 119.189  -4.213  1.00  0.00     0.053 A 
HETATM    3  N1  UNL     1       4.977 120.279  -3.484  1.00  0.00    -0.291 N 
ATOM      4  H1  UNL     1       5.614 120.921  -3.012  1.00  0.00     0.187 HD
HETATM    5  N2  UNL     1       3.681 120.380  -3.479  1.00  0.00    -0.221 N 
HETATM    6  C6  UNL     1       3.161 119.385  -4.188  1.00  0.00     0.135 A 
HETATM    7  C7  UNL     1       4.212 118.593  -4.679  1.00  0.00     0.039 A 
ENDROOT
BRANCH   5   8
HETATM    8  C3  UNL     1       2.940 121.406  -2.811  1.00  0.00     0.149 A 
HETATM    9  C4  UNL     1       3.009 122.758  -3.080  1.00  0.00     0.127 A 
HETATM   10  C5  UNL     1       2.131 123.348  -2.200  1.00  0.00     0.263 A 
HETATM   11  O1  UNL     1       1.898 124.588  -2.121  1.00  0.00    -0.267 OA
HETATM   12  N3  UNL     1       1.556 122.394  -1.430  1.00  0.00    -0.265 N 
HETATM   13  N4  UNL     1       2.055 121.231  -1.812  1.00  0.00    -0.281 N 
ATOM     14  H3  UNL     1       0.867 122.545  -0.694  1.00  0.00     0.190 HD
ATOM     15  H4  UNL     1       1.804 120.329  -1.408  1.00  0.00     0.188 HD
ENDBRANCH   5   8
BRANCH   6  16
HETATM   16  N5  UNL     1       1.920 119.149  -4.411  1.00  0.00    -0.383 N 
ATOM     17  H52 UNL     1       1.366 119.628  -5.122  1.00  0.00     0.157 HD
ATOM     18  H51 UNL     1       1.319 118.475  -3.936  1.00  0.00     0.157 HD
ENDBRANCH   6  16
BRANCH   7  19
HETATM   19  C8  UNL     1       4.048 117.525  -5.419  1.00  0.00     0.054 C 
BRANCH  19  20
HETATM   20  C9  UNL     1       3.612 117.380  -6.773  1.00  0.00     0.076 A 
HETATM   21  C10 UNL     1       4.304 116.716  -7.796  1.00  0.00     0.040 A 
HETATM   22  C11 UNL     1       3.500 116.843  -8.905  1.00  0.00     0.035 A 
HETATM   23  C12 UNL     1       2.384 117.558  -8.525  1.00  0.00     0.050 A 
HETATM   24  C13 UNL     1       1.289 117.885  -9.491  1.00  0.00     0.076 C 
HETATM   25  O2  UNL     1       2.487 117.854  -7.268  1.00  0.00    -0.316 OA
ENDBRANCH  19  20
ENDBRANCH   7  19
TORSDOF 4
ENDMDL
MODEL 3
REMARK VINA RESULT: -7.972136995      0.697      1.148
REMARK  4 active torsions:
REMARK  status: ('A' for Active; 'I' for Inactive)
REMARK    1  A    between atoms: N2_5  and  C3_6 
REMARK    2  A    between atoms: C6_14  and  N5_15 
REMARK    3  A    between atoms: C7_18  and  C8_19 
REMARK    4  A    between atoms: C8_19  and  C9_20 
ROOT
HETATM    1  C1  UNL     1       6.609 118.849  -4.430  1.00  0.00     0.045 C 
HETATM    2  C2  UNL     1       5.354 119.179  -4.245  1.00  0.00     0.053 A 
HETATM    3  N1  UNL     1       4.971 120.274  -3.521  1.00  0.00    -0.291 N 
ATOM      4  H1  UNL     1       5.610 120.925  -3.065  1.00  0.00     0.187 HD
HETATM    5  N2  UNL     1       3.675 120.363  -3.498  1.00  0.00    -0.221 N 
HETATM    6  C6  UNL     1       3.153 119.356  -4.189  1.00  0.00     0.135 A 
HETATM    7  C7  UNL     1       4.204 118.569  -4.688  1.00  0.00     0.039 A 
ENDROOT
BRANCH   5   8
HETATM    8  C3  UNL     1       2.935 121.390  -2.830  1.00  0.00     0.149 A 
HETATM    9  C4  UNL     1       3.016 122.743  -3.088  1.00  0.00     0.127 A 
HETATM   10  C5  UNL     1       2.134 123.334  -2.212  1.00  0.00     0.263 A 
HETATM   11  O1  UNL     1       1.908 124.575  -2.127  1.00  0.00    -0.267 OA
HETATM   12  N3  UNL     1       1.545 122.378  -1.455  1.00  0.00    -0.265 N 
HETATM   13  N4  UNL     1       2.039 121.214  -1.841  1.00  0.00    -0.281 N 
ATOM     14  H3  UNL     1       0.850 122.528  -0.724  1.00  0.00     0.190 HD
ATOM     15  H4  UNL     1       1.778 120.311  -1.445  1.00  0.00     0.188 HD
ENDBRANCH   5   8
BRANCH   6  16
HETATM   16  N5  UNL     1       1.911 119.108  -4.392  1.00  0.00    -0.383 N 
ATOM     17  H52 UNL     1       1.391 119.425  -5.210  1.00  0.00     0.157 HD
ATOM     18  H51 UNL     1       1.277 118.576  -3.795  1.00  0.00     0.157 HD
ENDBRANCH   6  16
BRANCH   7  19
HETATM   19  C8  UNL     1       4.039 117.492  -5.414  1.00  0.00     0.054 C 
BRANCH  19  20
HETATM   20  C9  UNL     1       4.441 117.193  -6.754  1.00  0.00     0.076 A 
HETATM   21  C10 UNL     1       5.532 116.397  -7.129  1.00  0.00     0.040 A 
HETATM   22  C11 UNL     1       5.518 116.406  -8.505  1.00  0.00     0.035 A 
HETATM   23  C12 UNL     1       4.450 117.184  -8.901  1.00  0.00     0.050 A 
HETATM   24  C13 UNL     1       4.133 117.414 -10.345  1.00  0.00     0.076 C 
HETATM   25  O2  UNL     1       3.843 117.627  -7.845  1.00  0.00    -0.316 OA
ENDBRANCH  19  20
ENDBRANCH   7  19
TORSDOF 4
ENDMDL
MODEL 4
REMARK VINA RESULT: -7.334746081      1.462      1.974
REMARK  4 active torsions:
REMARK  status: ('A' for Active; 'I' for Inactive)
REMARK    1  A    between atoms: N2_5  and  C3_6 
REMARK    2  A    between atoms: C6_14  and  N5_15 
REMARK    3  A    between atoms: C7_18  and  C8_19 
REMARK    4  A    between atoms: C8_19  and  C9_20 
ROOT
HETATM    1  C1  UNL     1       6.968 118.743  -4.563  1.00  0.00     0.045 C 
HETATM    2  C2  UNL     1       5.704 119.030  -4.374  1.00  0.00     0.053 A 
HETATM    3  N1  UNL     1       5.285 120.109  -3.647  1.00  0.00    -0.291 N 
ATOM      4  H1  UNL     1       5.902 120.781  -3.192  1.00  0.00     0.187 HD
HETATM    5  N2  UNL     1       3.986 120.155  -3.622  1.00  0.00    -0.221 N 
HETATM    6  C6  UNL     1       3.498 119.132  -4.314  1.00  0.00     0.135 A 
HETATM    7  C7  UNL     1       4.574 118.381  -4.816  1.00  0.00     0.039 A 
ENDROOT
BRANCH   5   8
HETATM    8  C3  UNL     1       3.213 121.154  -2.950  1.00  0.00     0.149 A 
HETATM    9  C4  UNL     1       2.432 120.954  -1.830  1.00  0.00     0.127 A 
HETATM   10  C5  UNL     1       1.884 122.184  -1.545  1.00  0.00     0.263 A 
HETATM   11  O1  UNL     1       1.100 122.431  -0.585  1.00  0.00    -0.267 OA
HETATM   12  N3  UNL     1       2.315 123.090  -2.455  1.00  0.00    -0.265 N 
HETATM   13  N4  UNL     1       3.115 122.452  -3.293  1.00  0.00    -0.281 N 
ATOM     14  H3  UNL     1       2.070 124.079  -2.487  1.00  0.00     0.190 HD
ATOM     15  H4  UNL     1       3.589 122.883  -4.086  1.00  0.00     0.188 HD
ENDBRANCH   5   8
BRANCH   6  16
HETATM   16  N5  UNL     1       2.264 118.841  -4.515  1.00  0.00    -0.383 N 
ATOM     17  H52 UNL     1       1.648 118.447  -3.804  1.00  0.00     0.157 HD
ATOM     18  H51 UNL     1       1.731 118.955  -5.377  1.00  0.00     0.157 HD
ENDBRANCH   6  16
BRANCH   7  19
HETATM   19  C8  UNL     1       4.444 117.301  -5.545  1.00  0.00     0.054 C 
BRANCH  19  20
HETATM   20  C9  UNL     1       3.957 117.121  -6.877  1.00  0.00     0.076 A 
HETATM   21  C10 UNL     1       4.649 116.510  -7.932  1.00  0.00     0.040 A 
HETATM   22  C11 UNL     1       3.787 116.574  -9.003  1.00  0.00     0.035 A 
HETATM   23  C12 UNL     1       2.639 117.204  -8.570  1.00  0.00     0.050 A 
HETATM   24  C13 UNL     1       1.479 117.445  -9.483  1.00  0.00     0.076 C 
HETATM   25  O2  UNL     1       2.778 117.508  -7.318  1.00  0.00    -0.316 OA
ENDBRANCH  19  20
ENDBRANCH   7  19
TORSDOF 4
ENDMDL
MODEL 5
REMARK VINA RESULT: -7.146821147      1.083      1.228
REMARK  4 active torsions:
REMARK  status: ('A' for Active; 'I' for Inactive)
REMARK    1  A    between atoms: N2_5  and  C3_6 
REMARK    2  A    between atoms: C6_14  and  N5_15 
REMARK    3  A    between atoms: C7_18  and  C8_19 
REMARK    4  A    between atoms: C8_19  and  C9_20 
ROOT
HETATM    1  C1  UNL     1       6.312 118.104  -5.085  1.00  0.00     0.045 C 
HETATM    2  C2  UNL     1       5.055 118.426  -4.902  1.00  0.00     0.053 A 
HETATM    3  N1  UNL     1       4.639 119.267  -3.908  1.00  0.00    -0.291 N 
ATOM      4  H1  UNL     1       5.252 119.715  -3.228  1.00  0.00     0.187 HD
HETATM    5  N2  UNL     1       3.348 119.411  -3.956  1.00  0.00    -0.221 N 
HETATM    6  C6  UNL     1       2.863 118.690  -4.960  1.00  0.00     0.135 A 
HETATM    7  C7  UNL     1       3.932 118.039  -5.597  1.00  0.00     0.039 A 
ENDROOT
BRANCH   5   8
HETATM    8  C3  UNL     1       2.579 120.223  -3.063  1.00  0.00     0.149 A 
HETATM    9  C4  UNL     1       2.878 121.517  -2.686  1.00  0.00     0.127 A 
HETATM   10  C5  UNL     1       1.869 121.886  -1.826  1.00  0.00     0.263 A 
HETATM   11  O1  UNL     1       1.771 123.009  -1.254  1.00  0.00    -0.267 OA
HETATM   12  N3  UNL     1       0.998 120.860  -1.688  1.00  0.00    -0.265 N 
HETATM   13  N4  UNL     1       1.441 119.866  -2.440  1.00  0.00    -0.281 N 
ATOM     14  H3  UNL     1       0.156 120.854  -1.112  1.00  0.00     0.190 HD
ATOM     15  H4  UNL     1       0.985 118.959  -2.534  1.00  0.00     0.188 HD
ENDBRANCH   5   8
BRANCH   6  16
HETATM   16  N5  UNL     1       1.637 118.579  -5.323  1.00  0.00    -0.383 N 
ATOM     17  H52 UNL     1       1.338 118.158  -6.202  1.00  0.00     0.157 HD
ATOM     18  H51 UNL     1       0.808 118.879  -4.811  1.00  0.00     0.157 HD
ENDBRANCH   6  16
BRANCH   7  19
HETATM   19  C8  UNL     1       3.804 117.243  -6.629  1.00  0.00     0.054 C 
BRANCH  19  20
HETATM   20  C9  UNL     1       4.721 116.904  -7.672  1.00  0.00     0.076 A 
HETATM   21  C10 UNL     1       4.970 117.657  -8.828  1.00  0.00     0.040 A 
HETATM   22  C11 UNL     1       5.914 116.934  -9.522  1.00  0.00     0.035 A 
HETATM   23  C12 UNL     1       6.193 115.804  -8.782  1.00  0.00     0.050 A 
HETATM   24  C13 UNL     1       7.186 114.784  -9.243  1.00  0.00     0.076 C 
HETATM   25  O2  UNL     1       5.474 115.824  -7.704  1.00  0.00    -0.316 OA
ENDBRANCH  19  20
ENDBRANCH   7  19
TORSDOF 4
ENDMDL
