MODEL 1
REMARK VINA RESULT: -7.789655538      0.000      0.000
REMARK  3 active torsions:
REMARK  status: ('A' for Active; 'I' for Inactive)
REMARK    1  A    between atoms: N2_8  and  N3_10 
REMARK    2  A    between atoms: N5_16  and  C6_18 
REMARK    3  A    between atoms: C6_18  and  C7_19 
ROOT
HETATM    1  C1  UNL     1      11.357 118.652  -2.045  1.00  0.00     0.064 C 
HETATM    2  C2  UNL     1      10.971 119.109  -3.217  1.00  0.00     0.114 C 
HETATM    3  N1  UNL     1      11.835 120.084  -3.833  1.00  0.00    -0.307 N 
ATOM      4  H1  UNL     1      12.766 120.162  -3.423  1.00  0.00     0.170 HD
HETATM    5  C3  UNL     1      11.576 120.966  -4.947  1.00  0.00     0.293 C 
HETATM    6  O1  UNL     1      12.478 121.786  -5.182  1.00  0.00    -0.264 OA
HETATM    7  C4  UNL     1      10.425 121.044  -5.824  1.00  0.00     0.203 C 
HETATM    8  N2  UNL     1      10.275 122.008  -6.600  1.00  0.00    -0.287 N 
ATOM      9  H2  UNL     1       9.420 121.922  -7.150  1.00  0.00     0.188 HD
HETATM   10  N4  UNL     1       9.361 120.039  -5.878  1.00  0.00    -0.170 N 
ATOM     11  H4  UNL     1       8.831 119.994  -6.748  1.00  0.00     0.186 HD
HETATM   12  C5  UNL     1       8.978 119.124  -4.870  1.00  0.00     0.681 C 
HETATM   13  N5  UNL     1       7.856 118.625  -4.904  1.00  0.00    -0.222 N 
ATOM     14  H5  UNL     1       7.657 117.983  -4.136  1.00  0.00     0.178 HD
HETATM   15  N6  UNL     1       9.762 118.616  -3.766  1.00  0.00    -0.177 N 
ATOM     16  H6  UNL     1       9.390 117.779  -3.318  1.00  0.00     0.185 HD
ENDROOT
BRANCH  13  17
HETATM   17  C6  UNL     1       6.785 118.787  -5.825  1.00  0.00     0.177 C 
BRANCH  17  18
HETATM   18  C7  UNL     1       5.504 118.913  -5.088  1.00  0.00    -0.034 A 
HETATM   19  C8  UNL     1       5.310 119.801  -4.094  1.00  0.00     0.009 A 
HETATM   20  C9  UNL     1       4.049 119.956  -3.485  1.00  0.00     0.001 A 
HETATM   21  C10 UNL     1       3.028 119.164  -3.937  1.00  0.00     0.001 A 
HETATM   22  C11 UNL     1       3.234 118.237  -4.969  1.00  0.00     0.007 A 
HETATM   23  C12 UNL     1       4.461 118.101  -5.551  1.00  0.00    -0.054 A 
HETATM   24  C13 UNL     1       4.797 117.133  -6.620  1.00  0.00     0.049 C 
ENDBRANCH  17  18
ENDBRANCH  13  17
BRANCH   8  25
HETATM   25  N3  UNL     1      10.948 123.131  -6.899  1.00  0.00    -0.343 N 
ATOM     26  H32 UNL     1      10.301 123.874  -7.163  1.00  0.00     0.176 HD
ATOM     27  H31 UNL     1      11.925 123.421  -6.929  1.00  0.00     0.176 HD
ENDBRANCH   8  25
TORSDOF 3
ENDMDL
MODEL 2
REMARK VINA RESULT: -7.507444688      1.508      3.185
REMARK  3 active torsions:
REMARK  status: ('A' for Active; 'I' for Inactive)
REMARK    1  A    between atoms: N2_8  and  N3_10 
REMARK    2  A    between atoms: N5_16  and  C6_18 
REMARK    3  A    between atoms: C6_18  and  C7_19 
ROOT
HETATM    1  C1  UNL     1       9.370 121.417  -8.268  1.00  0.00     0.064 C 
HETATM    2  C2  UNL     1       9.208 120.775  -7.132  1.00  0.00     0.114 C 
HETATM    3  N1  UNL     1      10.291 120.875  -6.187  1.00  0.00    -0.307 N 
ATOM      4  H1  UNL     1      10.975 121.606  -6.384  1.00  0.00     0.170 HD
HETATM    5  C3  UNL     1      10.551 120.091  -5.002  1.00  0.00     0.293 C 
HETATM    6  O1  UNL     1      11.635 120.332  -4.445  1.00  0.00    -0.264 OA
HETATM    7  C4  UNL     1       9.746 119.065  -4.371  1.00  0.00     0.203 C 
HETATM    8  N2  UNL     1      10.220 118.340  -3.474  1.00  0.00    -0.287 N 
ATOM      9  H2  UNL     1       9.535 117.667  -3.130  1.00  0.00     0.188 HD
HETATM   10  N4  UNL     1       8.350 118.785  -4.716  1.00  0.00    -0.170 N 
ATOM     11  H4  UNL     1       7.792 118.334  -3.991  1.00  0.00     0.186 HD
HETATM   12  C5  UNL     1       7.683 119.062  -5.931  1.00  0.00     0.681 C 
HETATM   13  N5  UNL     1       6.661 118.440  -6.213  1.00  0.00    -0.222 N 
ATOM     14  H5  UNL     1       6.247 118.694  -7.109  1.00  0.00     0.178 HD
HETATM   15  N6  UNL     1       8.006 120.053  -6.933  1.00  0.00    -0.177 N 
ATOM     16  H6  UNL     1       7.257 120.263  -7.594  1.00  0.00     0.185 HD
ENDROOT
BRANCH  13  17
HETATM   17  C6  UNL     1       5.955 117.428  -5.507  1.00  0.00     0.177 C 
BRANCH  17  18
HETATM   18  C7  UNL     1       4.525 117.802  -5.391  1.00  0.00    -0.034 A 
HETATM   19  C8  UNL     1       4.022 118.473  -4.336  1.00  0.00     0.009 A 
HETATM   20  C9  UNL     1       2.678 118.895  -4.308  1.00  0.00     0.001 A 
HETATM   21  C10 UNL     1       1.898 118.590  -5.392  1.00  0.00     0.001 A 
HETATM   22  C11 UNL     1       2.423 117.887  -6.485  1.00  0.00     0.007 A 
HETATM   23  C12 UNL     1       3.728 117.489  -6.498  1.00  0.00    -0.054 A 
HETATM   24  C13 UNL     1       4.374 116.714  -7.583  1.00  0.00     0.049 C 
ENDBRANCH  17  18
ENDBRANCH  13  17
BRANCH   8  25
HETATM   25  N3  UNL     1      11.400 118.215  -2.845  1.00  0.00    -0.343 N 
ATOM     26  H32 UNL     1      12.029 117.621  -3.385  1.00  0.00     0.176 HD
ATOM     27  H31 UNL     1      11.817 118.559  -1.980  1.00  0.00     0.176 HD
ENDBRANCH   8  25
TORSDOF 3
ENDMDL
MODEL 3
REMARK VINA RESULT: -7.311478530      1.503      3.102
REMARK  3 active torsions:
REMARK  status: ('A' for Active; 'I' for Inactive)
REMARK    1  A    between atoms: N2_8  and  N3_10 
REMARK    2  A    between atoms: N5_16  and  C6_18 
REMARK    3  A    between atoms: C6_18  and  C7_19 
ROOT
HETATM    1  C1  UNL     1       9.449 121.837  -8.575  1.00  0.00     0.064 C 
HETATM    2  C2  UNL     1       9.449 121.115  -7.475  1.00  0.00     0.114 C 
HETATM    3  N1  UNL     1      10.729 120.927  -6.840  1.00  0.00    -0.307 N 
ATOM      4  H1  UNL     1      11.471 121.548  -7.163  1.00  0.00     0.170 HD
HETATM    5  C3  UNL     1      11.114 119.988  -5.812  1.00  0.00     0.293 C 
HETATM    6  O1  UNL     1      12.326 119.981  -5.542  1.00  0.00    -0.264 OA
HETATM    7  C4  UNL     1      10.305 119.054  -5.055  1.00  0.00     0.203 C 
HETATM    8  N2  UNL     1      10.835 118.167  -4.357  1.00  0.00    -0.287 N 
ATOM      9  H2  UNL     1      10.139 117.589  -3.888  1.00  0.00     0.188 HD
HETATM   10  N4  UNL     1       8.841 119.054  -5.043  1.00  0.00    -0.170 N 
ATOM     11  H4  UNL     1       8.400 118.632  -4.226  1.00  0.00     0.186 HD
HETATM   12  C5  UNL     1       7.964 119.569  -6.024  1.00  0.00     0.681 C 
HETATM   13  N5  UNL     1       6.804 119.164  -6.068  1.00  0.00    -0.222 N 
ATOM     14  H5  UNL     1       6.241 119.580  -6.810  1.00  0.00     0.178 HD
HETATM   15  N6  UNL     1       8.216 120.591  -7.015  1.00  0.00    -0.177 N 
ATOM     16  H6  UNL     1       7.384 120.995  -7.445  1.00  0.00     0.185 HD
ENDROOT
BRANCH  13  17
HETATM   17  C6  UNL     1       6.110 118.218  -5.265  1.00  0.00     0.177 C 
BRANCH  17  18
HETATM   18  C7  UNL     1       5.006 118.891  -4.538  1.00  0.00    -0.034 A 
HETATM   19  C8  UNL     1       5.209 119.841  -3.606  1.00  0.00     0.009 A 
HETATM   20  C9  UNL     1       4.131 120.524  -3.008  1.00  0.00     0.001 A 
HETATM   21  C10 UNL     1       2.867 120.181  -3.407  1.00  0.00     0.001 A 
HETATM   22  C11 UNL     1       2.659 119.188  -4.374  1.00  0.00     0.007 A 
HETATM   23  C12 UNL     1       3.714 118.538  -4.945  1.00  0.00    -0.054 A 
HETATM   24  C13 UNL     1       3.607 117.452  -5.948  1.00  0.00     0.049 C 
ENDBRANCH  17  18
ENDBRANCH  13  17
BRANCH   8  25
HETATM   25  N3  UNL     1      12.087 117.777  -4.064  1.00  0.00    -0.343 N 
ATOM     26  H32 UNL     1      12.072 117.008  -3.395  1.00  0.00     0.176 HD
ATOM     27  H31 UNL     1      13.030 118.053  -4.338  1.00  0.00     0.176 HD
ENDBRANCH   8  25
TORSDOF 3
ENDMDL
MODEL 4
REMARK VINA RESULT: -7.304762056      1.462      3.441
REMARK  3 active torsions:
REMARK  status: ('A' for Active; 'I' for Inactive)
REMARK    1  A    between atoms: N2_8  and  N3_10 
REMARK    2  A    between atoms: N5_16  and  C6_18 
REMARK    3  A    between atoms: C6_18  and  C7_19 
ROOT
HETATM    1  C1  UNL     1       9.596 121.427  -8.418  1.00  0.00     0.064 C 
HETATM    2  C2  UNL     1       9.376 120.802  -7.282  1.00  0.00     0.114 C 
HETATM    3  N1  UNL     1      10.419 120.899  -6.293  1.00  0.00    -0.307 N 
ATOM      4  H1  UNL     1      11.121 121.618  -6.468  1.00  0.00     0.170 HD
HETATM    5  C3  UNL     1      10.617 120.125  -5.088  1.00  0.00     0.293 C 
HETATM    6  O1  UNL     1      11.679 120.360  -4.488  1.00  0.00    -0.264 OA
HETATM    7  C4  UNL     1       9.771 119.118  -4.481  1.00  0.00     0.203 C 
HETATM    8  N2  UNL     1      10.196 118.398  -3.556  1.00  0.00    -0.287 N 
ATOM      9  H2  UNL     1       9.488 117.739  -3.233  1.00  0.00     0.188 HD
HETATM   10  N4  UNL     1       8.388 118.852  -4.882  1.00  0.00    -0.170 N 
ATOM     11  H4  UNL     1       7.793 118.418  -4.177  1.00  0.00     0.186 HD
HETATM   12  C5  UNL     1       7.778 119.123  -6.128  1.00  0.00     0.681 C 
HETATM   13  N5  UNL     1       6.761 118.512  -6.446  1.00  0.00    -0.222 N 
ATOM     14  H5  UNL     1       6.389 118.760  -7.363  1.00  0.00     0.178 HD
HETATM   15  N6  UNL     1       8.157 120.098  -7.127  1.00  0.00    -0.177 N 
ATOM     16  H6  UNL     1       7.441 120.309  -7.822  1.00  0.00     0.185 HD
ENDROOT
BRANCH  13  17
HETATM   17  C6  UNL     1       6.011 117.518  -5.760  1.00  0.00     0.177 C 
BRANCH  17  18
HETATM   18  C7  UNL     1       4.572 117.879  -5.769  1.00  0.00    -0.034 A 
HETATM   19  C8  UNL     1       3.742 117.569  -6.783  1.00  0.00     0.009 A 
HETATM   20  C9  UNL     1       2.361 117.844  -6.711  1.00  0.00     0.001 A 
HETATM   21  C10 UNL     1       1.897 118.445  -5.572  1.00  0.00     0.001 A 
HETATM   22  C11 UNL     1       2.765 118.771  -4.521  1.00  0.00     0.007 A 
HETATM   23  C12 UNL     1       4.098 118.495  -4.605  1.00  0.00    -0.054 A 
HETATM   24  C13 UNL     1       5.107 118.826  -3.572  1.00  0.00     0.049 C 
ENDBRANCH  17  18
ENDBRANCH  13  17
BRANCH   8  25
HETATM   25  N3  UNL     1      11.347 118.266  -2.875  1.00  0.00    -0.343 N 
ATOM     26  H32 UNL     1      11.168 117.880  -1.948  1.00  0.00     0.176 HD
ATOM     27  H31 UNL     1      12.334 118.452  -3.049  1.00  0.00     0.176 HD
ENDBRANCH   8  25
TORSDOF 3
ENDMDL
MODEL 5
REMARK VINA RESULT: -7.099606627      1.607      1.811
REMARK  3 active torsions:
REMARK  status: ('A' for Active; 'I' for Inactive)
REMARK    1  A    between atoms: N2_8  and  N3_10 
REMARK    2  A    between atoms: N5_16  and  C6_18 
REMARK    3  A    between atoms: C6_18  and  C7_19 
ROOT
HETATM    1  C1  UNL     1      11.075 119.355  -3.276  1.00  0.00     0.064 C 
HETATM    2  C2  UNL     1      10.362 119.385  -4.381  1.00  0.00     0.114 C 
HETATM    3  N1  UNL     1      11.016 119.933  -5.542  1.00  0.00    -0.307 N 
ATOM      4  H1  UNL     1      12.028 120.035  -5.466  1.00  0.00     0.170 HD
HETATM    5  C3  UNL     1      10.447 120.359  -6.800  1.00  0.00     0.293 C 
HETATM    6  O1  UNL     1      11.250 120.902  -7.577  1.00  0.00    -0.264 OA
HETATM    7  C4  UNL     1       9.087 120.254  -7.289  1.00  0.00     0.203 C 
HETATM    8  N2  UNL     1       8.726 120.867  -8.313  1.00  0.00    -0.287 N 
ATOM      9  H2  UNL     1       7.744 120.696  -8.530  1.00  0.00     0.188 HD
HETATM   10  N4  UNL     1       8.041 119.454  -6.649  1.00  0.00    -0.170 N 
ATOM     11  H4  UNL     1       7.273 119.157  -7.251  1.00  0.00     0.186 HD
HETATM   12  C5  UNL     1       7.965 119.044  -5.298  1.00  0.00     0.681 C 
HETATM   13  N5  UNL     1       6.877 118.724  -4.826  1.00  0.00    -0.222 N 
ATOM     14  H5  UNL     1       6.908 118.449  -3.844  1.00  0.00     0.178 HD
HETATM   15  N6  UNL     1       9.037 118.888  -4.340  1.00  0.00    -0.177 N 
ATOM     16  H6  UNL     1       8.804 118.338  -3.513  1.00  0.00     0.185 HD
ENDROOT
BRANCH  13  17
HETATM   17  C6  UNL     1       5.581 118.669  -5.409  1.00  0.00     0.177 C 
BRANCH  17  18
HETATM   18  C7  UNL     1       4.583 119.232  -4.467  1.00  0.00    -0.034 A 
HETATM   19  C8  UNL     1       4.902 120.102  -3.489  1.00  0.00     0.009 A 
HETATM   20  C9  UNL     1       3.910 120.688  -2.677  1.00  0.00     0.001 A 
HETATM   21  C10 UNL     1       2.609 120.334  -2.915  1.00  0.00     0.001 A 
HETATM   22  C11 UNL     1       2.281 119.424  -3.931  1.00  0.00     0.007 A 
HETATM   23  C12 UNL     1       3.253 118.868  -4.710  1.00  0.00    -0.054 A 
HETATM   24  C13 UNL     1       3.023 117.873  -5.784  1.00  0.00     0.049 C 
ENDBRANCH  17  18
ENDBRANCH  13  17
BRANCH   8  25
HETATM   25  N3  UNL     1       9.295 121.695  -9.204  1.00  0.00    -0.343 N 
ATOM     26  H32 UNL     1       8.757 121.710 -10.070  1.00  0.00     0.176 HD
ATOM     27  H31 UNL     1      10.116 122.301  -9.231  1.00  0.00     0.176 HD
ENDBRANCH   8  25
TORSDOF 3
ENDMDL
