MODEL 1
REMARK VINA RESULT: -7.896210463      0.000      0.000
REMARK  3 active torsions:
REMARK  status: ('A' for Active; 'I' for Inactive)
REMARK    1  A    between atoms: N3_4  and  N4_6 
REMARK       I    between atoms: C2_8  and  N6_10 
REMARK    2  A    between atoms: N6_10  and  C3_12 
REMARK    3  A    between atoms: C6_15  and  C7_16 
ROOT
HETATM    1  C3  UNL     1       5.500 116.649  -6.769  1.00  0.00     0.122 A 
HETATM    2  C4  UNL     1       4.225 117.073  -7.006  1.00  0.00     0.052 A 
HETATM    3  C5  UNL     1       3.632 117.932  -6.082  1.00  0.00     0.035 A 
HETATM    4  C6  UNL     1       4.271 118.368  -4.953  1.00  0.00     0.058 A 
HETATM    5  N7  UNL     1       5.548 117.902  -4.783  1.00  0.00    -0.298 N 
ATOM      6  H7  UNL     1       6.079 118.189  -3.961  1.00  0.00     0.187 HD
HETATM    7  N8  UNL     1       6.103 117.090  -5.657  1.00  0.00    -0.285 N 
ATOM      8  H8  UNL     1       7.057 116.777  -5.476  1.00  0.00     0.188 HD
ENDROOT
BRANCH   1   9
HETATM    9  N6  UNL     1       6.156 115.862  -7.534  1.00  0.00    -0.314 N 
HETATM   10  C2  UNL     1       6.045 115.809  -8.935  1.00  0.00     0.208 C 
HETATM   11  N4  UNL     1       5.687 114.698  -9.485  1.00  0.00    -0.271 N 
HETATM   12  N5  UNL     1       6.299 116.903  -9.805  1.00  0.00    -0.062 NA
ATOM     13  H4  UNL     1       5.606 114.659 -10.501  1.00  0.00     0.189 HD
ATOM     14  H6  UNL     1       6.815 115.219  -7.093  1.00  0.00     0.170 HD
BRANCH  11  15
HETATM   15  N3  UNL     1       5.407 113.548  -8.748  1.00  0.00    -0.274 N 
HETATM   16  C1  UNL     1       6.256 112.555  -8.684  1.00  0.00     0.215 C 
HETATM   17  N1  UNL     1       5.945 111.398  -7.926  1.00  0.00    -0.065 NA
HETATM   18  N2  UNL     1       7.490 112.666  -9.387  1.00  0.00    -0.065 NA
ATOM     19  H3  UNL     1       4.520 113.479  -8.248  1.00  0.00     0.189 HD
ENDBRANCH  11  15
ENDBRANCH   1   9
BRANCH   4  20
HETATM   20  C7  UNL     1       3.684 119.264  -3.969  1.00  0.00    -0.008 A 
HETATM   21  C8  UNL     1       4.450 120.227  -3.376  1.00  0.00     0.014 A 
HETATM   22  C9  UNL     1       3.857 121.070  -2.435  1.00  0.00     0.001 A 
HETATM   23  C10 UNL     1       2.548 120.949  -2.107  1.00  0.00     0.000 A 
HETATM   24  C11 UNL     1       1.784 119.975  -2.710  1.00  0.00     0.001 A 
HETATM   25  C12 UNL     1       2.331 119.135  -3.632  1.00  0.00     0.014 A 
ENDBRANCH   4  20
TORSDOF 3
ENDMDL
MODEL 2
REMARK VINA RESULT: -7.877852308      0.040      1.065
REMARK  3 active torsions:
REMARK  status: ('A' for Active; 'I' for Inactive)
REMARK    1  A    between atoms: N3_4  and  N4_6 
REMARK       I    between atoms: C2_8  and  N6_10 
REMARK    2  A    between atoms: N6_10  and  C3_12 
REMARK    3  A    between atoms: C6_15  and  C7_16 
ROOT
HETATM    1  C3  UNL     1       5.483 116.664  -6.737  1.00  0.00     0.122 A 
HETATM    2  C4  UNL     1       4.213 117.096  -6.989  1.00  0.00     0.052 A 
HETATM    3  C5  UNL     1       3.612 117.952  -6.069  1.00  0.00     0.035 A 
HETATM    4  C6  UNL     1       4.236 118.377  -4.928  1.00  0.00     0.058 A 
HETATM    5  N7  UNL     1       5.508 117.903  -4.742  1.00  0.00    -0.298 N 
ATOM      6  H7  UNL     1       6.029 118.183  -3.910  1.00  0.00     0.187 HD
HETATM    7  N8  UNL     1       6.072 117.095  -5.614  1.00  0.00    -0.285 N 
ATOM      8  H8  UNL     1       7.022 116.775  -5.421  1.00  0.00     0.188 HD
ENDROOT
BRANCH   1   9
HETATM    9  N6  UNL     1       6.147 115.878  -7.498  1.00  0.00    -0.314 N 
HETATM   10  C2  UNL     1       6.045 115.826  -8.900  1.00  0.00     0.208 C 
HETATM   11  N4  UNL     1       5.694 114.714  -9.452  1.00  0.00    -0.271 N 
HETATM   12  N5  UNL     1       6.303 116.921  -9.767  1.00  0.00    -0.062 NA
ATOM     13  H4  UNL     1       5.620 114.675 -10.469  1.00  0.00     0.189 HD
ATOM     14  H6  UNL     1       6.804 115.238  -7.052  1.00  0.00     0.170 HD
BRANCH  11  15
HETATM   15  N3  UNL     1       5.411 113.563  -8.718  1.00  0.00    -0.274 N 
HETATM   16  C1  UNL     1       6.252 112.563  -8.667  1.00  0.00     0.215 C 
HETATM   17  N1  UNL     1       5.938 111.405  -7.911  1.00  0.00    -0.065 NA
HETATM   18  N2  UNL     1       7.479 112.666  -9.383  1.00  0.00    -0.065 NA
ATOM     19  H3  UNL     1       4.529 113.500  -8.209  1.00  0.00     0.189 HD
ENDBRANCH  11  15
ENDBRANCH   1   9
BRANCH   4  20
HETATM   20  C7  UNL     1       3.640 119.269  -3.946  1.00  0.00    -0.008 A 
HETATM   21  C8  UNL     1       2.324 119.133  -3.607  1.00  0.00     0.014 A 
HETATM   22  C9  UNL     1       1.781 120.005  -2.663  1.00  0.00     0.001 A 
HETATM   23  C10 UNL     1       2.533 120.972  -2.083  1.00  0.00     0.000 A 
HETATM   24  C11 UNL     1       3.858 121.102  -2.432  1.00  0.00     0.001 A 
HETATM   25  C12 UNL     1       4.420 120.269  -3.350  1.00  0.00     0.014 A 
ENDBRANCH   4  20
TORSDOF 3
ENDMDL
MODEL 3
REMARK VINA RESULT: -7.525351909      1.222      1.722
REMARK  3 active torsions:
REMARK  status: ('A' for Active; 'I' for Inactive)
REMARK    1  A    between atoms: N3_4  and  N4_6 
REMARK       I    between atoms: C2_8  and  N6_10 
REMARK    2  A    between atoms: N6_10  and  C3_12 
REMARK    3  A    between atoms: C6_15  and  C7_16 
ROOT
HETATM    1  C3  UNL     1       5.286 116.628  -6.764  1.00  0.00     0.122 A 
HETATM    2  C4  UNL     1       5.989 116.923  -5.633  1.00  0.00     0.052 A 
HETATM    3  C5  UNL     1       5.409 117.780  -4.699  1.00  0.00     0.035 A 
HETATM    4  C6  UNL     1       4.169 118.335  -4.867  1.00  0.00     0.058 A 
HETATM    5  N7  UNL     1       3.523 117.994  -6.026  1.00  0.00    -0.298 N 
ATOM      6  H7  UNL     1       2.596 118.375  -6.211  1.00  0.00     0.187 HD
HETATM    7  N8  UNL     1       4.075 117.185  -6.904  1.00  0.00    -0.285 N 
ATOM      8  H8  UNL     1       3.546 116.966  -7.749  1.00  0.00     0.188 HD
ENDROOT
BRANCH   1   9
HETATM    9  N6  UNL     1       5.703 115.858  -7.697  1.00  0.00    -0.314 N 
HETATM   10  C2  UNL     1       4.979 115.515  -8.853  1.00  0.00     0.208 C 
HETATM   11  N4  UNL     1       4.726 114.269  -9.076  1.00  0.00    -0.271 N 
HETATM   12  N5  UNL     1       4.497 116.449  -9.809  1.00  0.00    -0.062 NA
ATOM     13  H4  UNL     1       4.202 114.019  -9.914  1.00  0.00     0.189 HD
ATOM     14  H6  UNL     1       6.637 115.461  -7.595  1.00  0.00     0.170 HD
BRANCH  11  15
HETATM   15  N3  UNL     1       5.141 113.250  -8.219  1.00  0.00    -0.274 N 
HETATM   16  C1  UNL     1       5.322 112.029  -8.650  1.00  0.00     0.215 C 
HETATM   17  N1  UNL     1       5.745 111.013  -7.755  1.00  0.00    -0.065 NA
HETATM   18  N2  UNL     1       5.088 111.748 -10.026  1.00  0.00    -0.065 NA
ATOM     19  H3  UNL     1       5.305 113.462  -7.235  1.00  0.00     0.189 HD
ENDBRANCH  11  15
ENDBRANCH   1   9
BRANCH   4  20
HETATM   20  C7  UNL     1       3.534 119.233  -3.915  1.00  0.00    -0.008 A 
HETATM   21  C8  UNL     1       2.210 119.083  -3.612  1.00  0.00     0.014 A 
HETATM   22  C9  UNL     1       1.630 119.961  -2.695  1.00  0.00     0.001 A 
HETATM   23  C10 UNL     1       2.352 120.946  -2.108  1.00  0.00     0.000 A 
HETATM   24  C11 UNL     1       3.686 121.088  -2.420  1.00  0.00     0.001 A 
HETATM   25  C12 UNL     1       4.284 120.250  -3.311  1.00  0.00     0.014 A 
ENDBRANCH   4  20
TORSDOF 3
ENDMDL
MODEL 4
REMARK VINA RESULT: -7.497080224      5.393      7.603
REMARK  3 active torsions:
REMARK  status: ('A' for Active; 'I' for Inactive)
REMARK    1  A    between atoms: N3_4  and  N4_6 
REMARK       I    between atoms: C2_8  and  N6_10 
REMARK    2  A    between atoms: N6_10  and  C3_12 
REMARK    3  A    between atoms: C6_15  and  C7_16 
ROOT
HETATM    1  C3  UNL     1       9.740 119.725  -6.142  1.00  0.00     0.122 A 
HETATM    2  C4  UNL     1       8.989 119.909  -7.267  1.00  0.00     0.052 A 
HETATM    3  C5  UNL     1       7.646 119.540  -7.232  1.00  0.00     0.035 A 
HETATM    4  C6  UNL     1       7.050 119.003  -6.123  1.00  0.00     0.058 A 
HETATM    5  N7  UNL     1       7.865 118.849  -5.033  1.00  0.00    -0.298 N 
ATOM      6  H7  UNL     1       7.481 118.454  -4.174  1.00  0.00     0.187 HD
HETATM    7  N8  UNL     1       9.133 119.199  -5.071  1.00  0.00    -0.285 N 
ATOM      8  H8  UNL     1       9.690 119.060  -4.228  1.00  0.00     0.188 HD
ENDROOT
BRANCH   1   9
HETATM    9  N6  UNL     1      10.981 120.021  -6.043  1.00  0.00    -0.314 N 
HETATM   10  C2  UNL     1      11.903 119.384  -5.194  1.00  0.00     0.208 C 
HETATM   11  N4  UNL     1      12.519 120.092  -4.308  1.00  0.00    -0.271 N 
HETATM   12  N5  UNL     1      12.214 117.998  -5.237  1.00  0.00    -0.062 NA
ATOM     13  H4  UNL     1      13.188 119.631  -3.692  1.00  0.00     0.189 HD
ATOM     14  H6  UNL     1      11.330 120.781  -6.628  1.00  0.00     0.170 HD
BRANCH  11  15
HETATM   15  N3  UNL     1      12.307 121.462  -4.158  1.00  0.00    -0.274 N 
HETATM   16  C1  UNL     1      12.935 122.153  -3.242  1.00  0.00     0.215 C 
HETATM   17  N1  UNL     1      12.701 123.545  -3.113  1.00  0.00    -0.065 NA
HETATM   18  N2  UNL     1      13.852 121.477  -2.386  1.00  0.00    -0.065 NA
ATOM     19  H3  UNL     1      11.648 121.936  -4.776  1.00  0.00     0.189 HD
ENDBRANCH  11  15
ENDBRANCH   1   9
BRANCH   4  20
HETATM   20  C7  UNL     1       5.652 118.607  -6.051  1.00  0.00    -0.008 A 
HETATM   21  C8  UNL     1       4.994 118.207  -7.179  1.00  0.00     0.014 A 
HETATM   22  C9  UNL     1       3.653 117.834  -7.076  1.00  0.00     0.001 A 
HETATM   23  C10 UNL     1       3.004 117.860  -5.887  1.00  0.00     0.000 A 
HETATM   24  C11 UNL     1       3.676 118.264  -4.755  1.00  0.00     0.001 A 
HETATM   25  C12 UNL     1       4.984 118.636  -4.820  1.00  0.00     0.014 A 
ENDBRANCH   4  20
TORSDOF 3
ENDMDL
MODEL 5
REMARK VINA RESULT: -7.472006923      1.631      2.825
REMARK  3 active torsions:
REMARK  status: ('A' for Active; 'I' for Inactive)
REMARK    1  A    between atoms: N3_4  and  N4_6 
REMARK       I    between atoms: C2_8  and  N6_10 
REMARK    2  A    between atoms: N6_10  and  C3_12 
REMARK    3  A    between atoms: C6_15  and  C7_16 
ROOT
HETATM    1  C3  UNL     1       5.321 115.591  -8.031  1.00  0.00     0.122 A 
HETATM    2  C4  UNL     1       4.157 116.271  -8.244  1.00  0.00     0.052 A 
HETATM    3  C5  UNL     1       3.747 117.195  -7.285  1.00  0.00     0.035 A 
HETATM    4  C6  UNL     1       4.459 117.450  -6.144  1.00  0.00     0.058 A 
HETATM    5  N7  UNL     1       5.615 116.731  -5.999  1.00  0.00    -0.298 N 
ATOM      6  H7  UNL     1       6.192 116.874  -5.169  1.00  0.00     0.187 HD
HETATM    7  N8  UNL     1       5.998 115.859  -6.907  1.00  0.00    -0.285 N 
ATOM      8  H8  UNL     1       6.869 115.353  -6.744  1.00  0.00     0.188 HD
ENDROOT
BRANCH   1   9
HETATM    9  N6  UNL     1       5.807 114.718  -8.830  1.00  0.00    -0.314 N 
HETATM   10  C2  UNL     1       6.546 113.585  -8.445  1.00  0.00     0.208 C 
HETATM   11  N4  UNL     1       7.748 113.450  -8.895  1.00  0.00    -0.271 N 
HETATM   12  N5  UNL     1       6.063 112.562  -7.585  1.00  0.00    -0.062 NA
ATOM     13  H4  UNL     1       8.285 112.629  -8.616  1.00  0.00     0.189 HD
ATOM     14  H6  UNL     1       5.645 114.854  -9.828  1.00  0.00     0.170 HD
BRANCH  11  15
HETATM   15  N3  UNL     1       8.344 114.380  -9.745  1.00  0.00    -0.274 N 
HETATM   16  C1  UNL     1       9.010 114.005 -10.806  1.00  0.00     0.215 C 
HETATM   17  N1  UNL     1       9.605 114.973 -11.654  1.00  0.00    -0.065 NA
HETATM   18  N2  UNL     1       9.121 112.613 -11.086  1.00  0.00    -0.065 NA
ATOM     19  H3  UNL     1       8.259 115.375  -9.535  1.00  0.00     0.189 HD
ENDBRANCH  11  15
ENDBRANCH   1   9
BRANCH   4  20
HETATM   20  C7  UNL     1       4.062 118.407  -5.122  1.00  0.00    -0.008 A 
HETATM   21  C8  UNL     1       2.742 118.564  -4.807  1.00  0.00     0.014 A 
HETATM   22  C9  UNL     1       2.394 119.491  -3.823  1.00  0.00     0.001 A 
HETATM   23  C10 UNL     1       3.336 120.226  -3.184  1.00  0.00     0.000 A 
HETATM   24  C11 UNL     1       4.663 120.060  -3.508  1.00  0.00     0.001 A 
HETATM   25  C12 UNL     1       5.038 119.165  -4.464  1.00  0.00     0.014 A 
ENDBRANCH   4  20
TORSDOF 3
ENDMDL
