MODEL 1
REMARK VINA RESULT: -7.810912545      0.000      0.000
REMARK  3 active torsions:
REMARK  status: ('A' for Active; 'I' for Inactive)
REMARK    1  A    between atoms: N2_5  and  C3_6 
REMARK    2  A    between atoms: C6_19  and  C7_20 
REMARK    3  A    between atoms: C7_20  and  C8_21 
ROOT
HETATM    1  C1  UNL     1       7.035 118.863  -4.723  1.00  0.00     0.045 C 
HETATM    2  C2  UNL     1       5.738 119.059  -4.423  1.00  0.00     0.055 A 
HETATM    3  N1  UNL     1       5.214 120.073  -3.712  1.00  0.00    -0.277 N 
ATOM      4  H1  UNL     1       5.763 120.832  -3.308  1.00  0.00     0.188 HD
HETATM    5  N2  UNL     1       3.902 119.967  -3.600  1.00  0.00    -0.045 N 
HETATM    6  C5  UNL     1       3.560 118.844  -4.261  1.00  0.00     0.295 A 
HETATM    7  O1  UNL     1       2.392 118.400  -4.381  1.00  0.00    -0.265 OA
HETATM    8  C6  UNL     1       4.680 118.246  -4.791  1.00  0.00     0.062 A 
ENDROOT
BRANCH   5   9
HETATM    9  C3  UNL     1       3.025 120.874  -2.908  1.00  0.00     0.736 A 
HETATM   10  N3  UNL     1       2.076 120.617  -2.020  1.00  0.00    -0.115 N 
HETATM   11  N4  UNL     1       1.522 121.777  -1.650  1.00  0.00    -0.117 N 
ATOM     12  H3  UNL     1       1.813 119.693  -1.678  1.00  0.00     0.206 HD
HETATM   13  C4  UNL     1       2.123 122.778  -2.306  1.00  0.00     0.705 A 
ATOM     14  H4  UNL     1       0.764 121.882  -0.975  1.00  0.00     0.206 HD
HETATM   15  N5  UNL     1       1.842 124.054  -2.196  1.00  0.00    -0.233 N 
HETATM   16  N6  UNL     1       3.055 122.215  -3.086  1.00  0.00    -0.018 N 
ATOM     17  H52 UNL     1       1.133 124.483  -1.602  1.00  0.00     0.174 HD
ATOM     18  H51 UNL     1       2.300 124.816  -2.696  1.00  0.00     0.174 HD
ATOM     19  H6  UNL     1       3.685 122.716  -3.713  1.00  0.00     0.203 HD
ENDBRANCH   5   9
BRANCH   8  20
HETATM   20  C7  UNL     1       4.771 117.136  -5.503  1.00  0.00     0.030 C 
BRANCH  20  21
HETATM   21  C8  UNL     1       4.701 117.134  -6.955  1.00  0.00    -0.035 A 
HETATM   22  C9  UNL     1       3.796 117.961  -7.584  1.00  0.00     0.011 A 
HETATM   23  C10 UNL     1       3.756 117.934  -8.985  1.00  0.00     0.001 A 
HETATM   24  C11 UNL     1       4.599 117.104  -9.689  1.00  0.00     0.000 A 
HETATM   25  C12 UNL     1       5.497 116.285  -9.054  1.00  0.00     0.001 A 
HETATM   26  C13 UNL     1       5.549 116.302  -7.655  1.00  0.00     0.011 A 
ENDBRANCH  20  21
ENDBRANCH   8  20
TORSDOF 3
ENDMDL
MODEL 2
REMARK VINA RESULT: -7.762722839      0.089      1.078
REMARK  3 active torsions:
REMARK  status: ('A' for Active; 'I' for Inactive)
REMARK    1  A    between atoms: N2_5  and  C3_6 
REMARK    2  A    between atoms: C6_19  and  C7_20 
REMARK    3  A    between atoms: C7_20  and  C8_21 
ROOT
HETATM    1  C1  UNL     1       7.065 118.919  -4.698  1.00  0.00     0.045 C 
HETATM    2  C2  UNL     1       5.764 119.089  -4.402  1.00  0.00     0.055 A 
HETATM    3  N1  UNL     1       5.215 120.102  -3.707  1.00  0.00    -0.277 N 
ATOM      4  H1  UNL     1       5.746 120.880  -3.315  1.00  0.00     0.188 HD
HETATM    5  N2  UNL     1       3.906 119.967  -3.594  1.00  0.00    -0.045 N 
HETATM    6  C5  UNL     1       3.591 118.827  -4.238  1.00  0.00     0.295 A 
HETATM    7  O1  UNL     1       2.433 118.354  -4.351  1.00  0.00    -0.265 OA
HETATM    8  C6  UNL     1       4.725 118.246  -4.757  1.00  0.00     0.062 A 
ENDROOT
BRANCH   5   9
HETATM    9  C3  UNL     1       3.008 120.864  -2.917  1.00  0.00     0.736 A 
HETATM   10  N3  UNL     1       1.998 120.592  -2.104  1.00  0.00    -0.115 N 
HETATM   11  N4  UNL     1       1.448 121.748  -1.715  1.00  0.00    -0.117 N 
ATOM     12  H3  UNL     1       1.693 119.660  -1.822  1.00  0.00     0.206 HD
HETATM   13  C4  UNL     1       2.113 122.762  -2.285  1.00  0.00     0.705 A 
ATOM     14  H4  UNL     1       0.652 121.842  -1.086  1.00  0.00     0.206 HD
HETATM   15  N5  UNL     1       1.854 124.038  -2.133  1.00  0.00    -0.233 N 
HETATM   16  N6  UNL     1       3.079 122.210  -3.030  1.00  0.00    -0.018 N 
ATOM     17  H52 UNL     1       1.118 124.458  -1.566  1.00  0.00     0.174 HD
ATOM     18  H51 UNL     1       2.360 124.810  -2.567  1.00  0.00     0.174 HD
ATOM     19  H6  UNL     1       3.759 122.723  -3.592  1.00  0.00     0.203 HD
ENDBRANCH   5   9
BRANCH   8  20
HETATM   20  C7  UNL     1       4.842 117.127  -5.452  1.00  0.00     0.030 C 
BRANCH  20  21
HETATM   21  C8  UNL     1       4.729 117.094  -6.901  1.00  0.00    -0.035 A 
HETATM   22  C9  UNL     1       5.613 116.325  -7.625  1.00  0.00     0.011 A 
HETATM   23  C10 UNL     1       5.475 116.315  -9.019  1.00  0.00     0.001 A 
HETATM   24  C11 UNL     1       4.486 117.056  -9.625  1.00  0.00     0.000 A 
HETATM   25  C12 UNL     1       3.611 117.819  -8.896  1.00  0.00     0.001 A 
HETATM   26  C13 UNL     1       3.736 117.838  -7.502  1.00  0.00     0.011 A 
ENDBRANCH  20  21
ENDBRANCH   8  20
TORSDOF 3
ENDMDL
MODEL 3
REMARK VINA RESULT: -7.065944025      1.053      1.312
REMARK  3 active torsions:
REMARK  status: ('A' for Active; 'I' for Inactive)
REMARK    1  A    between atoms: N2_5  and  C3_6 
REMARK    2  A    between atoms: C6_19  and  C7_20 
REMARK    3  A    between atoms: C7_20  and  C8_21 
ROOT
HETATM    1  C1  UNL     1       6.528 118.210  -5.105  1.00  0.00     0.045 C 
HETATM    2  C2  UNL     1       5.250 118.541  -4.843  1.00  0.00     0.055 A 
HETATM    3  N1  UNL     1       4.813 119.446  -3.949  1.00  0.00    -0.277 N 
ATOM      4  H1  UNL     1       5.426 120.001  -3.350  1.00  0.00     0.188 HD
HETATM    5  N2  UNL     1       3.496 119.529  -3.939  1.00  0.00    -0.045 N 
HETATM    6  C5  UNL     1       3.059 118.647  -4.859  1.00  0.00     0.295 A 
HETATM    7  O1  UNL     1       1.855 118.433  -5.145  1.00  0.00    -0.265 OA
HETATM    8  C6  UNL     1       4.125 118.008  -5.447  1.00  0.00     0.062 A 
ENDROOT
BRANCH   5   9
HETATM    9  C3  UNL     1       2.697 120.392  -3.109  1.00  0.00     0.736 A 
HETATM   10  N3  UNL     1       1.707 120.088  -2.283  1.00  0.00    -0.115 N 
HETATM   11  N4  UNL     1       1.263 121.219  -1.725  1.00  0.00    -0.117 N 
ATOM     12  H3  UNL     1       1.346 119.151  -2.103  1.00  0.00     0.206 HD
HETATM   13  C4  UNL     1       1.976 122.250  -2.199  1.00  0.00     0.705 A 
ATOM     14  H4  UNL     1       0.505 121.287  -1.047  1.00  0.00     0.206 HD
HETATM   15  N5  UNL     1       1.820 123.511  -1.877  1.00  0.00    -0.233 N 
HETATM   16  N6  UNL     1       2.864 121.733  -3.058  1.00  0.00    -0.018 N 
ATOM     17  H52 UNL     1       1.144 123.905  -1.223  1.00  0.00     0.174 HD
ATOM     18  H51 UNL     1       2.363 124.296  -2.238  1.00  0.00     0.174 HD
ATOM     19  H6  UNL     1       3.555 122.266  -3.587  1.00  0.00     0.203 HD
ENDBRANCH   5   9
BRANCH   8  20
HETATM   20  C7  UNL     1       4.121 117.080  -6.389  1.00  0.00     0.030 C 
BRANCH  20  21
HETATM   21  C8  UNL     1       3.722 117.361  -7.758  1.00  0.00    -0.035 A 
HETATM   22  C9  UNL     1       2.656 116.676  -8.300  1.00  0.00     0.011 A 
HETATM   23  C10 UNL     1       2.298 116.973  -9.621  1.00  0.00     0.001 A 
HETATM   24  C11 UNL     1       2.999 117.917 -10.337  1.00  0.00     0.000 A 
HETATM   25  C12 UNL     1       4.058 118.593  -9.790  1.00  0.00     0.001 A 
HETATM   26  C13 UNL     1       4.428 118.308  -8.470  1.00  0.00     0.011 A 
ENDBRANCH  20  21
ENDBRANCH   8  20
TORSDOF 3
ENDMDL
MODEL 4
REMARK VINA RESULT: -6.829387313      4.440      6.722
REMARK  3 active torsions:
REMARK  status: ('A' for Active; 'I' for Inactive)
REMARK    1  A    between atoms: N2_5  and  C3_6 
REMARK    2  A    between atoms: C6_19  and  C7_20 
REMARK    3  A    between atoms: C7_20  and  C8_21 
ROOT
HETATM    1  C1  UNL     1       5.438 118.497  -8.075  1.00  0.00     0.045 C 
HETATM    2  C2  UNL     1       6.467 118.741  -7.244  1.00  0.00     0.055 A 
HETATM    3  N1  UNL     1       7.651 119.296  -7.559  1.00  0.00    -0.277 N 
ATOM      4  H1  UNL     1       7.906 119.604  -8.498  1.00  0.00     0.188 HD
HETATM    5  N2  UNL     1       8.443 119.393  -6.507  1.00  0.00    -0.045 N 
HETATM    6  C5  UNL     1       7.751 118.883  -5.470  1.00  0.00     0.295 A 
HETATM    7  O1  UNL     1       8.170 118.799  -4.289  1.00  0.00    -0.265 OA
HETATM    8  C6  UNL     1       6.510 118.463  -5.888  1.00  0.00     0.062 A 
ENDROOT
BRANCH   5   9
HETATM    9  C3  UNL     1       9.775 119.936  -6.484  1.00  0.00     0.736 A 
HETATM   10  N3  UNL     1      10.670 120.016  -7.459  1.00  0.00    -0.115 N 
HETATM   11  N4  UNL     1      11.771 120.599  -6.971  1.00  0.00    -0.117 N 
ATOM     12  H3  UNL     1      10.541 119.690  -8.416  1.00  0.00     0.206 HD
HETATM   13  C4  UNL     1      11.575 120.891  -5.678  1.00  0.00     0.705 A 
ATOM     14  H4  UNL     1      12.622 120.791  -7.498  1.00  0.00     0.206 HD
HETATM   15  N5  UNL     1      12.437 121.468  -4.877  1.00  0.00    -0.233 N 
HETATM   16  N6  UNL     1      10.336 120.478  -5.379  1.00  0.00    -0.018 N 
ATOM     17  H52 UNL     1      13.380 121.783  -5.104  1.00  0.00     0.174 HD
ATOM     18  H51 UNL     1      12.288 121.690  -3.892  1.00  0.00     0.174 HD
ATOM     19  H6  UNL     1       9.889 120.560  -4.466  1.00  0.00     0.203 HD
ENDBRANCH   5   9
BRANCH   8  20
HETATM   20  C7  UNL     1       5.538 117.911  -5.183  1.00  0.00     0.030 C 
BRANCH  20  21
HETATM   21  C8  UNL     1       4.498 118.697  -4.540  1.00  0.00    -0.035 A 
HETATM   22  C9  UNL     1       3.178 118.360  -4.746  1.00  0.00     0.011 A 
HETATM   23  C10 UNL     1       2.202 119.138  -4.110  1.00  0.00     0.001 A 
HETATM   24  C11 UNL     1       2.569 120.198  -3.312  1.00  0.00     0.000 A 
HETATM   25  C12 UNL     1       3.884 120.526  -3.112  1.00  0.00     0.001 A 
HETATM   26  C13 UNL     1       4.871 119.756  -3.741  1.00  0.00     0.011 A 
ENDBRANCH  20  21
ENDBRANCH   8  20
TORSDOF 3
ENDMDL
MODEL 5
REMARK VINA RESULT: -6.750901285      2.589      3.458
REMARK  3 active torsions:
REMARK  status: ('A' for Active; 'I' for Inactive)
REMARK    1  A    between atoms: N2_5  and  C3_6 
REMARK    2  A    between atoms: C6_19  and  C7_20 
REMARK    3  A    between atoms: C7_20  and  C8_21 
ROOT
HETATM    1  C1  UNL     1       5.665 116.425  -6.952  1.00  0.00     0.045 C 
HETATM    2  C2  UNL     1       4.545 117.087  -6.613  1.00  0.00     0.055 A 
HETATM    3  N1  UNL     1       4.288 117.704  -5.445  1.00  0.00    -0.277 N 
ATOM      4  H1  UNL     1       4.940 117.738  -4.661  1.00  0.00     0.188 HD
HETATM    5  N2  UNL     1       3.091 118.260  -5.437  1.00  0.00    -0.045 N 
HETATM    6  C5  UNL     1       2.548 117.996  -6.641  1.00  0.00     0.295 A 
HETATM    7  O1  UNL     1       1.407 118.361  -7.018  1.00  0.00    -0.265 OA
HETATM    8  C6  UNL     1       3.425 117.264  -7.407  1.00  0.00     0.062 A 
ENDROOT
BRANCH   5   9
HETATM    9  C3  UNL     1       2.496 118.997  -4.354  1.00  0.00     0.736 A 
HETATM   10  N3  UNL     1       1.229 119.059  -3.972  1.00  0.00    -0.115 N 
HETATM   11  N4  UNL     1       1.148 119.874  -2.914  1.00  0.00    -0.117 N 
ATOM     12  H3  UNL     1       0.448 118.569  -4.409  1.00  0.00     0.206 HD
HETATM   13  C4  UNL     1       2.373 120.333  -2.622  1.00  0.00     0.705 A 
ATOM     14  H4  UNL     1       0.293 120.108  -2.410  1.00  0.00     0.206 HD
HETATM   15  N5  UNL     1       2.678 121.155  -1.647  1.00  0.00    -0.233 N 
HETATM   16  N6  UNL     1       3.206 119.788  -3.517  1.00  0.00    -0.018 N 
ATOM     17  H52 UNL     1       2.043 121.570  -0.965  1.00  0.00     0.174 HD
ATOM     18  H51 UNL     1       3.610 121.504  -1.424  1.00  0.00     0.174 HD
ATOM     19  H6  UNL     1       4.213 119.943  -3.560  1.00  0.00     0.203 HD
ENDBRANCH   5   9
BRANCH   8  20
HETATM   20  C7  UNL     1       3.272 116.808  -8.638  1.00  0.00     0.030 C 
BRANCH  20  21
HETATM   21  C8  UNL     1       2.660 115.521  -8.922  1.00  0.00    -0.035 A 
HETATM   22  C9  UNL     1       3.468 114.422  -9.120  1.00  0.00     0.011 A 
HETATM   23  C10 UNL     1       2.843 113.197  -9.390  1.00  0.00     0.001 A 
HETATM   24  C11 UNL     1       1.471 113.114  -9.453  1.00  0.00     0.000 A 
HETATM   25  C12 UNL     1       0.675 114.212  -9.254  1.00  0.00     0.001 A 
HETATM   26  C13 UNL     1       1.284 115.444  -8.982  1.00  0.00     0.011 A 
ENDBRANCH  20  21
ENDBRANCH   8  20
TORSDOF 3
ENDMDL
