MODEL 1
REMARK VINA RESULT: -6.557185327      0.000      0.000
REMARK  4 active torsions:
REMARK  status: ('A' for Active; 'I' for Inactive)
REMARK    1  A    between atoms: N1_2  and  C2_4 
REMARK    2  A    between atoms: C6_8  and  C7_9 
REMARK    3  A    between atoms: C7_9  and  N2_10 
REMARK    4  A    between atoms: N2_10  and  C8_12 
ROOT
HETATM    1  C8  UNL     1     -40.403   9.216   2.038  1.00  0.00     0.133 A 
HETATM    2  N3  UNL     1     -39.812   9.495   0.869  1.00  0.00    -0.337 N 
ATOM      3  H3  UNL     1     -40.168  10.245   0.277  1.00  0.00     0.168 HD
HETATM    4  C9  UNL     1     -38.730   8.763   0.479  1.00  0.00     0.183 A 
HETATM    5  N4  UNL     1     -38.263   7.779   1.254  1.00  0.00    -0.336 N 
ATOM      6  H4  UNL     1     -37.451   7.244   0.943  1.00  0.00     0.168 HD
HETATM    7  C10 UNL     1     -38.834   7.475   2.433  1.00  0.00     0.141 A 
HETATM    8  N5  UNL     1     -38.576   6.561   3.382  1.00  0.00    -0.292 N 
ATOM      9  H5  UNL     1     -37.820   5.877   3.353  1.00  0.00     0.172 HD
HETATM   10  C11 UNL     1     -39.474   6.688   4.382  1.00  0.00     0.326 A 
HETATM   11  O1  UNL     1     -39.534   5.997   5.437  1.00  0.00    -0.247 OA
HETATM   12  N6  UNL     1     -40.300   7.700   4.040  1.00  0.00    -0.302 N 
ATOM     13  H6  UNL     1     -41.084   8.031   4.602  1.00  0.00     0.171 HD
HETATM   14  C12 UNL     1     -39.938   8.204   2.854  1.00  0.00     0.125 A 
ENDROOT
BRANCH   1  15
HETATM   15  N2  UNL     1     -41.419   9.904   2.402  1.00  0.00    -0.369 N 
ATOM     16  H2  UNL     1     -41.672   9.960   3.389  1.00  0.00     0.161 HD
BRANCH  15  17
HETATM   17  C7  UNL     1     -42.197  10.594   1.421  1.00  0.00     0.178 C 
BRANCH  17  18
HETATM   18  C6  UNL     1     -42.624  11.949   1.882  1.00  0.00     0.028 A 
HETATM   19  C5  UNL     1     -43.635  12.627   1.238  1.00  0.00     0.027 A 
HETATM   20  C4  UNL     1     -44.052  13.881   1.642  1.00  0.00     0.006 A 
HETATM   21  C3  UNL     1     -43.389  14.420   2.736  1.00  0.00     0.048 A 
HETATM   22  C2  UNL     1     -42.381  13.753   3.384  1.00  0.00     0.100 A 
HETATM   23  N7  UNL     1     -42.020  12.540   2.947  1.00  0.00    -0.345 N 
ATOM     24  H7  UNL     1     -41.270  12.045   3.428  1.00  0.00     0.167 HD
BRANCH  22  25
HETATM   25  N1  UNL     1     -41.813  14.301   4.381  1.00  0.00    -0.381 N 
HETATM   26  C1  UNL     1     -41.812  15.715   4.661  1.00  0.00     0.147 C 
ATOM     27  H1  UNL     1     -41.319  13.692   5.034  1.00  0.00     0.160 HD
ENDBRANCH  22  25
ENDBRANCH  17  18
ENDBRANCH  15  17
ENDBRANCH   1  15
TORSDOF 4
ENDMDL
MODEL 2
REMARK VINA RESULT: -6.355150648      4.559      7.510
REMARK  4 active torsions:
REMARK  status: ('A' for Active; 'I' for Inactive)
REMARK    1  A    between atoms: N1_2  and  C2_4 
REMARK    2  A    between atoms: C6_8  and  C7_9 
REMARK    3  A    between atoms: C7_9  and  N2_10 
REMARK    4  A    between atoms: N2_10  and  C8_12 
ROOT
HETATM    1  C8  UNL     1     -42.459  13.901   3.487  1.00  0.00     0.133 A 
HETATM    2  N3  UNL     1     -42.261  14.351   4.733  1.00  0.00    -0.337 N 
ATOM      3  H3  UNL     1     -41.619  13.867   5.360  1.00  0.00     0.168 HD
HETATM    4  C9  UNL     1     -42.927  15.464   5.152  1.00  0.00     0.183 A 
HETATM    5  N4  UNL     1     -43.769  16.100   4.330  1.00  0.00    -0.336 N 
ATOM      6  H4  UNL     1     -44.257  16.931   4.665  1.00  0.00     0.168 HD
HETATM    7  C10 UNL     1     -43.990  15.672   3.075  1.00  0.00     0.141 A 
HETATM    8  N5  UNL     1     -44.762  16.109   2.066  1.00  0.00    -0.292 N 
ATOM      9  H5  UNL     1     -45.371  16.927   2.101  1.00  0.00     0.172 HD
HETATM   10  C11 UNL     1     -44.607  15.297   1.000  1.00  0.00     0.326 A 
HETATM   11  O1  UNL     1     -45.177  15.404  -0.122  1.00  0.00    -0.247 OA
HETATM   12  N6  UNL     1     -43.723  14.342   1.360  1.00  0.00    -0.302 N 
ATOM     13  H6  UNL     1     -43.405  13.581   0.758  1.00  0.00     0.171 HD
HETATM   14  C12 UNL     1     -43.324  14.541   2.621  1.00  0.00     0.125 A 
ENDROOT
BRANCH   1  15
HETATM   15  N2  UNL     1     -41.833  12.856   3.095  1.00  0.00    -0.369 N 
ATOM     16  H2  UNL     1     -40.813  12.851   3.067  1.00  0.00     0.161 HD
BRANCH  15  17
HETATM   17  C7  UNL     1     -42.568  11.695   2.698  1.00  0.00     0.178 C 
BRANCH  17  18
HETATM   18  C6  UNL     1     -42.528  11.475   1.221  1.00  0.00     0.028 A 
HETATM   19  C5  UNL     1     -41.374  11.701   0.505  1.00  0.00     0.027 A 
HETATM   20  C4  UNL     1     -41.307  11.505  -0.861  1.00  0.00     0.006 A 
HETATM   21  C3  UNL     1     -42.474  11.067  -1.472  1.00  0.00     0.048 A 
HETATM   22  C2  UNL     1     -43.629  10.839  -0.767  1.00  0.00     0.100 A 
HETATM   23  N7  UNL     1     -43.634  11.046   0.555  1.00  0.00    -0.345 N 
ATOM     24  H7  UNL     1     -44.492  10.878   1.079  1.00  0.00     0.167 HD
BRANCH  22  25
HETATM   25  N1  UNL     1     -44.666  10.438  -1.385  1.00  0.00    -0.381 N 
HETATM   26  C1  UNL     1     -44.704  10.045  -2.771  1.00  0.00     0.147 C 
ATOM     27  H1  UNL     1     -45.538  10.392  -0.859  1.00  0.00     0.160 HD
ENDBRANCH  22  25
ENDBRANCH  17  18
ENDBRANCH  15  17
ENDBRANCH   1  15
TORSDOF 4
ENDMDL
MODEL 3
REMARK VINA RESULT: -6.316958477      2.467      3.853
REMARK  4 active torsions:
REMARK  status: ('A' for Active; 'I' for Inactive)
REMARK    1  A    between atoms: N1_2  and  C2_4 
REMARK    2  A    between atoms: C6_8  and  C7_9 
REMARK    3  A    between atoms: C7_9  and  N2_10 
REMARK    4  A    between atoms: N2_10  and  C8_12 
ROOT
HETATM    1  C8  UNL     1     -40.426   8.560   2.652  1.00  0.00     0.133 A 
HETATM    2  N3  UNL     1     -41.068   7.762   3.515  1.00  0.00    -0.337 N 
ATOM      3  H3  UNL     1     -42.079   7.831   3.628  1.00  0.00     0.168 HD
HETATM    4  C9  UNL     1     -40.353   6.856   4.241  1.00  0.00     0.183 A 
HETATM    5  N4  UNL     1     -39.027   6.765   4.094  1.00  0.00    -0.336 N 
ATOM      6  H4  UNL     1     -38.512   6.080   4.647  1.00  0.00     0.168 HD
HETATM    7  C10 UNL     1     -38.355   7.552   3.236  1.00  0.00     0.141 A 
HETATM    8  N5  UNL     1     -37.059   7.667   2.900  1.00  0.00    -0.292 N 
ATOM      9  H5  UNL     1     -36.298   7.111   3.289  1.00  0.00     0.172 HD
HETATM   10  C11 UNL     1     -36.923   8.633   1.967  1.00  0.00     0.326 A 
HETATM   11  O1  UNL     1     -35.848   9.011   1.422  1.00  0.00    -0.247 OA
HETATM   12  N6  UNL     1     -38.158   9.122   1.726  1.00  0.00    -0.302 N 
ATOM     13  H6  UNL     1     -38.374   9.867   1.063  1.00  0.00     0.171 HD
HETATM   14  C12 UNL     1     -39.058   8.484   2.483  1.00  0.00     0.125 A 
ENDROOT
BRANCH   1  15
HETATM   15  N2  UNL     1     -41.099   9.410   1.970  1.00  0.00    -0.369 N 
ATOM     16  H2  UNL     1     -41.148   9.328   0.955  1.00  0.00     0.161 HD
BRANCH  15  17
HETATM   17  C7  UNL     1     -41.782  10.474   2.639  1.00  0.00     0.178 C 
BRANCH  17  18
HETATM   18  C6  UNL     1     -42.683  11.236   1.724  1.00  0.00     0.028 A 
HETATM   19  C5  UNL     1     -43.045  12.533   2.010  1.00  0.00     0.027 A 
HETATM   20  C4  UNL     1     -43.877  13.263   1.182  1.00  0.00     0.006 A 
HETATM   21  C3  UNL     1     -44.329  12.610   0.044  1.00  0.00     0.048 A 
HETATM   22  C2  UNL     1     -43.974  11.319  -0.250  1.00  0.00     0.100 A 
HETATM   23  N7  UNL     1     -43.165  10.661   0.590  1.00  0.00    -0.345 N 
ATOM     24  H7  UNL     1     -42.903   9.700   0.372  1.00  0.00     0.167 HD
BRANCH  22  25
HETATM   25  N1  UNL     1     -44.422  10.776  -1.310  1.00  0.00    -0.381 N 
HETATM   26  C1  UNL     1     -43.612  10.300  -2.403  1.00  0.00     0.147 C 
ATOM     27  H1  UNL     1     -45.433  10.670  -1.393  1.00  0.00     0.160 HD
ENDBRANCH  22  25
ENDBRANCH  17  18
ENDBRANCH  15  17
ENDBRANCH   1  15
TORSDOF 4
ENDMDL
MODEL 4
REMARK VINA RESULT: -6.297344571      1.529      2.020
REMARK  4 active torsions:
REMARK  status: ('A' for Active; 'I' for Inactive)
REMARK    1  A    between atoms: N1_2  and  C2_4 
REMARK    2  A    between atoms: C6_8  and  C7_9 
REMARK    3  A    between atoms: C7_9  and  N2_10 
REMARK    4  A    between atoms: N2_10  and  C8_12 
ROOT
HETATM    1  C8  UNL     1     -39.093   9.469   0.440  1.00  0.00     0.133 A 
HETATM    2  N3  UNL     1     -38.037  10.275   0.271  1.00  0.00    -0.337 N 
ATOM      3  H3  UNL     1     -38.063  11.021  -0.425  1.00  0.00     0.168 HD
HETATM    4  C9  UNL     1     -36.926  10.088   1.039  1.00  0.00     0.183 A 
HETATM    5  N4  UNL     1     -36.891   9.110   1.951  1.00  0.00    -0.336 N 
ATOM      6  H4  UNL     1     -36.049   8.987   2.515  1.00  0.00     0.168 HD
HETATM    7  C10 UNL     1     -37.934   8.284   2.144  1.00  0.00     0.141 A 
HETATM    8  N5  UNL     1     -38.160   7.249   2.969  1.00  0.00    -0.292 N 
ATOM      9  H5  UNL     1     -37.498   6.886   3.655  1.00  0.00     0.172 HD
HETATM   10  C11 UNL     1     -39.399   6.762   2.748  1.00  0.00     0.326 A 
HETATM   11  O1  UNL     1     -39.947   5.791   3.341  1.00  0.00    -0.247 OA
HETATM   12  N6  UNL     1     -39.946   7.514   1.768  1.00  0.00    -0.302 N 
ATOM     13  H6  UNL     1     -40.882   7.383   1.384  1.00  0.00     0.171 HD
HETATM   14  C12 UNL     1     -39.079   8.453   1.376  1.00  0.00     0.125 A 
ENDROOT
BRANCH   1  15
HETATM   15  N2  UNL     1     -40.135   9.648  -0.282  1.00  0.00    -0.369 N 
ATOM     16  H2  UNL     1     -40.669   8.845  -0.616  1.00  0.00     0.161 HD
BRANCH  15  17
HETATM   17  C7  UNL     1     -40.547  10.975  -0.618  1.00  0.00     0.178 C 
BRANCH  17  18
HETATM   18  C6  UNL     1     -41.658  11.464   0.252  1.00  0.00     0.028 A 
HETATM   19  C5  UNL     1     -42.963  11.432  -0.186  1.00  0.00     0.027 A 
HETATM   20  C4  UNL     1     -44.012  11.877   0.596  1.00  0.00     0.006 A 
HETATM   21  C3  UNL     1     -43.672  12.361   1.852  1.00  0.00     0.048 A 
HETATM   22  C2  UNL     1     -42.376  12.397   2.297  1.00  0.00     0.100 A 
HETATM   23  N7  UNL     1     -41.401  11.952   1.495  1.00  0.00    -0.345 N 
ATOM     24  H7  UNL     1     -40.437  11.981   1.826  1.00  0.00     0.167 HD
BRANCH  22  25
HETATM   25  N1  UNL     1     -42.129  12.853   3.460  1.00  0.00    -0.381 N 
HETATM   26  C1  UNL     1     -42.153  14.247   3.825  1.00  0.00     0.147 C 
ATOM     27  H1  UNL     1     -41.897  12.179   4.189  1.00  0.00     0.160 HD
ENDBRANCH  22  25
ENDBRANCH  17  18
ENDBRANCH  15  17
ENDBRANCH   1  15
TORSDOF 4
ENDMDL
MODEL 5
REMARK VINA RESULT: -6.293369505      2.578      6.731
REMARK  4 active torsions:
REMARK  status: ('A' for Active; 'I' for Inactive)
REMARK    1  A    between atoms: N1_2  and  C2_4 
REMARK    2  A    between atoms: C6_8  and  C7_9 
REMARK    3  A    between atoms: C7_9  and  N2_10 
REMARK    4  A    between atoms: N2_10  and  C8_12 
ROOT
HETATM    1  C8  UNL     1     -42.250  11.114   1.354  1.00  0.00     0.133 A 
HETATM    2  N3  UNL     1     -43.049  10.787   0.330  1.00  0.00    -0.337 N 
ATOM      3  H3  UNL     1     -42.881   9.934  -0.203  1.00  0.00     0.168 HD
HETATM    4  C9  UNL     1     -44.089  11.607   0.008  1.00  0.00     0.183 A 
HETATM    5  N4  UNL     1     -44.310  12.726   0.706  1.00  0.00    -0.336 N 
ATOM      6  H4  UNL     1     -45.094  13.326   0.449  1.00  0.00     0.168 HD
HETATM    7  C10 UNL     1     -43.526  13.082   1.739  1.00  0.00     0.141 A 
HETATM    8  N5  UNL     1     -43.523  14.124   2.588  1.00  0.00    -0.292 N 
ATOM      9  H5  UNL     1     -44.191  14.894   2.578  1.00  0.00     0.172 HD
HETATM   10  C11 UNL     1     -42.497  13.991   3.454  1.00  0.00     0.326 A 
HETATM   11  O1  UNL     1     -42.189  14.782   4.389  1.00  0.00    -0.247 OA
HETATM   12  N6  UNL     1     -41.857  12.846   3.132  1.00  0.00    -0.302 N 
ATOM     13  H6  UNL     1     -41.035  12.479   3.613  1.00  0.00     0.171 HD
HETATM   14  C12 UNL     1     -42.459  12.265   2.089  1.00  0.00     0.125 A 
ENDROOT
BRANCH   1  15
HETATM   15  N2  UNL     1     -41.274  10.342   1.654  1.00  0.00    -0.369 N 
ATOM     16  H2  UNL     1     -40.345  10.519   1.271  1.00  0.00     0.161 HD
BRANCH  15  17
HETATM   17  C7  UNL     1     -41.491   9.232   2.528  1.00  0.00     0.178 C 
BRANCH  17  18
HETATM   18  C6  UNL     1     -40.231   8.489   2.828  1.00  0.00     0.028 A 
HETATM   19  C5  UNL     1     -40.205   7.504   3.790  1.00  0.00     0.027 A 
HETATM   20  C4  UNL     1     -39.054   6.800   4.089  1.00  0.00     0.006 A 
HETATM   21  C3  UNL     1     -37.923   7.145   3.364  1.00  0.00     0.048 A 
HETATM   22  C2  UNL     1     -37.938   8.125   2.405  1.00  0.00     0.100 A 
HETATM   23  N7  UNL     1     -39.082   8.774   2.158  1.00  0.00    -0.345 N 
ATOM     24  H7  UNL     1     -39.094   9.503   1.446  1.00  0.00     0.167 HD
BRANCH  22  25
HETATM   25  N1  UNL     1     -36.866   8.396   1.774  1.00  0.00    -0.381 N 
HETATM   26  C1  UNL     1     -36.244   9.694   1.716  1.00  0.00     0.147 C 
ATOM     27  H1  UNL     1     -36.413   7.634   1.270  1.00  0.00     0.160 HD
ENDBRANCH  22  25
ENDBRANCH  17  18
ENDBRANCH  15  17
ENDBRANCH   1  15
TORSDOF 4
ENDMDL
