MODEL 1
REMARK VINA RESULT: -7.384608698      0.000      0.000
REMARK  4 active torsions:
REMARK  status: ('A' for Active; 'I' for Inactive)
REMARK    1  A    between atoms: C4_5  and  C5_6 
REMARK    2  A    between atoms: C5_6  and  C6_7 
REMARK    3  A    between atoms: C8_11  and  N3_12 
REMARK    4  A    between atoms: C9_17  and  N5_18 
ROOT
HETATM    1  C6  UNL     1     -43.491  12.137   1.303  1.00  0.00     0.083 A 
HETATM    2  N2  UNL     1     -44.029  13.359   1.504  1.00  0.00    -0.349 N 
ATOM      3  H2  UNL     1     -44.776  13.689   0.893  1.00  0.00     0.166 HD
HETATM    4  C7  UNL     1     -43.586  14.150   2.511  1.00  0.00     0.122 A 
HETATM    5  C8  UNL     1     -44.138  15.404   2.726  1.00  0.00     0.145 A 
HETATM    6  N4  UNL     1     -43.674  16.171   3.746  1.00  0.00    -0.175 N 
ATOM      7  H4  UNL     1     -44.085  17.092   3.898  1.00  0.00     0.186 HD
HETATM    8  C9  UNL     1     -42.698  15.758   4.555  1.00  0.00     0.679 A 
HETATM    9  N6  UNL     1     -42.171  14.543   4.339  1.00  0.00    -0.174 N 
ATOM     10  H6  UNL     1     -41.423  14.219   4.953  1.00  0.00     0.186 HD
HETATM   11  C10 UNL     1     -42.587  13.730   3.341  1.00  0.00     0.154 A 
HETATM   12  N7  UNL     1     -42.036  12.519   3.160  1.00  0.00    -0.305 N 
ATOM     13  H7  UNL     1     -41.289  12.193   3.772  1.00  0.00     0.170 HD
HETATM   14  C11 UNL     1     -42.493  11.729   2.140  1.00  0.00     0.270 A 
HETATM   15  O1  UNL     1     -41.949  10.596   1.999  1.00  0.00    -0.266 OA
ENDROOT
BRANCH   1  16
HETATM   16  C5  UNL     1     -44.017  11.308   0.222  1.00  0.00     0.101 C 
BRANCH  16  17
HETATM   17  C4  UNL     1     -43.793  11.838  -1.125  1.00  0.00    -0.050 A 
HETATM   18  C3  UNL     1     -42.470  12.086  -1.508  1.00  0.00     0.024 A 
HETATM   19  C2  UNL     1     -42.155  12.584  -2.760  1.00  0.00     0.090 A 
HETATM   20  N1  UNL     1     -43.118  12.848  -3.654  1.00  0.00    -0.371 N 
HETATM   21  C1  UNL     1     -42.767  13.371  -4.971  1.00  0.00     0.154 C 
HETATM   22  C13 UNL     1     -44.394  12.611  -3.294  1.00  0.00     0.090 A 
HETATM   23  C12 UNL     1     -44.761  12.114  -2.056  1.00  0.00     0.024 A 
ENDBRANCH  16  17
ENDBRANCH   1  16
BRANCH   5  24
HETATM   24  N3  UNL     1     -45.072  15.841   1.984  1.00  0.00    -0.383 N 
ATOM     25  H32 UNL     1     -45.661  15.184   1.473  1.00  0.00     0.157 HD
ATOM     26  H31 UNL     1     -45.241  16.843   1.891  1.00  0.00     0.157 HD
ENDBRANCH   5  24
BRANCH   8  27
HETATM   27  N5  UNL     1     -42.264  16.505   5.530  1.00  0.00    -0.234 N 
ATOM     28  H52 UNL     1     -42.818  17.293   5.866  1.00  0.00     0.174 HD
ATOM     29  H51 UNL     1     -41.366  16.323   5.978  1.00  0.00     0.174 HD
ENDBRANCH   8  27
TORSDOF 4
ENDMDL
MODEL 2
REMARK VINA RESULT: -7.358930046      0.189      1.024
REMARK  4 active torsions:
REMARK  status: ('A' for Active; 'I' for Inactive)
REMARK    1  A    between atoms: C4_5  and  C5_6 
REMARK    2  A    between atoms: C5_6  and  C6_7 
REMARK    3  A    between atoms: C8_11  and  N3_12 
REMARK    4  A    between atoms: C9_17  and  N5_18 
ROOT
HETATM    1  C6  UNL     1     -43.487  12.131   1.279  1.00  0.00     0.083 A 
HETATM    2  N2  UNL     1     -44.020  13.354   1.484  1.00  0.00    -0.349 N 
ATOM      3  H2  UNL     1     -44.764  13.689   0.872  1.00  0.00     0.166 HD
HETATM    4  C7  UNL     1     -43.575  14.140   2.493  1.00  0.00     0.122 A 
HETATM    5  C8  UNL     1     -44.122  15.397   2.712  1.00  0.00     0.145 A 
HETATM    6  N4  UNL     1     -43.655  16.158   3.735  1.00  0.00    -0.175 N 
ATOM      7  H4  UNL     1     -44.062  17.080   3.889  1.00  0.00     0.186 HD
HETATM    8  C9  UNL     1     -42.682  15.738   4.543  1.00  0.00     0.679 A 
HETATM    9  N6  UNL     1     -42.159  14.522   4.324  1.00  0.00    -0.174 N 
ATOM     10  H6  UNL     1     -41.414  14.193   4.938  1.00  0.00     0.186 HD
HETATM   11  C10 UNL     1     -42.579  13.713   3.324  1.00  0.00     0.154 A 
HETATM   12  N7  UNL     1     -42.032  12.501   3.139  1.00  0.00    -0.305 N 
ATOM     13  H7  UNL     1     -41.287  12.170   3.751  1.00  0.00     0.170 HD
HETATM   14  C11 UNL     1     -42.492  11.716   2.116  1.00  0.00     0.270 A 
HETATM   15  O1  UNL     1     -41.953  10.581   1.972  1.00  0.00    -0.266 OA
ENDROOT
BRANCH   1  16
HETATM   16  C5  UNL     1     -44.015  11.307   0.195  1.00  0.00     0.101 C 
BRANCH  16  17
HETATM   17  C4  UNL     1     -43.705  11.790  -1.152  1.00  0.00    -0.050 A 
HETATM   18  C3  UNL     1     -44.745  11.796  -2.089  1.00  0.00     0.024 A 
HETATM   19  C2  UNL     1     -44.553  12.236  -3.388  1.00  0.00     0.090 A 
HETATM   20  N1  UNL     1     -43.353  12.674  -3.792  1.00  0.00    -0.371 N 
HETATM   21  C1  UNL     1     -43.170  13.136  -5.165  1.00  0.00     0.154 C 
HETATM   22  C13 UNL     1     -42.347  12.672  -2.896  1.00  0.00     0.090 A 
HETATM   23  C12 UNL     1     -42.486  12.244  -1.588  1.00  0.00     0.024 A 
ENDBRANCH  16  17
ENDBRANCH   1  16
BRANCH   5  24
HETATM   24  N3  UNL     1     -45.053  15.840   1.970  1.00  0.00    -0.383 N 
ATOM     25  H32 UNL     1     -45.423  15.256   1.221  1.00  0.00     0.157 HD
ATOM     26  H31 UNL     1     -45.435  16.775   2.114  1.00  0.00     0.157 HD
ENDBRANCH   5  24
BRANCH   8  27
HETATM   27  N5  UNL     1     -42.245  16.481   5.521  1.00  0.00    -0.234 N 
ATOM     28  H52 UNL     1     -42.644  16.394   6.456  1.00  0.00     0.174 HD
ATOM     29  H51 UNL     1     -41.500  17.162   5.377  1.00  0.00     0.174 HD
ENDBRANCH   8  27
TORSDOF 4
ENDMDL
MODEL 3
REMARK VINA RESULT: -6.016677518      1.965      2.970
REMARK  4 active torsions:
REMARK  status: ('A' for Active; 'I' for Inactive)
REMARK    1  A    between atoms: C4_5  and  C5_6 
REMARK    2  A    between atoms: C5_6  and  C6_7 
REMARK    3  A    between atoms: C8_11  and  N3_12 
REMARK    4  A    between atoms: C9_17  and  N5_18 
ROOT
HETATM    1  C6  UNL     1     -44.028  13.529   0.165  1.00  0.00     0.083 A 
HETATM    2  N2  UNL     1     -43.353  13.261   1.303  1.00  0.00    -0.349 N 
ATOM      3  H2  UNL     1     -42.839  12.384   1.391  1.00  0.00     0.166 HD
HETATM    4  C7  UNL     1     -43.352  14.146   2.329  1.00  0.00     0.122 A 
HETATM    5  C8  UNL     1     -42.655  13.880   3.499  1.00  0.00     0.145 A 
HETATM    6  N4  UNL     1     -42.671  14.790   4.507  1.00  0.00    -0.175 N 
ATOM      7  H4  UNL     1     -42.158  14.587   5.364  1.00  0.00     0.186 HD
HETATM    8  C9  UNL     1     -43.338  15.940   4.411  1.00  0.00     0.679 A 
HETATM    9  N6  UNL     1     -44.008  16.189   3.275  1.00  0.00    -0.174 N 
ATOM     10  H6  UNL     1     -44.522  17.067   3.193  1.00  0.00     0.186 HD
HETATM   11  C10 UNL     1     -44.033  15.326   2.234  1.00  0.00     0.154 A 
HETATM   12  N7  UNL     1     -44.713  15.613   1.112  1.00  0.00    -0.305 N 
ATOM     13  H7  UNL     1     -45.227  16.490   1.029  1.00  0.00     0.170 HD
HETATM   14  C11 UNL     1     -44.705  14.711   0.084  1.00  0.00     0.270 A 
HETATM   15  O1  UNL     1     -45.358  15.015  -0.957  1.00  0.00    -0.266 OA
ENDROOT
BRANCH   1  16
HETATM   16  C5  UNL     1     -43.981  12.557  -0.924  1.00  0.00     0.101 C 
BRANCH  16  17
HETATM   17  C4  UNL     1     -42.736  12.557  -1.694  1.00  0.00    -0.050 A 
HETATM   18  C3  UNL     1     -42.634  13.465  -2.755  1.00  0.00     0.024 A 
HETATM   19  C2  UNL     1     -41.498  13.543  -3.542  1.00  0.00     0.090 A 
HETATM   20  N1  UNL     1     -40.448  12.742  -3.309  1.00  0.00    -0.371 N 
HETATM   21  C1  UNL     1     -39.257  12.841  -4.147  1.00  0.00     0.154 C 
HETATM   22  C13 UNL     1     -40.537  11.867  -2.290  1.00  0.00     0.090 A 
HETATM   23  C12 UNL     1     -41.648  11.749  -1.475  1.00  0.00     0.024 A 
ENDBRANCH  16  17
ENDBRANCH   1  16
BRANCH   5  24
HETATM   24  N3  UNL     1     -42.003  12.799   3.637  1.00  0.00    -0.383 N 
ATOM     25  H32 UNL     1     -42.354  11.939   3.215  1.00  0.00     0.157 HD
ATOM     26  H31 UNL     1     -41.131  12.778   4.167  1.00  0.00     0.157 HD
ENDBRANCH   5  24
BRANCH   8  27
HETATM   27  N5  UNL     1     -43.344  16.804   5.387  1.00  0.00    -0.234 N 
ATOM     28  H52 UNL     1     -42.801  16.634   6.233  1.00  0.00     0.174 HD
ATOM     29  H51 UNL     1     -43.888  17.664   5.329  1.00  0.00     0.174 HD
ENDBRANCH   8  27
TORSDOF 4
ENDMDL
MODEL 4
REMARK VINA RESULT: -6.006959078      1.969      2.890
REMARK  4 active torsions:
REMARK  status: ('A' for Active; 'I' for Inactive)
REMARK    1  A    between atoms: C4_5  and  C5_6 
REMARK    2  A    between atoms: C5_6  and  C6_7 
REMARK    3  A    between atoms: C8_11  and  N3_12 
REMARK    4  A    between atoms: C9_17  and  N5_18 
ROOT
HETATM    1  C6  UNL     1     -44.035  13.523   0.157  1.00  0.00     0.083 A 
HETATM    2  N2  UNL     1     -43.358  13.255   1.294  1.00  0.00    -0.349 N 
ATOM      3  H2  UNL     1     -42.846  12.377   1.381  1.00  0.00     0.166 HD
HETATM    4  C7  UNL     1     -43.353  14.140   2.319  1.00  0.00     0.122 A 
HETATM    5  C8  UNL     1     -42.655  13.872   3.488  1.00  0.00     0.145 A 
HETATM    6  N4  UNL     1     -42.667  14.782   4.495  1.00  0.00    -0.175 N 
ATOM      7  H4  UNL     1     -42.152  14.579   5.352  1.00  0.00     0.186 HD
HETATM    8  C9  UNL     1     -43.332  15.934   4.400  1.00  0.00     0.679 A 
HETATM    9  N6  UNL     1     -44.003  16.185   3.266  1.00  0.00    -0.174 N 
ATOM     10  H6  UNL     1     -44.514  17.064   3.185  1.00  0.00     0.186 HD
HETATM   11  C10 UNL     1     -44.031  15.321   2.225  1.00  0.00     0.154 A 
HETATM   12  N7  UNL     1     -44.713  15.609   1.104  1.00  0.00    -0.305 N 
ATOM     13  H7  UNL     1     -45.225  16.488   1.021  1.00  0.00     0.170 HD
HETATM   14  C11 UNL     1     -44.709  14.707   0.076  1.00  0.00     0.270 A 
HETATM   15  O1  UNL     1     -45.363  15.013  -0.963  1.00  0.00    -0.266 OA
ENDROOT
BRANCH   1  16
HETATM   16  C5  UNL     1     -43.992  12.551  -0.932  1.00  0.00     0.101 C 
BRANCH  16  17
HETATM   17  C4  UNL     1     -42.803  12.632  -1.782  1.00  0.00    -0.050 A 
HETATM   18  C3  UNL     1     -41.797  11.681  -1.576  1.00  0.00     0.024 A 
HETATM   19  C2  UNL     1     -40.636  11.671  -2.329  1.00  0.00     0.090 A 
HETATM   20  N1  UNL     1     -40.437  12.583  -3.291  1.00  0.00    -0.371 N 
HETATM   21  C1  UNL     1     -39.207  12.557  -4.078  1.00  0.00     0.154 C 
HETATM   22  C13 UNL     1     -41.400  13.502  -3.498  1.00  0.00     0.090 A 
HETATM   23  C12 UNL     1     -42.577  13.554  -2.773  1.00  0.00     0.024 A 
ENDBRANCH  16  17
ENDBRANCH   1  16
BRANCH   5  24
HETATM   24  N3  UNL     1     -42.005  12.790   3.625  1.00  0.00    -0.383 N 
ATOM     25  H32 UNL     1     -42.177  12.013   2.987  1.00  0.00     0.157 HD
ATOM     26  H31 UNL     1     -41.313  12.686   4.368  1.00  0.00     0.157 HD
ENDBRANCH   5  24
BRANCH   8  27
HETATM   27  N5  UNL     1     -43.333  16.799   5.376  1.00  0.00    -0.234 N 
ATOM     28  H52 UNL     1     -42.489  16.965   5.923  1.00  0.00     0.174 HD
ATOM     29  H51 UNL     1     -44.173  17.326   5.615  1.00  0.00     0.174 HD
ENDBRANCH   8  27
TORSDOF 4
ENDMDL
MODEL 5
REMARK VINA RESULT: -6.001634937      3.345      6.872
REMARK  4 active torsions:
REMARK  status: ('A' for Active; 'I' for Inactive)
REMARK    1  A    between atoms: C4_5  and  C5_6 
REMARK    2  A    between atoms: C5_6  and  C6_7 
REMARK    3  A    between atoms: C8_11  and  N3_12 
REMARK    4  A    between atoms: C9_17  and  N5_18 
ROOT
HETATM    1  C6  UNL     1     -42.238  11.549   0.295  1.00  0.00     0.083 A 
HETATM    2  N2  UNL     1     -41.215  10.765   0.696  1.00  0.00    -0.349 N 
ATOM      3  H2  UNL     1     -41.231  10.351   1.629  1.00  0.00     0.166 HD
HETATM    4  C7  UNL     1     -40.168  10.522  -0.128  1.00  0.00     0.122 A 
HETATM    5  C8  UNL     1     -39.116   9.712   0.276  1.00  0.00     0.145 A 
HETATM    6  N4  UNL     1     -38.083   9.485  -0.575  1.00  0.00    -0.175 N 
ATOM      7  H4  UNL     1     -37.314   8.889  -0.271  1.00  0.00     0.186 HD
HETATM    8  C9  UNL     1     -38.044  10.018  -1.797  1.00  0.00     0.679 A 
HETATM    9  N6  UNL     1     -39.066  10.799  -2.180  1.00  0.00    -0.174 N 
ATOM     10  H6  UNL     1     -39.043  11.211  -3.113  1.00  0.00     0.186 HD
HETATM   11  C10 UNL     1     -40.124  11.064  -1.380  1.00  0.00     0.154 A 
HETATM   12  N7  UNL     1     -41.129  11.849  -1.800  1.00  0.00    -0.305 N 
ATOM     13  H7  UNL     1     -41.109  12.262  -2.733  1.00  0.00     0.170 HD
HETATM   14  C11 UNL     1     -42.182  12.086  -0.959  1.00  0.00     0.270 A 
HETATM   15  O1  UNL     1     -43.110  12.831  -1.389  1.00  0.00    -0.266 OA
ENDROOT
BRANCH   1  16
HETATM   16  C5  UNL     1     -43.358  11.763   1.207  1.00  0.00     0.101 C 
BRANCH  16  17
HETATM   17  C4  UNL     1     -43.221  12.924   2.089  1.00  0.00    -0.050 A 
HETATM   18  C3  UNL     1     -42.261  12.851   3.106  1.00  0.00     0.024 A 
HETATM   19  C2  UNL     1     -42.054  13.895   3.989  1.00  0.00     0.090 A 
HETATM   20  N1  UNL     1     -42.774  15.023   3.897  1.00  0.00    -0.371 N 
HETATM   21  C1  UNL     1     -42.539  16.115   4.837  1.00  0.00     0.154 C 
HETATM   22  C13 UNL     1     -43.698  15.102   2.922  1.00  0.00     0.090 A 
HETATM   23  C12 UNL     1     -43.944  14.087   2.014  1.00  0.00     0.024 A 
ENDBRANCH  16  17
ENDBRANCH   1  16
BRANCH   5  24
HETATM   24  N3  UNL     1     -39.110   9.180   1.429  1.00  0.00    -0.383 N 
ATOM     25  H32 UNL     1     -39.960   8.749   1.792  1.00  0.00     0.157 HD
ATOM     26  H31 UNL     1     -38.264   9.179   2.000  1.00  0.00     0.157 HD
ENDBRANCH   5  24
BRANCH   8  27
HETATM   27  N5  UNL     1     -37.046   9.791  -2.604  1.00  0.00    -0.234 N 
ATOM     28  H52 UNL     1     -36.553   8.898  -2.581  1.00  0.00     0.174 HD
ATOM     29  H51 UNL     1     -36.734  10.494  -3.272  1.00  0.00     0.174 HD
ENDBRANCH   8  27
TORSDOF 4
ENDMDL
