MODEL 1
REMARK VINA RESULT: -6.453396758      0.000      0.000
REMARK  4 active torsions:
REMARK  status: ('A' for Active; 'I' for Inactive)
REMARK    1  A    between atoms: O1_1  and  C1_3 
REMARK    2  A    between atoms: C5_10  and  C6_11 
REMARK    3  A    between atoms: C6_11  and  C7_12 
REMARK    4  A    between atoms: C13_18  and  O2_19 
ROOT
HETATM    1  C1  UNL     1     -43.837  13.242  -0.845  1.00  0.00     0.149 C 
HETATM    2  C2  UNL     1     -44.039  11.785  -0.642  1.00  0.00     0.048 C 
HETATM    3  C3  UNL     1     -43.085  11.135   0.299  1.00  0.00     0.110 C 
HETATM    4  C4  UNL     1     -43.028  11.753   1.655  1.00  0.00     0.332 C 
HETATM    5  N1  UNL     1     -44.148  12.593   1.974  1.00  0.00    -0.041 N 
ATOM      6  H11 UNL     1     -44.372  12.558   2.968  1.00  0.00     0.280 HD
ATOM      7  H12 UNL     1     -45.019  12.212   1.604  1.00  0.00     0.280 HD
HETATM    8  C5  UNL     1     -43.930  13.954   1.526  1.00  0.00     0.224 C 
HETATM    9  C13 UNL     1     -44.608  14.084   0.175  1.00  0.00     0.177 C 
HETATM   10  O3  UNL     1     -41.849  12.422   1.325  1.00  0.00    -0.319 OA
HETATM   11  C14 UNL     1     -41.680  11.546   0.301  1.00  0.00     0.260 A 
HETATM   12  C15 UNL     1     -40.568  10.693   0.059  1.00  0.00     0.305 A 
HETATM   13  N2  UNL     1     -40.889  11.781  -0.842  1.00  0.00    -0.036 N 
ATOM     14  H21 UNL     1     -40.382  12.582  -1.219  1.00  0.00     0.281 HD
ATOM     15  H22 UNL     1     -41.069  11.863  -1.843  1.00  0.00     0.281 HD
ENDROOT
BRANCH   8  16
HETATM   16  C6  UNL     1     -44.600  14.951   2.472  1.00  0.00     0.074 C 
BRANCH  16  17
HETATM   17  C7  UNL     1     -43.633  15.443   3.482  1.00  0.00    -0.056 A 
HETATM   18  C8  UNL     1     -42.329  15.048   3.516  1.00  0.00     0.007 A 
HETATM   19  C9  UNL     1     -41.483  15.555   4.494  1.00  0.00     0.001 A 
HETATM   20  C10 UNL     1     -41.943  16.451   5.430  1.00  0.00     0.000 A 
HETATM   21  C11 UNL     1     -43.253  16.855   5.406  1.00  0.00     0.001 A 
HETATM   22  C12 UNL     1     -44.076  16.340   4.426  1.00  0.00     0.007 A 
ENDBRANCH  16  17
ENDBRANCH   8  16
BRANCH   9  23
HETATM   23  O2  UNL     1     -44.574  15.411  -0.203  1.00  0.00    -0.391 OA
ATOM     24  H2  UNL     1     -45.063  15.522  -1.010  1.00  0.00     0.210 HD
ENDBRANCH   9  23
BRANCH   1  25
HETATM   25  O1  UNL     1     -44.379  13.585  -2.099  1.00  0.00    -0.393 OA
ATOM     26  H1  UNL     1     -44.855  14.401  -1.998  1.00  0.00     0.210 HD
ENDBRANCH   1  25
TORSDOF 4
ENDMDL
MODEL 2
REMARK VINA RESULT: -6.426328329      1.883      3.173
REMARK  4 active torsions:
REMARK  status: ('A' for Active; 'I' for Inactive)
REMARK    1  A    between atoms: O1_1  and  C1_3 
REMARK    2  A    between atoms: C5_10  and  C6_11 
REMARK    3  A    between atoms: C6_11  and  C7_12 
REMARK    4  A    between atoms: C13_18  and  O2_19 
ROOT
HETATM    1  C1  UNL     1     -42.467  11.353  -2.349  1.00  0.00     0.149 C 
HETATM    2  C2  UNL     1     -41.470  10.253  -2.377  1.00  0.00     0.048 C 
HETATM    3  C3  UNL     1     -40.199  10.528  -1.648  1.00  0.00     0.110 C 
HETATM    4  C4  UNL     1     -40.372  10.914  -0.219  1.00  0.00     0.332 C 
HETATM    5  N1  UNL     1     -41.655  10.585   0.337  1.00  0.00    -0.041 N 
ATOM      6  H11 UNL     1     -41.585  10.352   1.327  1.00  0.00     0.280 HD
ATOM      7  H12 UNL     1     -41.994   9.689  -0.012  1.00  0.00     0.280 HD
HETATM    8  C5  UNL     1     -42.616  11.645   0.106  1.00  0.00     0.224 C 
HETATM    9  C13 UNL     1     -43.398  11.264  -1.136  1.00  0.00     0.177 C 
HETATM   10  O3  UNL     1     -40.181  12.259  -0.536  1.00  0.00    -0.319 OA
HETATM   11  C14 UNL     1     -39.610  11.865  -1.704  1.00  0.00     0.260 A 
HETATM   12  C15 UNL     1     -38.308  12.177  -2.185  1.00  0.00     0.305 A 
HETATM   13  N2  UNL     1     -39.494  12.667  -2.858  1.00  0.00    -0.036 N 
ATOM     14  H21 UNL     1     -39.839  13.585  -3.139  1.00  0.00     0.281 HD
ATOM     15  H22 UNL     1     -39.857  12.622  -3.810  1.00  0.00     0.281 HD
ENDROOT
BRANCH   8  16
HETATM   16  C6  UNL     1     -43.611  11.736   1.264  1.00  0.00     0.074 C 
BRANCH  16  17
HETATM   17  C7  UNL     1     -43.376  12.965   2.059  1.00  0.00    -0.056 A 
HETATM   18  C8  UNL     1     -44.104  14.106   1.896  1.00  0.00     0.007 A 
HETATM   19  C9  UNL     1     -43.825  15.217   2.680  1.00  0.00     0.001 A 
HETATM   20  C10 UNL     1     -42.821  15.183   3.619  1.00  0.00     0.000 A 
HETATM   21  C11 UNL     1     -42.082  14.042   3.792  1.00  0.00     0.001 A 
HETATM   22  C12 UNL     1     -42.376  12.949   3.004  1.00  0.00     0.007 A 
ENDBRANCH  16  17
ENDBRANCH   8  16
BRANCH   9  23
HETATM   23  O2  UNL     1     -44.438  12.158  -1.288  1.00  0.00    -0.391 OA
ATOM     24  H2  UNL     1     -45.265  11.694  -1.233  1.00  0.00     0.210 HD
ENDBRANCH   9  23
BRANCH   1  25
HETATM   25  O1  UNL     1     -43.303  11.209  -3.473  1.00  0.00    -0.393 OA
ATOM     26  H1  UNL     1     -43.737  10.366  -3.408  1.00  0.00     0.210 HD
ENDBRANCH   1  25
TORSDOF 4
ENDMDL
MODEL 3
REMARK VINA RESULT: -6.367745690      1.796      2.895
REMARK  4 active torsions:
REMARK  status: ('A' for Active; 'I' for Inactive)
REMARK    1  A    between atoms: O1_1  and  C1_3 
REMARK    2  A    between atoms: C5_10  and  C6_11 
REMARK    3  A    between atoms: C6_11  and  C7_12 
REMARK    4  A    between atoms: C13_18  and  O2_19 
ROOT
HETATM    1  C1  UNL     1     -42.333  11.636  -2.180  1.00  0.00     0.149 C 
HETATM    2  C2  UNL     1     -41.465  10.436  -2.273  1.00  0.00     0.048 C 
HETATM    3  C3  UNL     1     -40.198  10.504  -1.492  1.00  0.00     0.110 C 
HETATM    4  C4  UNL     1     -40.377  10.792  -0.040  1.00  0.00     0.332 C 
HETATM    5  N1  UNL     1     -41.707  10.569   0.453  1.00  0.00    -0.041 N 
ATOM      6  H11 UNL     1     -41.699  10.251   1.422  1.00  0.00     0.280 HD
ATOM      7  H12 UNL     1     -42.132   9.748   0.022  1.00  0.00     0.280 HD
HETATM    8  C5  UNL     1     -42.534  11.746   0.286  1.00  0.00     0.224 C 
HETATM    9  C13 UNL     1     -43.310  11.558  -1.003  1.00  0.00     0.177 C 
HETATM   10  O3  UNL     1     -40.025  12.127  -0.239  1.00  0.00    -0.319 OA
HETATM   11  C14 UNL     1     -39.461  11.766  -1.420  1.00  0.00     0.260 A 
HETATM   12  C15 UNL     1     -38.117  11.964  -1.840  1.00  0.00     0.305 A 
HETATM   13  N2  UNL     1     -39.216  12.639  -2.500  1.00  0.00    -0.036 N 
ATOM     14  H21 UNL     1     -39.446  13.610  -2.713  1.00  0.00     0.281 HD
ATOM     15  H22 UNL     1     -39.548  12.712  -3.462  1.00  0.00     0.281 HD
ENDROOT
BRANCH   8  16
HETATM   16  C6  UNL     1     -43.553  11.858   1.421  1.00  0.00     0.074 C 
BRANCH  16  17
HETATM   17  C7  UNL     1     -43.268  13.043   2.265  1.00  0.00    -0.056 A 
HETATM   18  C8  UNL     1     -42.278  13.067   3.202  1.00  0.00     0.007 A 
HETATM   19  C9  UNL     1     -42.072  14.216   3.953  1.00  0.00     0.001 A 
HETATM   20  C10 UNL     1     -42.854  15.332   3.766  1.00  0.00     0.000 A 
HETATM   21  C11 UNL     1     -43.852  15.319   2.828  1.00  0.00     0.001 A 
HETATM   22  C12 UNL     1     -44.040  14.168   2.091  1.00  0.00     0.007 A 
ENDBRANCH  16  17
ENDBRANCH   8  16
BRANCH   9  23
HETATM   23  O2  UNL     1     -44.237  12.575  -1.107  1.00  0.00    -0.391 OA
ATOM     24  H2  UNL     1     -43.823  13.343  -1.482  1.00  0.00     0.210 HD
ENDBRANCH   9  23
BRANCH   1  25
HETATM   25  O1  UNL     1     -43.140  11.679  -3.333  1.00  0.00    -0.393 OA
ATOM     26  H1  UNL     1     -43.848  12.292  -3.172  1.00  0.00     0.210 HD
ENDBRANCH   1  25
TORSDOF 4
ENDMDL
MODEL 4
REMARK VINA RESULT: -6.056441503      2.700      4.531
REMARK  4 active torsions:
REMARK  status: ('A' for Active; 'I' for Inactive)
REMARK    1  A    between atoms: O1_1  and  C1_3 
REMARK    2  A    between atoms: C5_10  and  C6_11 
REMARK    3  A    between atoms: C6_11  and  C7_12 
REMARK    4  A    between atoms: C13_18  and  O2_19 
ROOT
HETATM    1  C1  UNL     1     -44.867  11.493  -3.163  1.00  0.00     0.149 C 
HETATM    2  C2  UNL     1     -43.880  12.306  -3.917  1.00  0.00     0.048 C 
HETATM    3  C3  UNL     1     -43.874  13.761  -3.594  1.00  0.00     0.110 C 
HETATM    4  C4  UNL     1     -43.675  14.077  -2.150  1.00  0.00     0.332 C 
HETATM    5  N1  UNL     1     -43.136  12.997  -1.372  1.00  0.00    -0.041 N 
ATOM      6  H11 UNL     1     -42.540  13.340  -0.619  1.00  0.00     0.280 HD
ATOM      7  H12 UNL     1     -42.438  12.471  -1.898  1.00  0.00     0.280 HD
HETATM    8  C5  UNL     1     -44.186  12.135  -0.869  1.00  0.00     0.224 C 
HETATM    9  C13 UNL     1     -44.301  10.974  -1.838  1.00  0.00     0.177 C 
HETATM   10  O3  UNL     1     -45.041  14.309  -1.991  1.00  0.00    -0.319 OA
HETATM   11  C14 UNL     1     -45.139  14.449  -3.338  1.00  0.00     0.260 A 
HETATM   12  C15 UNL     1     -45.634  15.568  -4.064  1.00  0.00     0.305 A 
HETATM   13  N2  UNL     1     -46.327  14.295  -4.083  1.00  0.00    -0.036 N 
ATOM     14  H21 UNL     1     -47.276  13.984  -3.876  1.00  0.00     0.281 HD
ATOM     15  H22 UNL     1     -46.646  13.656  -4.811  1.00  0.00     0.281 HD
ENDROOT
BRANCH   8  16
HETATM   16  C6  UNL     1     -43.806  11.558   0.495  1.00  0.00     0.074 C 
BRANCH  16  17
HETATM   17  C7  UNL     1     -43.533  12.645   1.465  1.00  0.00    -0.056 A 
HETATM   18  C8  UNL     1     -44.238  13.811   1.492  1.00  0.00     0.007 A 
HETATM   19  C9  UNL     1     -43.922  14.783   2.432  1.00  0.00     0.001 A 
HETATM   20  C10 UNL     1     -42.906  14.585   3.337  1.00  0.00     0.000 A 
HETATM   21  C11 UNL     1     -42.190  13.416   3.320  1.00  0.00     0.001 A 
HETATM   22  C12 UNL     1     -42.520  12.464   2.379  1.00  0.00     0.007 A 
ENDBRANCH  16  17
ENDBRANCH   8  16
BRANCH   9  23
HETATM   23  O2  UNL     1     -45.167  10.043  -1.301  1.00  0.00    -0.391 OA
ATOM     24  H2  UNL     1     -45.400  10.301  -0.417  1.00  0.00     0.210 HD
ENDBRANCH   9  23
BRANCH   1  25
HETATM   25  O1  UNL     1     -45.154  10.343  -3.923  1.00  0.00    -0.393 OA
ATOM     26  H1  UNL     1     -45.750  10.595  -4.620  1.00  0.00     0.210 HD
ENDBRANCH   1  25
TORSDOF 4
ENDMDL
MODEL 5
REMARK VINA RESULT: -5.983136338      2.680      4.448
REMARK  4 active torsions:
REMARK  status: ('A' for Active; 'I' for Inactive)
REMARK    1  A    between atoms: O1_1  and  C1_3 
REMARK    2  A    between atoms: C5_10  and  C6_11 
REMARK    3  A    between atoms: C6_11  and  C7_12 
REMARK    4  A    between atoms: C13_18  and  O2_19 
ROOT
HETATM    1  C1  UNL     1     -44.881  11.478  -3.189  1.00  0.00     0.149 C 
HETATM    2  C2  UNL     1     -43.857  12.213  -3.973  1.00  0.00     0.048 C 
HETATM    3  C3  UNL     1     -43.726  13.662  -3.650  1.00  0.00     0.110 C 
HETATM    4  C4  UNL     1     -43.460  13.958  -2.213  1.00  0.00     0.332 C 
HETATM    5  N1  UNL     1     -42.984  12.837  -1.452  1.00  0.00    -0.041 N 
ATOM      6  H11 UNL     1     -42.340  13.130  -0.718  1.00  0.00     0.280 HD
ATOM      7  H12 UNL     1     -42.345  12.259  -1.998  1.00  0.00     0.280 HD
HETATM    8  C5  UNL     1     -44.082  12.059  -0.917  1.00  0.00     0.224 C 
HETATM    9  C13 UNL     1     -44.318  10.913  -1.882  1.00  0.00     0.177 C 
HETATM   10  O3  UNL     1     -44.798  14.297  -2.012  1.00  0.00    -0.319 OA
HETATM   11  C14 UNL     1     -44.925  14.447  -3.356  1.00  0.00     0.260 A 
HETATM   12  C15 UNL     1     -45.353  15.602  -4.066  1.00  0.00     0.305 A 
HETATM   13  N2  UNL     1     -46.143  14.388  -4.065  1.00  0.00    -0.036 N 
ATOM     14  H21 UNL     1     -47.107  14.152  -3.829  1.00  0.00     0.281 HD
ATOM     15  H22 UNL     1     -46.534  13.778  -4.782  1.00  0.00     0.281 HD
ENDROOT
BRANCH   8  16
HETATM   16  C6  UNL     1     -43.708  11.451   0.435  1.00  0.00     0.074 C 
BRANCH  16  17
HETATM   17  C7  UNL     1     -43.437  12.515   1.430  1.00  0.00    -0.056 A 
HETATM   18  C8  UNL     1     -42.447  12.425   2.363  1.00  0.00     0.007 A 
HETATM   19  C9  UNL     1     -42.254  13.465   3.262  1.00  0.00     0.001 A 
HETATM   20  C10 UNL     1     -43.050  14.586   3.226  1.00  0.00     0.000 A 
HETATM   21  C11 UNL     1     -44.049  14.688   2.293  1.00  0.00     0.001 A 
HETATM   22  C12 UNL     1     -44.223  13.644   1.408  1.00  0.00     0.007 A 
ENDBRANCH  16  17
ENDBRANCH   8  16
BRANCH   9  23
HETATM   23  O2  UNL     1     -45.238  10.052  -1.319  1.00  0.00    -0.391 OA
ATOM     24  H2  UNL     1     -44.857   9.639  -0.553  1.00  0.00     0.210 HD
ENDBRANCH   9  23
BRANCH   1  25
HETATM   25  O1  UNL     1     -45.281  10.356  -3.940  1.00  0.00    -0.393 OA
ATOM     26  H1  UNL     1     -46.228  10.375  -4.012  1.00  0.00     0.210 HD
ENDBRANCH   1  25
TORSDOF 4
ENDMDL
