MODEL 1
REMARK VINA RESULT: -8.351612299      0.000      0.000
REMARK  3 active torsions:
REMARK  status: ('A' for Active; 'I' for Inactive)
REMARK    1  A    between atoms: N1_1  and  C1_4 
REMARK    2  A    between atoms: C5_15  and  C6_16 
REMARK    3  A    between atoms: C6_16  and  C7_17 
ROOT
HETATM    1  C1  UNL     1      41.227 -24.701  -3.517  1.00  0.00     0.133 A 
HETATM    2  N2  UNL     1      41.001 -23.514  -4.088  1.00  0.00    -0.293 N 
ATOM      3  H2  UNL     1      41.782 -22.889  -4.290  1.00  0.00     0.172 HD
HETATM    4  C2  UNL     1      39.750 -23.143  -4.395  1.00  0.00     0.327 A 
HETATM    5  O1  UNL     1      39.554 -22.008  -4.938  1.00  0.00    -0.247 OA
HETATM    6  N3  UNL     1      38.726 -23.957  -4.133  1.00  0.00    -0.293 N 
ATOM      7  H3  UNL     1      37.787 -23.646  -4.379  1.00  0.00     0.172 HD
HETATM    8  C3  UNL     1      38.870 -25.182  -3.556  1.00  0.00     0.137 A 
HETATM    9  C4  UNL     1      40.157 -25.560  -3.240  1.00  0.00     0.118 A 
HETATM   10  N4  UNL     1      40.186 -26.719  -2.705  1.00  0.00    -0.362 N 
ATOM     11  H4  UNL     1      41.012 -27.223  -2.382  1.00  0.00     0.162 HD
HETATM   12  C5  UNL     1      38.819 -27.172  -2.647  1.00  0.00     0.188 A 
HETATM   13  N6  UNL     1      38.032 -26.104  -3.224  1.00  0.00    -0.353 N 
ATOM     14  H6  UNL     1      37.020 -26.085  -3.343  1.00  0.00     0.163 HD
ENDROOT
BRANCH  12  15
HETATM   15  C6  UNL     1      38.635 -28.484  -3.396  1.00  0.00     0.103 C 
BRANCH  15  16
HETATM   16  C7  UNL     1      37.246 -28.988  -3.238  1.00  0.00     0.014 A 
HETATM   17  C8  UNL     1      36.813 -29.869  -2.264  1.00  0.00     0.038 A 
HETATM   18  C9  UNL     1      35.450 -30.047  -2.512  1.00  0.00    -0.008 A 
HETATM   19  C10 UNL     1      34.464 -30.797  -1.899  1.00  0.00     0.014 A 
HETATM   20  C14 UNL     1      35.081 -29.291  -3.606  1.00  0.00     0.042 A 
HETATM   21  C11 UNL     1      33.165 -30.784  -2.369  1.00  0.00     0.001 A 
HETATM   22  C12 UNL     1      32.818 -30.024  -3.461  1.00  0.00     0.002 A 
HETATM   23  C13 UNL     1      33.787 -29.266  -4.091  1.00  0.00     0.030 A 
HETATM   24  N5  UNL     1      36.202 -28.668  -4.011  1.00  0.00    -0.359 N 
ATOM     25  H5  UNL     1      36.250 -28.032  -4.806  1.00  0.00     0.166 HD
ENDBRANCH  15  16
ENDBRANCH  12  15
BRANCH   1  26
HETATM   26  N1  UNL     1      42.421 -25.081  -3.211  1.00  0.00    -0.383 N 
ATOM     27  H12 UNL     1      42.645 -25.250  -2.230  1.00  0.00     0.157 HD
ATOM     28  H11 UNL     1      43.135 -25.213  -3.928  1.00  0.00     0.157 HD
ENDBRANCH   1  26
TORSDOF 3
ENDMDL
MODEL 2
REMARK VINA RESULT: -8.260459709      1.324      1.822
REMARK  3 active torsions:
REMARK  status: ('A' for Active; 'I' for Inactive)
REMARK    1  A    between atoms: N1_1  and  C1_4 
REMARK    2  A    between atoms: C5_15  and  C6_16 
REMARK    3  A    between atoms: C6_16  and  C7_17 
ROOT
HETATM    1  C1  UNL     1      40.299 -24.937  -3.937  1.00  0.00     0.133 A 
HETATM    2  N2  UNL     1      40.047 -23.992  -4.848  1.00  0.00    -0.293 N 
ATOM      3  H2  UNL     1      40.792 -23.365  -5.152  1.00  0.00     0.172 HD
HETATM    4  C2  UNL     1      38.815 -23.868  -5.363  1.00  0.00     0.327 A 
HETATM    5  O1  UNL     1      38.593 -22.962  -6.231  1.00  0.00    -0.247 OA
HETATM    6  N3  UNL     1      37.838 -24.687  -4.970  1.00  0.00    -0.293 N 
ATOM      7  H3  UNL     1      36.913 -24.567  -5.381  1.00  0.00     0.172 HD
HETATM    8  C3  UNL     1      38.012 -25.674  -4.049  1.00  0.00     0.137 A 
HETATM    9  C4  UNL     1      39.278 -25.799  -3.520  1.00  0.00     0.118 A 
HETATM   10  N4  UNL     1      39.338 -26.748  -2.668  1.00  0.00    -0.362 N 
ATOM     11  H4  UNL     1      40.157 -27.043  -2.138  1.00  0.00     0.162 HD
HETATM   12  C5  UNL     1      38.016 -27.319  -2.606  1.00  0.00     0.188 A 
HETATM   13  N6  UNL     1      37.219 -26.555  -3.539  1.00  0.00    -0.353 N 
ATOM     14  H6  UNL     1      36.230 -26.686  -3.751  1.00  0.00     0.163 HD
ENDROOT
BRANCH  12  15
HETATM   15  C6  UNL     1      38.033 -28.802  -2.951  1.00  0.00     0.103 C 
BRANCH  15  16
HETATM   16  C7  UNL     1      36.774 -29.457  -2.510  1.00  0.00     0.014 A 
HETATM   17  C8  UNL     1      35.740 -29.855  -3.338  1.00  0.00     0.038 A 
HETATM   18  C9  UNL     1      34.784 -30.415  -2.486  1.00  0.00    -0.008 A 
HETATM   19  C10 UNL     1      33.543 -30.985  -2.696  1.00  0.00     0.014 A 
HETATM   20  C14 UNL     1      35.240 -30.351  -1.184  1.00  0.00     0.042 A 
HETATM   21  C11 UNL     1      32.796 -31.469  -1.640  1.00  0.00     0.001 A 
HETATM   22  C12 UNL     1      33.266 -31.396  -0.350  1.00  0.00     0.002 A 
HETATM   23  C13 UNL     1      34.505 -30.829  -0.115  1.00  0.00     0.030 A 
HETATM   24  N5  UNL     1      36.447 -29.763  -1.250  1.00  0.00    -0.359 N 
ATOM     25  H5  UNL     1      37.039 -29.575  -0.442  1.00  0.00     0.166 HD
ENDBRANCH  15  16
ENDBRANCH  12  15
BRANCH   1  26
HETATM   26  N1  UNL     1      41.475 -25.076  -3.425  1.00  0.00    -0.383 N 
ATOM     27  H12 UNL     1      42.272 -25.190  -4.052  1.00  0.00     0.157 HD
ATOM     28  H11 UNL     1      41.617 -25.075  -2.415  1.00  0.00     0.157 HD
ENDBRANCH   1  26
TORSDOF 3
ENDMDL
MODEL 3
REMARK VINA RESULT: -8.117634863      0.548      1.249
REMARK  3 active torsions:
REMARK  status: ('A' for Active; 'I' for Inactive)
REMARK    1  A    between atoms: N1_1  and  C1_4 
REMARK    2  A    between atoms: C5_15  and  C6_16 
REMARK    3  A    between atoms: C6_16  and  C7_17 
ROOT
HETATM    1  C1  UNL     1      41.272 -24.660  -3.571  1.00  0.00     0.133 A 
HETATM    2  N2  UNL     1      41.015 -23.480  -4.145  1.00  0.00    -0.293 N 
ATOM      3  H2  UNL     1      41.781 -22.845  -4.371  1.00  0.00     0.172 HD
HETATM    4  C2  UNL     1      39.751 -23.131  -4.424  1.00  0.00     0.327 A 
HETATM    5  O1  UNL     1      39.525 -22.002  -4.970  1.00  0.00    -0.247 OA
HETATM    6  N3  UNL     1      38.746 -23.958  -4.131  1.00  0.00    -0.293 N 
ATOM      7  H3  UNL     1      37.797 -23.662  -4.356  1.00  0.00     0.172 HD
HETATM    8  C3  UNL     1      38.922 -25.175  -3.548  1.00  0.00     0.137 A 
HETATM    9  C4  UNL     1      40.223 -25.532  -3.261  1.00  0.00     0.118 A 
HETATM   10  N4  UNL     1      40.282 -26.686  -2.718  1.00  0.00    -0.362 N 
ATOM     11  H4  UNL     1      41.122 -27.175  -2.412  1.00  0.00     0.162 HD
HETATM   12  C5  UNL     1      38.923 -27.159  -2.623  1.00  0.00     0.188 A 
HETATM   13  N6  UNL     1      38.107 -26.108  -3.188  1.00  0.00    -0.353 N 
ATOM     14  H6  UNL     1      37.092 -26.104  -3.283  1.00  0.00     0.163 HD
ENDROOT
BRANCH  12  15
HETATM   15  C6  UNL     1      38.741 -28.480  -3.357  1.00  0.00     0.103 C 
BRANCH  15  16
HETATM   16  C7  UNL     1      37.327 -28.931  -3.282  1.00  0.00     0.014 A 
HETATM   17  C8  UNL     1      36.312 -28.551  -4.142  1.00  0.00     0.038 A 
HETATM   18  C9  UNL     1      35.175 -29.220  -3.684  1.00  0.00    -0.008 A 
HETATM   19  C10 UNL     1      33.860 -29.258  -4.109  1.00  0.00     0.014 A 
HETATM   20  C14 UNL     1      35.505 -29.979  -2.580  1.00  0.00     0.042 A 
HETATM   21  C11 UNL     1      32.922 -30.027  -3.449  1.00  0.00     0.001 A 
HETATM   22  C12 UNL     1      33.271 -30.777  -2.351  1.00  0.00     0.002 A 
HETATM   23  C13 UNL     1      34.580 -30.754  -1.906  1.00  0.00     0.030 A 
HETATM   24  N5  UNL     1      36.817 -29.771  -2.375  1.00  0.00    -0.359 N 
ATOM     25  H5  UNL     1      37.357 -30.200  -1.623  1.00  0.00     0.166 HD
ENDBRANCH  15  16
ENDBRANCH  12  15
BRANCH   1  26
HETATM   26  N1  UNL     1      42.479 -25.019  -3.291  1.00  0.00    -0.383 N 
ATOM     27  H12 UNL     1      43.234 -24.724  -3.911  1.00  0.00     0.157 HD
ATOM     28  H11 UNL     1      42.686 -25.587  -2.470  1.00  0.00     0.157 HD
ENDBRANCH   1  26
TORSDOF 3
ENDMDL
MODEL 4
REMARK VINA RESULT: -7.784058169      1.760      2.732
REMARK  3 active torsions:
REMARK  status: ('A' for Active; 'I' for Inactive)
REMARK    1  A    between atoms: N1_1  and  C1_4 
REMARK    2  A    between atoms: C5_15  and  C6_16 
REMARK    3  A    between atoms: C6_16  and  C7_17 
ROOT
HETATM    1  C1  UNL     1      39.711 -23.029  -4.315  1.00  0.00     0.133 A 
HETATM    2  N2  UNL     1      41.024 -23.225  -4.156  1.00  0.00    -0.293 N 
ATOM      3  H2  UNL     1      41.672 -22.444  -4.264  1.00  0.00     0.172 HD
HETATM    4  C2  UNL     1      41.489 -24.445  -3.856  1.00  0.00     0.327 A 
HETATM    5  O1  UNL     1      42.744 -24.612  -3.708  1.00  0.00    -0.247 OA
HETATM    6  N3  UNL     1      40.646 -25.468  -3.712  1.00  0.00    -0.293 N 
ATOM      7  H3  UNL     1      41.032 -26.384  -3.483  1.00  0.00     0.172 HD
HETATM    8  C3  UNL     1      39.297 -25.354  -3.856  1.00  0.00     0.137 A 
HETATM    9  C4  UNL     1      38.821 -24.098  -4.166  1.00  0.00     0.118 A 
HETATM   10  N4  UNL     1      37.549 -24.096  -4.279  1.00  0.00    -0.362 N 
ATOM     11  H4  UNL     1      36.956 -23.296  -4.503  1.00  0.00     0.162 HD
HETATM   12  C5  UNL     1      37.117 -25.448  -4.029  1.00  0.00     0.188 A 
HETATM   13  N6  UNL     1      38.325 -26.197  -3.763  1.00  0.00    -0.353 N 
ATOM     14  H6  UNL     1      38.394 -27.191  -3.545  1.00  0.00     0.163 HD
ENDROOT
BRANCH  12  15
HETATM   15  C6  UNL     1      36.137 -25.514  -2.867  1.00  0.00     0.103 C 
BRANCH  15  16
HETATM   16  C7  UNL     1      35.457 -26.835  -2.828  1.00  0.00     0.014 A 
HETATM   17  C8  UNL     1      34.467 -27.257  -3.697  1.00  0.00     0.038 A 
HETATM   18  C9  UNL     1      34.138 -28.548  -3.277  1.00  0.00    -0.008 A 
HETATM   19  C10 UNL     1      33.233 -29.491  -3.727  1.00  0.00     0.014 A 
HETATM   20  C14 UNL     1      34.914 -28.886  -2.186  1.00  0.00     0.042 A 
HETATM   21  C11 UNL     1      33.117 -30.718  -3.103  1.00  0.00     0.001 A 
HETATM   22  C12 UNL     1      33.899 -31.036  -2.018  1.00  0.00     0.002 A 
HETATM   23  C13 UNL     1      34.811 -30.108  -1.549  1.00  0.00     0.030 A 
HETATM   24  N5  UNL     1      35.695 -27.817  -1.953  1.00  0.00    -0.359 N 
ATOM     25  H5  UNL     1      36.384 -27.762  -1.202  1.00  0.00     0.166 HD
ENDBRANCH  15  16
ENDBRANCH  12  15
BRANCH   1  26
HETATM   26  N1  UNL     1      39.237 -21.865  -4.605  1.00  0.00    -0.383 N 
ATOM     27  H12 UNL     1      39.745 -21.037  -4.291  1.00  0.00     0.157 HD
ATOM     28  H11 UNL     1      38.374 -21.762  -5.138  1.00  0.00     0.157 HD
ENDBRANCH   1  26
TORSDOF 3
ENDMDL
MODEL 5
REMARK VINA RESULT: -7.725090181      2.636      3.806
REMARK  3 active torsions:
REMARK  status: ('A' for Active; 'I' for Inactive)
REMARK    1  A    between atoms: N1_1  and  C1_4 
REMARK    2  A    between atoms: C5_15  and  C6_16 
REMARK    3  A    between atoms: C6_16  and  C7_17 
ROOT
HETATM    1  C1  UNL     1      40.114 -25.581  -2.762  1.00  0.00     0.133 A 
HETATM    2  N2  UNL     1      41.355 -25.579  -3.260  1.00  0.00    -0.293 N 
ATOM      3  H2  UNL     1      41.954 -26.395  -3.138  1.00  0.00     0.172 HD
HETATM    4  C2  UNL     1      41.812 -24.505  -3.920  1.00  0.00     0.327 A 
HETATM    5  O1  UNL     1      42.997 -24.522  -4.387  1.00  0.00    -0.247 OA
HETATM    6  N3  UNL     1      41.032 -23.436  -4.083  1.00  0.00    -0.293 N 
ATOM      7  H3  UNL     1      41.409 -22.635  -4.589  1.00  0.00     0.172 HD
HETATM    8  C3  UNL     1      39.758 -23.357  -3.609  1.00  0.00     0.137 A 
HETATM    9  C4  UNL     1      39.291 -24.462  -2.930  1.00  0.00     0.118 A 
HETATM   10  N4  UNL     1      38.092 -24.290  -2.526  1.00  0.00    -0.362 N 
ATOM     11  H4  UNL     1      37.521 -24.953  -2.003  1.00  0.00     0.162 HD
HETATM   12  C5  UNL     1      37.705 -22.970  -2.958  1.00  0.00     0.188 A 
HETATM   13  N6  UNL     1      38.854 -22.437  -3.655  1.00  0.00    -0.353 N 
ATOM     14  H6  UNL     1      38.934 -21.521  -4.094  1.00  0.00     0.163 HD
ENDROOT
BRANCH  12  15
HETATM   15  C6  UNL     1      36.470 -23.014  -3.847  1.00  0.00     0.103 C 
BRANCH  15  16
HETATM   16  C7  UNL     1      36.215 -24.399  -4.322  1.00  0.00     0.014 A 
HETATM   17  C8  UNL     1      35.276 -25.271  -3.801  1.00  0.00     0.038 A 
HETATM   18  C9  UNL     1      35.400 -26.437  -4.559  1.00  0.00    -0.008 A 
HETATM   19  C10 UNL     1      34.753 -27.659  -4.533  1.00  0.00     0.014 A 
HETATM   20  C14 UNL     1      36.387 -26.264  -5.508  1.00  0.00     0.042 A 
HETATM   21  C11 UNL     1      35.089 -28.659  -5.425  1.00  0.00     0.001 A 
HETATM   22  C12 UNL     1      36.075 -28.467  -6.362  1.00  0.00     0.002 A 
HETATM   23  C13 UNL     1      36.737 -27.253  -6.407  1.00  0.00     0.030 A 
HETATM   24  N5  UNL     1      36.851 -25.015  -5.325  1.00  0.00    -0.359 N 
ATOM     25  H5  UNL     1      37.593 -24.591  -5.880  1.00  0.00     0.166 HD
ENDBRANCH  15  16
ENDBRANCH  12  15
BRANCH   1  26
HETATM   26  N1  UNL     1      39.650 -26.601  -2.123  1.00  0.00    -0.383 N 
ATOM     27  H12 UNL     1      39.789 -26.650  -1.114  1.00  0.00     0.157 HD
ATOM     28  H11 UNL     1      39.153 -27.348  -2.607  1.00  0.00     0.157 HD
ENDBRANCH   1  26
TORSDOF 3
ENDMDL
