MODEL 1
REMARK VINA RESULT: -6.237942386      0.000      0.000
REMARK  7 active torsions:
REMARK  status: ('A' for Active; 'I' for Inactive)
REMARK    1  A    between atoms: C6_6  and  C7_7 
REMARK    2  A    between atoms: C8_8  and  C9_9 
REMARK    3  A    between atoms: C10_11  and  C11_12 
REMARK    4  A    between atoms: C11_12  and  O2_13 
REMARK    5  A    between atoms: C12_15  and  O3_16 
REMARK    6  A    between atoms: C13_18  and  C14_19 
REMARK    7  A    between atoms: C14_19  and  O4_20 
ROOT
HETATM    1  C9  UNL     1      38.381 -24.995  -4.014  1.00  0.00     0.209 C 
HETATM    2  O1  UNL     1      38.335 -24.067  -2.991  1.00  0.00    -0.363 OA
HETATM    3  C10 UNL     1      39.526 -23.368  -3.160  1.00  0.00     0.176 C 
HETATM    4  C12 UNL     1      40.582 -24.346  -3.610  1.00  0.00     0.158 C 
HETATM    5  C13 UNL     1      39.736 -25.605  -3.849  1.00  0.00     0.081 C 
ENDROOT
BRANCH   1   6
HETATM    6  C8  UNL     1      37.371 -26.056  -3.837  1.00  0.00    -0.067 C 
HETATM    7  C7  UNL     1      36.530 -26.911  -3.704  1.00  0.00    -0.046 C 
BRANCH   7   8
HETATM    8  C6  UNL     1      35.530 -27.956  -3.561  1.00  0.00     0.087 A 
HETATM    9  C5  UNL     1      34.539 -28.089  -4.419  1.00  0.00     0.039 A 
HETATM   10  C4  UNL     1      33.512 -29.118  -4.321  1.00  0.00     0.005 A 
HETATM   11  C3  UNL     1      33.603 -29.957  -3.299  1.00  0.00     0.029 A 
HETATM   12  C2  UNL     1      34.668 -29.860  -2.324  1.00  0.00     0.023 A 
HETATM   13  C1  UNL     1      34.766 -30.683  -1.313  1.00  0.00     0.043 C 
HETATM   14  N1  UNL     1      35.655 -28.827  -2.470  1.00  0.00    -0.350 N 
ATOM     15  H1  UNL     1      36.420 -28.729  -1.802  1.00  0.00     0.166 HD
ENDBRANCH   7   8
ENDBRANCH   1   6
BRANCH   5  16
HETATM   16  C14 UNL     1      39.727 -26.449  -2.577  1.00  0.00     0.174 C 
BRANCH  16  17
HETATM   17  O4  UNL     1      40.286 -27.707  -2.832  1.00  0.00    -0.400 OA
ATOM     18  H4  UNL     1      40.949 -27.906  -2.182  1.00  0.00     0.209 HD
ENDBRANCH  16  17
ENDBRANCH   5  16
BRANCH   3  19
HETATM   19  C11 UNL     1      39.283 -22.264  -4.162  1.00  0.00     0.198 C 
BRANCH  19  20
HETATM   20  O2  UNL     1      40.345 -21.338  -4.127  1.00  0.00    -0.398 OA
ATOM     21  H2  UNL     1      40.388 -20.861  -4.947  1.00  0.00     0.209 HD
ENDBRANCH  19  20
ENDBRANCH   3  19
BRANCH   4  22
HETATM   22  O3  UNL     1      41.091 -23.969  -4.874  1.00  0.00    -0.392 OA
ATOM     23  H3  UNL     1      40.391 -23.642  -5.426  1.00  0.00     0.210 HD
ENDBRANCH   4  22
TORSDOF 7
ENDMDL
MODEL 2
REMARK VINA RESULT: -6.091838033      1.790      2.723
REMARK  7 active torsions:
REMARK  status: ('A' for Active; 'I' for Inactive)
REMARK    1  A    between atoms: C6_6  and  C7_7 
REMARK    2  A    between atoms: C8_8  and  C9_9 
REMARK    3  A    between atoms: C10_11  and  C11_12 
REMARK    4  A    between atoms: C11_12  and  O2_13 
REMARK    5  A    between atoms: C12_15  and  O3_16 
REMARK    6  A    between atoms: C13_18  and  C14_19 
REMARK    7  A    between atoms: C14_19  and  O4_20 
ROOT
HETATM    1  C9  UNL     1      37.833 -25.034  -3.729  1.00  0.00     0.209 C 
HETATM    2  O1  UNL     1      39.175 -25.236  -3.988  1.00  0.00    -0.363 OA
HETATM    3  C10 UNL     1      39.510 -24.122  -4.750  1.00  0.00     0.176 C 
HETATM    4  C12 UNL     1      38.334 -23.789  -5.633  1.00  0.00     0.158 C 
HETATM    5  C13 UNL     1      37.271 -24.753  -5.085  1.00  0.00     0.081 C 
ENDROOT
BRANCH   1   6
HETATM    6  C8  UNL     1      37.187 -26.252  -3.203  1.00  0.00    -0.067 C 
HETATM    7  C7  UNL     1      36.640 -27.239  -2.777  1.00  0.00    -0.046 C 
BRANCH   7   8
HETATM    8  C6  UNL     1      35.986 -28.441  -2.285  1.00  0.00     0.087 A 
HETATM    9  C5  UNL     1      36.465 -29.121  -1.263  1.00  0.00     0.039 A 
HETATM   10  C4  UNL     1      35.850 -30.330  -0.731  1.00  0.00     0.005 A 
HETATM   11  C3  UNL     1      34.744 -30.749  -1.329  1.00  0.00     0.029 A 
HETATM   12  C2  UNL     1      34.171 -30.045  -2.455  1.00  0.00     0.023 A 
HETATM   13  C1  UNL     1      33.080 -30.451  -3.051  1.00  0.00     0.043 C 
HETATM   14  N1  UNL     1      34.819 -28.857  -2.939  1.00  0.00    -0.350 N 
ATOM     15  H1  UNL     1      34.443 -28.335  -3.730  1.00  0.00     0.166 HD
ENDBRANCH   7   8
ENDBRANCH   1   6
BRANCH   5  16
HETATM   16  C14 UNL     1      37.306 -26.047  -5.893  1.00  0.00     0.174 C 
BRANCH  16  17
HETATM   17  O4  UNL     1      36.930 -25.795  -7.218  1.00  0.00    -0.400 OA
ATOM     18  H4  UNL     1      36.001 -25.600  -7.260  1.00  0.00     0.209 HD
ENDBRANCH  16  17
ENDBRANCH   5  16
BRANCH   3  19
HETATM   19  C11 UNL     1      39.870 -22.998  -3.805  1.00  0.00     0.198 C 
BRANCH  19  20
HETATM   20  O2  UNL     1      40.375 -21.901  -4.529  1.00  0.00    -0.398 OA
ATOM     21  H2  UNL     1      41.241 -22.101  -4.863  1.00  0.00     0.209 HD
ENDBRANCH  19  20
ENDBRANCH   3  19
BRANCH   4  22
HETATM   22  O3  UNL     1      37.864 -22.486  -5.354  1.00  0.00    -0.392 OA
ATOM     23  H3  UNL     1      37.128 -22.523  -4.754  1.00  0.00     0.210 HD
ENDBRANCH   4  22
TORSDOF 7
ENDMDL
MODEL 3
REMARK VINA RESULT: -6.064663274      1.212      1.293
REMARK  7 active torsions:
REMARK  status: ('A' for Active; 'I' for Inactive)
REMARK    1  A    between atoms: C6_6  and  C7_7 
REMARK    2  A    between atoms: C8_8  and  C9_9 
REMARK    3  A    between atoms: C10_11  and  C11_12 
REMARK    4  A    between atoms: C11_12  and  O2_13 
REMARK    5  A    between atoms: C12_15  and  O3_16 
REMARK    6  A    between atoms: C13_18  and  C14_19 
REMARK    7  A    between atoms: C14_19  and  O4_20 
ROOT
HETATM    1  C9  UNL     1      37.026 -24.911  -4.243  1.00  0.00     0.209 C 
HETATM    2  O1  UNL     1      37.231 -24.110  -3.136  1.00  0.00    -0.363 OA
HETATM    3  C10 UNL     1      38.246 -23.258  -3.560  1.00  0.00     0.176 C 
HETATM    4  C12 UNL     1      39.180 -24.046  -4.442  1.00  0.00     0.158 C 
HETATM    5  C13 UNL     1      38.408 -25.366  -4.585  1.00  0.00     0.081 C 
ENDROOT
BRANCH   1   6
HETATM    6  C8  UNL     1      36.215 -26.099  -3.917  1.00  0.00    -0.067 C 
HETATM    7  C7  UNL     1      35.564 -27.082  -3.663  1.00  0.00    -0.046 C 
BRANCH   7   8
HETATM    8  C6  UNL     1      34.789 -28.268  -3.332  1.00  0.00     0.087 A 
HETATM    9  C5  UNL     1      33.792 -28.677  -4.089  1.00  0.00     0.039 A 
HETATM   10  C4  UNL     1      32.985 -29.856  -3.804  1.00  0.00     0.005 A 
HETATM   11  C3  UNL     1      33.295 -30.540  -2.713  1.00  0.00     0.029 A 
HETATM   12  C2  UNL     1      34.379 -30.141  -1.842  1.00  0.00     0.023 A 
HETATM   13  C1  UNL     1      34.692 -30.810  -0.763  1.00  0.00     0.043 C 
HETATM   14  N1  UNL     1      35.143 -28.969  -2.172  1.00  0.00    -0.350 N 
ATOM     15  H1  UNL     1      35.914 -28.658  -1.582  1.00  0.00     0.166 HD
ENDBRANCH   7   8
ENDBRANCH   1   6
BRANCH   5  16
HETATM   16  C14 UNL     1      38.873 -26.336  -3.501  1.00  0.00     0.174 C 
BRANCH  16  17
HETATM   17  O4  UNL     1      40.271 -26.381  -3.466  1.00  0.00    -0.400 OA
ATOM     18  H4  UNL     1      40.560 -27.031  -2.837  1.00  0.00     0.209 HD
ENDBRANCH  16  17
ENDBRANCH   5  16
BRANCH   3  19
HETATM   19  C11 UNL     1      37.608 -22.090  -4.277  1.00  0.00     0.198 C 
BRANCH  19  20
HETATM   20  O2  UNL     1      38.463 -20.971  -4.234  1.00  0.00    -0.398 OA
ATOM     21  H2  UNL     1      38.022 -20.240  -3.818  1.00  0.00     0.209 HD
ENDBRANCH  19  20
ENDBRANCH   3  19
BRANCH   4  22
HETATM   22  O3  UNL     1      39.230 -23.478  -5.735  1.00  0.00    -0.392 OA
ATOM     23  H3  UNL     1      38.395 -23.080  -5.952  1.00  0.00     0.210 HD
ENDBRANCH   4  22
TORSDOF 7
ENDMDL
MODEL 4
REMARK VINA RESULT: -6.015801042      1.037      1.086
REMARK  7 active torsions:
REMARK  status: ('A' for Active; 'I' for Inactive)
REMARK    1  A    between atoms: C6_6  and  C7_7 
REMARK    2  A    between atoms: C8_8  and  C9_9 
REMARK    3  A    between atoms: C10_11  and  C11_12 
REMARK    4  A    between atoms: C11_12  and  O2_13 
REMARK    5  A    between atoms: C12_15  and  O3_16 
REMARK    6  A    between atoms: C13_18  and  C14_19 
REMARK    7  A    between atoms: C14_19  and  O4_20 
ROOT
HETATM    1  C9  UNL     1      38.442 -25.990  -3.729  1.00  0.00     0.209 C 
HETATM    2  O1  UNL     1      38.223 -24.774  -3.110  1.00  0.00    -0.363 OA
HETATM    3  C10 UNL     1      39.497 -24.216  -3.075  1.00  0.00     0.176 C 
HETATM    4  C12 UNL     1      40.487 -25.328  -2.832  1.00  0.00     0.158 C 
HETATM    5  C13 UNL     1      39.580 -26.562  -2.948  1.00  0.00     0.081 C 
ENDROOT
BRANCH   1   6
HETATM    6  C8  UNL     1      37.283 -26.892  -3.589  1.00  0.00    -0.067 C 
HETATM    7  C7  UNL     1      36.342 -27.640  -3.492  1.00  0.00    -0.046 C 
BRANCH   7   8
HETATM    8  C6  UNL     1      35.219 -28.554  -3.355  1.00  0.00     0.087 A 
HETATM    9  C5  UNL     1      34.252 -28.601  -4.248  1.00  0.00     0.039 A 
HETATM   10  C4  UNL     1      33.106 -29.497  -4.159  1.00  0.00     0.005 A 
HETATM   11  C3  UNL     1      33.059 -30.302  -3.108  1.00  0.00     0.029 A 
HETATM   12  C2  UNL     1      34.091 -30.296  -2.094  1.00  0.00     0.023 A 
HETATM   13  C1  UNL     1      34.052 -31.086  -1.053  1.00  0.00     0.043 C 
HETATM   14  N1  UNL     1      35.199 -29.392  -2.232  1.00  0.00    -0.350 N 
ATOM     15  H1  UNL     1      35.945 -29.361  -1.538  1.00  0.00     0.166 HD
ENDBRANCH   7   8
ENDBRANCH   1   6
BRANCH   5  16
HETATM   16  C14 UNL     1      39.065 -26.934  -1.560  1.00  0.00     0.174 C 
BRANCH  16  17
HETATM   17  O4  UNL     1      40.011 -27.723  -0.894  1.00  0.00    -0.400 OA
ATOM     18  H4  UNL     1      39.598 -28.507  -0.552  1.00  0.00     0.209 HD
ENDBRANCH  16  17
ENDBRANCH   5  16
BRANCH   3  19
HETATM   19  C11 UNL     1      39.731 -23.498  -4.384  1.00  0.00     0.198 C 
BRANCH  19  20
HETATM   20  O2  UNL     1      40.674 -22.466  -4.207  1.00  0.00    -0.398 OA
ATOM     21  H2  UNL     1      40.231 -21.631  -4.115  1.00  0.00     0.209 HD
ENDBRANCH  19  20
ENDBRANCH   3  19
BRANCH   4  22
HETATM   22  O3  UNL     1      41.403 -25.411  -3.905  1.00  0.00    -0.392 OA
ATOM     23  H3  UNL     1      40.966 -25.727  -4.687  1.00  0.00     0.210 HD
ENDBRANCH   4  22
TORSDOF 7
ENDMDL
MODEL 5
REMARK VINA RESULT: -5.991415768      1.306      2.431
REMARK  7 active torsions:
REMARK  status: ('A' for Active; 'I' for Inactive)
REMARK    1  A    between atoms: C6_6  and  C7_7 
REMARK    2  A    between atoms: C8_8  and  C9_9 
REMARK    3  A    between atoms: C10_11  and  C11_12 
REMARK    4  A    between atoms: C11_12  and  O2_13 
REMARK    5  A    between atoms: C12_15  and  O3_16 
REMARK    6  A    between atoms: C13_18  and  C14_19 
REMARK    7  A    between atoms: C14_19  and  O4_20 
ROOT
HETATM    1  C9  UNL     1      38.254 -25.625  -3.371  1.00  0.00     0.209 C 
HETATM    2  O1  UNL     1      38.867 -25.579  -4.608  1.00  0.00    -0.363 OA
HETATM    3  C10 UNL     1      39.617 -24.410  -4.534  1.00  0.00     0.176 C 
HETATM    4  C12 UNL     1      38.826 -23.397  -3.745  1.00  0.00     0.158 C 
HETATM    5  C13 UNL     1      37.658 -24.259  -3.245  1.00  0.00     0.081 C 
ENDROOT
BRANCH   1   6
HETATM    6  C8  UNL     1      37.159 -26.613  -3.338  1.00  0.00    -0.067 C 
HETATM    7  C7  UNL     1      36.274 -27.431  -3.294  1.00  0.00    -0.046 C 
BRANCH   7   8
HETATM    8  C6  UNL     1      35.190 -28.399  -3.232  1.00  0.00     0.087 A 
HETATM    9  C5  UNL     1      34.260 -28.457  -4.163  1.00  0.00     0.039 A 
HETATM   10  C4  UNL     1      33.154 -29.407  -4.148  1.00  0.00     0.005 A 
HETATM   11  C3  UNL     1      33.106 -30.250  -3.127  1.00  0.00     0.029 A 
HETATM   12  C2  UNL     1      34.099 -30.233  -2.075  1.00  0.00     0.023 A 
HETATM   13  C1  UNL     1      34.058 -31.061  -1.064  1.00  0.00     0.043 C 
HETATM   14  N1  UNL     1      35.168 -29.276  -2.140  1.00  0.00    -0.350 N 
ATOM     15  H1  UNL     1      35.885 -29.236  -1.416  1.00  0.00     0.166 HD
ENDBRANCH   7   8
ENDBRANCH   1   6
BRANCH   5  16
HETATM   16  C14 UNL     1      36.500 -24.152  -4.235  1.00  0.00     0.174 C 
BRANCH  16  17
HETATM   17  O4  UNL     1      36.322 -22.818  -4.620  1.00  0.00    -0.400 OA
ATOM     18  H4  UNL     1      35.398 -22.639  -4.753  1.00  0.00     0.209 HD
ENDBRANCH  16  17
ENDBRANCH   5  16
BRANCH   3  19
HETATM   19  C11 UNL     1      40.946 -24.744  -3.896  1.00  0.00     0.198 C 
BRANCH  19  20
HETATM   20  O2  UNL     1      41.975 -24.002  -4.508  1.00  0.00    -0.398 OA
ATOM     21  H2  UNL     1      42.791 -24.486  -4.473  1.00  0.00     0.209 HD
ENDBRANCH  19  20
ENDBRANCH   3  19
BRANCH   4  22
HETATM   22  O3  UNL     1      39.545 -23.005  -2.593  1.00  0.00    -0.392 OA
ATOM     23  H3  UNL     1      39.531 -22.059  -2.502  1.00  0.00     0.210 HD
ENDBRANCH   4  22
TORSDOF 7
ENDMDL
