MODEL 1
REMARK VINA RESULT: -7.878687083      0.000      0.000
REMARK  5 active torsions:
REMARK  status: ('A' for Active; 'I' for Inactive)
REMARK    1  A    between atoms: C3_3  and  N1_4 
REMARK    2  A    between atoms: N1_4  and  C4_6 
REMARK    3  A    between atoms: C4_6  and  C5_7 
REMARK    4  A    between atoms: C12_16  and  N3_17 
REMARK    5  A    between atoms: N4_20  and  N5_21 
ROOT
HETATM    1  C1  UNL     1      37.392 -25.785  -4.854  1.00  0.00     0.030 C 
HETATM    2  C2  UNL     1      38.387 -26.092  -4.077  1.00  0.00     0.029 A 
HETATM    3  C3  UNL     1      38.292 -27.349  -3.450  1.00  0.00     0.129 A 
HETATM    4  N2  UNL     1      39.287 -27.730  -2.633  1.00  0.00    -0.175 N 
ATOM      5  H2  UNL     1      39.236 -28.638  -2.171  1.00  0.00     0.186 HD
HETATM    6  C12 UNL     1      40.347 -26.937  -2.413  1.00  0.00     0.698 A 
HETATM    7  N4  UNL     1      40.410 -25.757  -3.016  1.00  0.00    -0.092 N 
HETATM    8  C13 UNL     1      39.439 -25.269  -3.877  1.00  0.00     0.097 A 
HETATM    9  C14 UNL     1      39.657 -24.110  -4.374  1.00  0.00     0.126 C 
HETATM   10  C15 UNL     1      38.947 -23.284  -5.260  1.00  0.00     0.090 C 
HETATM   11  N6  UNL     1      38.391 -22.562  -5.994  1.00  0.00    -0.192 NA
ENDROOT
BRANCH   7  12
HETATM   12  N5  UNL     1      41.544 -24.970  -2.748  1.00  0.00    -0.324 N 
ATOM     13  H52 UNL     1      41.820 -24.811  -1.779  1.00  0.00     0.178 HD
ATOM     14  H51 UNL     1      42.042 -24.591  -3.554  1.00  0.00     0.178 HD
ENDBRANCH   7  12
BRANCH   3  15
HETATM   15  N1  UNL     1      37.293 -28.093  -3.660  1.00  0.00    -0.371 N 
ATOM     16  H1  UNL     1      36.616 -27.758  -4.345  1.00  0.00     0.161 HD
BRANCH  15  17
HETATM   17  C4  UNL     1      37.007 -29.342  -3.047  1.00  0.00     0.160 C 
BRANCH  17  18
HETATM   18  C5  UNL     1      35.544 -29.605  -3.143  1.00  0.00    -0.040 A 
HETATM   19  C6  UNL     1      34.849 -28.958  -4.156  1.00  0.00     0.009 A 
HETATM   20  C7  UNL     1      33.491 -29.133  -4.332  1.00  0.00     0.001 A 
HETATM   21  C8  UNL     1      32.819 -29.983  -3.462  1.00  0.00     0.007 A 
HETATM   22  C9  UNL     1      33.533 -30.618  -2.457  1.00  0.00    -0.061 A 
HETATM   23  C10 UNL     1      32.782 -31.530  -1.533  1.00  0.00     0.048 C 
HETATM   24  C11 UNL     1      34.882 -30.440  -2.289  1.00  0.00     0.015 A 
ENDBRANCH  17  18
ENDBRANCH  15  17
ENDBRANCH   3  15
BRANCH   6  25
HETATM   25  N3  UNL     1      41.280 -27.360  -1.610  1.00  0.00    -0.233 N 
ATOM     26  H32 UNL     1      42.260 -27.103  -1.730  1.00  0.00     0.174 HD
ATOM     27  H31 UNL     1      41.015 -27.970  -0.837  1.00  0.00     0.174 HD
ENDBRANCH   6  25
TORSDOF 5
ENDMDL
MODEL 2
REMARK VINA RESULT: -7.703471189      0.895      1.572
REMARK  5 active torsions:
REMARK  status: ('A' for Active; 'I' for Inactive)
REMARK    1  A    between atoms: C3_3  and  N1_4 
REMARK    2  A    between atoms: N1_4  and  C4_6 
REMARK    3  A    between atoms: C4_6  and  C5_7 
REMARK    4  A    between atoms: C12_16  and  N3_17 
REMARK    5  A    between atoms: N4_20  and  N5_21 
ROOT
HETATM    1  C1  UNL     1      37.186 -25.779  -4.841  1.00  0.00     0.030 C 
HETATM    2  C2  UNL     1      38.189 -26.101  -4.081  1.00  0.00     0.029 A 
HETATM    3  C3  UNL     1      38.053 -27.323  -3.395  1.00  0.00     0.129 A 
HETATM    4  N2  UNL     1      39.054 -27.716  -2.591  1.00  0.00    -0.175 N 
ATOM      5  H2  UNL     1      38.974 -28.599  -2.087  1.00  0.00     0.186 HD
HETATM    6  C12 UNL     1      40.158 -26.968  -2.439  1.00  0.00     0.698 A 
HETATM    7  N4  UNL     1      40.259 -25.821  -3.098  1.00  0.00    -0.092 N 
HETATM    8  C13 UNL     1      39.285 -25.324  -3.950  1.00  0.00     0.097 A 
HETATM    9  C14 UNL     1      39.544 -24.200  -4.506  1.00  0.00     0.126 C 
HETATM   10  C15 UNL     1      38.846 -23.379  -5.407  1.00  0.00     0.090 C 
HETATM   11  N6  UNL     1      38.303 -22.664  -6.157  1.00  0.00    -0.192 NA
ENDROOT
BRANCH   7  12
HETATM   12  N5  UNL     1      41.438 -25.080  -2.899  1.00  0.00    -0.324 N 
ATOM     13  H52 UNL     1      41.422 -24.072  -3.050  1.00  0.00     0.178 HD
ATOM     14  H51 UNL     1      42.265 -25.603  -2.607  1.00  0.00     0.178 HD
ENDBRANCH   7  12
BRANCH   3  15
HETATM   15  N1  UNL     1      37.013 -28.024  -3.540  1.00  0.00    -0.371 N 
ATOM     16  H1  UNL     1      36.130 -27.517  -3.597  1.00  0.00     0.161 HD
BRANCH  15  17
HETATM   17  C4  UNL     1      36.935 -29.440  -3.632  1.00  0.00     0.160 C 
BRANCH  17  18
HETATM   18  C5  UNL     1      36.040 -29.947  -2.556  1.00  0.00    -0.040 A 
HETATM   19  C6  UNL     1      36.535 -29.931  -1.259  1.00  0.00     0.009 A 
HETATM   20  C7  UNL     1      35.786 -30.379  -0.189  1.00  0.00     0.001 A 
HETATM   21  C8  UNL     1      34.503 -30.854  -0.437  1.00  0.00     0.007 A 
HETATM   22  C9  UNL     1      34.029 -30.860  -1.740  1.00  0.00    -0.061 A 
HETATM   23  C10 UNL     1      32.641 -31.377  -1.978  1.00  0.00     0.048 C 
HETATM   24  C11 UNL     1      34.779 -30.413  -2.797  1.00  0.00     0.015 A 
ENDBRANCH  17  18
ENDBRANCH  15  17
ENDBRANCH   3  15
BRANCH   6  25
HETATM   25  N3  UNL     1      41.094 -27.402  -1.646  1.00  0.00    -0.233 N 
ATOM     26  H32 UNL     1      41.721 -26.771  -1.146  1.00  0.00     0.174 HD
ATOM     27  H31 UNL     1      41.200 -28.409  -1.525  1.00  0.00     0.174 HD
ENDBRANCH   6  25
TORSDOF 5
ENDMDL
MODEL 3
REMARK VINA RESULT: -7.392488038      1.028      1.473
REMARK  5 active torsions:
REMARK  status: ('A' for Active; 'I' for Inactive)
REMARK    1  A    between atoms: C3_3  and  N1_4 
REMARK    2  A    between atoms: N1_4  and  C4_6 
REMARK    3  A    between atoms: C4_6  and  C5_7 
REMARK    4  A    between atoms: C12_16  and  N3_17 
REMARK    5  A    between atoms: N4_20  and  N5_21 
ROOT
HETATM    1  C1  UNL     1      37.148 -25.707  -4.750  1.00  0.00     0.030 C 
HETATM    2  C2  UNL     1      38.146 -26.073  -4.002  1.00  0.00     0.029 A 
HETATM    3  C3  UNL     1      37.961 -27.283  -3.305  1.00  0.00     0.129 A 
HETATM    4  N2  UNL     1      38.952 -27.720  -2.514  1.00  0.00    -0.175 N 
ATOM      5  H2  UNL     1      38.836 -28.595  -2.002  1.00  0.00     0.186 HD
HETATM    6  C12 UNL     1      40.095 -27.027  -2.385  1.00  0.00     0.698 A 
HETATM    7  N4  UNL     1      40.242 -25.891  -3.053  1.00  0.00    -0.092 N 
HETATM    8  C13 UNL     1      39.282 -25.352  -3.895  1.00  0.00     0.097 A 
HETATM    9  C14 UNL     1      39.587 -24.246  -4.463  1.00  0.00     0.126 C 
HETATM   10  C15 UNL     1      38.917 -23.397  -5.359  1.00  0.00     0.090 C 
HETATM   11  N6  UNL     1      38.399 -22.660  -6.105  1.00  0.00    -0.192 NA
ENDROOT
BRANCH   7  12
HETATM   12  N5  UNL     1      41.460 -25.209  -2.878  1.00  0.00    -0.324 N 
ATOM     13  H52 UNL     1      42.241 -25.693  -2.436  1.00  0.00     0.178 HD
ATOM     14  H51 UNL     1      41.499 -24.245  -3.212  1.00  0.00     0.178 HD
ENDBRANCH   7  12
BRANCH   3  15
HETATM   15  N1  UNL     1      36.884 -27.932  -3.429  1.00  0.00    -0.371 N 
ATOM     16  H1  UNL     1      36.020 -27.397  -3.341  1.00  0.00     0.161 HD
BRANCH  15  17
HETATM   17  C4  UNL     1      36.743 -29.323  -3.678  1.00  0.00     0.160 C 
BRANCH  17  18
HETATM   18  C5  UNL     1      35.821 -29.905  -2.663  1.00  0.00    -0.040 A 
HETATM   19  C6  UNL     1      34.579 -30.337  -3.108  1.00  0.00     0.009 A 
HETATM   20  C7  UNL     1      33.652 -30.892  -2.249  1.00  0.00     0.001 A 
HETATM   21  C8  UNL     1      33.989 -31.012  -0.906  1.00  0.00     0.007 A 
HETATM   22  C9  UNL     1      35.234 -30.574  -0.484  1.00  0.00    -0.061 A 
HETATM   23  C10 UNL     1      35.571 -30.717   0.971  1.00  0.00     0.048 C 
HETATM   24  C11 UNL     1      36.150 -30.025  -1.343  1.00  0.00     0.015 A 
ENDBRANCH  17  18
ENDBRANCH  15  17
ENDBRANCH   3  15
BRANCH   6  25
HETATM   25  N3  UNL     1      41.021 -27.502  -1.603  1.00  0.00    -0.233 N 
ATOM     26  H32 UNL     1      41.065 -28.488  -1.345  1.00  0.00     0.174 HD
ATOM     27  H31 UNL     1      41.725 -26.859  -1.239  1.00  0.00     0.174 HD
ENDBRANCH   6  25
TORSDOF 5
ENDMDL
MODEL 4
REMARK VINA RESULT: -7.343272609      1.689      2.409
REMARK  5 active torsions:
REMARK  status: ('A' for Active; 'I' for Inactive)
REMARK    1  A    between atoms: C3_3  and  N1_4 
REMARK    2  A    between atoms: N1_4  and  C4_6 
REMARK    3  A    between atoms: C4_6  and  C5_7 
REMARK    4  A    between atoms: C12_16  and  N3_17 
REMARK    5  A    between atoms: N4_20  and  N5_21 
ROOT
HETATM    1  C1  UNL     1      36.895 -25.294  -3.387  1.00  0.00     0.030 C 
HETATM    2  C2  UNL     1      38.185 -25.139  -3.411  1.00  0.00     0.029 A 
HETATM    3  C3  UNL     1      38.932 -26.266  -3.018  1.00  0.00     0.129 A 
HETATM    4  N2  UNL     1      40.271 -26.175  -3.020  1.00  0.00    -0.175 N 
ATOM      5  H2  UNL     1      40.829 -26.982  -2.739  1.00  0.00     0.186 HD
HETATM    6  C12 UNL     1      40.890 -25.042  -3.385  1.00  0.00     0.698 A 
HETATM    7  N4  UNL     1      40.162 -23.995  -3.751  1.00  0.00    -0.092 N 
HETATM    8  C13 UNL     1      38.776 -23.984  -3.784  1.00  0.00     0.097 A 
HETATM    9  C14 UNL     1      38.230 -22.889  -4.162  1.00  0.00     0.126 C 
HETATM   10  C15 UNL     1      36.899 -22.475  -4.329  1.00  0.00     0.090 C 
HETATM   11  N6  UNL     1      35.806 -22.086  -4.483  1.00  0.00    -0.192 NA
ENDROOT
BRANCH   7  12
HETATM   12  N5  UNL     1      40.865 -22.835  -4.123  1.00  0.00    -0.324 N 
ATOM     13  H52 UNL     1      40.627 -21.947  -3.681  1.00  0.00     0.178 HD
ATOM     14  H51 UNL     1      41.592 -22.946  -4.829  1.00  0.00     0.178 HD
ENDBRANCH   7  12
BRANCH   3  15
HETATM   15  N1  UNL     1      38.347 -27.331  -2.675  1.00  0.00    -0.371 N 
ATOM     16  H1  UNL     1      37.838 -27.304  -1.791  1.00  0.00     0.161 HD
BRANCH  15  17
HETATM   17  C4  UNL     1      38.318 -28.564  -3.382  1.00  0.00     0.160 C 
BRANCH  17  18
HETATM   18  C5  UNL     1      37.081 -28.617  -4.210  1.00  0.00    -0.040 A 
HETATM   19  C6  UNL     1      37.218 -28.373  -5.570  1.00  0.00     0.009 A 
HETATM   20  C7  UNL     1      36.134 -28.398  -6.425  1.00  0.00     0.001 A 
HETATM   21  C8  UNL     1      34.881 -28.678  -5.892  1.00  0.00     0.007 A 
HETATM   22  C9  UNL     1      34.769 -28.919  -4.532  1.00  0.00    -0.061 A 
HETATM   23  C10 UNL     1      33.405 -29.219  -3.984  1.00  0.00     0.048 C 
HETATM   24  C11 UNL     1      35.849 -28.892  -3.688  1.00  0.00     0.015 A 
ENDBRANCH  17  18
ENDBRANCH  15  17
ENDBRANCH   3  15
BRANCH   6  25
HETATM   25  N3  UNL     1      42.191 -25.013  -3.367  1.00  0.00    -0.233 N 
ATOM     26  H32 UNL     1      42.753 -25.850  -3.208  1.00  0.00     0.174 HD
ATOM     27  H31 UNL     1      42.659 -24.119  -3.516  1.00  0.00     0.174 HD
ENDBRANCH   6  25
TORSDOF 5
ENDMDL
MODEL 5
REMARK VINA RESULT: -7.277873208      1.497      1.850
REMARK  5 active torsions:
REMARK  status: ('A' for Active; 'I' for Inactive)
REMARK    1  A    between atoms: C3_3  and  N1_4 
REMARK    2  A    between atoms: N1_4  and  C4_6 
REMARK    3  A    between atoms: C4_6  and  C5_7 
REMARK    4  A    between atoms: C12_16  and  N3_17 
REMARK    5  A    between atoms: N4_20  and  N5_21 
ROOT
HETATM    1  C1  UNL     1      36.295 -24.376  -4.210  1.00  0.00     0.030 C 
HETATM    2  C2  UNL     1      37.574 -24.522  -4.038  1.00  0.00     0.029 A 
HETATM    3  C3  UNL     1      37.981 -25.803  -3.618  1.00  0.00     0.129 A 
HETATM    4  N2  UNL     1      39.290 -26.023  -3.421  1.00  0.00    -0.175 N 
ATOM      5  H2  UNL     1      39.603 -26.945  -3.117  1.00  0.00     0.186 HD
HETATM    6  C12 UNL     1      40.194 -25.051  -3.615  1.00  0.00     0.698 A 
HETATM    7  N4  UNL     1      39.784 -23.853  -4.010  1.00  0.00    -0.092 N 
HETATM    8  C13 UNL     1      38.458 -23.521  -4.242  1.00  0.00     0.097 A 
HETATM    9  C14 UNL     1      38.235 -22.319  -4.619  1.00  0.00     0.126 C 
HETATM   10  C15 UNL     1      37.072 -21.604  -4.948  1.00  0.00     0.090 C 
HETATM   11  N6  UNL     1      36.131 -20.969  -5.232  1.00  0.00    -0.192 NA
ENDROOT
BRANCH   7  12
HETATM   12  N5  UNL     1      40.777 -22.874  -4.197  1.00  0.00    -0.324 N 
ATOM     13  H52 UNL     1      40.520 -21.979  -4.612  1.00  0.00     0.178 HD
ATOM     14  H51 UNL     1      41.722 -23.117  -3.900  1.00  0.00     0.178 HD
ENDBRANCH   7  12
BRANCH   3  15
HETATM   15  N1  UNL     1      37.127 -26.715  -3.436  1.00  0.00    -0.371 N 
ATOM     16  H1  UNL     1      36.282 -26.450  -2.929  1.00  0.00     0.161 HD
BRANCH  15  17
HETATM   17  C4  UNL     1      37.211 -28.070  -3.859  1.00  0.00     0.160 C 
BRANCH  17  18
HETATM   18  C5  UNL     1      35.873 -28.706  -3.713  1.00  0.00    -0.040 A 
HETATM   19  C6  UNL     1      34.899 -28.353  -4.639  1.00  0.00     0.009 A 
HETATM   20  C7  UNL     1      33.626 -28.886  -4.593  1.00  0.00     0.001 A 
HETATM   21  C8  UNL     1      33.330 -29.798  -3.586  1.00  0.00     0.007 A 
HETATM   22  C9  UNL     1      34.317 -30.135  -2.673  1.00  0.00    -0.061 A 
HETATM   23  C10 UNL     1      33.970 -31.121  -1.598  1.00  0.00     0.048 C 
HETATM   24  C11 UNL     1      35.580 -29.602  -2.725  1.00  0.00     0.015 A 
ENDBRANCH  17  18
ENDBRANCH  15  17
ENDBRANCH   3  15
BRANCH   6  25
HETATM   25  N3  UNL     1      41.450 -25.323  -3.407  1.00  0.00    -0.233 N 
ATOM     26  H32 UNL     1      41.840 -26.253  -3.562  1.00  0.00     0.174 HD
ATOM     27  H31 UNL     1      42.061 -24.576  -3.077  1.00  0.00     0.174 HD
ENDBRANCH   6  25
TORSDOF 5
ENDMDL
