MODEL 1
REMARK VINA RESULT: -6.906341235      0.000      0.000
REMARK  6 active torsions:
REMARK  status: ('A' for Active; 'I' for Inactive)
REMARK    1  A    between atoms: C2_2  and  N1_3 
REMARK    2  A    between atoms: N1_3  and  C3_5 
REMARK    3  A    between atoms: C4_8  and  N3_9 
REMARK    4  A    between atoms: N3_9  and  N4_11 
REMARK    5  A    between atoms: C5_16  and  N6_17 
REMARK    6  A    between atoms: N6_17  and  C6_19 
ROOT
HETATM    1  C3  UNL     1      39.828 -23.098  -4.185  1.00  0.00     0.707 A 
HETATM    2  N2  UNL     1      41.160 -23.296  -4.230  1.00  0.00    -0.020 N 
ATOM      3  H2  UNL     1      41.779 -22.561  -4.573  1.00  0.00     0.203 HD
HETATM    4  C4  UNL     1      41.663 -24.465  -3.820  1.00  0.00     0.725 A 
HETATM    5  N5  UNL     1      40.856 -25.437  -3.367  1.00  0.00    -0.020 N 
ATOM      6  H5  UNL     1      41.265 -26.319  -3.061  1.00  0.00     0.203 HD
HETATM    7  C5  UNL     1      39.522 -25.277  -3.307  1.00  0.00     0.711 A 
HETATM    8  N7  UNL     1      39.037 -24.094  -3.724  1.00  0.00    -0.021 N 
ATOM      9  H7  UNL     1      38.029 -23.941  -3.691  1.00  0.00     0.203 HD
ENDROOT
BRANCH   7  10
HETATM   10  N6  UNL     1      38.795 -26.241  -2.865  1.00  0.00    -0.190 N 
ATOM     11  H6  UNL     1      39.143 -26.790  -2.079  1.00  0.00     0.184 HD
BRANCH  10  12
HETATM   12  C6  UNL     1      37.531 -26.580  -3.419  1.00  0.00     0.055 A 
HETATM   13  C7  UNL     1      37.433 -27.237  -4.627  1.00  0.00     0.037 A 
HETATM   14  C8  UNL     1      36.197 -27.557  -5.151  1.00  0.00    -0.060 A 
HETATM   15  C9  UNL     1      36.022 -28.263  -6.446  1.00  0.00     0.048 C 
HETATM   16  C10 UNL     1      35.061 -27.211  -4.447  1.00  0.00     0.007 A 
HETATM   17  C11 UNL     1      35.177 -26.555  -3.240  1.00  0.00     0.009 A 
HETATM   18  C12 UNL     1      36.405 -26.227  -2.705  1.00  0.00    -0.035 A 
HETATM   19  C13 UNL     1      36.485 -25.517  -1.397  1.00  0.00     0.050 C 
ENDBRANCH  10  12
ENDBRANCH   7  10
BRANCH   4  20
HETATM   20  N3  UNL     1      42.925 -24.683  -3.851  1.00  0.00    -0.138 N 
ATOM     21  H3  UNL     1      43.380 -25.142  -3.062  1.00  0.00     0.205 HD
BRANCH  20  22
HETATM   22  N4  UNL     1      43.677 -24.299  -4.957  1.00  0.00    -0.331 N 
ATOM     23  H42 UNL     1      43.248 -23.696  -5.659  1.00  0.00     0.177 HD
ATOM     24  H41 UNL     1      44.641 -24.617  -5.059  1.00  0.00     0.177 HD
ENDBRANCH  20  22
ENDBRANCH   4  20
BRANCH   1  25
HETATM   25  N1  UNL     1      39.330 -21.976  -4.575  1.00  0.00    -0.225 N 
ATOM     26  H1  UNL     1      39.691 -21.527  -5.417  1.00  0.00     0.177 HD
BRANCH  25  27
HETATM   27  C2  UNL     1      38.271 -21.353  -3.832  1.00  0.00     0.133 C 
HETATM   28  C1  UNL     1      37.129 -20.969  -4.753  1.00  0.00     0.027 C 
ENDBRANCH  25  27
ENDBRANCH   1  25
TORSDOF 6
ENDMDL
MODEL 2
REMARK VINA RESULT: -6.791322032      1.111      1.119
REMARK  6 active torsions:
REMARK  status: ('A' for Active; 'I' for Inactive)
REMARK    1  A    between atoms: C2_2  and  N1_3 
REMARK    2  A    between atoms: N1_3  and  C3_5 
REMARK    3  A    between atoms: C4_8  and  N3_9 
REMARK    4  A    between atoms: N3_9  and  N4_11 
REMARK    5  A    between atoms: C5_16  and  N6_17 
REMARK    6  A    between atoms: N6_17  and  C6_19 
ROOT
HETATM    1  C3  UNL     1      39.863 -23.059  -4.129  1.00  0.00     0.707 A 
HETATM    2  N2  UNL     1      41.185 -23.303  -4.231  1.00  0.00    -0.020 N 
ATOM      3  H2  UNL     1      41.805 -22.611  -4.652  1.00  0.00     0.203 HD
HETATM    4  C4  UNL     1      41.675 -24.458  -3.772  1.00  0.00     0.725 A 
HETATM    5  N5  UNL     1      40.866 -25.373  -3.216  1.00  0.00    -0.020 N 
ATOM      6  H5  UNL     1      41.266 -26.247  -2.875  1.00  0.00     0.203 HD
HETATM    7  C5  UNL     1      39.543 -25.167  -3.097  1.00  0.00     0.711 A 
HETATM    8  N7  UNL     1      39.070 -23.999  -3.564  1.00  0.00    -0.021 N 
ATOM      9  H7  UNL     1      38.070 -23.812  -3.489  1.00  0.00     0.203 HD
ENDROOT
BRANCH   7  10
HETATM   10  N6  UNL     1      38.814 -26.078  -2.556  1.00  0.00    -0.190 N 
ATOM     11  H6  UNL     1      38.832 -26.175  -1.541  1.00  0.00     0.184 HD
BRANCH  10  12
HETATM   12  C6  UNL     1      37.982 -26.955  -3.305  1.00  0.00     0.055 A 
HETATM   13  C7  UNL     1      37.861 -26.831  -4.672  1.00  0.00     0.037 A 
HETATM   14  C8  UNL     1      37.050 -27.691  -5.383  1.00  0.00    -0.060 A 
HETATM   15  C9  UNL     1      36.874 -27.612  -6.856  1.00  0.00     0.048 C 
HETATM   16  C10 UNL     1      36.362 -28.678  -4.705  1.00  0.00     0.007 A 
HETATM   17  C11 UNL     1      36.495 -28.788  -3.337  1.00  0.00     0.009 A 
HETATM   18  C12 UNL     1      37.302 -27.936  -2.614  1.00  0.00    -0.035 A 
HETATM   19  C13 UNL     1      37.417 -28.090  -1.135  1.00  0.00     0.050 C 
ENDBRANCH  10  12
ENDBRANCH   7  10
BRANCH   4  20
HETATM   20  N3  UNL     1      42.927 -24.719  -3.854  1.00  0.00    -0.138 N 
ATOM     21  H3  UNL     1      43.396 -25.205  -3.090  1.00  0.00     0.205 HD
BRANCH  20  22
HETATM   22  N4  UNL     1      43.650 -24.343  -4.982  1.00  0.00    -0.331 N 
ATOM     23  H42 UNL     1      43.986 -23.382  -5.053  1.00  0.00     0.177 HD
ATOM     24  H41 UNL     1      43.839 -25.019  -5.722  1.00  0.00     0.177 HD
ENDBRANCH  20  22
ENDBRANCH   4  20
BRANCH   1  25
HETATM   25  N1  UNL     1      39.378 -21.949  -4.566  1.00  0.00    -0.225 N 
ATOM     26  H1  UNL     1      39.758 -21.528  -5.414  1.00  0.00     0.177 HD
BRANCH  25  27
HETATM   27  C2  UNL     1      38.305 -21.301  -3.866  1.00  0.00     0.133 C 
HETATM   28  C1  UNL     1      37.172 -20.969  -4.818  1.00  0.00     0.027 C 
ENDBRANCH  25  27
ENDBRANCH   1  25
TORSDOF 6
ENDMDL
MODEL 3
REMARK VINA RESULT: -6.561247922      1.563      2.752
REMARK  6 active torsions:
REMARK  status: ('A' for Active; 'I' for Inactive)
REMARK    1  A    between atoms: C2_2  and  N1_3 
REMARK    2  A    between atoms: N1_3  and  C3_5 
REMARK    3  A    between atoms: C4_8  and  N3_9 
REMARK    4  A    between atoms: N3_9  and  N4_11 
REMARK    5  A    between atoms: C5_16  and  N6_17 
REMARK    6  A    between atoms: N6_17  and  C6_19 
ROOT
HETATM    1  C3  UNL     1      39.102 -22.775  -3.734  1.00  0.00     0.707 A 
HETATM    2  N2  UNL     1      40.090 -23.538  -3.225  1.00  0.00    -0.020 N 
ATOM      3  H2  UNL     1      40.806 -23.123  -2.629  1.00  0.00     0.203 HD
HETATM    4  C4  UNL     1      40.120 -24.844  -3.508  1.00  0.00     0.725 A 
HETATM    5  N5  UNL     1      39.181 -25.398  -4.291  1.00  0.00    -0.020 N 
ATOM      6  H5  UNL     1      39.228 -26.397  -4.491  1.00  0.00     0.203 HD
HETATM    7  C5  UNL     1      38.181 -24.670  -4.817  1.00  0.00     0.711 A 
HETATM    8  N7  UNL     1      38.168 -23.359  -4.520  1.00  0.00    -0.021 N 
ATOM      9  H7  UNL     1      37.422 -22.779  -4.904  1.00  0.00     0.203 HD
ENDROOT
BRANCH   7  10
HETATM   10  N6  UNL     1      37.308 -25.252  -5.560  1.00  0.00    -0.190 N 
ATOM     11  H6  UNL     1      37.336 -25.083  -6.566  1.00  0.00     0.184 HD
BRANCH  10  12
HETATM   12  C6  UNL     1      36.305 -26.120  -5.049  1.00  0.00     0.055 A 
HETATM   13  C7  UNL     1      35.526 -25.755  -3.971  1.00  0.00     0.037 A 
HETATM   14  C8  UNL     1      34.557 -26.609  -3.487  1.00  0.00    -0.060 A 
HETATM   15  C9  UNL     1      33.686 -26.278  -2.331  1.00  0.00     0.048 C 
HETATM   16  C10 UNL     1      34.379 -27.835  -4.098  1.00  0.00     0.007 A 
HETATM   17  C11 UNL     1      35.166 -28.184  -5.175  1.00  0.00     0.009 A 
HETATM   18  C12 UNL     1      36.138 -27.340  -5.669  1.00  0.00    -0.035 A 
HETATM   19  C13 UNL     1      36.967 -27.757  -6.836  1.00  0.00     0.050 C 
ENDBRANCH  10  12
ENDBRANCH   7  10
BRANCH   4  20
HETATM   20  N3  UNL     1      41.046 -25.596  -3.039  1.00  0.00    -0.138 N 
ATOM     21  H3  UNL     1      40.877 -26.594  -2.918  1.00  0.00     0.205 HD
BRANCH  20  22
HETATM   22  N4  UNL     1      42.282 -25.056  -2.695  1.00  0.00    -0.331 N 
ATOM     23  H42 UNL     1      42.399 -24.648  -1.767  1.00  0.00     0.177 HD
ATOM     24  H41 UNL     1      43.053 -25.070  -3.362  1.00  0.00     0.177 HD
ENDBRANCH  20  22
ENDBRANCH   4  20
BRANCH   1  25
HETATM   25  N1  UNL     1      39.060 -21.516  -3.469  1.00  0.00    -0.225 N 
ATOM     26  H1  UNL     1      39.796 -20.900  -3.814  1.00  0.00     0.177 HD
BRANCH  25  27
HETATM   27  C2  UNL     1      37.983 -20.974  -2.690  1.00  0.00     0.133 C 
HETATM   28  C1  UNL     1      38.342 -20.969  -1.216  1.00  0.00     0.027 C 
ENDBRANCH  25  27
ENDBRANCH   1  25
TORSDOF 6
ENDMDL
MODEL 4
REMARK VINA RESULT: -6.551241983      0.786      2.168
REMARK  6 active torsions:
REMARK  status: ('A' for Active; 'I' for Inactive)
REMARK    1  A    between atoms: C2_2  and  N1_3 
REMARK    2  A    between atoms: N1_3  and  C3_5 
REMARK    3  A    between atoms: C4_8  and  N3_9 
REMARK    4  A    between atoms: N3_9  and  N4_11 
REMARK    5  A    between atoms: C5_16  and  N6_17 
REMARK    6  A    between atoms: N6_17  and  C6_19 
ROOT
HETATM    1  C3  UNL     1      39.746 -23.155  -4.242  1.00  0.00     0.707 A 
HETATM    2  N2  UNL     1      41.037 -23.321  -3.893  1.00  0.00    -0.020 N 
ATOM      3  H2  UNL     1      41.681 -22.529  -3.910  1.00  0.00     0.203 HD
HETATM    4  C4  UNL     1      41.465 -24.532  -3.524  1.00  0.00     0.725 A 
HETATM    5  N5  UNL     1      40.625 -25.578  -3.499  1.00  0.00    -0.020 N 
ATOM      6  H5  UNL     1      40.977 -26.491  -3.215  1.00  0.00     0.203 HD
HETATM    7  C5  UNL     1      39.330 -25.452  -3.840  1.00  0.00     0.711 A 
HETATM    8  N7  UNL     1      38.920 -24.226  -4.208  1.00  0.00    -0.021 N 
ATOM      9  H7  UNL     1      37.943 -24.096  -4.472  1.00  0.00     0.203 HD
ENDROOT
BRANCH   7  10
HETATM   10  N6  UNL     1      38.568 -26.487  -3.799  1.00  0.00    -0.190 N 
ATOM     11  H6  UNL     1      38.993 -27.407  -3.914  1.00  0.00     0.184 HD
BRANCH  10  12
HETATM   12  C6  UNL     1      37.163 -26.410  -3.600  1.00  0.00     0.055 A 
HETATM   13  C7  UNL     1      36.632 -26.109  -2.364  1.00  0.00     0.037 A 
HETATM   14  C8  UNL     1      35.265 -26.039  -2.188  1.00  0.00    -0.060 A 
HETATM   15  C9  UNL     1      34.629 -25.720  -0.885  1.00  0.00     0.048 C 
HETATM   16  C10 UNL     1      34.438 -26.275  -3.268  1.00  0.00     0.007 A 
HETATM   17  C11 UNL     1      34.986 -26.575  -4.497  1.00  0.00     0.009 A 
HETATM   18  C12 UNL     1      36.349 -26.649  -4.687  1.00  0.00    -0.035 A 
HETATM   19  C13 UNL     1      36.900 -26.977  -6.034  1.00  0.00     0.050 C 
ENDBRANCH  10  12
ENDBRANCH   7  10
BRANCH   4  20
HETATM   20  N3  UNL     1      42.687 -24.722  -3.187  1.00  0.00    -0.138 N 
ATOM     21  H3  UNL     1      42.918 -24.940  -2.218  1.00  0.00     0.205 HD
BRANCH  20  22
HETATM   22  N4  UNL     1      43.699 -24.633  -4.138  1.00  0.00    -0.331 N 
ATOM     23  H42 UNL     1      43.865 -23.738  -4.598  1.00  0.00     0.177 HD
ATOM     24  H41 UNL     1      44.263 -25.451  -4.367  1.00  0.00     0.177 HD
ENDBRANCH  20  22
ENDBRANCH   4  20
BRANCH   1  25
HETATM   25  N1  UNL     1      39.320 -21.993  -4.598  1.00  0.00    -0.225 N 
ATOM     26  H1  UNL     1      39.723 -21.533  -5.414  1.00  0.00     0.177 HD
BRANCH  25  27
HETATM   27  C2  UNL     1      38.281 -21.340  -3.852  1.00  0.00     0.133 C 
HETATM   28  C1  UNL     1      37.123 -20.974  -4.761  1.00  0.00     0.027 C 
ENDBRANCH  25  27
ENDBRANCH   1  25
TORSDOF 6
ENDMDL
MODEL 5
REMARK VINA RESULT: -6.525478462      1.651      2.771
REMARK  6 active torsions:
REMARK  status: ('A' for Active; 'I' for Inactive)
REMARK    1  A    between atoms: C2_2  and  N1_3 
REMARK    2  A    between atoms: N1_3  and  C3_5 
REMARK    3  A    between atoms: C4_8  and  N3_9 
REMARK    4  A    between atoms: N3_9  and  N4_11 
REMARK    5  A    between atoms: C5_16  and  N6_17 
REMARK    6  A    between atoms: N6_17  and  C6_19 
ROOT
HETATM    1  C3  UNL     1      38.849 -22.236  -4.005  1.00  0.00     0.707 A 
HETATM    2  N2  UNL     1      40.165 -22.496  -3.882  1.00  0.00    -0.020 N 
ATOM      3  H2  UNL     1      40.800 -21.783  -3.520  1.00  0.00     0.203 HD
HETATM    4  C4  UNL     1      40.632 -23.696  -4.237  1.00  0.00     0.725 A 
HETATM    5  N5  UNL     1      39.805 -24.640  -4.714  1.00  0.00    -0.020 N 
ATOM      6  H5  UNL     1      40.187 -25.547  -4.978  1.00  0.00     0.203 HD
HETATM    7  C5  UNL     1      38.485 -24.418  -4.852  1.00  0.00     0.711 A 
HETATM    8  N7  UNL     1      38.037 -23.204  -4.488  1.00  0.00    -0.021 N 
ATOM      9  H7  UNL     1      37.040 -23.004  -4.580  1.00  0.00     0.203 HD
ENDROOT
BRANCH   7  10
HETATM   10  N6  UNL     1      37.738 -25.357  -5.313  1.00  0.00    -0.190 N 
ATOM     11  H6  UNL     1      37.291 -25.220  -6.220  1.00  0.00     0.184 HD
BRANCH  10  12
HETATM   12  C6  UNL     1      37.505 -26.577  -4.622  1.00  0.00     0.055 A 
HETATM   13  C7  UNL     1      37.678 -26.668  -3.257  1.00  0.00     0.037 A 
HETATM   14  C8  UNL     1      37.447 -27.860  -2.601  1.00  0.00    -0.060 A 
HETATM   15  C9  UNL     1      37.615 -28.026  -1.135  1.00  0.00     0.048 C 
HETATM   16  C10 UNL     1      37.041 -28.959  -3.332  1.00  0.00     0.007 A 
HETATM   17  C11 UNL     1      36.872 -28.850  -4.696  1.00  0.00     0.009 A 
HETATM   18  C12 UNL     1      37.099 -27.665  -5.364  1.00  0.00    -0.035 A 
HETATM   19  C13 UNL     1      36.905 -27.591  -6.841  1.00  0.00     0.050 C 
ENDBRANCH  10  12
ENDBRANCH   7  10
BRANCH   4  20
HETATM   20  N3  UNL     1      41.878 -23.974  -4.132  1.00  0.00    -0.138 N 
ATOM     21  H3  UNL     1      42.535 -23.632  -4.834  1.00  0.00     0.205 HD
BRANCH  20  22
HETATM   22  N4  UNL     1      42.341 -24.738  -3.065  1.00  0.00    -0.331 N 
ATOM     23  H42 UNL     1      43.113 -24.381  -2.502  1.00  0.00     0.177 HD
ATOM     24  H41 UNL     1      41.912 -25.638  -2.853  1.00  0.00     0.177 HD
ENDBRANCH  20  22
ENDBRANCH   4  20
BRANCH   1  25
HETATM   25  N1  UNL     1      38.386 -21.083  -3.665  1.00  0.00    -0.225 N 
ATOM     26  H1  UNL     1      38.699 -20.246  -4.156  1.00  0.00     0.177 HD
BRANCH  25  27
HETATM   27  C2  UNL     1      37.430 -20.970  -2.599  1.00  0.00     0.133 C 
HETATM   28  C1  UNL     1      38.129 -20.994  -1.254  1.00  0.00     0.027 C 
ENDBRANCH  25  27
ENDBRANCH   1  25
TORSDOF 6
ENDMDL
