MODEL 1
REMARK VINA RESULT: -6.312866684      0.000      0.000
REMARK  3 active torsions:
REMARK  status: ('A' for Active; 'I' for Inactive)
REMARK    1  A    between atoms: N1_1  and  C1_4 
REMARK    2  A    between atoms: N5_16  and  C6_17 
REMARK    3  A    between atoms: C6_17  and  C7_18 
ROOT
HETATM    1  C1  UNL     1      22.069 -14.092 -17.777  1.00  0.00     0.131 A 
HETATM    2  N2  UNL     1      22.147 -15.413 -17.638  1.00  0.00    -0.337 N 
ATOM      3  H2  UNL     1      21.281 -15.952 -17.635  1.00  0.00     0.168 HD
HETATM    4  C2  UNL     1      23.308 -16.072 -17.500  1.00  0.00     0.183 A 
HETATM    5  N3  UNL     1      24.443 -15.350 -17.504  1.00  0.00    -0.336 N 
ATOM      6  H3  UNL     1      25.334 -15.836 -17.399  1.00  0.00     0.168 HD
HETATM    7  C3  UNL     1      24.450 -14.008 -17.641  1.00  0.00     0.145 A 
HETATM    8  C4  UNL     1      23.240 -13.361 -17.780  1.00  0.00     0.123 A 
HETATM    9  N4  UNL     1      23.527 -12.048 -17.897  1.00  0.00    -0.327 N 
ATOM     10  H4  UNL     1      22.838 -11.306 -18.014  1.00  0.00     0.168 HD
HETATM   11  C5  UNL     1      24.855 -11.862 -17.835  1.00  0.00     0.184 A 
HETATM   12  S1  UNL     1      25.687 -10.487 -17.925  1.00  0.00    -0.040 SA
HETATM   13  N5  UNL     1      25.432 -13.067 -17.677  1.00  0.00    -0.284 N 
ENDROOT
BRANCH  13  14
HETATM   14  C6  UNL     1      26.796 -13.393 -17.561  1.00  0.00     0.106 C 
BRANCH  14  15
HETATM   15  C7  UNL     1      27.446 -13.154 -16.240  1.00  0.00     0.160 C 
HETATM   16  C8  UNL     1      28.935 -13.002 -16.490  1.00  0.00     0.037 C 
HETATM   17  C9  UNL     1      29.749 -13.901 -15.596  1.00  0.00     0.005 C 
HETATM   18  C10 UNL     1      29.187 -13.849 -14.190  1.00  0.00     0.026 C 
HETATM   19  C11 UNL     1      27.733 -14.166 -14.181  1.00  0.00     0.168 C 
HETATM   20  O1  UNL     1      27.267 -14.277 -15.468  1.00  0.00    -0.381 OA
ENDBRANCH  14  15
ENDBRANCH  13  14
BRANCH   1  21
HETATM   21  N1  UNL     1      20.957 -13.447 -17.909  1.00  0.00    -0.383 N 
ATOM     22  H12 UNL     1      20.347 -13.380 -17.094  1.00  0.00     0.157 HD
ATOM     23  H11 UNL     1      20.657 -13.005 -18.778  1.00  0.00     0.157 HD
ENDBRANCH   1  21
TORSDOF 3
ENDMDL
MODEL 2
REMARK VINA RESULT: -6.248831843      1.751      2.616
REMARK  3 active torsions:
REMARK  status: ('A' for Active; 'I' for Inactive)
REMARK    1  A    between atoms: N1_1  and  C1_4 
REMARK    2  A    between atoms: N5_16  and  C6_17 
REMARK    3  A    between atoms: C6_17  and  C7_18 
ROOT
HETATM    1  C1  UNL     1      22.283 -12.825 -17.953  1.00  0.00     0.131 A 
HETATM    2  N2  UNL     1      22.211 -11.502 -17.836  1.00  0.00    -0.337 N 
ATOM      3  H2  UNL     1      21.293 -11.059 -17.891  1.00  0.00     0.168 HD
HETATM    4  C2  UNL     1      23.286 -10.719 -17.647  1.00  0.00     0.183 A 
HETATM    5  N3  UNL     1      24.490 -11.314 -17.576  1.00  0.00    -0.336 N 
ATOM      6  H3  UNL     1      25.316 -10.734 -17.434  1.00  0.00     0.168 HD
HETATM    7  C3  UNL     1      24.648 -12.649 -17.685  1.00  0.00     0.145 A 
HETATM    8  C4  UNL     1      23.524 -13.425 -17.879  1.00  0.00     0.123 A 
HETATM    9  N4  UNL     1      23.956 -14.701 -17.953  1.00  0.00    -0.327 N 
ATOM     10  H4  UNL     1      23.358 -15.515 -18.094  1.00  0.00     0.168 HD
HETATM   11  C5  UNL     1      25.290 -14.741 -17.815  1.00  0.00     0.184 A 
HETATM   12  S1  UNL     1      26.269 -16.020 -17.832  1.00  0.00    -0.040 SA
HETATM   13  N5  UNL     1      25.726 -13.479 -17.649  1.00  0.00    -0.284 N 
ENDROOT
BRANCH  13  14
HETATM   14  C6  UNL     1      27.038 -13.007 -17.465  1.00  0.00     0.106 C 
BRANCH  14  15
HETATM   15  C7  UNL     1      27.490 -12.775 -16.063  1.00  0.00     0.160 C 
HETATM   16  C8  UNL     1      28.340 -11.518 -16.064  1.00  0.00     0.037 C 
HETATM   17  C9  UNL     1      29.670 -11.738 -15.390  1.00  0.00     0.005 C 
HETATM   18  C10 UNL     1      29.460 -12.533 -14.118  1.00  0.00     0.026 C 
HETATM   19  C11 UNL     1      28.719 -13.795 -14.391  1.00  0.00     0.168 C 
HETATM   20  O1  UNL     1      28.301 -13.823 -15.699  1.00  0.00    -0.381 OA
ENDBRANCH  14  15
ENDBRANCH  13  14
BRANCH   1  21
HETATM   21  N1  UNL     1      21.256 -13.588 -18.136  1.00  0.00    -0.383 N 
ATOM     22  H12 UNL     1      20.944 -13.742 -19.095  1.00  0.00     0.157 HD
ATOM     23  H11 UNL     1      20.744 -14.041 -17.379  1.00  0.00     0.157 HD
ENDBRANCH   1  21
TORSDOF 3
ENDMDL
MODEL 3
REMARK VINA RESULT: -6.184761256      1.707      2.336
REMARK  3 active torsions:
REMARK  status: ('A' for Active; 'I' for Inactive)
REMARK    1  A    between atoms: N1_1  and  C1_4 
REMARK    2  A    between atoms: N5_16  and  C6_17 
REMARK    3  A    between atoms: C6_17  and  C7_18 
ROOT
HETATM    1  C1  UNL     1      23.637 -16.714 -18.135  1.00  0.00     0.131 A 
HETATM    2  N2  UNL     1      24.726 -17.323 -18.598  1.00  0.00    -0.337 N 
ATOM      3  H2  UNL     1      24.626 -18.257 -18.996  1.00  0.00     0.168 HD
HETATM    4  C2  UNL     1      25.949 -16.769 -18.569  1.00  0.00     0.183 A 
HETATM    5  N3  UNL     1      26.067 -15.537 -18.042  1.00  0.00    -0.336 N 
ATOM      6  H3  UNL     1      26.989 -15.103 -18.012  1.00  0.00     0.168 HD
HETATM    7  C3  UNL     1      25.013 -14.853 -17.552  1.00  0.00     0.145 A 
HETATM    8  C4  UNL     1      23.770 -15.450 -17.596  1.00  0.00     0.123 A 
HETATM    9  N4  UNL     1      22.909 -14.566 -17.052  1.00  0.00    -0.327 N 
ATOM     10  H4  UNL     1      21.906 -14.717 -16.941  1.00  0.00     0.168 HD
HETATM   11  C5  UNL     1      23.566 -13.458 -16.676  1.00  0.00     0.184 A 
HETATM   12  S1  UNL     1      22.985 -12.126 -15.981  1.00  0.00    -0.040 SA
HETATM   13  N5  UNL     1      24.865 -13.627 -16.981  1.00  0.00    -0.284 N 
ENDROOT
BRANCH  13  14
HETATM   14  C6  UNL     1      25.948 -12.750 -16.784  1.00  0.00     0.106 C 
BRANCH  14  15
HETATM   15  C7  UNL     1      26.699 -12.869 -15.501  1.00  0.00     0.160 C 
HETATM   16  C8  UNL     1      27.452 -11.568 -15.296  1.00  0.00     0.037 C 
HETATM   17  C9  UNL     1      28.913 -11.805 -15.007  1.00  0.00     0.005 C 
HETATM   18  C10 UNL     1      29.048 -12.946 -14.020  1.00  0.00     0.026 C 
HETATM   19  C11 UNL     1      28.337 -14.161 -14.503  1.00  0.00     0.168 C 
HETATM   20  O1  UNL     1      27.630 -13.870 -15.644  1.00  0.00    -0.381 OA
ENDBRANCH  14  15
ENDBRANCH  13  14
BRANCH   1  21
HETATM   21  N1  UNL     1      22.456 -17.237 -18.157  1.00  0.00    -0.383 N 
ATOM     22  H12 UNL     1      22.059 -17.474 -19.066  1.00  0.00     0.157 HD
ATOM     23  H11 UNL     1      21.902 -17.424 -17.321  1.00  0.00     0.157 HD
ENDBRANCH   1  21
TORSDOF 3
ENDMDL
MODEL 4
REMARK VINA RESULT: -6.153489194      2.236      2.840
REMARK  3 active torsions:
REMARK  status: ('A' for Active; 'I' for Inactive)
REMARK    1  A    between atoms: N1_1  and  C1_4 
REMARK    2  A    between atoms: N5_16  and  C6_17 
REMARK    3  A    between atoms: C6_17  and  C7_18 
ROOT
HETATM    1  C1  UNL     1      22.381 -13.571 -17.501  1.00  0.00     0.131 A 
HETATM    2  N2  UNL     1      22.791 -12.697 -16.586  1.00  0.00    -0.337 N 
ATOM      3  H2  UNL     1      22.136 -11.981 -16.272  1.00  0.00     0.168 HD
HETATM    4  C2  UNL     1      24.024 -12.710 -16.054  1.00  0.00     0.183 A 
HETATM    5  N3  UNL     1      24.879 -13.659 -16.476  1.00  0.00    -0.336 N 
ATOM      6  H3  UNL     1      25.819 -13.682 -16.082  1.00  0.00     0.168 HD
HETATM    7  C3  UNL     1      24.541 -14.581 -17.400  1.00  0.00     0.145 A 
HETATM    8  C4  UNL     1      23.267 -14.540 -17.927  1.00  0.00     0.123 A 
HETATM    9  N4  UNL     1      23.194 -15.556 -18.812  1.00  0.00    -0.327 N 
ATOM     10  H4  UNL     1      22.372 -15.788 -19.370  1.00  0.00     0.168 HD
HETATM   11  C5  UNL     1      24.362 -16.215 -18.852  1.00  0.00     0.184 A 
HETATM   12  S1  UNL     1      24.772 -17.491 -19.744  1.00  0.00    -0.040 SA
HETATM   13  N5  UNL     1      25.200 -15.620 -17.983  1.00  0.00    -0.284 N 
ENDROOT
BRANCH  13  14
HETATM   14  C6  UNL     1      26.532 -15.942 -17.667  1.00  0.00     0.106 C 
BRANCH  14  15
HETATM   15  C7  UNL     1      27.376 -14.862 -17.080  1.00  0.00     0.160 C 
HETATM   16  C8  UNL     1      28.718 -14.903 -17.787  1.00  0.00     0.037 C 
HETATM   17  C9  UNL     1      29.866 -14.946 -16.811  1.00  0.00     0.005 C 
HETATM   18  C10 UNL     1      29.607 -13.960 -15.690  1.00  0.00     0.026 C 
HETATM   19  C11 UNL     1      28.282 -14.205 -15.057  1.00  0.00     0.168 C 
HETATM   20  O1  UNL     1      27.595 -15.165 -15.757  1.00  0.00    -0.381 OA
ENDBRANCH  14  15
ENDBRANCH  13  14
BRANCH   1  21
HETATM   21  N1  UNL     1      21.198 -13.568 -18.020  1.00  0.00    -0.383 N 
ATOM     22  H12 UNL     1      21.126 -13.545 -19.038  1.00  0.00     0.157 HD
ATOM     23  H11 UNL     1      20.338 -13.586 -17.473  1.00  0.00     0.157 HD
ENDBRANCH   1  21
TORSDOF 3
ENDMDL
MODEL 5
REMARK VINA RESULT: -5.937352175      2.588      3.414
REMARK  3 active torsions:
REMARK  status: ('A' for Active; 'I' for Inactive)
REMARK    1  A    between atoms: N1_1  and  C1_4 
REMARK    2  A    between atoms: N5_16  and  C6_17 
REMARK    3  A    between atoms: C6_17  and  C7_18 
ROOT
HETATM    1  C1  UNL     1      22.332 -16.182 -17.393  1.00  0.00     0.131 A 
HETATM    2  N2  UNL     1      22.119 -15.031 -16.761  1.00  0.00    -0.337 N 
ATOM      3  H2  UNL     1      21.228 -14.898 -16.283  1.00  0.00     0.168 HD
HETATM    4  C2  UNL     1      23.020 -14.036 -16.719  1.00  0.00     0.183 A 
HETATM    5  N3  UNL     1      24.191 -14.223 -17.353  1.00  0.00    -0.336 N 
ATOM      6  H3  UNL     1      24.885 -13.477 -17.332  1.00  0.00     0.168 HD
HETATM    7  C3  UNL     1      24.484 -15.361 -18.016  1.00  0.00     0.145 A 
HETATM    8  C4  UNL     1      23.538 -16.364 -18.040  1.00  0.00     0.123 A 
HETATM    9  N4  UNL     1      24.076 -17.372 -18.758  1.00  0.00    -0.327 N 
ATOM     10  H4  UNL     1      23.617 -18.260 -18.956  1.00  0.00     0.168 HD
HETATM   11  C5  UNL     1      25.306 -17.032 -19.174  1.00  0.00     0.184 A 
HETATM   12  S1  UNL     1      26.346 -17.888 -20.056  1.00  0.00    -0.040 SA
HETATM   13  N5  UNL     1      25.566 -15.792 -18.720  1.00  0.00    -0.284 N 
ENDROOT
BRANCH  13  14
HETATM   14  C6  UNL     1      26.718 -15.004 -18.893  1.00  0.00     0.106 C 
BRANCH  14  15
HETATM   15  C7  UNL     1      27.622 -14.848 -17.717  1.00  0.00     0.160 C 
HETATM   16  C8  UNL     1      27.625 -13.379 -17.340  1.00  0.00     0.037 C 
HETATM   17  C9  UNL     1      29.024 -12.833 -17.216  1.00  0.00     0.005 C 
HETATM   18  C10 UNL     1      29.884 -13.829 -16.466  1.00  0.00     0.026 C 
HETATM   19  C11 UNL     1      29.828 -15.173 -17.104  1.00  0.00     0.168 C 
HETATM   20  O1  UNL     1      28.897 -15.177 -18.113  1.00  0.00    -0.381 OA
ENDBRANCH  14  15
ENDBRANCH  13  14
BRANCH   1  21
HETATM   21  N1  UNL     1      21.473 -17.146 -17.441  1.00  0.00    -0.383 N 
ATOM     22  H12 UNL     1      20.743 -17.097 -18.151  1.00  0.00     0.157 HD
ATOM     23  H11 UNL     1      21.485 -17.949 -16.811  1.00  0.00     0.157 HD
ENDBRANCH   1  21
TORSDOF 3
ENDMDL
