MODEL 1
REMARK VINA RESULT: -5.374409615      0.000      0.000
REMARK  6 active torsions:
REMARK  status: ('A' for Active; 'I' for Inactive)
REMARK    1  A    between atoms: C2_3  and  C3_4 
REMARK    2  A    between atoms: C8_9  and  N2_10 
REMARK    3  A    between atoms: C11_21  and  N6_22 
REMARK    4  A    between atoms: N6_22  and  C12_24 
REMARK    5  A    between atoms: C12_24  and  C13_25 
REMARK    6  A    between atoms: C13_25  and  N7_26 
ROOT
HETATM    1  C1  UNL     1      59.103  28.854  16.201  1.00  0.00     0.175 C 
HETATM    2  N1  UNL     1      59.376  28.473  14.870  1.00  0.00    -0.190 N 
HETATM    3  C2  UNL     1      59.667  29.433  13.897  1.00  0.00     0.054 A 
HETATM    4  C7  UNL     1      59.726  28.981  12.572  1.00  0.00     0.076 A 
HETATM    5  C8  UNL     1      59.922  29.772  11.488  1.00  0.00     0.115 A 
HETATM    6  N3  UNL     1      59.929  29.269  10.203  1.00  0.00    -0.338 N 
ATOM      7  H3  UNL     1      60.083  29.889   9.408  1.00  0.00     0.168 HD
HETATM    8  C9  UNL     1      59.733  27.974  10.012  1.00  0.00     0.183 A 
HETATM    9  N4  UNL     1      59.527  27.172  11.055  1.00  0.00    -0.337 N 
ATOM     10  H4  UNL     1      59.375  26.179  10.877  1.00  0.00     0.168 HD
HETATM   11  C10 UNL     1      59.507  27.599  12.331  1.00  0.00     0.138 A 
HETATM   12  N5  UNL     1      59.244  26.713  13.302  1.00  0.00    -0.175 N 
ATOM     13  H5  UNL     1      59.095  25.725  13.097  1.00  0.00     0.186 HD
HETATM   14  C11 UNL     1      59.186  27.180  14.534  1.00  0.00     0.681 A 
ENDROOT
BRANCH  14  15
HETATM   15  N6  UNL     1      58.939  26.355  15.515  1.00  0.00    -0.224 N 
ATOM     16  H6  UNL     1      59.169  26.650  16.464  1.00  0.00     0.177 HD
BRANCH  15  17
HETATM   17  C12 UNL     1      58.365  25.062  15.328  1.00  0.00     0.165 C 
BRANCH  17  18
HETATM   18  C13 UNL     1      59.186  23.944  15.942  1.00  0.00     0.249 C 
BRANCH  18  19
HETATM   19  N7  UNL     1      60.540  24.086  15.412  1.00  0.00    -0.078 N 
ATOM     20  H73 UNL     1      60.562  24.364  14.430  1.00  0.00     0.274 HD
ATOM     21  H72 UNL     1      61.037  24.894  15.785  1.00  0.00     0.274 HD
ATOM     22  H71 UNL     1      61.015  23.201  15.591  1.00  0.00     0.274 HD
ENDBRANCH  18  19
ENDBRANCH  17  18
ENDBRANCH  15  17
ENDBRANCH  14  15
BRANCH   3  23
HETATM   23  C3  UNL     1      60.049  30.737  14.275  1.00  0.00    -0.007 C 
HETATM   24  C4  UNL     1      61.554  30.768  14.107  1.00  0.00     0.021 C 
HETATM   25  C5  UNL     1      60.169  31.027  15.808  1.00  0.00     0.021 C 
HETATM   26  C6  UNL     1      59.576  32.036  13.745  1.00  0.00     0.021 C 
ENDBRANCH   3  23
BRANCH   5  27
HETATM   27  N2  UNL     1      59.997  31.025  11.567  1.00  0.00    -0.385 N 
ATOM     28  H22 UNL     1      60.853  31.378  11.995  1.00  0.00     0.157 HD
ATOM     29  H21 UNL     1      59.302  31.645  11.151  1.00  0.00     0.157 HD
ENDBRANCH   5  27
TORSDOF 6
ENDMDL
MODEL 2
REMARK VINA RESULT: -4.931817416      1.784      4.784
REMARK  6 active torsions:
REMARK  status: ('A' for Active; 'I' for Inactive)
REMARK    1  A    between atoms: C2_3  and  C3_4 
REMARK    2  A    between atoms: C8_9  and  N2_10 
REMARK    3  A    between atoms: C11_21  and  N6_22 
REMARK    4  A    between atoms: N6_22  and  C12_24 
REMARK    5  A    between atoms: C12_24  and  C13_25 
REMARK    6  A    between atoms: C13_25  and  N7_26 
ROOT
HETATM    1  C1  UNL     1      61.764  30.860  11.003  1.00  0.00     0.175 C 
HETATM    2  N1  UNL     1      60.902  30.125  11.846  1.00  0.00    -0.190 N 
HETATM    3  C2  UNL     1      60.670  30.535  13.161  1.00  0.00     0.054 A 
HETATM    4  C7  UNL     1      59.965  29.641  13.978  1.00  0.00     0.076 A 
HETATM    5  C8  UNL     1      59.706  29.829  15.296  1.00  0.00     0.115 A 
HETATM    6  N3  UNL     1      59.041  28.889  16.056  1.00  0.00    -0.338 N 
ATOM      7  H3  UNL     1      58.858  29.061  17.045  1.00  0.00     0.168 HD
HETATM    8  C9  UNL     1      58.642  27.762  15.490  1.00  0.00     0.183 A 
HETATM    9  N4  UNL     1      58.889  27.542  14.199  1.00  0.00    -0.337 N 
ATOM     10  H4  UNL     1      58.572  26.662  13.791  1.00  0.00     0.168 HD
HETATM   11  C10 UNL     1      59.533  28.416  13.404  1.00  0.00     0.138 A 
HETATM   12  N5  UNL     1      59.770  28.073  12.131  1.00  0.00    -0.175 N 
ATOM     13  H5  UNL     1      59.443  27.187  11.746  1.00  0.00     0.186 HD
HETATM   14  C11 UNL     1      60.446  28.937  11.398  1.00  0.00     0.681 A 
ENDROOT
BRANCH  14  15
HETATM   15  N6  UNL     1      60.696  28.652  10.150  1.00  0.00    -0.224 N 
ATOM     16  H6  UNL     1      61.592  28.941   9.758  1.00  0.00     0.177 HD
BRANCH  15  17
HETATM   17  C12 UNL     1      59.780  27.957   9.303  1.00  0.00     0.165 C 
BRANCH  17  18
HETATM   18  C13 UNL     1      60.385  27.538   7.977  1.00  0.00     0.249 C 
BRANCH  18  19
HETATM   19  N7  UNL     1      59.810  28.418   6.963  1.00  0.00    -0.078 N 
ATOM     20  H73 UNL     1      59.134  29.083   7.341  1.00  0.00     0.274 HD
ATOM     21  H72 UNL     1      60.472  29.103   6.599  1.00  0.00     0.274 HD
ATOM     22  H71 UNL     1      59.419  27.812   6.241  1.00  0.00     0.274 HD
ENDBRANCH  18  19
ENDBRANCH  17  18
ENDBRANCH  15  17
ENDBRANCH  14  15
BRANCH   3  23
HETATM   23  C3  UNL     1      60.982  31.851  13.563  1.00  0.00    -0.007 C 
HETATM   24  C4  UNL     1      61.606  32.495  12.342  1.00  0.00     0.021 C 
HETATM   25  C5  UNL     1      62.294  32.047  14.393  1.00  0.00     0.021 C 
HETATM   26  C6  UNL     1      60.091  32.886  14.132  1.00  0.00     0.021 C 
ENDBRANCH   3  23
BRANCH   5  27
HETATM   27  N2  UNL     1      60.151  30.812  15.941  1.00  0.00    -0.385 N 
ATOM     28  H22 UNL     1      60.951  31.281  15.514  1.00  0.00     0.157 HD
ATOM     29  H21 UNL     1      59.694  31.175  16.778  1.00  0.00     0.157 HD
ENDBRANCH   5  27
TORSDOF 6
ENDMDL
MODEL 3
REMARK VINA RESULT: -4.809545356      1.849      2.524
REMARK  6 active torsions:
REMARK  status: ('A' for Active; 'I' for Inactive)
REMARK    1  A    between atoms: C2_3  and  C3_4 
REMARK    2  A    between atoms: C8_9  and  N2_10 
REMARK    3  A    between atoms: C11_21  and  N6_22 
REMARK    4  A    between atoms: N6_22  and  C12_24 
REMARK    5  A    between atoms: C12_24  and  C13_25 
REMARK    6  A    between atoms: C13_25  and  N7_26 
ROOT
HETATM    1  C1  UNL     1      59.070  29.413  14.297  1.00  0.00     0.175 C 
HETATM    2  N1  UNL     1      59.952  29.293  13.202  1.00  0.00    -0.190 N 
HETATM    3  C2  UNL     1      60.788  30.352  12.840  1.00  0.00     0.054 A 
HETATM    4  C7  UNL     1      61.478  30.217  11.628  1.00  0.00     0.076 A 
HETATM    5  C8  UNL     1      62.277  31.165  11.077  1.00  0.00     0.115 A 
HETATM    6  N3  UNL     1      62.897  30.984   9.857  1.00  0.00    -0.338 N 
ATOM      7  H3  UNL     1      63.495  31.715   9.471  1.00  0.00     0.168 HD
HETATM    8  C9  UNL     1      62.709  29.855   9.194  1.00  0.00     0.183 A 
HETATM    9  N4  UNL     1      61.922  28.908   9.704  1.00  0.00    -0.337 N 
ATOM     10  H4  UNL     1      61.793  28.049   9.168  1.00  0.00     0.168 HD
HETATM   11  C10 UNL     1      61.288  29.022  10.886  1.00  0.00     0.138 A 
HETATM   12  N5  UNL     1      60.483  28.027  11.282  1.00  0.00    -0.175 N 
ATOM     13  H5  UNL     1      60.371  27.178  10.728  1.00  0.00     0.186 HD
HETATM   14  C11 UNL     1      59.843  28.198  12.423  1.00  0.00     0.681 A 
ENDROOT
BRANCH  14  15
HETATM   15  N6  UNL     1      59.052  27.254  12.855  1.00  0.00    -0.224 N 
ATOM     16  H6  UNL     1      58.055  27.454  12.927  1.00  0.00     0.177 HD
BRANCH  15  17
HETATM   17  C12 UNL     1      59.511  25.956  13.232  1.00  0.00     0.165 C 
BRANCH  17  18
HETATM   18  C13 UNL     1      59.259  25.629  14.692  1.00  0.00     0.249 C 
BRANCH  18  19
HETATM   19  N7  UNL     1      60.329  24.724  15.104  1.00  0.00    -0.078 N 
ATOM     20  H73 UNL     1      61.258  25.141  15.041  1.00  0.00     0.274 HD
ATOM     21  H72 UNL     1      60.340  24.542  16.108  1.00  0.00     0.274 HD
ATOM     22  H71 UNL     1      60.226  23.879  14.542  1.00  0.00     0.274 HD
ENDBRANCH  18  19
ENDBRANCH  17  18
ENDBRANCH  15  17
ENDBRANCH  14  15
BRANCH   3  23
HETATM   23  C3  UNL     1      61.040  31.404  13.747  1.00  0.00    -0.007 C 
HETATM   24  C4  UNL     1      60.210  31.071  14.970  1.00  0.00     0.021 C 
HETATM   25  C5  UNL     1      60.257  32.739  13.523  1.00  0.00     0.021 C 
HETATM   26  C6  UNL     1      62.335  31.883  14.280  1.00  0.00     0.021 C 
ENDBRANCH   3  23
BRANCH   5  27
HETATM   27  N2  UNL     1      62.416  32.310  11.577  1.00  0.00    -0.385 N 
ATOM     28  H22 UNL     1      61.610  32.651  12.101  1.00  0.00     0.157 HD
ATOM     29  H21 UNL     1      63.298  32.822  11.544  1.00  0.00     0.157 HD
ENDBRANCH   5  27
TORSDOF 6
ENDMDL
MODEL 4
REMARK VINA RESULT: -4.571143919      2.029      3.972
REMARK  6 active torsions:
REMARK  status: ('A' for Active; 'I' for Inactive)
REMARK    1  A    between atoms: C2_3  and  C3_4 
REMARK    2  A    between atoms: C8_9  and  N2_10 
REMARK    3  A    between atoms: C11_21  and  N6_22 
REMARK    4  A    between atoms: N6_22  and  C12_24 
REMARK    5  A    between atoms: C12_24  and  C13_25 
REMARK    6  A    between atoms: C13_25  and  N7_26 
ROOT
HETATM    1  C1  UNL     1      58.628  28.631  12.937  1.00  0.00     0.175 C 
HETATM    2  N1  UNL     1      59.220  29.362  13.990  1.00  0.00    -0.190 N 
HETATM    3  C2  UNL     1      60.020  30.476  13.724  1.00  0.00     0.054 A 
HETATM    4  C7  UNL     1      60.722  31.014  14.811  1.00  0.00     0.076 A 
HETATM    5  C8  UNL     1      61.601  32.045  14.737  1.00  0.00     0.115 A 
HETATM    6  N3  UNL     1      62.292  32.501  15.841  1.00  0.00    -0.338 N 
ATOM      7  H3  UNL     1      62.944  33.282  15.754  1.00  0.00     0.168 HD
HETATM    8  C9  UNL     1      62.102  31.918  17.013  1.00  0.00     0.183 A 
HETATM    9  N4  UNL     1      61.253  30.896  17.117  1.00  0.00    -0.337 N 
ATOM     10  H4  UNL     1      61.130  30.463  18.033  1.00  0.00     0.168 HD
HETATM   11  C10 UNL     1      60.551  30.402  16.081  1.00  0.00     0.138 A 
HETATM   12  N5  UNL     1      59.759  29.341  16.288  1.00  0.00    -0.175 N 
ATOM     13  H5  UNL     1      59.653  28.926  17.214  1.00  0.00     0.186 HD
HETATM   14  C11 UNL     1      59.125  28.858  15.237  1.00  0.00     0.681 A 
ENDROOT
BRANCH  14  15
HETATM   15  N6  UNL     1      58.337  27.829  15.389  1.00  0.00    -0.224 N 
ATOM     16  H6  UNL     1      57.350  27.936  15.155  1.00  0.00     0.177 HD
BRANCH  15  17
HETATM   17  C12 UNL     1      58.784  26.560  15.868  1.00  0.00     0.165 C 
BRANCH  17  18
HETATM   18  C13 UNL     1      59.068  25.564  14.759  1.00  0.00     0.249 C 
BRANCH  18  19
HETATM   19  N7  UNL     1      60.249  24.811  15.171  1.00  0.00    -0.078 N 
ATOM     20  H73 UNL     1      60.240  23.840  14.854  1.00  0.00     0.274 HD
ATOM     21  H72 UNL     1      61.099  25.095  14.685  1.00  0.00     0.274 HD
ATOM     22  H71 UNL     1      60.312  24.904  16.185  1.00  0.00     0.274 HD
ENDBRANCH  18  19
ENDBRANCH  17  18
ENDBRANCH  15  17
ENDBRANCH  14  15
BRANCH   3  23
HETATM   23  C3  UNL     1      59.966  31.108  12.464  1.00  0.00    -0.007 C 
HETATM   24  C4  UNL     1      59.029  30.252  11.637  1.00  0.00     0.021 C 
HETATM   25  C5  UNL     1      61.153  30.838  11.481  1.00  0.00     0.021 C 
HETATM   26  C6  UNL     1      59.599  32.505  12.139  1.00  0.00     0.021 C 
ENDBRANCH   3  23
BRANCH   5  27
HETATM   27  N2  UNL     1      61.931  32.578  13.648  1.00  0.00    -0.385 N 
ATOM     28  H22 UNL     1      62.899  32.418  13.367  1.00  0.00     0.157 HD
ATOM     29  H21 UNL     1      61.262  33.054  13.042  1.00  0.00     0.157 HD
ENDBRANCH   5  27
TORSDOF 6
ENDMDL
MODEL 5
REMARK VINA RESULT: -4.563177424      2.076      3.808
REMARK  6 active torsions:
REMARK  status: ('A' for Active; 'I' for Inactive)
REMARK    1  A    between atoms: C2_3  and  C3_4 
REMARK    2  A    between atoms: C8_9  and  N2_10 
REMARK    3  A    between atoms: C11_21  and  N6_22 
REMARK    4  A    between atoms: N6_22  and  C12_24 
REMARK    5  A    between atoms: C12_24  and  C13_25 
REMARK    6  A    between atoms: C13_25  and  N7_26 
ROOT
HETATM    1  C1  UNL     1      59.687  29.686  15.705  1.00  0.00     0.175 C 
HETATM    2  N1  UNL     1      59.803  30.484  14.546  1.00  0.00    -0.190 N 
HETATM    3  C2  UNL     1      60.270  31.798  14.628  1.00  0.00     0.054 A 
HETATM    4  C7  UNL     1      60.162  32.573  13.466  1.00  0.00     0.076 A 
HETATM    5  C8  UNL     1      60.494  33.885  13.370  1.00  0.00     0.115 A 
HETATM    6  N3  UNL     1      60.325  34.602  12.204  1.00  0.00    -0.338 N 
ATOM      7  H3  UNL     1      60.587  35.588  12.163  1.00  0.00     0.168 HD
HETATM    8  C9  UNL     1      59.819  34.001  11.140  1.00  0.00     0.183 A 
HETATM    9  N4  UNL     1      59.474  32.716  11.203  1.00  0.00    -0.337 N 
ATOM     10  H4  UNL     1      59.083  32.280  10.367  1.00  0.00     0.168 HD
HETATM   11  C10 UNL     1      59.611  31.961  12.309  1.00  0.00     0.138 A 
HETATM   12  N5  UNL     1      59.188  30.690  12.276  1.00  0.00    -0.175 N 
ATOM     13  H5  UNL     1      58.801  30.277  11.428  1.00  0.00     0.186 HD
HETATM   14  C11 UNL     1      59.297  29.998  13.394  1.00  0.00     0.681 A 
ENDROOT
BRANCH  14  15
HETATM   15  N6  UNL     1      58.905  28.754  13.412  1.00  0.00    -0.224 N 
ATOM     16  H6  UNL     1      58.347  28.433  14.203  1.00  0.00     0.177 HD
BRANCH  15  17
HETATM   17  C12 UNL     1      59.217  27.817  12.380  1.00  0.00     0.165 C 
BRANCH  17  18
HETATM   18  C13 UNL     1      59.506  26.422  12.901  1.00  0.00     0.249 C 
BRANCH  18  19
HETATM   19  N7  UNL     1      59.179  26.435  14.324  1.00  0.00    -0.078 N 
ATOM     20  H73 UNL     1      59.669  25.717  14.859  1.00  0.00     0.274 HD
ATOM     21  H72 UNL     1      59.558  27.242  14.819  1.00  0.00     0.274 HD
ATOM     22  H71 UNL     1      58.163  26.363  14.388  1.00  0.00     0.274 HD
ENDBRANCH  18  19
ENDBRANCH  17  18
ENDBRANCH  15  17
ENDBRANCH  14  15
BRANCH   3  23
HETATM   23  C3  UNL     1      60.967  32.237  15.774  1.00  0.00    -0.007 C 
HETATM   24  C4  UNL     1      62.365  32.555  15.283  1.00  0.00     0.021 C 
HETATM   25  C5  UNL     1      61.509  31.133  16.742  1.00  0.00     0.021 C 
HETATM   26  C6  UNL     1      60.628  33.335  16.706  1.00  0.00     0.021 C 
ENDBRANCH   3  23
BRANCH   5  27
HETATM   27  N2  UNL     1      60.867  34.564  14.360  1.00  0.00    -0.385 N 
ATOM     28  H22 UNL     1      60.215  34.574  15.146  1.00  0.00     0.157 HD
ATOM     29  H21 UNL     1      61.790  34.996  14.416  1.00  0.00     0.157 HD
ENDBRANCH   5  27
TORSDOF 6
ENDMDL
