MODEL 1
REMARK VINA RESULT: -5.192351464      0.000      0.000
REMARK  3 active torsions:
REMARK  status: ('A' for Active; 'I' for Inactive)
REMARK    1  A    between atoms: C2_2  and  C3_3 
REMARK    2  A    between atoms: C3_3  and  N1_4 
REMARK    3  A    between atoms: C4_6  and  N2_7 
ROOT
HETATM    1  N2  UNL     1      59.008  28.848  14.811  1.00  0.00    -0.352 N 
HETATM    2  C5  UNL     1      59.157  29.105  13.380  1.00  0.00     0.144 C 
HETATM    3  C6  UNL     1      59.664  27.886  12.663  1.00  0.00     0.133 C 
HETATM    4  N3  UNL     1      60.631  28.147  11.659  1.00  0.00    -0.418 N 
ATOM      5  H3  UNL     1      61.383  27.492  11.447  1.00  0.00     0.153 HD
HETATM    6  C7  UNL     1      60.485  29.382  10.964  1.00  0.00     0.133 C 
HETATM    7  C8  UNL     1      61.657  30.257  11.281  1.00  0.00     0.139 C 
HETATM    8  N4  UNL     1      61.476  31.622  10.948  1.00  0.00    -0.385 N 
ATOM      9  H4  UNL     1      60.657  31.971  10.448  1.00  0.00     0.160 HD
HETATM   10  C9  UNL     1      62.530  32.450  11.370  1.00  0.00     0.171 C 
HETATM   11  N5  UNL     1      62.340  33.254  12.502  1.00  0.00    -0.386 N 
ATOM     12  H5  UNL     1      62.995  34.002  12.729  1.00  0.00     0.160 HD
HETATM   13  C10 UNL     1      61.216  33.001  13.321  1.00  0.00     0.122 C 
HETATM   14  C11 UNL     1      61.614  32.630  14.744  1.00  0.00     0.047 C 
HETATM   15  C12 UNL     1      60.521  31.890  15.465  1.00  0.00     0.236 C 
HETATM   16  N6  UNL     1      60.692  30.469  15.326  1.00  0.00    -0.059 N 
ATOM     17  H61 UNL     1      61.546  30.143  15.780  1.00  0.00     0.279 HD
ATOM     18  H62 UNL     1      60.919  30.206  14.367  1.00  0.00     0.279 HD
HETATM   19  C13 UNL     1      59.517  29.765  15.816  1.00  0.00     0.357 C 
ENDROOT
BRANCH   1  20
HETATM   20  C4  UNL     1      58.348  27.673  15.248  1.00  0.00     0.175 C 
HETATM   21  N1  UNL     1      59.028  26.751  15.844  1.00  0.00    -0.386 N 
ATOM     22  H1  UNL     1      60.029  26.871  15.998  1.00  0.00     0.160 HD
BRANCH  21  23
HETATM   23  C3  UNL     1      58.361  25.549  16.293  1.00  0.00     0.120 C 
BRANCH  23  24
HETATM   24  C2  UNL     1      58.660  24.376  15.373  1.00  0.00     0.015 C 
HETATM   25  C1  UNL     1      60.073  24.523  14.872  1.00  0.00     0.006 C 
ENDBRANCH  23  24
ENDBRANCH  21  23
ENDBRANCH   1  20
TORSDOF 3
ENDMDL
MODEL 2
REMARK VINA RESULT: -4.656271114      1.549      2.098
REMARK  3 active torsions:
REMARK  status: ('A' for Active; 'I' for Inactive)
REMARK    1  A    between atoms: C2_2  and  C3_3 
REMARK    2  A    between atoms: C3_3  and  N1_4 
REMARK    3  A    between atoms: C4_6  and  N2_7 
ROOT
HETATM    1  N2  UNL     1      59.543  29.914  14.497  1.00  0.00    -0.352 N 
HETATM    2  C5  UNL     1      59.567  30.786  13.324  1.00  0.00     0.144 C 
HETATM    3  C6  UNL     1      60.203  30.097  12.151  1.00  0.00     0.133 C 
HETATM    4  N3  UNL     1      61.058  30.918  11.373  1.00  0.00    -0.418 N 
ATOM      5  H3  UNL     1      61.885  30.548  10.903  1.00  0.00     0.153 HD
HETATM    6  C7  UNL     1      60.691  32.292  11.288  1.00  0.00     0.133 C 
HETATM    7  C8  UNL     1      61.738  33.116  11.968  1.00  0.00     0.139 C 
HETATM    8  N4  UNL     1      61.339  34.443  12.265  1.00  0.00    -0.385 N 
ATOM      9  H4  UNL     1      60.449  34.839  11.961  1.00  0.00     0.160 HD
HETATM   10  C9  UNL     1      62.284  35.160  13.018  1.00  0.00     0.171 C 
HETATM   11  N5  UNL     1      62.046  35.352  14.386  1.00  0.00    -0.386 N 
ATOM     12  H5  UNL     1      62.596  36.020  14.925  1.00  0.00     0.160 HD
HETATM   13  C10 UNL     1      61.023  34.594  15.000  1.00  0.00     0.122 C 
HETATM   14  C11 UNL     1      61.556  33.710  16.121  1.00  0.00     0.047 C 
HETATM   15  C12 UNL     1      60.629  32.567  16.432  1.00  0.00     0.236 C 
HETATM   16  N6  UNL     1      60.999  31.395  15.687  1.00  0.00    -0.059 N 
ATOM     17  H61 UNL     1      61.917  31.045  15.961  1.00  0.00     0.279 HD
ATOM     18  H62 UNL     1      61.204  31.614  14.712  1.00  0.00     0.279 HD
HETATM   19  C13 UNL     1      59.971  30.371  15.807  1.00  0.00     0.357 C 
ENDROOT
BRANCH   1  20
HETATM   20  C4  UNL     1      59.091  28.578  14.367  1.00  0.00     0.175 C 
HETATM   21  N1  UNL     1      59.066  27.816  15.410  1.00  0.00    -0.386 N 
ATOM     22  H1  UNL     1      59.370  28.175  16.315  1.00  0.00     0.160 HD
BRANCH  21  23
HETATM   23  C3  UNL     1      58.605  26.450  15.285  1.00  0.00     0.120 C 
BRANCH  23  24
HETATM   24  C2  UNL     1      59.347  25.716  14.180  1.00  0.00     0.015 C 
HETATM   25  C1  UNL     1      60.171  24.625  14.814  1.00  0.00     0.006 C 
ENDBRANCH  23  24
ENDBRANCH  21  23
ENDBRANCH   1  20
TORSDOF 3
ENDMDL
MODEL 3
REMARK VINA RESULT: -4.527525128      3.337      5.650
REMARK  3 active torsions:
REMARK  status: ('A' for Active; 'I' for Inactive)
REMARK    1  A    between atoms: C2_2  and  C3_3 
REMARK    2  A    between atoms: C3_3  and  N1_4 
REMARK    3  A    between atoms: C4_6  and  N2_7 
ROOT
HETATM    1  N2  UNL     1      60.481  28.750  11.076  1.00  0.00    -0.352 N 
HETATM    2  C5  UNL     1      61.818  29.184  10.676  1.00  0.00     0.144 C 
HETATM    3  C6  UNL     1      62.044  30.627  11.026  1.00  0.00     0.133 C 
HETATM    4  N3  UNL     1      62.740  31.375  10.042  1.00  0.00    -0.418 N 
ATOM      5  H3  UNL     1      62.555  32.365   9.883  1.00  0.00     0.153 HD
HETATM    6  C7  UNL     1      63.713  30.656   9.291  1.00  0.00     0.133 C 
HETATM    7  C8  UNL     1      63.268  30.587   7.864  1.00  0.00     0.139 C 
HETATM    8  N4  UNL     1      63.948  29.620   7.084  1.00  0.00    -0.385 N 
ATOM      9  H4  UNL     1      64.739  29.077   7.433  1.00  0.00     0.160 HD
HETATM   10  C9  UNL     1      63.431  29.477   5.785  1.00  0.00     0.171 C 
HETATM   11  N5  UNL     1      62.629  28.363   5.501  1.00  0.00    -0.386 N 
ATOM     12  H5  UNL     1      62.395  28.119   4.539  1.00  0.00     0.160 HD
HETATM   13  C10 UNL     1      62.154  27.587   6.582  1.00  0.00     0.122 C 
HETATM   14  C11 UNL     1      60.632  27.556   6.643  1.00  0.00     0.047 C 
HETATM   15  C12 UNL     1      60.126  27.187   8.010  1.00  0.00     0.236 C 
HETATM   16  N6  UNL     1      59.871  28.365   8.794  1.00  0.00    -0.059 N 
ATOM     17  H61 UNL     1      59.118  28.929   8.399  1.00  0.00     0.279 HD
ATOM     18  H62 UNL     1      60.628  29.045   8.713  1.00  0.00     0.279 HD
HETATM   19  C13 UNL     1      59.611  28.008  10.180  1.00  0.00     0.357 C 
ENDROOT
BRANCH   1  20
HETATM   20  C4  UNL     1      60.005  29.052  12.376  1.00  0.00     0.175 C 
HETATM   21  N1  UNL     1      59.409  28.133  13.059  1.00  0.00    -0.386 N 
ATOM     22  H1  UNL     1      59.284  27.200  12.666  1.00  0.00     0.160 HD
BRANCH  21  23
HETATM   23  C3  UNL     1      58.920  28.435  14.387  1.00  0.00     0.120 C 
BRANCH  23  24
HETATM   24  C2  UNL     1      58.928  27.199  15.272  1.00  0.00     0.015 C 
HETATM   25  C1  UNL     1      59.317  26.017  14.422  1.00  0.00     0.006 C 
ENDBRANCH  23  24
ENDBRANCH  21  23
ENDBRANCH   1  20
TORSDOF 3
ENDMDL
MODEL 4
REMARK VINA RESULT: -4.395387586      2.435      4.292
REMARK  3 active torsions:
REMARK  status: ('A' for Active; 'I' for Inactive)
REMARK    1  A    between atoms: C2_2  and  C3_3 
REMARK    2  A    between atoms: C3_3  and  N1_4 
REMARK    3  A    between atoms: C4_6  and  N2_7 
ROOT
HETATM    1  N2  UNL     1      60.938  29.644  11.778  1.00  0.00    -0.352 N 
HETATM    2  C5  UNL     1      60.833  31.063  12.110  1.00  0.00     0.144 C 
HETATM    3  C6  UNL     1      59.409  31.533  12.030  1.00  0.00     0.133 C 
HETATM    4  N3  UNL     1      59.238  32.817  11.453  1.00  0.00    -0.418 N 
ATOM      5  H3  UNL     1      58.415  33.059  10.903  1.00  0.00     0.153 HD
HETATM    6  C7  UNL     1      60.290  33.748  11.690  1.00  0.00     0.133 C 
HETATM    7  C8  UNL     1      60.959  34.064  10.389  1.00  0.00     0.139 C 
HETATM    8  N4  UNL     1      62.223  34.691  10.518  1.00  0.00    -0.385 N 
ATOM      9  H4  UNL     1      62.610  34.990  11.413  1.00  0.00     0.160 HD
HETATM   10  C9  UNL     1      62.894  34.862   9.295  1.00  0.00     0.171 C 
HETATM   11  N5  UNL     1      63.953  33.997   8.984  1.00  0.00    -0.386 N 
ATOM     12  H5  UNL     1      64.584  34.201   8.209  1.00  0.00     0.160 HD
HETATM   13  C10 UNL     1      64.121  32.836   9.771  1.00  0.00     0.122 C 
HETATM   14  C11 UNL     1      64.004  31.560   8.945  1.00  0.00     0.047 C 
HETATM   15  C12 UNL     1      63.680  30.362   9.794  1.00  0.00     0.236 C 
HETATM   16  N6  UNL     1      62.259  30.145   9.846  1.00  0.00    -0.059 N 
ATOM     17  H61 UNL     1      61.878  29.906   8.931  1.00  0.00     0.279 HD
ATOM     18  H62 UNL     1      61.748  31.015  10.001  1.00  0.00     0.279 HD
HETATM   19  C13 UNL     1      61.934  29.141  10.848  1.00  0.00     0.357 C 
ENDROOT
BRANCH   1  20
HETATM   20  C4  UNL     1      60.047  28.717  12.373  1.00  0.00     0.175 C 
HETATM   21  N1  UNL     1      60.162  27.462  12.091  1.00  0.00    -0.386 N 
ATOM     22  H1  UNL     1      60.886  27.144  11.447  1.00  0.00     0.160 HD
BRANCH  21  23
HETATM   23  C3  UNL     1      59.257  26.509  12.696  1.00  0.00     0.120 C 
BRANCH  23  24
HETATM   24  C2  UNL     1      59.419  26.475  14.207  1.00  0.00     0.015 C 
HETATM   25  C1  UNL     1      59.618  25.041  14.625  1.00  0.00     0.006 C 
ENDBRANCH  23  24
ENDBRANCH  21  23
ENDBRANCH   1  20
TORSDOF 3
ENDMDL
MODEL 5
REMARK VINA RESULT: -4.298014804      3.854      6.410
REMARK  3 active torsions:
REMARK  status: ('A' for Active; 'I' for Inactive)
REMARK    1  A    between atoms: C2_2  and  C3_3 
REMARK    2  A    between atoms: C3_3  and  N1_4 
REMARK    3  A    between atoms: C4_6  and  N2_7 
ROOT
HETATM    1  N2  UNL     1      60.891  28.734  10.462  1.00  0.00    -0.352 N 
HETATM    2  C5  UNL     1      62.166  29.097   9.848  1.00  0.00     0.144 C 
HETATM    3  C6  UNL     1      62.506  30.535  10.118  1.00  0.00     0.133 C 
HETATM    4  N3  UNL     1      63.071  31.228   9.017  1.00  0.00    -0.418 N 
ATOM      5  H3  UNL     1      62.906  32.223   8.861  1.00  0.00     0.153 HD
HETATM    6  C7  UNL     1      63.883  30.449   8.145  1.00  0.00     0.133 C 
HETATM    7  C8  UNL     1      63.218  30.371   6.806  1.00  0.00     0.139 C 
HETATM    8  N4  UNL     1      63.726  29.356   5.958  1.00  0.00    -0.385 N 
ATOM      9  H4  UNL     1      64.538  28.785   6.195  1.00  0.00     0.160 HD
HETATM   10  C9  UNL     1      63.007  29.211   4.760  1.00  0.00     0.171 C 
HETATM   11  N5  UNL     1      62.123  28.129   4.634  1.00  0.00    -0.386 N 
ATOM     12  H5  UNL     1      61.731  27.877   3.728  1.00  0.00     0.160 HD
HETATM   13  C10 UNL     1      61.790  27.399   5.798  1.00  0.00     0.122 C 
HETATM   14  C11 UNL     1      60.296  27.441   6.094  1.00  0.00     0.047 C 
HETATM   15  C12 UNL     1      59.994  27.125   7.534  1.00  0.00     0.236 C 
HETATM   16  N6  UNL     1      59.916  28.330   8.314  1.00  0.00    -0.059 N 
ATOM     17  H61 UNL     1      59.135  28.920   8.025  1.00  0.00     0.279 HD
ATOM     18  H62 UNL     1      60.679  28.972   8.097  1.00  0.00     0.279 HD
HETATM   19  C13 UNL     1      59.861  28.015   9.733  1.00  0.00     0.357 C 
ENDROOT
BRANCH   1  20
HETATM   20  C4  UNL     1      60.637  29.086  11.811  1.00  0.00     0.175 C 
HETATM   21  N1  UNL     1      59.416  29.246  12.202  1.00  0.00    -0.386 N 
ATOM     22  H1  UNL     1      58.646  29.120  11.545  1.00  0.00     0.160 HD
BRANCH  21  23
HETATM   23  C3  UNL     1      59.149  29.606  13.577  1.00  0.00     0.120 C 
BRANCH  23  24
HETATM   24  C2  UNL     1      58.871  28.375  14.425  1.00  0.00     0.015 C 
HETATM   25  C1  UNL     1      59.166  28.720  15.862  1.00  0.00     0.006 C 
ENDBRANCH  23  24
ENDBRANCH  21  23
ENDBRANCH   1  20
TORSDOF 3
ENDMDL
