MODEL 1
REMARK VINA RESULT: -8.565944815      0.000      0.000
REMARK  8 active torsions:
REMARK  status: ('A' for Active; 'I' for Inactive)
REMARK    1  A    between atoms: C4_4  and  C5_5 
REMARK    2  A    between atoms: C5_5  and  C6_6 
REMARK    3  A    between atoms: C6_6  and  C7_7 
REMARK    4  A    between atoms: C7_7  and  C25_28 
REMARK    5  A    between atoms: C8_8  and  C9_9 
REMARK    6  A    between atoms: C22_23  and  O2_25 
REMARK    7  A    between atoms: C25_28  and  C26_29 
REMARK    8  A    between atoms: C26_29  and  S1_30 
ROOT
HETATM    1  C9  UNL     1      -1.711  26.815 -12.368  1.00  0.00     0.012 C 
HETATM    2  C10 UNL     1      -0.467  26.324 -13.085  1.00  0.00     0.010 C 
HETATM    3  C11 UNL     1      -0.418  24.817 -12.792  1.00  0.00     0.015 C 
HETATM    4  C12 UNL     1       0.186  24.700 -11.410  1.00  0.00    -0.016 C 
HETATM    5  C13 UNL     1       1.648  24.988 -11.512  1.00  0.00     0.020 C 
HETATM    6  C14 UNL     1      -0.531  25.624 -10.508  1.00  0.00    -0.074 C 
HETATM    7  C15 UNL     1      -0.339  25.419  -9.195  1.00  0.00    -0.022 C 
HETATM    8  C16 UNL     1       0.549  24.319  -8.725  1.00  0.00     0.040 C 
HETATM    9  C17 UNL     1       0.316  23.045  -9.511  1.00  0.00     0.002 C 
HETATM   10  C18 UNL     1       1.562  22.209  -9.457  1.00  0.00     0.019 C 
HETATM   11  C19 UNL     1      -0.037  23.284 -10.937  1.00  0.00     0.017 C 
HETATM   12  C20 UNL     1      -1.479  22.880 -11.075  1.00  0.00     0.088 C 
HETATM   13  C21 UNL     1      -1.643  21.874 -10.008  1.00  0.00     0.161 C 
HETATM   14  O1  UNL     1      -2.286  20.862 -10.067  1.00  0.00    -0.295 OA
HETATM   15  C22 UNL     1      -0.865  22.349  -8.856  1.00  0.00     0.122 C 
HETATM   16  C23 UNL     1      -0.483  21.304  -7.868  1.00  0.00     0.055 C 
HETATM   17  C24 UNL     1      -1.418  26.725 -10.888  1.00  0.00     0.043 C 
ENDROOT
BRANCH   1  18
HETATM   18  C8  UNL     1      -2.098  28.167 -12.783  1.00  0.00    -0.019 C 
HETATM   19  C7  UNL     1      -2.500  28.479 -13.986  1.00  0.00    -0.082 C 
BRANCH  19  20
HETATM   20  C6  UNL     1      -2.851  29.962 -14.182  1.00  0.00     0.037 C 
BRANCH  20  21
HETATM   21  C5  UNL     1      -4.011  30.234 -13.320  1.00  0.00     0.031 C 
BRANCH  21  22
HETATM   22  C4  UNL     1      -5.357  30.024 -13.836  1.00  0.00    -0.024 C 
HETATM   23  C2  UNL     1      -6.186  29.025 -13.770  1.00  0.00    -0.091 C 
HETATM   24  C1  UNL     1      -7.553  29.135 -14.437  1.00  0.00     0.042 C 
HETATM   25  C3  UNL     1      -5.907  27.754 -13.100  1.00  0.00     0.042 C 
ENDBRANCH  21  22
ENDBRANCH  20  21
ENDBRANCH  19  20
BRANCH  19  26
HETATM   26  C25 UNL     1      -2.648  27.615 -15.165  1.00  0.00     0.045 C 
BRANCH  26  27
HETATM   27  C26 UNL     1      -2.691  28.396 -16.472  1.00  0.00     0.091 C 
BRANCH  27  28
HETATM   28  S1  UNL     1      -1.726  27.480 -17.729  1.00  0.00    -0.085 SA
HETATM   29  S2  UNL     1       0.048  26.675 -16.916  1.00  0.00    -0.013 SA
ENDBRANCH  27  28
ENDBRANCH  26  27
ENDBRANCH  19  26
ENDBRANCH   1  18
BRANCH  15  30
HETATM   30  O2  UNL     1      -1.653  23.300  -8.187  1.00  0.00    -0.382 OA
ATOM     31  H2  UNL     1      -2.552  22.995  -8.152  1.00  0.00     0.211 HD
ENDBRANCH  15  30
TORSDOF 8
ENDMDL
MODEL 2
REMARK VINA RESULT: -8.554705298      4.495      7.017
REMARK  8 active torsions:
REMARK  status: ('A' for Active; 'I' for Inactive)
REMARK    1  A    between atoms: C4_4  and  C5_5 
REMARK    2  A    between atoms: C5_5  and  C6_6 
REMARK    3  A    between atoms: C6_6  and  C7_7 
REMARK    4  A    between atoms: C7_7  and  C25_28 
REMARK    5  A    between atoms: C8_8  and  C9_9 
REMARK    6  A    between atoms: C22_23  and  O2_25 
REMARK    7  A    between atoms: C25_28  and  C26_29 
REMARK    8  A    between atoms: C26_29  and  S1_30 
ROOT
HETATM    1  C9  UNL     1      -1.866  21.642  -9.715  1.00  0.00     0.012 C 
HETATM    2  C10 UNL     1      -1.700  21.159  -8.285  1.00  0.00     0.010 C 
HETATM    3  C11 UNL     1      -1.289  19.685  -8.419  1.00  0.00     0.015 C 
HETATM    4  C12 UNL     1      -2.580  18.931  -8.652  1.00  0.00    -0.016 C 
HETATM    5  C13 UNL     1      -3.326  18.872  -7.361  1.00  0.00     0.020 C 
HETATM    6  C14 UNL     1      -3.328  19.609  -9.730  1.00  0.00    -0.074 C 
HETATM    7  C15 UNL     1      -4.331  18.903 -10.274  1.00  0.00    -0.022 C 
HETATM    8  C16 UNL     1      -4.633  17.527  -9.790  1.00  0.00     0.040 C 
HETATM    9  C17 UNL     1      -3.367  16.722  -9.581  1.00  0.00     0.002 C 
HETATM   10  C18 UNL     1      -3.638  15.647  -8.568  1.00  0.00     0.019 C 
HETATM   11  C19 UNL     1      -2.215  17.540  -9.111  1.00  0.00     0.017 C 
HETATM   12  C20 UNL     1      -1.245  17.577 -10.259  1.00  0.00     0.088 C 
HETATM   13  C21 UNL     1      -1.541  16.325 -10.981  1.00  0.00     0.161 C 
HETATM   14  O1  UNL     1      -0.746  15.592 -11.505  1.00  0.00    -0.295 OA
HETATM   15  C22 UNL     1      -2.997  16.145 -10.937  1.00  0.00     0.122 C 
HETATM   16  C23 UNL     1      -3.477  14.754 -11.156  1.00  0.00     0.055 C 
HETATM   17  C24 UNL     1      -3.095  20.954 -10.262  1.00  0.00     0.043 C 
ENDROOT
BRANCH   1  18
HETATM   18  C8  UNL     1      -1.955  23.103  -9.802  1.00  0.00    -0.019 C 
HETATM   19  C7  UNL     1      -0.953  23.883 -10.107  1.00  0.00    -0.082 C 
BRANCH  19  20
HETATM   20  C6  UNL     1      -1.290  25.382 -10.137  1.00  0.00     0.037 C 
BRANCH  20  21
HETATM   21  C5  UNL     1      -1.583  25.717 -11.539  1.00  0.00     0.031 C 
BRANCH  21  22
HETATM   22  C4  UNL     1      -2.857  26.338 -11.879  1.00  0.00    -0.024 C 
HETATM   23  C2  UNL     1      -4.072  25.883 -11.959  1.00  0.00    -0.091 C 
HETATM   24  C1  UNL     1      -5.205  26.826 -12.351  1.00  0.00     0.042 C 
HETATM   25  C3  UNL     1      -4.459  24.494 -11.711  1.00  0.00     0.042 C 
ENDBRANCH  21  22
ENDBRANCH  20  21
ENDBRANCH  19  20
BRANCH  19  26
HETATM   26  C25 UNL     1       0.440  23.524 -10.409  1.00  0.00     0.045 C 
BRANCH  26  27
HETATM   27  C26 UNL     1       1.451  24.383  -9.659  1.00  0.00     0.091 C 
BRANCH  27  28
HETATM   28  S1  UNL     1       1.491  23.840  -7.913  1.00  0.00    -0.085 SA
HETATM   29  S2  UNL     1       3.171  22.625  -7.512  1.00  0.00    -0.013 SA
ENDBRANCH  27  28
ENDBRANCH  26  27
ENDBRANCH  19  26
ENDBRANCH   1  18
BRANCH  15  30
HETATM   30  O2  UNL     1      -3.546  16.950 -11.949  1.00  0.00    -0.382 OA
ATOM     31  H2  UNL     1      -3.968  16.397 -12.596  1.00  0.00     0.211 HD
ENDBRANCH  15  30
TORSDOF 8
ENDMDL
MODEL 3
REMARK VINA RESULT: -8.395695902      4.011      6.722
REMARK  8 active torsions:
REMARK  status: ('A' for Active; 'I' for Inactive)
REMARK    1  A    between atoms: C4_4  and  C5_5 
REMARK    2  A    between atoms: C5_5  and  C6_6 
REMARK    3  A    between atoms: C6_6  and  C7_7 
REMARK    4  A    between atoms: C7_7  and  C25_28 
REMARK    5  A    between atoms: C8_8  and  C9_9 
REMARK    6  A    between atoms: C22_23  and  O2_25 
REMARK    7  A    between atoms: C25_28  and  C26_29 
REMARK    8  A    between atoms: C26_29  and  S1_30 
ROOT
HETATM    1  C9  UNL     1      -1.909  21.577  -9.650  1.00  0.00     0.012 C 
HETATM    2  C10 UNL     1      -1.732  21.074  -8.229  1.00  0.00     0.010 C 
HETATM    3  C11 UNL     1      -1.333  19.598  -8.387  1.00  0.00     0.015 C 
HETATM    4  C12 UNL     1      -2.632  18.857  -8.616  1.00  0.00    -0.016 C 
HETATM    5  C13 UNL     1      -3.365  18.786  -7.317  1.00  0.00     0.020 C 
HETATM    6  C14 UNL     1      -3.387  19.555  -9.677  1.00  0.00    -0.074 C 
HETATM    7  C15 UNL     1      -4.401  18.863 -10.219  1.00  0.00    -0.022 C 
HETATM    8  C16 UNL     1      -4.708  17.483  -9.750  1.00  0.00     0.040 C 
HETATM    9  C17 UNL     1      -3.446  16.667  -9.566  1.00  0.00     0.002 C 
HETATM   10  C18 UNL     1      -3.714  15.581  -8.564  1.00  0.00     0.019 C 
HETATM   11  C19 UNL     1      -2.283  17.470  -9.097  1.00  0.00     0.017 C 
HETATM   12  C20 UNL     1      -1.325  17.516 -10.255  1.00  0.00     0.088 C 
HETATM   13  C21 UNL     1      -1.637  16.275 -10.990  1.00  0.00     0.161 C 
HETATM   14  O1  UNL     1      -0.854  15.544 -11.532  1.00  0.00    -0.295 OA
HETATM   15  C22 UNL     1      -3.095  16.105 -10.933  1.00  0.00     0.122 C 
HETATM   16  C23 UNL     1      -3.587  14.720 -11.166  1.00  0.00     0.055 C 
HETATM   17  C24 UNL     1      -3.149  20.905 -10.193  1.00  0.00     0.043 C 
ENDROOT
BRANCH   1  18
HETATM   18  C8  UNL     1      -1.988  23.040  -9.717  1.00  0.00    -0.019 C 
HETATM   19  C7  UNL     1      -1.089  23.799 -10.284  1.00  0.00    -0.082 C 
BRANCH  19  20
HETATM   20  C6  UNL     1      -1.391  25.304 -10.229  1.00  0.00     0.037 C 
BRANCH  20  21
HETATM   21  C5  UNL     1      -1.634  25.733 -11.615  1.00  0.00     0.031 C 
BRANCH  21  22
HETATM   22  C4  UNL     1      -2.912  26.336 -11.968  1.00  0.00    -0.024 C 
HETATM   23  C2  UNL     1      -4.125  25.873 -12.025  1.00  0.00    -0.091 C 
HETATM   24  C1  UNL     1      -5.265  26.797 -12.442  1.00  0.00     0.042 C 
HETATM   25  C3  UNL     1      -4.505  24.491 -11.727  1.00  0.00     0.042 C 
ENDBRANCH  21  22
ENDBRANCH  20  21
ENDBRANCH  19  20
BRANCH  19  26
HETATM   26  C25 UNL     1       0.163  23.411 -10.948  1.00  0.00     0.045 C 
BRANCH  26  27
HETATM   27  C26 UNL     1       1.375  23.498 -10.028  1.00  0.00     0.091 C 
BRANCH  27  28
HETATM   28  S1  UNL     1       2.654  24.518 -10.848  1.00  0.00    -0.085 SA
HETATM   29  S2  UNL     1       2.190  24.867 -12.878  1.00  0.00    -0.013 SA
ENDBRANCH  27  28
ENDBRANCH  26  27
ENDBRANCH  19  26
ENDBRANCH   1  18
BRANCH  15  30
HETATM   30  O2  UNL     1      -3.648  16.928 -11.928  1.00  0.00    -0.382 OA
ATOM     31  H2  UNL     1      -4.187  16.401 -12.507  1.00  0.00     0.211 HD
ENDBRANCH  15  30
TORSDOF 8
ENDMDL
MODEL 4
REMARK VINA RESULT: -8.377875617      3.397      4.593
REMARK  8 active torsions:
REMARK  status: ('A' for Active; 'I' for Inactive)
REMARK    1  A    between atoms: C4_4  and  C5_5 
REMARK    2  A    between atoms: C5_5  and  C6_6 
REMARK    3  A    between atoms: C6_6  and  C7_7 
REMARK    4  A    between atoms: C7_7  and  C25_28 
REMARK    5  A    between atoms: C8_8  and  C9_9 
REMARK    6  A    between atoms: C22_23  and  O2_25 
REMARK    7  A    between atoms: C25_28  and  C26_29 
REMARK    8  A    between atoms: C26_29  and  S1_30 
ROOT
HETATM    1  C9  UNL     1      -0.283  24.828 -10.790  1.00  0.00     0.012 C 
HETATM    2  C10 UNL     1       0.730  24.925 -11.916  1.00  0.00     0.010 C 
HETATM    3  C11 UNL     1       1.618  23.683 -11.747  1.00  0.00     0.015 C 
HETATM    4  C12 UNL     1       2.609  24.045 -10.662  1.00  0.00    -0.016 C 
HETATM    5  C13 UNL     1       3.606  24.996 -11.238  1.00  0.00     0.020 C 
HETATM    6  C14 UNL     1       1.862  24.604  -9.517  1.00  0.00    -0.074 C 
HETATM    7  C15 UNL     1       2.542  24.682  -8.362  1.00  0.00    -0.022 C 
HETATM    8  C16 UNL     1       3.957  24.223  -8.289  1.00  0.00     0.040 C 
HETATM    9  C17 UNL     1       4.153  22.912  -9.022  1.00  0.00     0.002 C 
HETATM   10  C18 UNL     1       5.590  22.805  -9.446  1.00  0.00     0.019 C 
HETATM   11  C19 UNL     1       3.290  22.771 -10.227  1.00  0.00     0.017 C 
HETATM   12  C20 UNL     1       2.289  21.701  -9.890  1.00  0.00     0.088 C 
HETATM   13  C21 UNL     1       3.006  20.883  -8.893  1.00  0.00     0.161 C 
HETATM   14  O1  UNL     1       2.976  19.687  -8.789  1.00  0.00    -0.295 OA
HETATM   15  C22 UNL     1       3.765  21.813  -8.048  1.00  0.00     0.122 C 
HETATM   16  C23 UNL     1       4.914  21.218  -7.313  1.00  0.00     0.055 C 
HETATM   17  C24 UNL     1       0.475  25.075  -9.506  1.00  0.00     0.043 C 
ENDROOT
BRANCH   1  18
HETATM   18  C8  UNL     1      -1.404  25.756 -10.968  1.00  0.00    -0.019 C 
HETATM   19  C7  UNL     1      -2.641  25.385 -11.165  1.00  0.00    -0.082 C 
BRANCH  19  20
HETATM   20  C6  UNL     1      -3.641  26.540 -11.323  1.00  0.00     0.037 C 
BRANCH  20  21
HETATM   21  C5  UNL     1      -4.608  26.119 -12.348  1.00  0.00     0.031 C 
BRANCH  21  22
HETATM   22  C4  UNL     1      -5.620  27.059 -12.813  1.00  0.00    -0.024 C 
HETATM   23  C2  UNL     1      -5.554  28.176 -13.475  1.00  0.00    -0.091 C 
HETATM   24  C1  UNL     1      -6.837  28.931 -13.808  1.00  0.00     0.042 C 
HETATM   25  C3  UNL     1      -4.313  28.803 -13.931  1.00  0.00     0.042 C 
ENDBRANCH  21  22
ENDBRANCH  20  21
ENDBRANCH  19  20
BRANCH  19  26
HETATM   26  C25 UNL     1      -3.194  24.028 -11.266  1.00  0.00     0.045 C 
BRANCH  26  27
HETATM   27  C26 UNL     1      -3.340  23.344  -9.912  1.00  0.00     0.091 C 
BRANCH  27  28
HETATM   28  S1  UNL     1      -2.245  21.878  -9.882  1.00  0.00    -0.085 SA
HETATM   29  S2  UNL     1      -1.105  21.792  -8.107  1.00  0.00    -0.013 SA
ENDBRANCH  27  28
ENDBRANCH  26  27
ENDBRANCH  19  26
ENDBRANCH   1  18
BRANCH  15  30
HETATM   30  O2  UNL     1       2.872  22.332  -7.095  1.00  0.00    -0.382 OA
ATOM     31  H2  UNL     1       3.210  22.163  -6.223  1.00  0.00     0.211 HD
ENDBRANCH  15  30
TORSDOF 8
ENDMDL
MODEL 5
REMARK VINA RESULT: -8.355952762      4.568      6.850
REMARK  8 active torsions:
REMARK  status: ('A' for Active; 'I' for Inactive)
REMARK    1  A    between atoms: C4_4  and  C5_5 
REMARK    2  A    between atoms: C5_5  and  C6_6 
REMARK    3  A    between atoms: C6_6  and  C7_7 
REMARK    4  A    between atoms: C7_7  and  C25_28 
REMARK    5  A    between atoms: C8_8  and  C9_9 
REMARK    6  A    between atoms: C22_23  and  O2_25 
REMARK    7  A    between atoms: C25_28  and  C26_29 
REMARK    8  A    between atoms: C26_29  and  S1_30 
ROOT
HETATM    1  C9  UNL     1      -2.919  21.468 -10.419  1.00  0.00     0.012 C 
HETATM    2  C10 UNL     1      -2.344  21.193  -9.042  1.00  0.00     0.010 C 
HETATM    3  C11 UNL     1      -1.718  19.795  -9.155  1.00  0.00     0.015 C 
HETATM    4  C12 UNL     1      -2.871  18.828  -8.999  1.00  0.00    -0.016 C 
HETATM    5  C13 UNL     1      -3.277  18.811  -7.562  1.00  0.00     0.020 C 
HETATM    6  C14 UNL     1      -3.957  19.247  -9.908  1.00  0.00    -0.074 C 
HETATM    7  C15 UNL     1      -4.916  18.334 -10.128  1.00  0.00    -0.022 C 
HETATM    8  C16 UNL     1      -4.847  16.996  -9.475  1.00  0.00     0.040 C 
HETATM    9  C17 UNL     1      -3.443  16.428  -9.524  1.00  0.00     0.002 C 
HETATM   10  C18 UNL     1      -3.276  15.455  -8.392  1.00  0.00     0.019 C 
HETATM   11  C19 UNL     1      -2.380  17.465  -9.421  1.00  0.00     0.017 C 
HETATM   12  C20 UNL     1      -1.724  17.512 -10.773  1.00  0.00     0.088 C 
HETATM   13  C21 UNL     1      -1.949  16.151 -11.297  1.00  0.00     0.161 C 
HETATM   14  O1  UNL     1      -1.179  15.492 -11.941  1.00  0.00    -0.295 OA
HETATM   15  C22 UNL     1      -3.300  15.755 -10.878  1.00  0.00     0.122 C 
HETATM   16  C23 UNL     1      -3.560  14.290 -10.860  1.00  0.00     0.055 C 
HETATM   17  C24 UNL     1      -4.098  20.537 -10.587  1.00  0.00     0.043 C 
ENDROOT
BRANCH   1  18
HETATM   18  C8  UNL     1      -3.286  22.877 -10.598  1.00  0.00    -0.019 C 
HETATM   19  C7  UNL     1      -2.456  23.809 -10.983  1.00  0.00    -0.082 C 
BRANCH  19  20
HETATM   20  C6  UNL     1      -3.073  25.211 -11.100  1.00  0.00     0.037 C 
BRANCH  20  21
HETATM   21  C5  UNL     1      -4.383  25.039 -11.745  1.00  0.00     0.031 C 
BRANCH  21  22
HETATM   22  C4  UNL     1      -5.118  26.211 -12.206  1.00  0.00    -0.024 C 
HETATM   23  C2  UNL     1      -4.806  27.200 -12.989  1.00  0.00    -0.091 C 
HETATM   24  C1  UNL     1      -5.836  28.289 -13.272  1.00  0.00     0.042 C 
HETATM   25  C3  UNL     1      -3.504  27.375 -13.634  1.00  0.00     0.042 C 
ENDBRANCH  21  22
ENDBRANCH  20  21
ENDBRANCH  19  20
BRANCH  19  26
HETATM   26  C25 UNL     1      -1.027  23.699 -11.303  1.00  0.00     0.045 C 
BRANCH  26  27
HETATM   27  C26 UNL     1      -0.129  24.283 -10.220  1.00  0.00     0.091 C 
BRANCH  27  28
HETATM   28  S1  UNL     1       0.995  22.968  -9.625  1.00  0.00    -0.085 SA
HETATM   29  S2  UNL     1       1.562  23.277  -7.615  1.00  0.00    -0.013 SA
ENDBRANCH  27  28
ENDBRANCH  26  27
ENDBRANCH  19  26
ENDBRANCH   1  18
BRANCH  15  30
HETATM   30  O2  UNL     1      -4.202  16.338 -11.784  1.00  0.00    -0.382 OA
ATOM     31  H2  UNL     1      -4.577  15.659 -12.334  1.00  0.00     0.211 HD
ENDBRANCH  15  30
TORSDOF 8
ENDMDL
