MODEL 1
REMARK VINA RESULT: -8.908149130      0.000      0.000
REMARK  9 active torsions:
REMARK  status: ('A' for Active; 'I' for Inactive)
REMARK    1  A    between atoms: C8_8  and  O1_11 
REMARK    2  A    between atoms: O1_11  and  C10_12 
REMARK    3  A    between atoms: C10_12  and  C11_13 
REMARK    4  A    between atoms: C11_13  and  C12_14 
REMARK    5  A    between atoms: C12_14  and  C13_15 
REMARK    6  A    between atoms: C13_15  and  C14_16 
REMARK    7  A    between atoms: C14_16  and  N2_17 
REMARK    8  A    between atoms: C15_18  and  O2_19 
REMARK    9  A    between atoms: C18_23  and  O3_24 
ROOT
HETATM    1  C1  UNL     1      -0.738  17.913  -9.212  1.00  0.00     0.011 C 
HETATM    2  C2  UNL     1      -0.972  19.432  -9.289  1.00  0.00    -0.010 C 
HETATM    3  C3  UNL     1      -2.462  19.606  -9.489  1.00  0.00    -0.010 C 
HETATM    4  C4  UNL     1      -2.966  18.996  -8.171  1.00  0.00     0.005 C 
HETATM    5  C5  UNL     1      -1.895  19.289  -7.160  1.00  0.00     0.005 C 
HETATM    6  C6  UNL     1      -0.765  19.985  -7.939  1.00  0.00    -0.007 C 
HETATM    7  C7  UNL     1      -0.822  21.433  -7.741  1.00  0.00     0.058 C 
HETATM    8  C8  UNL     1      -0.686  22.293  -8.958  1.00  0.00     0.149 C 
HETATM    9  C9  UNL     1       0.718  22.115  -9.430  1.00  0.00     0.098 C 
HETATM   10  N1  UNL     1       1.812  21.955  -9.802  1.00  0.00    -0.194 NA
HETATM   11  C26 UNL     1      -1.666  21.931 -10.045  1.00  0.00     0.054 C 
HETATM   12  C27 UNL     1      -2.786  21.059  -9.581  1.00  0.00     0.009 C 
ENDROOT
BRANCH   8  13
HETATM   13  O1  UNL     1      -0.779  23.625  -8.696  1.00  0.00    -0.365 OA
BRANCH  13  14
HETATM   14  C10 UNL     1       0.287  24.424  -8.968  1.00  0.00     0.170 C 
BRANCH  14  15
HETATM   15  C11 UNL     1      -0.181  25.497  -9.924  1.00  0.00     0.026 C 
BRANCH  15  16
HETATM   16  C12 UNL     1      -0.022  25.167 -11.365  1.00  0.00     0.004 C 
BRANCH  16  17
HETATM   17  C13 UNL     1      -1.360  25.016 -12.038  1.00  0.00     0.020 C 
BRANCH  17  18
HETATM   18  C14 UNL     1      -2.455  25.833 -11.387  1.00  0.00     0.133 C 
BRANCH  18  19
HETATM   19  N2  UNL     1      -2.986  26.871 -12.224  1.00  0.00    -0.308 N 
HETATM   20  C15 UNL     1      -2.375  28.050 -12.449  1.00  0.00     0.151 A 
HETATM   21  C16 UNL     1      -3.142  28.800 -13.290  1.00  0.00     0.009 A 
HETATM   22  C17 UNL     1      -4.263  28.054 -13.592  1.00  0.00     0.009 A 
HETATM   23  C22 UNL     1      -3.268  30.090 -14.017  1.00  0.00     0.032 C 
HETATM   24  C18 UNL     1      -4.142  26.859 -12.918  1.00  0.00     0.151 A 
HETATM   25  C19 UNL     1      -5.094  28.875 -14.510  1.00  0.00     0.032 C 
HETATM   26  C20 UNL     1      -5.639  30.023 -13.711  1.00  0.00     0.011 C 
HETATM   27  C23 UNL     1      -3.982  29.601 -15.290  1.00  0.00    -0.032 C 
HETATM   28  C21 UNL     1      -4.392  30.854 -13.369  1.00  0.00     0.011 C 
HETATM   29  C24 UNL     1      -3.134  28.659 -16.069  1.00  0.00     0.016 C 
HETATM   30  C25 UNL     1      -4.517  30.726 -16.101  1.00  0.00     0.016 C 
BRANCH  20  31
HETATM   31  O2  UNL     1      -1.152  28.486 -11.928  1.00  0.00    -0.345 OA
ATOM     32  H2  UNL     1      -0.395  28.793 -12.412  1.00  0.00     0.219 HD
ENDBRANCH  20  31
BRANCH  24  33
HETATM   33  O3  UNL     1      -5.036  25.793 -12.924  1.00  0.00    -0.345 OA
ATOM     34  H3  UNL     1      -4.777  24.880 -12.880  1.00  0.00     0.219 HD
ENDBRANCH  24  33
ENDBRANCH  18  19
ENDBRANCH  17  18
ENDBRANCH  16  17
ENDBRANCH  15  16
ENDBRANCH  14  15
ENDBRANCH  13  14
ENDBRANCH   8  13
TORSDOF 9
ENDMDL
MODEL 2
REMARK VINA RESULT: -8.895427539      2.520      4.090
REMARK  9 active torsions:
REMARK  status: ('A' for Active; 'I' for Inactive)
REMARK    1  A    between atoms: C8_8  and  O1_11 
REMARK    2  A    between atoms: O1_11  and  C10_12 
REMARK    3  A    between atoms: C10_12  and  C11_13 
REMARK    4  A    between atoms: C11_13  and  C12_14 
REMARK    5  A    between atoms: C12_14  and  C13_15 
REMARK    6  A    between atoms: C13_15  and  C14_16 
REMARK    7  A    between atoms: C14_16  and  N2_17 
REMARK    8  A    between atoms: C15_18  and  O2_19 
REMARK    9  A    between atoms: C18_23  and  O3_24 
ROOT
HETATM    1  C1  UNL     1       2.687  22.989  -9.733  1.00  0.00     0.011 C 
HETATM    2  C2  UNL     1       1.206  23.305 -10.005  1.00  0.00    -0.010 C 
HETATM    3  C3  UNL     1       0.421  22.460  -9.025  1.00  0.00    -0.010 C 
HETATM    4  C4  UNL     1       0.925  23.070  -7.707  1.00  0.00     0.005 C 
HETATM    5  C5  UNL     1       1.211  24.511  -8.016  1.00  0.00     0.005 C 
HETATM    6  C6  UNL     1       0.948  24.674  -9.524  1.00  0.00    -0.007 C 
HETATM    7  C7  UNL     1      -0.365  25.277  -9.752  1.00  0.00     0.058 C 
HETATM    8  C8  UNL     1      -1.233  24.647 -10.797  1.00  0.00     0.149 C 
HETATM    9  C9  UNL     1      -0.557  24.908 -12.101  1.00  0.00     0.098 C 
HETATM   10  N1  UNL     1      -0.012  25.101 -13.114  1.00  0.00    -0.194 NA
HETATM   11  C26 UNL     1      -1.429  23.168 -10.582  1.00  0.00     0.054 C 
HETATM   12  C27 UNL     1      -1.038  22.699  -9.219  1.00  0.00     0.009 C 
ENDROOT
BRANCH   8  13
HETATM   13  O1  UNL     1      -2.447  25.246 -10.928  1.00  0.00    -0.365 OA
BRANCH  13  14
HETATM   14  C10 UNL     1      -3.566  24.474 -10.903  1.00  0.00     0.170 C 
BRANCH  14  15
HETATM   15  C11 UNL     1      -4.505  24.998 -11.964  1.00  0.00     0.026 C 
BRANCH  15  16
HETATM   16  C12 UNL     1      -4.861  26.436 -11.834  1.00  0.00     0.004 C 
BRANCH  16  17
HETATM   17  C13 UNL     1      -5.392  26.984 -13.131  1.00  0.00     0.020 C 
BRANCH  17  18
HETATM   18  C14 UNL     1      -6.102  28.311 -12.976  1.00  0.00     0.133 C 
BRANCH  18  19
HETATM   19  N2  UNL     1      -5.712  29.299 -13.941  1.00  0.00    -0.308 N 
HETATM   20  C15 UNL     1      -4.477  29.829 -14.026  1.00  0.00     0.151 A 
HETATM   21  C16 UNL     1      -4.444  30.729 -15.050  1.00  0.00     0.009 A 
HETATM   22  C17 UNL     1      -5.703  30.751 -15.612  1.00  0.00     0.009 A 
HETATM   23  C22 UNL     1      -3.609  31.695 -15.810  1.00  0.00     0.032 C 
HETATM   24  C18 UNL     1      -6.473  29.854 -14.905  1.00  0.00     0.151 A 
HETATM   25  C19 UNL     1      -5.662  31.732 -16.728  1.00  0.00     0.032 C 
HETATM   26  C20 UNL     1      -5.524  33.096 -16.117  1.00  0.00     0.011 C 
HETATM   27  C23 UNL     1      -4.217  31.513 -17.212  1.00  0.00    -0.032 C 
HETATM   28  C21 UNL     1      -4.122  33.073 -15.485  1.00  0.00     0.011 C 
HETATM   29  C24 UNL     1      -3.999  30.136 -17.731  1.00  0.00     0.016 C 
HETATM   30  C25 UNL     1      -3.781  32.577 -18.156  1.00  0.00     0.016 C 
BRANCH  20  31
HETATM   31  O2  UNL     1      -3.371  29.540 -13.220  1.00  0.00    -0.345 OA
ATOM     32  H2  UNL     1      -2.462  29.756 -13.388  1.00  0.00     0.219 HD
ENDBRANCH  20  31
BRANCH  24  33
HETATM   33  O3  UNL     1      -7.813  29.541 -15.118  1.00  0.00    -0.345 OA
ATOM     34  H3  UNL     1      -8.520  29.813 -14.545  1.00  0.00     0.219 HD
ENDBRANCH  24  33
ENDBRANCH  18  19
ENDBRANCH  17  18
ENDBRANCH  16  17
ENDBRANCH  15  16
ENDBRANCH  14  15
ENDBRANCH  13  14
ENDBRANCH   8  13
TORSDOF 9
ENDMDL
MODEL 3
REMARK VINA RESULT: -8.790396582      2.420      4.382
REMARK  9 active torsions:
REMARK  status: ('A' for Active; 'I' for Inactive)
REMARK    1  A    between atoms: C8_8  and  O1_11 
REMARK    2  A    between atoms: O1_11  and  C10_12 
REMARK    3  A    between atoms: C10_12  and  C11_13 
REMARK    4  A    between atoms: C11_13  and  C12_14 
REMARK    5  A    between atoms: C12_14  and  C13_15 
REMARK    6  A    between atoms: C13_15  and  C14_16 
REMARK    7  A    between atoms: C14_16  and  N2_17 
REMARK    8  A    between atoms: C15_18  and  O2_19 
REMARK    9  A    between atoms: C18_23  and  O3_24 
ROOT
HETATM    1  C1  UNL     1       2.147  22.389  -9.578  1.00  0.00     0.011 C 
HETATM    2  C2  UNL     1       0.782  23.035  -9.874  1.00  0.00    -0.010 C 
HETATM    3  C3  UNL     1      -0.169  22.474  -8.838  1.00  0.00    -0.010 C 
HETATM    4  C4  UNL     1       0.488  23.033  -7.565  1.00  0.00     0.005 C 
HETATM    5  C5  UNL     1       1.109  24.337  -7.975  1.00  0.00     0.005 C 
HETATM    6  C6  UNL     1       0.869  24.455  -9.491  1.00  0.00    -0.007 C 
HETATM    7  C7  UNL     1      -0.263  25.341  -9.763  1.00  0.00     0.058 C 
HETATM    8  C8  UNL     1      -1.273  24.869 -10.762  1.00  0.00     0.149 C 
HETATM    9  C9  UNL     1      -0.575  24.868 -12.080  1.00  0.00     0.098 C 
HETATM   10  N1  UNL     1      -0.016  24.853 -13.104  1.00  0.00    -0.194 NA
HETATM   11  C26 UNL     1      -1.817  23.499 -10.443  1.00  0.00     0.054 C 
HETATM   12  C27 UNL     1      -1.530  23.045  -9.051  1.00  0.00     0.009 C 
ENDROOT
BRANCH   8  13
HETATM   13  O1  UNL     1      -2.309  25.733 -10.938  1.00  0.00    -0.365 OA
BRANCH  13  14
HETATM   14  C10 UNL     1      -3.508  25.245 -11.354  1.00  0.00     0.170 C 
BRANCH  14  15
HETATM   15  C11 UNL     1      -4.453  26.416 -11.493  1.00  0.00     0.026 C 
BRANCH  15  16
HETATM   16  C12 UNL     1      -5.272  26.419 -12.734  1.00  0.00     0.004 C 
BRANCH  16  17
HETATM   17  C13 UNL     1      -5.619  27.822 -13.152  1.00  0.00     0.020 C 
BRANCH  17  18
HETATM   18  C14 UNL     1      -4.429  28.757 -13.164  1.00  0.00     0.133 C 
BRANCH  18  19
HETATM   19  N2  UNL     1      -3.679  28.734 -14.387  1.00  0.00    -0.308 N 
HETATM   20  C15 UNL     1      -4.004  29.440 -15.488  1.00  0.00     0.151 A 
HETATM   21  C16 UNL     1      -3.085  29.195 -16.465  1.00  0.00     0.009 A 
HETATM   22  C17 UNL     1      -2.164  28.310 -15.944  1.00  0.00     0.009 A 
HETATM   23  C22 UNL     1      -2.665  29.491 -17.860  1.00  0.00     0.032 C 
HETATM   24  C18 UNL     1      -2.556  28.039 -14.652  1.00  0.00     0.151 A 
HETATM   25  C19 UNL     1      -1.164  28.048 -17.012  1.00  0.00     0.032 C 
HETATM   26  C20 UNL     1      -1.853  27.253 -18.083  1.00  0.00     0.011 C 
HETATM   27  C23 UNL     1      -1.137  29.431 -17.688  1.00  0.00    -0.032 C 
HETATM   28  C21 UNL     1      -2.883  28.236 -18.662  1.00  0.00     0.011 C 
HETATM   29  C24 UNL     1      -0.644  30.495 -16.772  1.00  0.00     0.016 C 
HETATM   30  C25 UNL     1      -0.426  29.397 -18.993  1.00  0.00     0.016 C 
BRANCH  20  31
HETATM   31  O2  UNL     1      -5.096  30.297 -15.657  1.00  0.00    -0.345 OA
ATOM     32  H2  UNL     1      -5.183  31.190 -15.346  1.00  0.00     0.219 HD
ENDBRANCH  20  31
BRANCH  24  33
HETATM   33  O3  UNL     1      -1.927  27.197 -13.739  1.00  0.00    -0.345 OA
ATOM     34  H3  UNL     1      -1.563  26.348 -13.961  1.00  0.00     0.219 HD
ENDBRANCH  24  33
ENDBRANCH  18  19
ENDBRANCH  17  18
ENDBRANCH  16  17
ENDBRANCH  15  16
ENDBRANCH  14  15
ENDBRANCH  13  14
ENDBRANCH   8  13
TORSDOF 9
ENDMDL
MODEL 4
REMARK VINA RESULT: -8.658888853      2.499      4.447
REMARK  9 active torsions:
REMARK  status: ('A' for Active; 'I' for Inactive)
REMARK    1  A    between atoms: C8_8  and  O1_11 
REMARK    2  A    between atoms: O1_11  and  C10_12 
REMARK    3  A    between atoms: C10_12  and  C11_13 
REMARK    4  A    between atoms: C11_13  and  C12_14 
REMARK    5  A    between atoms: C12_14  and  C13_15 
REMARK    6  A    between atoms: C13_15  and  C14_16 
REMARK    7  A    between atoms: C14_16  and  N2_17 
REMARK    8  A    between atoms: C15_18  and  O2_19 
REMARK    9  A    between atoms: C18_23  and  O3_24 
ROOT
HETATM    1  C1  UNL     1       2.494  22.955 -10.145  1.00  0.00     0.011 C 
HETATM    2  C2  UNL     1       1.041  23.415 -10.358  1.00  0.00    -0.010 C 
HETATM    3  C3  UNL     1       0.198  22.527  -9.468  1.00  0.00    -0.010 C 
HETATM    4  C4  UNL     1       0.756  22.942  -8.097  1.00  0.00     0.005 C 
HETATM    5  C5  UNL     1       1.153  24.383  -8.246  1.00  0.00     0.005 C 
HETATM    6  C6  UNL     1       0.894  24.736  -9.721  1.00  0.00    -0.007 C 
HETATM    7  C7  UNL     1      -0.369  25.461  -9.861  1.00  0.00     0.058 C 
HETATM    8  C8  UNL     1      -1.289  25.024 -10.957  1.00  0.00     0.149 C 
HETATM    9  C9  UNL     1      -0.603  25.377 -12.233  1.00  0.00     0.098 C 
HETATM   10  N1  UNL     1      -0.051  25.642 -13.225  1.00  0.00    -0.194 NA
HETATM   11  C26 UNL     1      -1.600  23.549 -10.907  1.00  0.00     0.054 C 
HETATM   12  C27 UNL     1      -1.240  22.899  -9.612  1.00  0.00     0.009 C 
ENDROOT
BRANCH   8  13
HETATM   13  O1  UNL     1      -2.453  25.725 -11.002  1.00  0.00    -0.365 OA
BRANCH  13  14
HETATM   14  C10 UNL     1      -3.537  25.163 -11.600  1.00  0.00     0.170 C 
BRANCH  14  15
HETATM   15  C11 UNL     1      -4.706  26.100 -11.401  1.00  0.00     0.026 C 
BRANCH  15  16
HETATM   16  C12 UNL     1      -5.214  26.744 -12.641  1.00  0.00     0.004 C 
BRANCH  16  17
HETATM   17  C13 UNL     1      -4.081  27.162 -13.539  1.00  0.00     0.020 C 
BRANCH  17  18
HETATM   18  C14 UNL     1      -3.577  28.561 -13.259  1.00  0.00     0.133 C 
BRANCH  18  19
HETATM   19  N2  UNL     1      -3.899  29.514 -14.282  1.00  0.00    -0.308 N 
HETATM   20  C15 UNL     1      -5.076  30.164 -14.369  1.00  0.00     0.151 A 
HETATM   21  C16 UNL     1      -5.050  30.996 -15.449  1.00  0.00     0.009 A 
HETATM   22  C17 UNL     1      -3.813  30.852 -16.044  1.00  0.00     0.009 A 
HETATM   23  C22 UNL     1      -5.805  31.996 -16.249  1.00  0.00     0.032 C 
HETATM   24  C18 UNL     1      -3.117  29.925 -15.300  1.00  0.00     0.151 A 
HETATM   25  C19 UNL     1      -3.790  31.762 -17.218  1.00  0.00     0.032 C 
HETATM   26  C20 UNL     1      -4.739  31.200 -18.237  1.00  0.00     0.011 C 
HETATM   27  C23 UNL     1      -4.646  32.918 -16.669  1.00  0.00    -0.032 C 
HETATM   28  C21 UNL     1      -6.118  31.356 -17.574  1.00  0.00     0.011 C 
HETATM   29  C24 UNL     1      -4.014  33.578 -15.495  1.00  0.00     0.016 C 
HETATM   30  C25 UNL     1      -5.046  33.869 -17.740  1.00  0.00     0.016 C 
BRANCH  20  31
HETATM   31  O2  UNL     1      -6.180  30.041 -13.519  1.00  0.00    -0.345 OA
ATOM     32  H2  UNL     1      -7.072  29.822 -13.758  1.00  0.00     0.219 HD
ENDBRANCH  20  31
BRANCH  24  33
HETATM   33  O3  UNL     1      -1.823  29.464 -15.524  1.00  0.00    -0.345 OA
ATOM     34  H3  UNL     1      -1.156  29.956 -15.989  1.00  0.00     0.219 HD
ENDBRANCH  24  33
ENDBRANCH  18  19
ENDBRANCH  17  18
ENDBRANCH  16  17
ENDBRANCH  15  16
ENDBRANCH  14  15
ENDBRANCH  13  14
ENDBRANCH   8  13
TORSDOF 9
ENDMDL
MODEL 5
REMARK VINA RESULT: -8.646509383      1.998      3.920
REMARK  9 active torsions:
REMARK  status: ('A' for Active; 'I' for Inactive)
REMARK    1  A    between atoms: C8_8  and  O1_11 
REMARK    2  A    between atoms: O1_11  and  C10_12 
REMARK    3  A    between atoms: C10_12  and  C11_13 
REMARK    4  A    between atoms: C11_13  and  C12_14 
REMARK    5  A    between atoms: C12_14  and  C13_15 
REMARK    6  A    between atoms: C13_15  and  C14_16 
REMARK    7  A    between atoms: C14_16  and  N2_17 
REMARK    8  A    between atoms: C15_18  and  O2_19 
REMARK    9  A    between atoms: C18_23  and  O3_24 
ROOT
HETATM    1  C1  UNL     1       4.794  23.946 -11.041  1.00  0.00     0.011 C 
HETATM    2  C2  UNL     1       3.568  23.908 -10.111  1.00  0.00    -0.010 C 
HETATM    3  C3  UNL     1       2.603  24.934 -10.665  1.00  0.00    -0.010 C 
HETATM    4  C4  UNL     1       2.325  24.302 -12.039  1.00  0.00     0.005 C 
HETATM    5  C5  UNL     1       2.436  22.820 -11.827  1.00  0.00     0.005 C 
HETATM    6  C6  UNL     1       2.861  22.639 -10.358  1.00  0.00    -0.007 C 
HETATM    7  C7  UNL     1       1.706  22.290  -9.531  1.00  0.00     0.058 C 
HETATM    8  C8  UNL     1       1.548  23.025  -8.236  1.00  0.00     0.149 C 
HETATM    9  C9  UNL     1       2.678  22.578  -7.371  1.00  0.00     0.098 C 
HETATM   10  N1  UNL     1       3.575  22.235  -6.709  1.00  0.00    -0.194 NA
HETATM   11  C26 UNL     1       1.565  24.523  -8.407  1.00  0.00     0.054 C 
HETATM   12  C27 UNL     1       1.376  24.972  -9.818  1.00  0.00     0.009 C 
ENDROOT
BRANCH   8  13
HETATM   13  O1  UNL     1       0.437  22.666  -7.540  1.00  0.00    -0.365 OA
BRANCH  13  14
HETATM   14  C10 UNL     1      -0.494  21.882  -8.146  1.00  0.00     0.170 C 
BRANCH  14  15
HETATM   15  C11 UNL     1      -1.575  22.791  -8.684  1.00  0.00     0.026 C 
BRANCH  15  16
HETATM   16  C12 UNL     1      -2.176  22.358  -9.973  1.00  0.00     0.004 C 
BRANCH  16  17
HETATM   17  C13 UNL     1      -2.177  23.479 -10.976  1.00  0.00     0.020 C 
BRANCH  17  18
HETATM   18  C14 UNL     1      -3.178  24.568 -10.659  1.00  0.00     0.133 C 
BRANCH  18  19
HETATM   19  N2  UNL     1      -3.147  25.675 -11.571  1.00  0.00    -0.308 N 
HETATM   20  C15 UNL     1      -2.235  26.666 -11.529  1.00  0.00     0.151 A 
HETATM   21  C16 UNL     1      -2.487  27.550 -12.536  1.00  0.00     0.009 A 
HETATM   22  C17 UNL     1      -3.591  27.085 -13.220  1.00  0.00     0.009 A 
HETATM   23  C22 UNL     1      -2.060  28.809 -13.201  1.00  0.00     0.032 C 
HETATM   24  C18 UNL     1      -3.983  25.919 -12.600  1.00  0.00     0.151 A 
HETATM   25  C19 UNL     1      -3.860  28.051 -14.316  1.00  0.00     0.032 C 
HETATM   26  C20 UNL     1      -4.347  29.322 -13.681  1.00  0.00     0.011 C 
HETATM   27  C23 UNL     1      -2.417  28.464 -14.659  1.00  0.00    -0.032 C 
HETATM   28  C21 UNL     1      -3.119  29.840 -12.915  1.00  0.00     0.011 C 
HETATM   29  C24 UNL     1      -1.610  27.322 -15.167  1.00  0.00     0.016 C 
HETATM   30  C25 UNL     1      -2.376  29.658 -15.544  1.00  0.00     0.016 C 
BRANCH  20  31
HETATM   31  O2  UNL     1      -1.181  26.813 -10.621  1.00  0.00    -0.345 OA
ATOM     32  H2  UNL     1      -0.972  27.578 -10.099  1.00  0.00     0.219 HD
ENDBRANCH  20  31
BRANCH  24  33
HETATM   33  O3  UNL     1      -5.052  25.098 -12.946  1.00  0.00    -0.345 OA
ATOM     34  H3  UNL     1      -4.975  24.324 -13.492  1.00  0.00     0.219 HD
ENDBRANCH  24  33
ENDBRANCH  18  19
ENDBRANCH  17  18
ENDBRANCH  16  17
ENDBRANCH  15  16
ENDBRANCH  14  15
ENDBRANCH  13  14
ENDBRANCH   8  13
TORSDOF 9
ENDMDL
