MODEL 1
REMARK VINA RESULT: -8.975966229      0.000      0.000
REMARK  9 active torsions:
REMARK  status: ('A' for Active; 'I' for Inactive)
REMARK    1  A    between atoms: C2_2  and  C3_3 
REMARK    2  A    between atoms: C2_2  and  C9_9 
REMARK    3  A    between atoms: C3_3  and  C4_4 
REMARK    4  A    between atoms: C4_4  and  C5_5 
REMARK    5  A    between atoms: C9_9  and  C10_10 
REMARK    6  A    between atoms: C10_10  and  C12_12 
REMARK    7  A    between atoms: C17_20  and  O4_21 
REMARK    8  A    between atoms: C19_24  and  O5_25 
REMARK    9  A    between atoms: C22_29  and  C23_30 
ROOT
HETATM    1  C12 UNL     1      -2.837  29.164 -14.964  1.00  0.00     0.005 C 
HETATM    2  C13 UNL     1      -3.174  27.921 -15.912  1.00  0.00     0.023 C 
HETATM    3  C14 UNL     1      -1.639  29.690 -15.566  1.00  0.00     0.193 C 
HETATM    4  O1  UNL     1      -0.935  30.895 -15.492  1.00  0.00    -0.315 OA
HETATM    5  C15 UNL     1      -1.083  31.888 -16.628  1.00  0.00     0.320 C 
HETATM    6  O2  UNL     1      -0.193  32.499 -17.128  1.00  0.00    -0.257 OA
HETATM    7  C16 UNL     1      -2.534  31.969 -17.027  1.00  0.00     0.187 A 
HETATM    8  O3  UNL     1      -2.878  31.450 -18.217  1.00  0.00    -0.278 OA
HETATM    9  C17 UNL     1      -4.149  31.505 -18.370  1.00  0.00     0.193 A 
HETATM   10  C18 UNL     1      -4.670  32.088 -17.228  1.00  0.00     0.036 A 
HETATM   11  C19 UNL     1      -3.630  32.429 -16.369  1.00  0.00     0.117 A 
HETATM   12  C20 UNL     1      -6.103  31.752 -16.880  1.00  0.00     0.047 C 
HETATM   13  C21 UNL     1      -6.087  30.471 -16.030  1.00  0.00     0.014 C 
HETATM   14  C22 UNL     1      -5.308  30.287 -14.837  1.00  0.00     0.018 C 
HETATM   15  C26 UNL     1      -4.056  29.695 -14.429  1.00  0.00     0.004 C 
HETATM   16  C27 UNL     1      -3.625  30.416 -13.099  1.00  0.00     0.012 C 
ENDROOT
BRANCH   1  17
HETATM   17  C10 UNL     1      -2.314  28.271 -13.740  1.00  0.00    -0.075 C 
HETATM   18  C11 UNL     1      -1.123  28.593 -13.253  1.00  0.00     0.015 C 
BRANCH  17  19
HETATM   19  C9  UNL     1      -3.178  27.221 -13.315  1.00  0.00     0.067 C 
BRANCH  19  20
HETATM   20  C2  UNL     1      -3.021  26.643 -11.943  1.00  0.00    -0.085 C 
HETATM   21  C1  UNL     1      -1.998  26.746 -11.158  1.00  0.00     0.014 C 
BRANCH  20  22
HETATM   22  C3  UNL     1      -4.221  25.908 -11.489  1.00  0.00     0.037 C 
BRANCH  22  23
HETATM   23  C4  UNL     1      -4.203  24.433 -11.461  1.00  0.00     0.031 C 
BRANCH  23  24
HETATM   24  C5  UNL     1      -3.774  23.832 -10.205  1.00  0.00    -0.024 C 
HETATM   25  C6  UNL     1      -2.628  23.277  -9.907  1.00  0.00    -0.091 C 
HETATM   26  C7  UNL     1      -2.377  22.710  -8.529  1.00  0.00     0.042 C 
HETATM   27  C8  UNL     1      -1.539  23.143 -10.902  1.00  0.00     0.042 C 
ENDBRANCH  23  24
ENDBRANCH  22  23
ENDBRANCH  20  22
ENDBRANCH  19  20
ENDBRANCH  17  19
ENDBRANCH   1  17
BRANCH  14  28
HETATM   28  C23 UNL     1      -6.303  29.453 -13.922  1.00  0.00    -0.089 C 
HETATM   29  C24 UNL     1      -7.337  30.103 -13.464  1.00  0.00     0.014 C 
HETATM   30  C25 UNL     1      -6.100  28.067 -13.574  1.00  0.00     0.043 C 
ENDBRANCH  14  28
BRANCH  11  31
HETATM   31  O5  UNL     1      -3.815  33.145 -15.113  1.00  0.00    -0.357 OA
ATOM     32  H5  UNL     1      -3.978  34.056 -14.899  1.00  0.00     0.217 HD
ENDBRANCH  11  31
BRANCH   9  33
HETATM   33  O4  UNL     1      -4.855  31.039 -19.523  1.00  0.00    -0.340 OA
ATOM     34  H4  UNL     1      -5.655  31.424 -19.861  1.00  0.00     0.220 HD
ENDBRANCH   9  33
TORSDOF 9
ENDMDL
MODEL 2
REMARK VINA RESULT: -8.413017424      5.551     10.122
REMARK  9 active torsions:
REMARK  status: ('A' for Active; 'I' for Inactive)
REMARK    1  A    between atoms: C2_2  and  C3_3 
REMARK    2  A    between atoms: C2_2  and  C9_9 
REMARK    3  A    between atoms: C3_3  and  C4_4 
REMARK    4  A    between atoms: C4_4  and  C5_5 
REMARK    5  A    between atoms: C9_9  and  C10_10 
REMARK    6  A    between atoms: C10_10  and  C12_12 
REMARK    7  A    between atoms: C17_20  and  O4_21 
REMARK    8  A    between atoms: C19_24  and  O5_25 
REMARK    9  A    between atoms: C22_29  and  C23_30 
ROOT
HETATM    1  C12 UNL     1       0.015  23.047  -9.405  1.00  0.00     0.005 C 
HETATM    2  C13 UNL     1      -0.299  21.761 -10.301  1.00  0.00     0.023 C 
HETATM    3  C14 UNL     1       0.560  22.459  -8.208  1.00  0.00     0.193 C 
HETATM    4  O1  UNL     1       1.310  22.924  -7.123  1.00  0.00    -0.315 OA
HETATM    5  C15 UNL     1       2.794  22.620  -7.089  1.00  0.00     0.320 C 
HETATM    6  O2  UNL     1       3.401  22.260  -6.131  1.00  0.00    -0.257 OA
HETATM    7  C16 UNL     1       3.375  22.839  -8.462  1.00  0.00     0.187 A 
HETATM    8  O3  UNL     1       3.767  21.753  -9.148  1.00  0.00    -0.278 OA
HETATM    9  C17 UNL     1       4.143  22.089 -10.326  1.00  0.00     0.193 A 
HETATM   10  C18 UNL     1       3.993  23.461 -10.423  1.00  0.00     0.036 A 
HETATM   11  C19 UNL     1       3.535  23.963  -9.209  1.00  0.00     0.117 A 
HETATM   12  C20 UNL     1       3.795  24.032 -11.810  1.00  0.00     0.047 C 
HETATM   13  C21 UNL     1       2.287  24.004 -12.112  1.00  0.00     0.014 C 
HETATM   14  C22 UNL     1       1.271  24.572 -11.271  1.00  0.00     0.018 C 
HETATM   15  C26 UNL     1       0.329  24.154 -10.260  1.00  0.00     0.004 C 
HETATM   16  C27 UNL     1      -0.009  25.428  -9.400  1.00  0.00     0.012 C 
ENDROOT
BRANCH   1  17
HETATM   17  C10 UNL     1      -1.517  23.346  -9.044  1.00  0.00    -0.075 C 
HETATM   18  C11 UNL     1      -1.970  22.792  -7.927  1.00  0.00     0.015 C 
BRANCH  17  19
HETATM   19  C9  UNL     1      -2.231  24.164  -9.966  1.00  0.00     0.067 C 
BRANCH  19  20
HETATM   20  C2  UNL     1      -3.449  23.622 -10.649  1.00  0.00    -0.085 C 
HETATM   21  C1  UNL     1      -3.708  22.386 -10.931  1.00  0.00     0.014 C 
BRANCH  20  22
HETATM   22  C3  UNL     1      -4.435  24.672 -10.982  1.00  0.00     0.037 C 
BRANCH  22  23
HETATM   23  C4  UNL     1      -4.075  25.725 -11.951  1.00  0.00     0.031 C 
BRANCH  23  24
HETATM   24  C5  UNL     1      -5.176  26.562 -12.411  1.00  0.00    -0.024 C 
HETATM   25  C6  UNL     1      -5.135  27.655 -13.127  1.00  0.00    -0.091 C 
HETATM   26  C7  UNL     1      -6.405  28.380 -13.507  1.00  0.00     0.042 C 
HETATM   27  C8  UNL     1      -3.856  28.257 -13.568  1.00  0.00     0.042 C 
ENDBRANCH  23  24
ENDBRANCH  22  23
ENDBRANCH  20  22
ENDBRANCH  19  20
ENDBRANCH  17  19
ENDBRANCH   1  17
BRANCH  14  28
HETATM   28  C23 UNL     1       0.259  25.171 -12.340  1.00  0.00    -0.089 C 
HETATM   29  C24 UNL     1       0.330  24.664 -13.539  1.00  0.00     0.014 C 
HETATM   30  C25 UNL     1      -0.680  26.228 -12.049  1.00  0.00     0.043 C 
ENDBRANCH  14  28
BRANCH  11  31
HETATM   31  O5  UNL     1       3.355  25.382  -8.932  1.00  0.00    -0.357 OA
ATOM     32  H5  UNL     1       3.956  26.115  -8.862  1.00  0.00     0.217 HD
ENDBRANCH  11  31
BRANCH   9  33
HETATM   33  O4  UNL     1       4.621  21.181 -11.321  1.00  0.00    -0.340 OA
ATOM     34  H4  UNL     1       5.518  21.142 -11.634  1.00  0.00     0.220 HD
ENDBRANCH   9  33
TORSDOF 9
ENDMDL
MODEL 3
REMARK VINA RESULT: -8.338276267      5.032     10.207
REMARK  9 active torsions:
REMARK  status: ('A' for Active; 'I' for Inactive)
REMARK    1  A    between atoms: C2_2  and  C3_3 
REMARK    2  A    between atoms: C2_2  and  C9_9 
REMARK    3  A    between atoms: C3_3  and  C4_4 
REMARK    4  A    between atoms: C4_4  and  C5_5 
REMARK    5  A    between atoms: C9_9  and  C10_10 
REMARK    6  A    between atoms: C10_10  and  C12_12 
REMARK    7  A    between atoms: C17_20  and  O4_21 
REMARK    8  A    between atoms: C19_24  and  O5_25 
REMARK    9  A    between atoms: C22_29  and  C23_30 
ROOT
HETATM    1  C12 UNL     1       0.766  23.510  -9.252  1.00  0.00     0.005 C 
HETATM    2  C13 UNL     1       1.049  24.725  -8.251  1.00  0.00     0.023 C 
HETATM    3  C14 UNL     1       0.253  24.187 -10.416  1.00  0.00     0.193 C 
HETATM    4  O1  UNL     1       0.065  23.853 -11.760  1.00  0.00    -0.315 OA
HETATM    5  C15 UNL     1       1.058  24.373 -12.779  1.00  0.00     0.320 C 
HETATM    6  O2  UNL     1       0.778  24.831 -13.841  1.00  0.00    -0.257 OA
HETATM    7  C16 UNL     1       2.453  24.225 -12.229  1.00  0.00     0.187 A 
HETATM    8  O3  UNL     1       3.107  25.348 -11.890  1.00  0.00    -0.278 OA
HETATM    9  C17 UNL     1       4.232  25.057 -11.350  1.00  0.00     0.193 A 
HETATM   10  C18 UNL     1       4.327  23.677 -11.332  1.00  0.00     0.036 A 
HETATM   11  C19 UNL     1       3.200  23.128 -11.935  1.00  0.00     0.117 A 
HETATM   12  C20 UNL     1       5.216  23.066 -10.271  1.00  0.00     0.047 C 
HETATM   13  C21 UNL     1       4.362  22.867  -9.008  1.00  0.00     0.014 C 
HETATM   14  C22 UNL     1       3.109  22.165  -8.966  1.00  0.00     0.018 C 
HETATM   15  C26 UNL     1       1.694  22.452  -8.986  1.00  0.00     0.004 C 
HETATM   16  C27 UNL     1       0.976  21.153  -9.507  1.00  0.00     0.012 C 
ENDROOT
BRANCH   1  17
HETATM   17  C10 UNL     1      -0.539  22.993  -8.480  1.00  0.00    -0.075 C 
HETATM   18  C11 UNL     1      -0.321  22.296  -7.373  1.00  0.00     0.015 C 
BRANCH  17  19
HETATM   19  C9  UNL     1      -1.792  23.327  -9.070  1.00  0.00     0.067 C 
BRANCH  19  20
HETATM   20  C2  UNL     1      -2.524  22.306  -9.884  1.00  0.00    -0.085 C 
HETATM   21  C1  UNL     1      -2.482  21.019  -9.754  1.00  0.00     0.014 C 
BRANCH  20  22
HETATM   22  C3  UNL     1      -3.395  22.910 -10.915  1.00  0.00     0.037 C 
BRANCH  22  23
HETATM   23  C4  UNL     1      -4.247  24.061 -10.562  1.00  0.00     0.031 C 
BRANCH  23  24
HETATM   24  C5  UNL     1      -4.508  25.007 -11.639  1.00  0.00    -0.024 C 
HETATM   25  C6  UNL     1      -3.810  26.049 -12.007  1.00  0.00    -0.091 C 
HETATM   26  C7  UNL     1      -4.255  26.910 -13.166  1.00  0.00     0.042 C 
HETATM   27  C8  UNL     1      -2.580  26.462 -11.292  1.00  0.00     0.042 C 
ENDBRANCH  23  24
ENDBRANCH  22  23
ENDBRANCH  20  22
ENDBRANCH  19  20
ENDBRANCH  17  19
ENDBRANCH   1  17
BRANCH  14  28
HETATM   28  C23 UNL     1       3.204  21.409  -7.571  1.00  0.00    -0.089 C 
HETATM   29  C24 UNL     1       3.153  22.164  -6.509  1.00  0.00     0.014 C 
HETATM   30  C25 UNL     1       3.362  19.980  -7.444  1.00  0.00     0.043 C 
ENDBRANCH  14  28
BRANCH  11  31
HETATM   31  O5  UNL     1       3.015  21.701 -12.167  1.00  0.00    -0.357 OA
ATOM     32  H5  UNL     1       2.936  21.173 -12.952  1.00  0.00     0.217 HD
ENDBRANCH  11  31
BRANCH   9  33
HETATM   33  O4  UNL     1       5.180  26.013 -10.871  1.00  0.00    -0.340 OA
ATOM     34  H4  UNL     1       5.325  26.222  -9.956  1.00  0.00     0.220 HD
ENDBRANCH   9  33
TORSDOF 9
ENDMDL
MODEL 4
REMARK VINA RESULT: -8.331670059      4.546      9.792
REMARK  9 active torsions:
REMARK  status: ('A' for Active; 'I' for Inactive)
REMARK    1  A    between atoms: C2_2  and  C3_3 
REMARK    2  A    between atoms: C2_2  and  C9_9 
REMARK    3  A    between atoms: C3_3  and  C4_4 
REMARK    4  A    between atoms: C4_4  and  C5_5 
REMARK    5  A    between atoms: C9_9  and  C10_10 
REMARK    6  A    between atoms: C10_10  and  C12_12 
REMARK    7  A    between atoms: C17_20  and  O4_21 
REMARK    8  A    between atoms: C19_24  and  O5_25 
REMARK    9  A    between atoms: C22_29  and  C23_30 
ROOT
HETATM    1  C12 UNL     1      -0.246  24.474 -10.281  1.00  0.00     0.005 C 
HETATM    2  C13 UNL     1      -0.374  25.661  -9.217  1.00  0.00     0.023 C 
HETATM    3  C14 UNL     1       0.384  25.132 -11.397  1.00  0.00     0.193 C 
HETATM    4  O1  UNL     1       1.062  24.713 -12.545  1.00  0.00    -0.315 OA
HETATM    5  C15 UNL     1       2.574  24.800 -12.562  1.00  0.00     0.320 C 
HETATM    6  O2  UNL     1       3.231  25.193 -13.473  1.00  0.00    -0.257 OA
HETATM    7  C16 UNL     1       3.112  24.318 -11.239  1.00  0.00     0.187 A 
HETATM    8  O3  UNL     1       3.654  25.234 -10.420  1.00  0.00    -0.278 OA
HETATM    9  C17 UNL     1       3.972  24.692  -9.304  1.00  0.00     0.193 A 
HETATM   10  C18 UNL     1       3.625  23.356  -9.387  1.00  0.00     0.036 A 
HETATM   11  C19 UNL     1       3.103  23.093 -10.650  1.00  0.00     0.117 A 
HETATM   12  C20 UNL     1       3.339  22.640  -8.086  1.00  0.00     0.047 C 
HETATM   13  C21 UNL     1       1.850  22.846  -7.760  1.00  0.00     0.014 C 
HETATM   14  C22 UNL     1       0.766  22.548  -8.653  1.00  0.00     0.018 C 
HETATM   15  C26 UNL     1      -0.101  23.230  -9.585  1.00  0.00     0.004 C 
HETATM   16  C27 UNL     1      -0.617  22.145 -10.601  1.00  0.00     0.012 C 
ENDROOT
BRANCH   1  17
HETATM   17  C10 UNL     1      -1.805  24.452 -10.654  1.00  0.00    -0.075 C 
HETATM   18  C11 UNL     1      -2.598  23.819  -9.799  1.00  0.00     0.015 C 
BRANCH  17  19
HETATM   19  C9  UNL     1      -2.169  25.103 -11.867  1.00  0.00     0.067 C 
BRANCH  19  20
HETATM   20  C2  UNL     1      -2.769  26.474 -11.821  1.00  0.00    -0.085 C 
HETATM   21  C1  UNL     1      -2.152  27.606 -11.931  1.00  0.00     0.014 C 
BRANCH  20  22
HETATM   22  C3  UNL     1      -4.238  26.453 -11.657  1.00  0.00     0.037 C 
BRANCH  22  23
HETATM   23  C4  UNL     1      -5.102  26.440 -12.853  1.00  0.00     0.031 C 
BRANCH  23  24
HETATM   24  C5  UNL     1      -6.015  27.568 -12.984  1.00  0.00    -0.024 C 
HETATM   25  C6  UNL     1      -5.836  28.702 -13.611  1.00  0.00    -0.091 C 
HETATM   26  C7  UNL     1      -6.921  29.753 -13.633  1.00  0.00     0.042 C 
HETATM   27  C8  UNL     1      -4.563  29.030 -14.293  1.00  0.00     0.042 C 
ENDBRANCH  23  24
ENDBRANCH  22  23
ENDBRANCH  20  22
ENDBRANCH  19  20
ENDBRANCH  17  19
ENDBRANCH   1  17
BRANCH  14  28
HETATM   28  C23 UNL     1      -0.327  21.964  -7.658  1.00  0.00    -0.089 C 
HETATM   29  C24 UNL     1      -0.806  22.803  -6.781  1.00  0.00     0.014 C 
HETATM   30  C25 UNL     1      -0.772  20.592  -7.674  1.00  0.00     0.043 C 
ENDBRANCH  14  28
BRANCH  11  31
HETATM   31  O5  UNL     1       2.719  21.764 -11.110  1.00  0.00    -0.357 OA
ATOM     32  H5  UNL     1       2.671  20.916 -10.686  1.00  0.00     0.217 HD
ENDBRANCH  11  31
BRANCH   9  33
HETATM   33  O4  UNL     1       4.574  25.380  -8.204  1.00  0.00    -0.340 OA
ATOM     34  H4  UNL     1       5.465  25.246  -7.902  1.00  0.00     0.220 HD
ENDBRANCH   9  33
TORSDOF 9
ENDMDL
MODEL 5
REMARK VINA RESULT: -8.315212349      1.244      1.872
REMARK  9 active torsions:
REMARK  status: ('A' for Active; 'I' for Inactive)
REMARK    1  A    between atoms: C2_2  and  C3_3 
REMARK    2  A    between atoms: C2_2  and  C9_9 
REMARK    3  A    between atoms: C3_3  and  C4_4 
REMARK    4  A    between atoms: C4_4  and  C5_5 
REMARK    5  A    between atoms: C9_9  and  C10_10 
REMARK    6  A    between atoms: C10_10  and  C12_12 
REMARK    7  A    between atoms: C17_20  and  O4_21 
REMARK    8  A    between atoms: C19_24  and  O5_25 
REMARK    9  A    between atoms: C22_29  and  C23_30 
ROOT
HETATM    1  C12 UNL     1      -2.857  29.060 -14.840  1.00  0.00     0.005 C 
HETATM    2  C13 UNL     1      -3.193  27.818 -15.790  1.00  0.00     0.023 C 
HETATM    3  C14 UNL     1      -1.606  29.527 -15.379  1.00  0.00     0.193 C 
HETATM    4  O1  UNL     1      -0.857  30.703 -15.280  1.00  0.00    -0.315 OA
HETATM    5  C15 UNL     1      -0.899  31.684 -16.435  1.00  0.00     0.320 C 
HETATM    6  O2  UNL     1       0.043  32.251 -16.891  1.00  0.00    -0.257 OA
HETATM    7  C16 UNL     1      -2.320  31.820 -16.916  1.00  0.00     0.187 A 
HETATM    8  O3  UNL     1      -2.619  31.299 -18.117  1.00  0.00    -0.278 OA
HETATM    9  C17 UNL     1      -3.876  31.404 -18.342  1.00  0.00     0.193 A 
HETATM   10  C18 UNL     1      -4.435  32.024 -17.239  1.00  0.00     0.036 A 
HETATM   11  C19 UNL     1      -3.431  32.335 -16.326  1.00  0.00     0.117 A 
HETATM   12  C20 UNL     1      -5.898  31.753 -16.969  1.00  0.00     0.047 C 
HETATM   13  C21 UNL     1      -5.984  30.485 -16.103  1.00  0.00     0.014 C 
HETATM   14  C22 UNL     1      -5.282  30.286 -14.867  1.00  0.00     0.018 C 
HETATM   15  C26 UNL     1      -4.080  29.648 -14.381  1.00  0.00     0.004 C 
HETATM   16  C27 UNL     1      -3.695  30.370 -13.038  1.00  0.00     0.012 C 
ENDROOT
BRANCH   1  17
HETATM   17  C10 UNL     1      -2.441  28.163 -13.578  1.00  0.00    -0.075 C 
HETATM   18  C11 UNL     1      -1.539  28.692 -12.761  1.00  0.00     0.015 C 
BRANCH  17  19
HETATM   19  C9  UNL     1      -3.076  26.892 -13.475  1.00  0.00     0.067 C 
BRANCH  19  20
HETATM   20  C2  UNL     1      -3.369  26.318 -12.124  1.00  0.00    -0.085 C 
HETATM   21  C1  UNL     1      -4.378  26.581 -11.359  1.00  0.00     0.014 C 
BRANCH  20  22
HETATM   22  C3  UNL     1      -2.363  25.323 -11.692  1.00  0.00     0.037 C 
BRANCH  22  23
HETATM   23  C4  UNL     1      -1.142  25.778 -11.001  1.00  0.00     0.031 C 
BRANCH  23  24
HETATM   24  C5  UNL     1       0.049  24.968 -11.224  1.00  0.00    -0.024 C 
HETATM   25  C6  UNL     1       0.791  24.875 -12.297  1.00  0.00    -0.091 C 
HETATM   26  C7  UNL     1       2.001  23.970 -12.325  1.00  0.00     0.042 C 
HETATM   27  C8  UNL     1       0.469  25.613 -13.540  1.00  0.00     0.042 C 
ENDBRANCH  23  24
ENDBRANCH  22  23
ENDBRANCH  20  22
ENDBRANCH  19  20
ENDBRANCH  17  19
ENDBRANCH   1  17
BRANCH  14  28
HETATM   28  C23 UNL     1      -6.361  29.507 -13.999  1.00  0.00    -0.089 C 
HETATM   29  C24 UNL     1      -7.372  30.215 -13.577  1.00  0.00     0.014 C 
HETATM   30  C25 UNL     1      -6.255  28.109 -13.656  1.00  0.00     0.043 C 
ENDBRANCH  14  28
BRANCH  11  31
HETATM   31  O5  UNL     1      -3.657  33.075 -15.091  1.00  0.00    -0.357 OA
ATOM     32  H5  UNL     1      -3.638  33.999 -14.873  1.00  0.00     0.217 HD
ENDBRANCH  11  31
BRANCH   9  33
HETATM   33  O4  UNL     1      -4.535  30.951 -19.527  1.00  0.00    -0.340 OA
ATOM     34  H4  UNL     1      -4.831  31.516 -20.233  1.00  0.00     0.220 HD
ENDBRANCH   9  33
TORSDOF 9
ENDMDL
