MODEL 1
REMARK VINA RESULT: -9.449469652      0.000      0.000
REMARK  9 active torsions:
REMARK  status: ('A' for Active; 'I' for Inactive)
REMARK    1  A    between atoms: C4_4  and  C5_5 
REMARK    2  A    between atoms: C5_5  and  C6_6 
REMARK    3  A    between atoms: C6_6  and  C7_7 
REMARK    4  A    between atoms: C9_9  and  C10_10 
REMARK    5  A    between atoms: C10_10  and  C11_11 
REMARK    6  A    between atoms: C12_15  and  C13_16 
REMARK    7  A    between atoms: C13_16  and  C14_18 
REMARK    8  A    between atoms: C24_28  and  O3_29 
REMARK    9  A    between atoms: C27_33  and  O4_34 
ROOT
HETATM    1  C11 UNL     1      -2.896  21.716 -10.364  1.00  0.00     0.115 A 
HETATM    2  O1  UNL     1      -4.052  21.212 -10.688  1.00  0.00    -0.239 OA
HETATM    3  N1  UNL     1      -4.090  19.939 -10.458  1.00  0.00    -0.255 N 
ATOM      4  H1  UNL     1      -4.902  19.349 -10.640  1.00  0.00     0.195 HD
HETATM    5  C12 UNL     1      -2.926  19.486  -9.948  1.00  0.00     0.136 A 
HETATM    6  C27 UNL     1      -2.153  20.657  -9.891  1.00  0.00     0.130 A 
ENDROOT
BRANCH   5   7
HETATM    7  C13 UNL     1      -2.523  18.132  -9.564  1.00  0.00     0.185 C 
HETATM    8  O2  UNL     1      -2.227  17.384 -10.528  1.00  0.00    -0.290 OA
BRANCH   7   9
HETATM    9  C14 UNL     1      -2.506  17.805  -8.163  1.00  0.00     0.073 C 
HETATM   10  C15 UNL     1      -1.083  17.799  -7.667  1.00  0.00     0.013 C 
HETATM   11  C16 UNL     1      -1.099  18.178  -6.212  1.00  0.00     0.002 C 
HETATM   12  C17 UNL     1      -2.470  17.951  -5.623  1.00  0.00     0.010 C 
HETATM   13  C18 UNL     1      -3.123  16.672  -6.130  1.00  0.00    -0.034 C 
HETATM   14  C19 UNL     1      -4.452  16.570  -5.391  1.00  0.00     0.016 C 
HETATM   15  C20 UNL     1      -2.270  15.546  -5.648  1.00  0.00     0.010 C 
HETATM   16  C25 UNL     1      -3.331  16.687  -7.639  1.00  0.00     0.000 C 
HETATM   17  C21 UNL     1      -2.895  14.245  -6.015  1.00  0.00     0.007 C 
HETATM   18  C22 UNL     1      -3.419  14.178  -7.382  1.00  0.00     0.011 C 
HETATM   19  C23 UNL     1      -2.773  12.977  -8.089  1.00  0.00     0.012 C 
HETATM   20  C24 UNL     1      -3.202  15.360  -8.274  1.00  0.00     0.131 C 
HETATM   21  C26 UNL     1      -4.797  17.122  -7.829  1.00  0.00     0.019 C 
BRANCH  20  22
HETATM   22  O3  UNL     1      -4.201  15.186  -9.271  1.00  0.00    -0.394 OA
ATOM     23  H3  UNL     1      -3.879  15.724  -9.984  1.00  0.00     0.210 HD
ENDBRANCH  20  22
ENDBRANCH   7   9
ENDBRANCH   5   7
BRANCH   6  24
HETATM   24  O4  UNL     1      -0.848  20.708  -9.426  1.00  0.00    -0.356 OA
ATOM     25  H4  UNL     1      -0.574  20.810  -8.521  1.00  0.00     0.218 HD
ENDBRANCH   6  24
BRANCH   1  26
HETATM   26  C10 UNL     1      -2.458  23.127 -10.475  1.00  0.00     0.097 C 
BRANCH  26  27
HETATM   27  C9  UNL     1      -3.694  23.977 -10.678  1.00  0.00    -0.018 C 
HETATM   28  C7  UNL     1      -3.630  25.150 -11.245  1.00  0.00    -0.087 C 
HETATM   29  C8  UNL     1      -2.254  25.641 -11.695  1.00  0.00     0.043 C 
BRANCH  28  30
HETATM   30  C6  UNL     1      -4.775  26.027 -11.483  1.00  0.00     0.037 C 
BRANCH  30  31
HETATM   31  C5  UNL     1      -4.745  26.735 -12.797  1.00  0.00     0.031 C 
BRANCH  31  32
HETATM   32  C4  UNL     1      -5.960  27.515 -13.109  1.00  0.00    -0.024 C 
HETATM   33  C2  UNL     1      -5.854  28.747 -13.611  1.00  0.00    -0.091 C 
HETATM   34  C1  UNL     1      -4.505  29.304 -13.846  1.00  0.00     0.042 C 
HETATM   35  C3  UNL     1      -7.093  29.497 -13.909  1.00  0.00     0.042 C 
ENDBRANCH  31  32
ENDBRANCH  30  31
ENDBRANCH  28  30
ENDBRANCH  26  27
ENDBRANCH   1  26
TORSDOF 9
ENDMDL
MODEL 2
REMARK VINA RESULT: -9.392618410      1.442      2.192
REMARK  9 active torsions:
REMARK  status: ('A' for Active; 'I' for Inactive)
REMARK    1  A    between atoms: C4_4  and  C5_5 
REMARK    2  A    between atoms: C5_5  and  C6_6 
REMARK    3  A    between atoms: C6_6  and  C7_7 
REMARK    4  A    between atoms: C9_9  and  C10_10 
REMARK    5  A    between atoms: C10_10  and  C11_11 
REMARK    6  A    between atoms: C12_15  and  C13_16 
REMARK    7  A    between atoms: C13_16  and  C14_18 
REMARK    8  A    between atoms: C24_28  and  O3_29 
REMARK    9  A    between atoms: C27_33  and  O4_34 
ROOT
HETATM    1  C11 UNL     1      -3.046  22.685 -10.554  1.00  0.00     0.115 A 
HETATM    2  O1  UNL     1      -4.046  21.941 -10.931  1.00  0.00    -0.239 OA
HETATM    3  N1  UNL     1      -3.856  20.701 -10.609  1.00  0.00    -0.255 N 
ATOM      4  H1  UNL     1      -4.516  19.951 -10.811  1.00  0.00     0.195 HD
HETATM    5  C12 UNL     1      -2.679  20.523  -9.973  1.00  0.00     0.136 A 
HETATM    6  C27 UNL     1      -2.158  21.827  -9.943  1.00  0.00     0.130 A 
ENDROOT
BRANCH   5   7
HETATM    7  C13 UNL     1      -2.058  19.303  -9.456  1.00  0.00     0.185 C 
HETATM    8  O2  UNL     1      -0.803  19.295  -9.508  1.00  0.00    -0.290 OA
BRANCH   7   9
HETATM    9  C14 UNL     1      -2.920  18.266  -8.955  1.00  0.00     0.073 C 
HETATM   10  C15 UNL     1      -2.861  18.250  -7.449  1.00  0.00     0.013 C 
HETATM   11  C16 UNL     1      -4.186  17.752  -6.940  1.00  0.00     0.002 C 
HETATM   12  C17 UNL     1      -4.913  16.990  -8.020  1.00  0.00     0.010 C 
HETATM   13  C18 UNL     1      -3.985  16.109  -8.845  1.00  0.00    -0.034 C 
HETATM   14  C19 UNL     1      -4.886  15.374  -9.829  1.00  0.00     0.016 C 
HETATM   15  C20 UNL     1      -3.436  15.084  -7.908  1.00  0.00     0.010 C 
HETATM   16  C25 UNL     1      -2.916  16.916  -9.572  1.00  0.00     0.000 C 
HETATM   17  C21 UNL     1      -2.591  14.114  -8.659  1.00  0.00     0.007 C 
HETATM   18  C22 UNL     1      -1.678  14.718  -9.634  1.00  0.00     0.011 C 
HETATM   19  C23 UNL     1      -0.251  14.250  -9.312  1.00  0.00     0.012 C 
HETATM   20  C24 UNL     1      -1.626  16.211  -9.713  1.00  0.00     0.131 C 
HETATM   21  C26 UNL     1      -3.468  17.105 -10.998  1.00  0.00     0.019 C 
BRANCH  20  22
HETATM   22  O3  UNL     1      -1.074  16.436 -11.004  1.00  0.00    -0.394 OA
ATOM     23  H3  UNL     1      -0.798  17.343 -10.957  1.00  0.00     0.210 HD
ENDBRANCH  20  22
ENDBRANCH   7   9
ENDBRANCH   5   7
BRANCH   6  24
HETATM   24  O4  UNL     1      -0.939  22.167  -9.379  1.00  0.00    -0.356 OA
ATOM     25  H4  UNL     1      -0.734  22.197  -8.451  1.00  0.00     0.218 HD
ENDBRANCH   6  24
BRANCH   1  26
HETATM   26  C10 UNL     1      -2.883  24.147 -10.736  1.00  0.00     0.097 C 
BRANCH  26  27
HETATM   27  C9  UNL     1      -4.141  24.669 -11.398  1.00  0.00    -0.018 C 
HETATM   28  C7  UNL     1      -4.203  25.878 -11.884  1.00  0.00    -0.087 C 
HETATM   29  C8  UNL     1      -2.957  26.755 -11.756  1.00  0.00     0.043 C 
BRANCH  28  30
HETATM   30  C6  UNL     1      -5.375  26.455 -12.541  1.00  0.00     0.037 C 
BRANCH  30  31
HETATM   31  C5  UNL     1      -5.134  27.790 -13.165  1.00  0.00     0.031 C 
BRANCH  31  32
HETATM   32  C4  UNL     1      -6.351  28.478 -13.644  1.00  0.00    -0.024 C 
HETATM   33  C2  UNL     1      -6.312  29.781 -13.934  1.00  0.00    -0.091 C 
HETATM   34  C1  UNL     1      -5.036  30.509 -13.766  1.00  0.00     0.042 C 
HETATM   35  C3  UNL     1      -7.551  30.435 -14.409  1.00  0.00     0.042 C 
ENDBRANCH  31  32
ENDBRANCH  30  31
ENDBRANCH  28  30
ENDBRANCH  26  27
ENDBRANCH   1  26
TORSDOF 9
ENDMDL
MODEL 3
REMARK VINA RESULT: -9.390087110      3.481      6.047
REMARK  9 active torsions:
REMARK  status: ('A' for Active; 'I' for Inactive)
REMARK    1  A    between atoms: C4_4  and  C5_5 
REMARK    2  A    between atoms: C5_5  and  C6_6 
REMARK    3  A    between atoms: C6_6  and  C7_7 
REMARK    4  A    between atoms: C9_9  and  C10_10 
REMARK    5  A    between atoms: C10_10  and  C11_11 
REMARK    6  A    between atoms: C12_15  and  C13_16 
REMARK    7  A    between atoms: C13_16  and  C14_18 
REMARK    8  A    between atoms: C24_28  and  O3_29 
REMARK    9  A    between atoms: C27_33  and  O4_34 
ROOT
HETATM    1  C11 UNL     1      -4.423  26.425 -12.141  1.00  0.00     0.115 A 
HETATM    2  O1  UNL     1      -3.419  26.929 -11.483  1.00  0.00    -0.239 OA
HETATM    3  N1  UNL     1      -2.673  25.997 -10.980  1.00  0.00    -0.255 N 
ATOM      4  H1  UNL     1      -1.834  26.173 -10.428  1.00  0.00     0.195 HD
HETATM    5  C12 UNL     1      -3.141  24.766 -11.275  1.00  0.00     0.136 A 
HETATM    6  C27 UNL     1      -4.286  25.059 -12.034  1.00  0.00     0.130 A 
ENDROOT
BRANCH   5   7
HETATM    7  C13 UNL     1      -2.633  23.446 -10.901  1.00  0.00     0.185 C 
HETATM    8  O2  UNL     1      -3.329  22.485 -11.312  1.00  0.00    -0.290 OA
BRANCH   7   9
HETATM    9  C14 UNL     1      -1.424  23.383 -10.124  1.00  0.00     0.073 C 
HETATM   10  C15 UNL     1      -0.234  23.508 -11.040  1.00  0.00     0.013 C 
HETATM   11  C16 UNL     1       0.883  24.148 -10.262  1.00  0.00     0.002 C 
HETATM   12  C17 UNL     1       0.647  23.997  -8.779  1.00  0.00     0.010 C 
HETATM   13  C18 UNL     1       0.089  22.629  -8.409  1.00  0.00    -0.034 C 
HETATM   14  C19 UNL     1      -0.022  22.629  -6.890  1.00  0.00     0.016 C 
HETATM   15  C20 UNL     1       1.143  21.634  -8.769  1.00  0.00     0.010 C 
HETATM   16  C25 UNL     1      -1.261  22.359  -9.061  1.00  0.00     0.000 C 
HETATM   17  C21 UNL     1       0.718  20.272  -8.345  1.00  0.00     0.007 C 
HETATM   18  C22 UNL     1      -0.676  19.939  -8.648  1.00  0.00     0.011 C 
HETATM   19  C23 UNL     1      -0.694  18.647  -9.478  1.00  0.00     0.012 C 
HETATM   20  C24 UNL     1      -1.485  20.942  -9.410  1.00  0.00     0.131 C 
HETATM   21  C26 UNL     1      -2.298  22.711  -7.977  1.00  0.00     0.019 C 
BRANCH  20  22
HETATM   22  O3  UNL     1      -2.821  20.559  -9.108  1.00  0.00    -0.394 OA
ATOM     23  H3  UNL     1      -3.312  20.930  -9.831  1.00  0.00     0.210 HD
ENDBRANCH  20  22
ENDBRANCH   7   9
ENDBRANCH   5   7
BRANCH   6  24
HETATM   24  O4  UNL     1      -5.126  24.101 -12.579  1.00  0.00    -0.356 OA
ATOM     25  H4  UNL     1      -5.932  23.772 -12.197  1.00  0.00     0.218 HD
ENDBRANCH   6  24
BRANCH   1  26
HETATM   26  C10 UNL     1      -5.496  27.155 -12.857  1.00  0.00     0.097 C 
BRANCH  26  27
HETATM   27  C9  UNL     1      -4.866  28.361 -13.521  1.00  0.00    -0.018 C 
HETATM   28  C7  UNL     1      -5.591  29.265 -14.121  1.00  0.00    -0.087 C 
HETATM   29  C8  UNL     1      -7.106  29.059 -14.135  1.00  0.00     0.043 C 
BRANCH  28  30
HETATM   30  C6  UNL     1      -5.062  30.458 -14.779  1.00  0.00     0.037 C 
BRANCH  30  31
HETATM   31  C5  UNL     1      -3.652  30.325 -15.253  1.00  0.00     0.031 C 
BRANCH  31  32
HETATM   32  C4  UNL     1      -3.504  29.744 -16.602  1.00  0.00    -0.024 C 
HETATM   33  C2  UNL     1      -2.711  28.685 -16.792  1.00  0.00    -0.091 C 
HETATM   34  C1  UNL     1      -1.995  28.117 -15.631  1.00  0.00     0.042 C 
HETATM   35  C3  UNL     1      -2.588  28.133 -18.159  1.00  0.00     0.042 C 
ENDBRANCH  31  32
ENDBRANCH  30  31
ENDBRANCH  28  30
ENDBRANCH  26  27
ENDBRANCH   1  26
TORSDOF 9
ENDMDL
MODEL 4
REMARK VINA RESULT: -9.263206404      3.460      6.096
REMARK  9 active torsions:
REMARK  status: ('A' for Active; 'I' for Inactive)
REMARK    1  A    between atoms: C4_4  and  C5_5 
REMARK    2  A    between atoms: C5_5  and  C6_6 
REMARK    3  A    between atoms: C6_6  and  C7_7 
REMARK    4  A    between atoms: C9_9  and  C10_10 
REMARK    5  A    between atoms: C10_10  and  C11_11 
REMARK    6  A    between atoms: C12_15  and  C13_16 
REMARK    7  A    between atoms: C13_16  and  C14_18 
REMARK    8  A    between atoms: C24_28  and  O3_29 
REMARK    9  A    between atoms: C27_33  and  O4_34 
ROOT
HETATM    1  C11 UNL     1      -4.429  26.381 -12.139  1.00  0.00     0.115 A 
HETATM    2  O1  UNL     1      -3.422  26.887 -11.486  1.00  0.00    -0.239 OA
HETATM    3  N1  UNL     1      -2.673  25.957 -10.986  1.00  0.00    -0.255 N 
ATOM      4  H1  UNL     1      -1.831  26.134 -10.437  1.00  0.00     0.195 HD
HETATM    5  C12 UNL     1      -3.141  24.725 -11.277  1.00  0.00     0.136 A 
HETATM    6  C27 UNL     1      -4.289  25.015 -12.031  1.00  0.00     0.130 A 
ENDROOT
BRANCH   5   7
HETATM    7  C13 UNL     1      -2.629  23.406 -10.903  1.00  0.00     0.185 C 
HETATM    8  O2  UNL     1      -3.313  22.442 -11.328  1.00  0.00    -0.290 OA
BRANCH   7   9
HETATM    9  C14 UNL     1      -1.430  23.346 -10.110  1.00  0.00     0.073 C 
HETATM   10  C15 UNL     1      -0.228  23.478 -11.009  1.00  0.00     0.013 C 
HETATM   11  C16 UNL     1       0.875  24.121 -10.216  1.00  0.00     0.002 C 
HETATM   12  C17 UNL     1       0.620  23.966  -8.737  1.00  0.00     0.010 C 
HETATM   13  C18 UNL     1       0.063  22.595  -8.377  1.00  0.00    -0.034 C 
HETATM   14  C19 UNL     1      -0.068  22.592  -6.859  1.00  0.00     0.016 C 
HETATM   15  C20 UNL     1       1.126  21.605  -8.724  1.00  0.00     0.010 C 
HETATM   16  C25 UNL     1      -1.277  22.320  -9.047  1.00  0.00     0.000 C 
HETATM   17  C21 UNL     1       0.701  20.240  -8.308  1.00  0.00     0.007 C 
HETATM   18  C22 UNL     1      -0.688  19.902  -8.631  1.00  0.00     0.011 C 
HETATM   19  C23 UNL     1      -0.690  18.612  -9.463  1.00  0.00     0.012 C 
HETATM   20  C24 UNL     1      -1.491  20.903  -9.401  1.00  0.00     0.131 C 
HETATM   21  C26 UNL     1      -2.330  22.666  -7.976  1.00  0.00     0.019 C 
BRANCH  20  22
HETATM   22  O3  UNL     1      -2.829  20.515  -9.117  1.00  0.00    -0.394 OA
ATOM     23  H3  UNL     1      -2.740  20.053  -8.292  1.00  0.00     0.210 HD
ENDBRANCH  20  22
ENDBRANCH   7   9
ENDBRANCH   5   7
BRANCH   6  24
HETATM   24  O4  UNL     1      -5.130  24.055 -12.570  1.00  0.00    -0.356 OA
ATOM     25  H4  UNL     1      -5.224  23.838 -13.491  1.00  0.00     0.218 HD
ENDBRANCH   6  24
BRANCH   1  26
HETATM   26  C10 UNL     1      -5.506  27.108 -12.851  1.00  0.00     0.097 C 
BRANCH  26  27
HETATM   27  C9  UNL     1      -4.869  28.272 -13.581  1.00  0.00    -0.018 C 
HETATM   28  C7  UNL     1      -5.591  29.202 -14.142  1.00  0.00    -0.087 C 
HETATM   29  C8  UNL     1      -7.111  29.073 -14.041  1.00  0.00     0.043 C 
BRANCH  28  30
HETATM   30  C6  UNL     1      -5.054  30.358 -14.859  1.00  0.00     0.037 C 
BRANCH  30  31
HETATM   31  C5  UNL     1      -6.093  31.307 -15.360  1.00  0.00     0.031 C 
BRANCH  31  32
HETATM   32  C4  UNL     1      -6.012  31.607 -16.804  1.00  0.00    -0.024 C 
HETATM   33  C2  UNL     1      -7.129  31.758 -17.519  1.00  0.00    -0.091 C 
HETATM   34  C1  UNL     1      -8.434  31.618 -16.837  1.00  0.00     0.042 C 
HETATM   35  C3  UNL     1      -7.007  32.057 -18.963  1.00  0.00     0.042 C 
ENDBRANCH  31  32
ENDBRANCH  30  31
ENDBRANCH  28  30
ENDBRANCH  26  27
ENDBRANCH   1  26
TORSDOF 9
ENDMDL
MODEL 5
REMARK VINA RESULT: -9.150257652      3.400      5.826
REMARK  9 active torsions:
REMARK  status: ('A' for Active; 'I' for Inactive)
REMARK    1  A    between atoms: C4_4  and  C5_5 
REMARK    2  A    between atoms: C5_5  and  C6_6 
REMARK    3  A    between atoms: C6_6  and  C7_7 
REMARK    4  A    between atoms: C9_9  and  C10_10 
REMARK    5  A    between atoms: C10_10  and  C11_11 
REMARK    6  A    between atoms: C12_15  and  C13_16 
REMARK    7  A    between atoms: C13_16  and  C14_18 
REMARK    8  A    between atoms: C24_28  and  O3_29 
REMARK    9  A    between atoms: C27_33  and  O4_34 
ROOT
HETATM    1  C11 UNL     1      -3.433  26.733 -12.046  1.00  0.00     0.115 A 
HETATM    2  O1  UNL     1      -4.495  26.320 -11.416  1.00  0.00    -0.239 OA
HETATM    3  N1  UNL     1      -4.332  25.120 -10.959  1.00  0.00    -0.255 N 
ATOM      4  H1  UNL     1      -5.040  24.607 -10.434  1.00  0.00     0.195 HD
HETATM    5  C12 UNL     1      -3.111  24.630 -11.261  1.00  0.00     0.136 A 
HETATM    6  C27 UNL     1      -2.533  25.693 -11.972  1.00  0.00     0.130 A 
ENDROOT
BRANCH   5   7
HETATM    7  C13 UNL     1      -2.516  23.326 -10.966  1.00  0.00     0.185 C 
HETATM    8  O2  UNL     1      -3.103  22.352 -11.499  1.00  0.00    -0.290 OA
BRANCH   7   9
HETATM    9  C14 UNL     1      -1.352  23.291 -10.121  1.00  0.00     0.073 C 
HETATM   10  C15 UNL     1      -0.113  23.406 -10.971  1.00  0.00     0.013 C 
HETATM   11  C16 UNL     1       0.953  24.074 -10.146  1.00  0.00     0.002 C 
HETATM   12  C17 UNL     1       0.634  23.953  -8.676  1.00  0.00     0.010 C 
HETATM   13  C18 UNL     1       0.068  22.589  -8.307  1.00  0.00    -0.034 C 
HETATM   14  C19 UNL     1      -0.129  22.622  -6.796  1.00  0.00     0.016 C 
HETATM   15  C20 UNL     1       1.148  21.596  -8.584  1.00  0.00     0.010 C 
HETATM   16  C25 UNL     1      -1.242  22.292  -9.027  1.00  0.00     0.000 C 
HETATM   17  C21 UNL     1       0.710  20.239  -8.153  1.00  0.00     0.007 C 
HETATM   18  C22 UNL     1      -0.663  19.888  -8.527  1.00  0.00     0.011 C 
HETATM   19  C23 UNL     1      -0.624  18.577  -9.328  1.00  0.00     0.012 C 
HETATM   20  C24 UNL     1      -1.435  20.866  -9.356  1.00  0.00     0.131 C 
HETATM   21  C26 UNL     1      -2.341  22.659  -8.012  1.00  0.00     0.019 C 
BRANCH  20  22
HETATM   22  O3  UNL     1      -2.782  20.478  -9.121  1.00  0.00    -0.394 OA
ATOM     23  H3  UNL     1      -2.897  20.675  -8.198  1.00  0.00     0.210 HD
ENDBRANCH  20  22
ENDBRANCH   7   9
ENDBRANCH   5   7
BRANCH   6  24
HETATM   24  O4  UNL     1      -1.253  25.671 -12.504  1.00  0.00    -0.356 OA
ATOM     25  H4  UNL     1      -0.850  26.347 -13.036  1.00  0.00     0.218 HD
ENDBRANCH   6  24
BRANCH   1  26
HETATM   26  C10 UNL     1      -3.222  28.042 -12.709  1.00  0.00     0.097 C 
BRANCH  26  27
HETATM   27  C9  UNL     1      -4.421  28.305 -13.596  1.00  0.00    -0.018 C 
HETATM   28  C7  UNL     1      -4.821  29.519 -13.860  1.00  0.00    -0.087 C 
HETATM   29  C8  UNL     1      -4.035  30.672 -13.234  1.00  0.00     0.043 C 
BRANCH  28  30
HETATM   30  C6  UNL     1      -5.962  29.856 -14.708  1.00  0.00     0.037 C 
BRANCH  30  31
HETATM   31  C5  UNL     1      -7.292  29.648 -14.061  1.00  0.00     0.031 C 
BRANCH  31  32
HETATM   32  C4  UNL     1      -8.380  29.277 -14.988  1.00  0.00    -0.024 C 
HETATM   33  C2  UNL     1      -9.307  30.177 -15.327  1.00  0.00    -0.091 C 
HETATM   34  C1  UNL     1      -9.215  31.538 -14.758  1.00  0.00     0.042 C 
HETATM   35  C3  UNL     1     -10.381  29.767 -16.257  1.00  0.00     0.042 C 
ENDBRANCH  31  32
ENDBRANCH  30  31
ENDBRANCH  28  30
ENDBRANCH  26  27
ENDBRANCH   1  26
TORSDOF 9
ENDMDL
