MODEL 1
REMARK VINA RESULT: -9.178178046      0.000      0.000
REMARK  9 active torsions:
REMARK  status: ('A' for Active; 'I' for Inactive)
REMARK    1  A    between atoms: C2_2  and  C3_4 
REMARK    2  A    between atoms: C3_4  and  C14_15 
REMARK    3  A    between atoms: C4_5  and  C5_6 
REMARK    4  A    between atoms: C6_7  and  C8_9 
REMARK    5  A    between atoms: C8_9  and  C9_10 
REMARK    6  A    between atoms: C9_10  and  C10_11 
REMARK    7  A    between atoms: C15_16  and  O2_17 
REMARK    8  A    between atoms: C16_19  and  O3_20 
REMARK    9  A    between atoms: N1_22  and  C17_23 
ROOT
HETATM    1  C14 UNL     1      -0.056  23.526 -10.186  1.00  0.00     0.038 A 
HETATM    2  C15 UNL     1       0.984  23.068  -9.406  1.00  0.00     0.130 A 
HETATM    3  C16 UNL     1       0.614  21.815  -8.949  1.00  0.00     0.180 A 
HETATM    4  N1  UNL     1      -0.632  21.514  -9.443  1.00  0.00    -0.295 N 
HETATM    5  C26 UNL     1      -1.033  22.569 -10.204  1.00  0.00     0.027 A 
HETATM    6  C27 UNL     1      -2.275  22.539 -10.968  1.00  0.00     0.069 C 
ENDROOT
BRANCH   1   7
HETATM    7  C3  UNL     1      -0.048  24.780 -10.997  1.00  0.00     0.024 C 
HETATM    8  C4  UNL     1      -0.881  25.725 -10.700  1.00  0.00     0.016 C 
BRANCH   7   9
HETATM    9  C2  UNL     1       0.802  24.865 -12.159  1.00  0.00     0.156 C 
HETATM   10  C1  UNL     1       0.473  24.863 -13.574  1.00  0.00     0.097 C 
HETATM   11  O1  UNL     1       2.077  24.960 -11.924  1.00  0.00    -0.293 OA
ENDBRANCH   7   9
BRANCH   8  12
HETATM   12  C5  UNL     1      -1.230  26.973 -11.282  1.00  0.00     0.003 C 
HETATM   13  C6  UNL     1      -2.367  27.084 -12.036  1.00  0.00    -0.084 C 
HETATM   14  C7  UNL     1      -3.205  25.872 -12.218  1.00  0.00     0.043 C 
BRANCH  13  15
HETATM   15  C8  UNL     1      -2.749  28.352 -12.644  1.00  0.00     0.037 C 
BRANCH  15  16
HETATM   16  C9  UNL     1      -3.476  28.194 -13.960  1.00  0.00     0.031 C 
BRANCH  16  17
HETATM   17  C10 UNL     1      -4.539  29.264 -14.018  1.00  0.00    -0.024 C 
HETATM   18  C11 UNL     1      -5.779  28.998 -13.660  1.00  0.00    -0.091 C 
HETATM   19  C12 UNL     1      -6.126  27.637 -13.196  1.00  0.00     0.042 C 
HETATM   20  C13 UNL     1      -6.816  30.041 -13.717  1.00  0.00     0.042 C 
ENDBRANCH  16  17
ENDBRANCH  15  16
ENDBRANCH  13  15
ENDBRANCH   8  12
ENDBRANCH   1   7
BRANCH   2  21
HETATM   21  O2  UNL     1       2.151  23.749  -9.145  1.00  0.00    -0.356 OA
ATOM     22  H2  UNL     1       3.000  23.562  -9.530  1.00  0.00     0.218 HD
ENDBRANCH   2  21
BRANCH   3  23
HETATM   23  O3  UNL     1       1.433  21.062  -8.132  1.00  0.00    -0.344 OA
ATOM     24  H3  UNL     1       1.243  20.931  -7.210  1.00  0.00     0.219 HD
ENDBRANCH   3  23
BRANCH   4  25
HETATM   25  C17 UNL     1      -1.242  20.287  -9.079  1.00  0.00     0.143 C 
HETATM   26  C18 UNL     1      -1.308  20.322  -7.532  1.00  0.00     0.066 C 
HETATM   27  C19 UNL     1      -1.726  19.027  -6.937  1.00  0.00    -0.007 C 
HETATM   28  C20 UNL     1      -3.124  18.696  -7.458  1.00  0.00     0.009 C 
HETATM   29  C24 UNL     1      -0.746  17.963  -7.360  1.00  0.00     0.037 C 
HETATM   30  C21 UNL     1      -2.992  18.598  -8.946  1.00  0.00    -0.007 C 
HETATM   31  C22 UNL     1      -1.991  17.591  -9.413  1.00  0.00     0.037 C 
HETATM   32  C25 UNL     1      -2.586  19.963  -9.546  1.00  0.00     0.066 C 
HETATM   33  C23 UNL     1      -0.646  18.037  -8.861  1.00  0.00     0.125 C 
HETATM   34  O4  UNL     1      -0.314  19.261  -9.355  1.00  0.00    -0.355 OA
ENDBRANCH   4  25
TORSDOF 9
ENDMDL
MODEL 2
REMARK VINA RESULT: -9.129498009      1.906      3.107
REMARK  9 active torsions:
REMARK  status: ('A' for Active; 'I' for Inactive)
REMARK    1  A    between atoms: C2_2  and  C3_4 
REMARK    2  A    between atoms: C3_4  and  C14_15 
REMARK    3  A    between atoms: C4_5  and  C5_6 
REMARK    4  A    between atoms: C6_7  and  C8_9 
REMARK    5  A    between atoms: C8_9  and  C9_10 
REMARK    6  A    between atoms: C9_10  and  C10_11 
REMARK    7  A    between atoms: C15_16  and  O2_17 
REMARK    8  A    between atoms: C16_19  and  O3_20 
REMARK    9  A    between atoms: N1_22  and  C17_23 
ROOT
HETATM    1  C14 UNL     1      -2.478  22.714 -10.312  1.00  0.00     0.038 A 
HETATM    2  C15 UNL     1      -3.476  21.933 -10.853  1.00  0.00     0.130 A 
HETATM    3  C16 UNL     1      -3.448  20.728 -10.173  1.00  0.00     0.180 A 
HETATM    4  N1  UNL     1      -2.448  20.775  -9.232  1.00  0.00    -0.295 N 
HETATM    5  C26 UNL     1      -1.860  22.000  -9.323  1.00  0.00     0.027 A 
HETATM    6  C27 UNL     1      -0.822  22.426  -8.392  1.00  0.00     0.069 C 
ENDROOT
BRANCH   1   7
HETATM    7  C3  UNL     1      -2.220  24.148 -10.643  1.00  0.00     0.024 C 
HETATM    8  C4  UNL     1      -3.218  24.908 -10.962  1.00  0.00     0.016 C 
BRANCH   7   9
HETATM    9  C2  UNL     1      -0.860  24.624 -10.712  1.00  0.00     0.156 C 
HETATM   10  C1  UNL     1      -0.154  25.594  -9.893  1.00  0.00     0.097 C 
HETATM   11  O1  UNL     1      -0.128  24.112 -11.656  1.00  0.00    -0.293 OA
ENDBRANCH   7   9
BRANCH   8  12
HETATM   12  C5  UNL     1      -3.353  26.246 -11.421  1.00  0.00     0.003 C 
HETATM   13  C6  UNL     1      -4.310  26.558 -12.349  1.00  0.00    -0.084 C 
HETATM   14  C7  UNL     1      -5.184  25.466 -12.845  1.00  0.00     0.043 C 
BRANCH  13  15
HETATM   15  C8  UNL     1      -4.470  27.921 -12.838  1.00  0.00     0.037 C 
BRANCH  15  16
HETATM   16  C9  UNL     1      -5.883  28.246 -13.263  1.00  0.00     0.031 C 
BRANCH  16  17
HETATM   17  C10 UNL     1      -5.823  29.496 -14.107  1.00  0.00    -0.024 C 
HETATM   18  C11 UNL     1      -6.877  29.898 -14.788  1.00  0.00    -0.091 C 
HETATM   19  C12 UNL     1      -8.129  29.113 -14.719  1.00  0.00     0.042 C 
HETATM   20  C13 UNL     1      -6.819  31.116 -15.611  1.00  0.00     0.042 C 
ENDBRANCH  16  17
ENDBRANCH  15  16
ENDBRANCH  13  15
ENDBRANCH   8  12
ENDBRANCH   1   7
BRANCH   2  21
HETATM   21  O2  UNL     1      -4.320  22.304 -11.875  1.00  0.00    -0.356 OA
ATOM     22  H2  UNL     1      -4.132  22.232 -12.803  1.00  0.00     0.218 HD
ENDBRANCH   2  21
BRANCH   3  23
HETATM   23  O3  UNL     1      -4.325  19.703 -10.463  1.00  0.00    -0.344 OA
ATOM     24  H3  UNL     1      -4.166  19.088 -11.169  1.00  0.00     0.219 HD
ENDBRANCH   3  23
BRANCH   4  25
HETATM   25  C17 UNL     1      -2.201  19.632  -8.429  1.00  0.00     0.143 C 
HETATM   26  C18 UNL     1      -1.480  18.635  -9.370  1.00  0.00     0.066 C 
HETATM   27  C19 UNL     1      -1.320  17.284  -8.775  1.00  0.00    -0.007 C 
HETATM   28  C20 UNL     1      -0.480  17.422  -7.507  1.00  0.00     0.009 C 
HETATM   29  C24 UNL     1      -2.685  16.740  -8.440  1.00  0.00     0.037 C 
HETATM   30  C21 UNL     1      -1.252  18.330  -6.602  1.00  0.00    -0.007 C 
HETATM   31  C22 UNL     1      -2.634  17.858  -6.283  1.00  0.00     0.037 C 
HETATM   32  C25 UNL     1      -1.380  19.739  -7.226  1.00  0.00     0.066 C 
HETATM   33  C23 UNL     1      -3.378  17.787  -7.608  1.00  0.00     0.125 C 
HETATM   34  O4  UNL     1      -3.447  19.020  -8.178  1.00  0.00    -0.355 OA
ENDBRANCH   4  25
TORSDOF 9
ENDMDL
MODEL 3
REMARK VINA RESULT: -8.996870893      2.805      5.267
REMARK  9 active torsions:
REMARK  status: ('A' for Active; 'I' for Inactive)
REMARK    1  A    between atoms: C2_2  and  C3_4 
REMARK    2  A    between atoms: C3_4  and  C14_15 
REMARK    3  A    between atoms: C4_5  and  C5_6 
REMARK    4  A    between atoms: C6_7  and  C8_9 
REMARK    5  A    between atoms: C8_9  and  C9_10 
REMARK    6  A    between atoms: C9_10  and  C10_11 
REMARK    7  A    between atoms: C15_16  and  O2_17 
REMARK    8  A    between atoms: C16_19  and  O3_20 
REMARK    9  A    between atoms: N1_22  and  C17_23 
ROOT
HETATM    1  C14 UNL     1      -1.158  23.632 -10.097  1.00  0.00     0.038 A 
HETATM    2  C15 UNL     1      -0.869  23.289  -8.794  1.00  0.00     0.130 A 
HETATM    3  C16 UNL     1       0.493  23.469  -8.630  1.00  0.00     0.180 A 
HETATM    4  N1  UNL     1       1.026  23.917  -9.815  1.00  0.00    -0.295 N 
HETATM    5  C26 UNL     1       0.003  24.017 -10.709  1.00  0.00     0.027 A 
HETATM    6  C27 UNL     1       0.200  24.565 -12.045  1.00  0.00     0.069 C 
ENDROOT
BRANCH   1   7
HETATM    7  C3  UNL     1      -2.526  23.720 -10.691  1.00  0.00     0.024 C 
HETATM    8  C4  UNL     1      -3.016  24.885 -10.968  1.00  0.00     0.016 C 
BRANCH   7   9
HETATM    9  C2  UNL     1      -3.313  22.520 -10.832  1.00  0.00     0.156 C 
HETATM   10  C1  UNL     1      -4.657  22.325 -11.352  1.00  0.00     0.097 C 
HETATM   11  O1  UNL     1      -2.746  21.419 -10.438  1.00  0.00    -0.293 OA
ENDBRANCH   7   9
BRANCH   8  12
HETATM   12  C5  UNL     1      -4.274  25.360 -11.427  1.00  0.00     0.003 C 
HETATM   13  C6  UNL     1      -4.335  26.444 -12.261  1.00  0.00    -0.084 C 
HETATM   14  C7  UNL     1      -3.059  27.091 -12.659  1.00  0.00     0.043 C 
BRANCH  13  15
HETATM   15  C8  UNL     1      -5.611  26.952 -12.747  1.00  0.00     0.037 C 
BRANCH  15  16
HETATM   16  C9  UNL     1      -5.504  28.297 -13.427  1.00  0.00     0.031 C 
BRANCH  16  17
HETATM   17  C10 UNL     1      -6.889  28.679 -13.890  1.00  0.00    -0.024 C 
HETATM   18  C11 UNL     1      -7.076  29.746 -14.639  1.00  0.00    -0.091 C 
HETATM   19  C12 UNL     1      -5.913  30.574 -15.029  1.00  0.00     0.042 C 
HETATM   20  C13 UNL     1      -8.426  30.119 -15.090  1.00  0.00     0.042 C 
ENDBRANCH  16  17
ENDBRANCH  15  16
ENDBRANCH  13  15
ENDBRANCH   8  12
ENDBRANCH   1   7
BRANCH   2  21
HETATM   21  O2  UNL     1      -1.779  22.850  -7.860  1.00  0.00    -0.356 OA
ATOM     22  H2  UNL     1      -1.883  23.196  -6.981  1.00  0.00     0.218 HD
ENDBRANCH   2  21
BRANCH   3  23
HETATM   23  O3  UNL     1       1.126  23.216  -7.430  1.00  0.00    -0.344 OA
ATOM     24  H3  UNL     1       0.651  23.165  -6.610  1.00  0.00     0.219 HD
ENDBRANCH   3  23
BRANCH   4  25
HETATM   25  C17 UNL     1       2.423  24.141  -9.903  1.00  0.00     0.143 C 
HETATM   26  C18 UNL     1       3.048  22.725  -9.968  1.00  0.00     0.066 C 
HETATM   27  C19 UNL     1       4.528  22.734  -9.852  1.00  0.00    -0.007 C 
HETATM   28  C20 UNL     1       5.089  23.547 -11.018  1.00  0.00     0.009 C 
HETATM   29  C24 UNL     1       4.905  23.375  -8.541  1.00  0.00     0.037 C 
HETATM   30  C21 UNL     1       4.519  24.923 -10.868  1.00  0.00    -0.007 C 
HETATM   31  C22 UNL     1       4.821  25.579  -9.560  1.00  0.00     0.037 C 
HETATM   32  C25 UNL     1       2.981  24.894 -11.023  1.00  0.00     0.066 C 
HETATM   33  C23 UNL     1       4.195  24.702  -8.486  1.00  0.00     0.125 C 
HETATM   34  O4  UNL     1       2.846  24.640  -8.654  1.00  0.00    -0.355 OA
ENDBRANCH   4  25
TORSDOF 9
ENDMDL
MODEL 4
REMARK VINA RESULT: -8.977257934      2.790      4.736
REMARK  9 active torsions:
REMARK  status: ('A' for Active; 'I' for Inactive)
REMARK    1  A    between atoms: C2_2  and  C3_4 
REMARK    2  A    between atoms: C3_4  and  C14_15 
REMARK    3  A    between atoms: C4_5  and  C5_6 
REMARK    4  A    between atoms: C6_7  and  C8_9 
REMARK    5  A    between atoms: C8_9  and  C9_10 
REMARK    6  A    between atoms: C9_10  and  C10_11 
REMARK    7  A    between atoms: C15_16  and  O2_17 
REMARK    8  A    between atoms: C16_19  and  O3_20 
REMARK    9  A    between atoms: N1_22  and  C17_23 
ROOT
HETATM    1  C14 UNL     1      -2.874  26.159 -12.197  1.00  0.00     0.038 A 
HETATM    2  C15 UNL     1      -3.953  25.304 -12.128  1.00  0.00     0.130 A 
HETATM    3  C16 UNL     1      -3.619  24.317 -11.217  1.00  0.00     0.180 A 
HETATM    4  N1  UNL     1      -2.355  24.567 -10.738  1.00  0.00    -0.295 N 
HETATM    5  C26 UNL     1      -1.908  25.702 -11.343  1.00  0.00     0.027 A 
HETATM    6  C27 UNL     1      -0.634  26.314 -10.985  1.00  0.00     0.069 C 
ENDROOT
BRANCH   1   7
HETATM    7  C3  UNL     1      -2.831  27.446 -12.953  1.00  0.00     0.024 C 
HETATM    8  C4  UNL     1      -3.897  28.178 -13.007  1.00  0.00     0.016 C 
BRANCH   7   9
HETATM    9  C2  UNL     1      -1.645  27.788 -13.700  1.00  0.00     0.156 C 
HETATM   10  C1  UNL     1      -1.100  27.218 -14.921  1.00  0.00     0.097 C 
HETATM   11  O1  UNL     1      -0.934  28.764 -13.222  1.00  0.00    -0.293 OA
ENDBRANCH   7   9
BRANCH   8  12
HETATM   12  C5  UNL     1      -4.261  29.371 -13.689  1.00  0.00     0.003 C 
HETATM   13  C6  UNL     1      -5.568  29.594 -14.030  1.00  0.00    -0.084 C 
HETATM   14  C7  UNL     1      -6.570  28.561 -13.666  1.00  0.00     0.043 C 
BRANCH  13  15
HETATM   15  C8  UNL     1      -5.969  30.807 -14.729  1.00  0.00     0.037 C 
BRANCH  15  16
HETATM   16  C9  UNL     1      -6.921  30.555 -15.874  1.00  0.00     0.031 C 
BRANCH  16  17
HETATM   17  C10 UNL     1      -8.118  31.454 -15.671  1.00  0.00    -0.024 C 
HETATM   18  C11 UNL     1      -9.333  30.949 -15.609  1.00  0.00    -0.091 C 
HETATM   19  C12 UNL     1      -9.521  29.487 -15.740  1.00  0.00     0.042 C 
HETATM   20  C13 UNL     1     -10.499  31.824 -15.411  1.00  0.00     0.042 C 
ENDBRANCH  16  17
ENDBRANCH  15  16
ENDBRANCH  13  15
ENDBRANCH   8  12
ENDBRANCH   1   7
BRANCH   2  21
HETATM   21  O2  UNL     1      -5.123  25.430 -12.841  1.00  0.00    -0.356 OA
ATOM     22  H2  UNL     1      -5.927  25.823 -12.523  1.00  0.00     0.218 HD
ENDBRANCH   2  21
BRANCH   3  23
HETATM   23  O3  UNL     1      -4.482  23.287 -10.903  1.00  0.00    -0.344 OA
ATOM     24  H3  UNL     1      -4.268  22.632 -10.250  1.00  0.00     0.219 HD
ENDBRANCH   3  23
BRANCH   4  25
HETATM   25  C17 UNL     1      -1.777  23.663  -9.811  1.00  0.00     0.143 C 
HETATM   26  C18 UNL     1      -1.681  22.320 -10.575  1.00  0.00     0.066 C 
HETATM   27  C19 UNL     1      -1.292  21.181  -9.705  1.00  0.00    -0.007 C 
HETATM   28  C20 UNL     1       0.085  21.484  -9.117  1.00  0.00     0.009 C 
HETATM   29  C24 UNL     1      -2.312  21.045  -8.603  1.00  0.00     0.037 C 
HETATM   30  C21 UNL     1      -0.076  22.745  -8.328  1.00  0.00    -0.007 C 
HETATM   31  C22 UNL     1      -1.116  22.676  -7.256  1.00  0.00     0.037 C 
HETATM   32  C25 UNL     1      -0.451  23.923  -9.257  1.00  0.00     0.066 C 
HETATM   33  C23 UNL     1      -2.436  22.401  -7.958  1.00  0.00     0.125 C 
HETATM   34  O4  UNL     1      -2.740  23.417  -8.811  1.00  0.00    -0.355 OA
ENDBRANCH   4  25
TORSDOF 9
ENDMDL
MODEL 5
REMARK VINA RESULT: -8.975245343      1.260      1.645
REMARK  9 active torsions:
REMARK  status: ('A' for Active; 'I' for Inactive)
REMARK    1  A    between atoms: C2_2  and  C3_4 
REMARK    2  A    between atoms: C3_4  and  C14_15 
REMARK    3  A    between atoms: C4_5  and  C5_6 
REMARK    4  A    between atoms: C6_7  and  C8_9 
REMARK    5  A    between atoms: C8_9  and  C9_10 
REMARK    6  A    between atoms: C9_10  and  C10_11 
REMARK    7  A    between atoms: C15_16  and  O2_17 
REMARK    8  A    between atoms: C16_19  and  O3_20 
REMARK    9  A    between atoms: N1_22  and  C17_23 
ROOT
HETATM    1  C14 UNL     1      -1.182  23.936 -10.534  1.00  0.00     0.038 A 
HETATM    2  C15 UNL     1       0.035  23.768  -9.908  1.00  0.00     0.130 A 
HETATM    3  C16 UNL     1       0.041  22.482  -9.395  1.00  0.00     0.180 A 
HETATM    4  N1  UNL     1      -1.153  21.877  -9.704  1.00  0.00    -0.295 N 
HETATM    5  C26 UNL     1      -1.895  22.776 -10.407  1.00  0.00     0.027 A 
HETATM    6  C27 UNL     1      -3.186  22.424 -10.985  1.00  0.00     0.069 C 
ENDROOT
BRANCH   1   7
HETATM    7  C3  UNL     1      -1.585  25.124 -11.345  1.00  0.00     0.024 C 
HETATM    8  C4  UNL     1      -2.697  25.724 -11.069  1.00  0.00     0.016 C 
BRANCH   7   9
HETATM    9  C2  UNL     1      -0.790  25.502 -12.487  1.00  0.00     0.156 C 
HETATM   10  C1  UNL     1      -0.783  26.726 -13.272  1.00  0.00     0.097 C 
HETATM   11  O1  UNL     1       0.070  24.619 -12.899  1.00  0.00    -0.293 OA
ENDBRANCH   7   9
BRANCH   8  12
HETATM   12  C5  UNL     1      -3.439  26.783 -11.659  1.00  0.00     0.003 C 
HETATM   13  C6  UNL     1      -4.570  26.508 -12.380  1.00  0.00    -0.084 C 
HETATM   14  C7  UNL     1      -4.983  25.088 -12.517  1.00  0.00     0.043 C 
BRANCH  13  15
HETATM   15  C8  UNL     1      -5.350  27.573 -12.996  1.00  0.00     0.037 C 
BRANCH  15  16
HETATM   16  C9  UNL     1      -4.502  28.634 -13.658  1.00  0.00     0.031 C 
BRANCH  16  17
HETATM   17  C10 UNL     1      -5.440  29.677 -14.216  1.00  0.00    -0.024 C 
HETATM   18  C11 UNL     1      -5.156  30.303 -15.340  1.00  0.00    -0.091 C 
HETATM   19  C12 UNL     1      -3.905  29.975 -16.059  1.00  0.00     0.042 C 
HETATM   20  C13 UNL     1      -6.070  31.320 -15.884  1.00  0.00     0.042 C 
ENDBRANCH  16  17
ENDBRANCH  15  16
ENDBRANCH  13  15
ENDBRANCH   8  12
ENDBRANCH   1   7
BRANCH   2  21
HETATM   21  O2  UNL     1       1.030  24.714  -9.821  1.00  0.00    -0.356 OA
ATOM     22  H2  UNL     1       1.938  24.588 -10.070  1.00  0.00     0.218 HD
ENDBRANCH   2  21
BRANCH   3  23
HETATM   23  O3  UNL     1       1.120  21.977  -8.699  1.00  0.00    -0.344 OA
ATOM     24  H3  UNL     1       1.273  22.185  -7.785  1.00  0.00     0.219 HD
ENDBRANCH   3  23
BRANCH   4  25
HETATM   25  C17 UNL     1      -1.396  20.556  -9.249  1.00  0.00     0.143 C 
HETATM   26  C18 UNL     1      -1.426  20.668  -7.705  1.00  0.00     0.066 C 
HETATM   27  C19 UNL     1      -1.459  19.349  -7.024  1.00  0.00    -0.007 C 
HETATM   28  C20 UNL     1      -2.728  18.621  -7.465  1.00  0.00     0.009 C 
HETATM   29  C24 UNL     1      -0.239  18.564  -7.434  1.00  0.00     0.037 C 
HETATM   30  C21 UNL     1      -2.617  18.469  -8.950  1.00  0.00    -0.007 C 
HETATM   31  C22 UNL     1      -1.394  17.743  -9.408  1.00  0.00     0.037 C 
HETATM   32  C25 UNL     1      -2.615  19.853  -9.639  1.00  0.00     0.066 C 
HETATM   33  C23 UNL     1      -0.205  18.568  -8.940  1.00  0.00     0.125 C 
HETATM   34  O4  UNL     1      -0.232  19.803  -9.511  1.00  0.00    -0.355 OA
ENDBRANCH   4  25
TORSDOF 9
ENDMDL
