MODEL 1
REMARK VINA RESULT: -8.872467002      0.000      0.000
REMARK  10 active torsions:
REMARK  status: ('A' for Active; 'I' for Inactive)
REMARK    1  A    between atoms: C6_6  and  C8_8 
REMARK    2  A    between atoms: C8_8  and  O1_9 
REMARK    3  A    between atoms: C14_16  and  C15_17 
REMARK    4  A    between atoms: C15_17  and  C16_18 
REMARK    5  A    between atoms: C16_18  and  C17_19 
REMARK    6  A    between atoms: C17_19  and  C19_21 
REMARK    7  A    between atoms: C20_23  and  O3_24 
REMARK    8  A    between atoms: C21_26  and  C22_27 
REMARK    9  A    between atoms: C22_27  and  C23_28 
REMARK   10  A    between atoms: C27_33  and  O4_34 
ROOT
HETATM    1  C23 UNL     1      -1.480  21.466  -7.862  1.00  0.00    -0.004 C 
HETATM    2  C24 UNL     1      -1.660  20.213  -8.129  1.00  0.00     0.015 C 
HETATM    3  C25 UNL     1      -0.723  19.216  -7.500  1.00  0.00     0.060 C 
HETATM    4  C26 UNL     1      -2.683  19.712  -8.982  1.00  0.00     0.094 C 
HETATM    5  N1  UNL     1      -3.543  19.288  -9.671  1.00  0.00    -0.192 NA
ENDROOT
BRANCH   1   6
HETATM    6  C22 UNL     1      -2.208  22.653  -8.315  1.00  0.00     0.075 C 
BRANCH   6   7
HETATM    7  C21 UNL     1      -1.869  23.108  -9.686  1.00  0.00     0.039 A 
HETATM    8  C20 UNL     1      -2.446  22.896 -10.902  1.00  0.00     0.193 A 
HETATM    9  O2  UNL     1      -1.811  23.579 -11.819  1.00  0.00    -0.289 OA
HETATM   10  C19 UNL     1      -0.812  24.262 -11.267  1.00  0.00     0.093 A 
HETATM   11  C27 UNL     1      -0.800  24.001  -9.938  1.00  0.00     0.109 A 
BRANCH   8  12
HETATM   12  O3  UNL     1      -3.555  22.061 -11.125  1.00  0.00    -0.340 OA
ATOM     13  H3  UNL     1      -3.704  21.219 -10.712  1.00  0.00     0.220 HD
ENDBRANCH   8  12
BRANCH  10  14
HETATM   14  C17 UNL     1       0.077  25.157 -12.008  1.00  0.00     0.042 C 
HETATM   15  C18 UNL     1       1.433  24.662 -12.312  1.00  0.00     0.017 C 
BRANCH  14  16
HETATM   16  C16 UNL     1      -0.658  25.792 -13.182  1.00  0.00     0.015 C 
BRANCH  16  17
HETATM   17  C15 UNL     1      -1.390  27.062 -12.768  1.00  0.00     0.036 C 
BRANCH  17  18
HETATM   18  C14 UNL     1      -2.812  27.029 -13.182  1.00  0.00    -0.066 C 
HETATM   19  C2  UNL     1      -3.728  26.569 -12.172  1.00  0.00    -0.064 C 
HETATM   20  C1  UNL     1      -3.619  26.426 -10.885  1.00  0.00     0.019 C 
HETATM   21  C3  UNL     1      -5.092  26.195 -12.773  1.00  0.00     0.038 C 
HETATM   22  C4  UNL     1      -5.583  27.568 -13.174  1.00  0.00     0.011 C 
HETATM   23  C5  UNL     1      -4.758  28.263 -14.211  1.00  0.00     0.008 C 
HETATM   24  C6  UNL     1      -5.300  29.650 -14.355  1.00  0.00    -0.018 C 
HETATM   25  C12 UNL     1      -3.270  28.186 -14.047  1.00  0.00    -0.016 C 
HETATM   26  C7  UNL     1      -6.803  29.621 -13.986  1.00  0.00     0.018 C 
HETATM   27  C9  UNL     1      -4.709  30.696 -13.487  1.00  0.00     0.012 C 
HETATM   28  C10 UNL     1      -3.483  30.296 -12.718  1.00  0.00     0.002 C 
HETATM   29  C11 UNL     1      -2.631  29.497 -13.660  1.00  0.00     0.014 C 
HETATM   30  C13 UNL     1      -2.692  27.885 -15.449  1.00  0.00     0.020 C 
BRANCH  24  31
HETATM   31  C8  UNL     1      -5.380  30.117 -15.816  1.00  0.00     0.173 C 
BRANCH  31  32
HETATM   32  O1  UNL     1      -6.605  30.666 -16.126  1.00  0.00    -0.400 OA
ATOM     33  H1  UNL     1      -6.605  31.613 -16.057  1.00  0.00     0.209 HD
ENDBRANCH  31  32
ENDBRANCH  24  31
ENDBRANCH  17  18
ENDBRANCH  16  17
ENDBRANCH  14  16
ENDBRANCH  10  14
BRANCH  11  34
HETATM   34  O4  UNL     1       0.024  24.421  -8.882  1.00  0.00    -0.353 OA
HETATM   35  C28 UNL     1       1.318  23.849  -8.699  1.00  0.00     0.210 C 
ENDBRANCH  11  34
ENDBRANCH   6   7
ENDBRANCH   1   6
TORSDOF 10
ENDMDL
MODEL 2
REMARK VINA RESULT: -8.111431778      2.578      4.481
REMARK  10 active torsions:
REMARK  status: ('A' for Active; 'I' for Inactive)
REMARK    1  A    between atoms: C6_6  and  C8_8 
REMARK    2  A    between atoms: C8_8  and  O1_9 
REMARK    3  A    between atoms: C14_16  and  C15_17 
REMARK    4  A    between atoms: C15_17  and  C16_18 
REMARK    5  A    between atoms: C16_18  and  C17_19 
REMARK    6  A    between atoms: C17_19  and  C19_21 
REMARK    7  A    between atoms: C20_23  and  O3_24 
REMARK    8  A    between atoms: C21_26  and  C22_27 
REMARK    9  A    between atoms: C22_27  and  C23_28 
REMARK   10  A    between atoms: C27_33  and  O4_34 
ROOT
HETATM    1  C23 UNL     1      -3.755  24.124 -11.052  1.00  0.00    -0.004 C 
HETATM    2  C24 UNL     1      -3.241  22.950 -10.873  1.00  0.00     0.015 C 
HETATM    3  C25 UNL     1      -4.150  21.756 -11.004  1.00  0.00     0.060 C 
HETATM    4  C26 UNL     1      -1.875  22.710 -10.557  1.00  0.00     0.094 C 
HETATM    5  N1  UNL     1      -0.738  22.503 -10.317  1.00  0.00    -0.192 NA
ENDROOT
BRANCH   1   6
HETATM    6  C22 UNL     1      -3.144  25.453 -10.989  1.00  0.00     0.075 C 
BRANCH   6   7
HETATM    7  C21 UNL     1      -3.168  26.212 -12.264  1.00  0.00     0.039 A 
HETATM    8  C20 UNL     1      -4.178  26.613 -13.085  1.00  0.00     0.193 A 
HETATM    9  O2  UNL     1      -3.696  27.329 -14.066  1.00  0.00    -0.289 OA
HETATM   10  C19 UNL     1      -2.376  27.438 -13.943  1.00  0.00     0.093 A 
HETATM   11  C27 UNL     1      -1.993  26.756 -12.837  1.00  0.00     0.109 A 
BRANCH   8  12
HETATM   12  O3  UNL     1      -5.535  26.293 -12.897  1.00  0.00    -0.340 OA
ATOM     13  H3  UNL     1      -5.972  26.215 -12.058  1.00  0.00     0.220 HD
ENDBRANCH   8  12
BRANCH  10  14
HETATM   14  C17 UNL     1      -1.527  28.205 -14.856  1.00  0.00     0.042 C 
HETATM   15  C18 UNL     1      -0.227  27.613 -15.225  1.00  0.00     0.017 C 
BRANCH  14  16
HETATM   16  C16 UNL     1      -2.345  28.748 -16.020  1.00  0.00     0.015 C 
BRANCH  16  17
HETATM   17  C15 UNL     1      -2.825  30.170 -15.757  1.00  0.00     0.036 C 
BRANCH  17  18
HETATM   18  C14 UNL     1      -4.301  30.271 -15.851  1.00  0.00    -0.066 C 
HETATM   19  C2  UNL     1      -4.992  30.256 -14.589  1.00  0.00    -0.064 C 
HETATM   20  C1  UNL     1      -4.595  30.442 -13.366  1.00  0.00     0.019 C 
HETATM   21  C3  UNL     1      -6.492  29.974 -14.770  1.00  0.00     0.038 C 
HETATM   22  C4  UNL     1      -6.916  31.256 -15.452  1.00  0.00     0.011 C 
HETATM   23  C5  UNL     1      -6.293  31.502 -16.790  1.00  0.00     0.008 C 
HETATM   24  C6  UNL     1      -6.702  32.873 -17.226  1.00  0.00    -0.018 C 
HETATM   25  C12 UNL     1      -4.826  31.219 -16.910  1.00  0.00    -0.016 C 
HETATM   26  C7  UNL     1      -8.068  33.198 -16.574  1.00  0.00     0.018 C 
HETATM   27  C9  UNL     1      -5.814  33.995 -16.841  1.00  0.00     0.012 C 
HETATM   28  C10 UNL     1      -4.489  33.609 -16.249  1.00  0.00     0.002 C 
HETATM   29  C11 UNL     1      -3.977  32.457 -17.062  1.00  0.00     0.014 C 
HETATM   30  C13 UNL     1      -4.635  30.466 -18.246  1.00  0.00     0.020 C 
BRANCH  24  31
HETATM   31  C8  UNL     1      -7.080  32.945 -18.714  1.00  0.00     0.173 C 
BRANCH  31  32
HETATM   32  O1  UNL     1      -8.140  32.125 -19.027  1.00  0.00    -0.400 OA
ATOM     33  H1  UNL     1      -8.323  32.109 -19.959  1.00  0.00     0.209 HD
ENDBRANCH  31  32
ENDBRANCH  24  31
ENDBRANCH  17  18
ENDBRANCH  16  17
ENDBRANCH  14  16
ENDBRANCH  10  14
BRANCH  11  34
HETATM   34  O4  UNL     1      -0.747  26.517 -12.236  1.00  0.00    -0.353 OA
HETATM   35  C28 UNL     1      -0.017  25.326 -12.527  1.00  0.00     0.210 C 
ENDBRANCH  11  34
ENDBRANCH   6   7
ENDBRANCH   1   6
TORSDOF 10
ENDMDL
MODEL 3
REMARK VINA RESULT: -7.928686047      2.125      4.017
REMARK  10 active torsions:
REMARK  status: ('A' for Active; 'I' for Inactive)
REMARK    1  A    between atoms: C6_6  and  C8_8 
REMARK    2  A    between atoms: C8_8  and  O1_9 
REMARK    3  A    between atoms: C14_16  and  C15_17 
REMARK    4  A    between atoms: C15_17  and  C16_18 
REMARK    5  A    between atoms: C16_18  and  C17_19 
REMARK    6  A    between atoms: C17_19  and  C19_21 
REMARK    7  A    between atoms: C20_23  and  O3_24 
REMARK    8  A    between atoms: C21_26  and  C22_27 
REMARK    9  A    between atoms: C22_27  and  C23_28 
REMARK   10  A    between atoms: C27_33  and  O4_34 
ROOT
HETATM    1  C23 UNL     1      -2.320  23.471  -9.469  1.00  0.00    -0.004 C 
HETATM    2  C24 UNL     1      -2.173  22.273  -9.005  1.00  0.00     0.015 C 
HETATM    3  C25 UNL     1      -1.403  22.102  -7.721  1.00  0.00     0.060 C 
HETATM    4  C26 UNL     1      -2.686  21.101  -9.629  1.00  0.00     0.094 C 
HETATM    5  N1  UNL     1      -3.128  20.128 -10.129  1.00  0.00    -0.192 NA
ENDROOT
BRANCH   1   6
HETATM    6  C22 UNL     1      -3.000  23.953 -10.672  1.00  0.00     0.075 C 
BRANCH   6   7
HETATM    7  C21 UNL     1      -2.250  24.970 -11.449  1.00  0.00     0.039 A 
HETATM    8  C20 UNL     1      -1.031  24.960 -12.056  1.00  0.00     0.193 A 
HETATM    9  O2  UNL     1      -0.839  26.090 -12.685  1.00  0.00    -0.289 OA
HETATM   10  C19 UNL     1      -1.897  26.881 -12.533  1.00  0.00     0.093 A 
HETATM   11  C27 UNL     1      -2.807  26.233 -11.766  1.00  0.00     0.109 A 
BRANCH   8  12
HETATM   12  O3  UNL     1      -0.121  23.889 -12.002  1.00  0.00    -0.340 OA
ATOM     13  H3  UNL     1      -0.144  23.118 -12.555  1.00  0.00     0.220 HD
ENDBRANCH   8  12
BRANCH  10  14
HETATM   14  C17 UNL     1      -2.024  28.207 -13.139  1.00  0.00     0.042 C 
HETATM   15  C18 UNL     1      -0.864  28.717 -13.894  1.00  0.00     0.017 C 
BRANCH  14  16
HETATM   16  C16 UNL     1      -3.367  28.348 -13.843  1.00  0.00     0.015 C 
BRANCH  16  17
HETATM   17  C15 UNL     1      -3.777  29.808 -13.987  1.00  0.00     0.036 C 
BRANCH  17  18
HETATM   18  C14 UNL     1      -4.902  29.966 -14.938  1.00  0.00    -0.066 C 
HETATM   19  C2  UNL     1      -6.201  30.080 -14.329  1.00  0.00    -0.064 C 
HETATM   20  C1  UNL     1      -6.583  30.344 -13.116  1.00  0.00     0.019 C 
HETATM   21  C3  UNL     1      -7.326  29.850 -15.350  1.00  0.00     0.038 C 
HETATM   22  C4  UNL     1      -7.163  31.091 -16.199  1.00  0.00     0.011 C 
HETATM   23  C5  UNL     1      -5.856  31.203 -16.919  1.00  0.00     0.008 C 
HETATM   24  C6  UNL     1      -5.819  32.552 -17.565  1.00  0.00    -0.018 C 
HETATM   25  C12 UNL     1      -4.627  30.849 -16.138  1.00  0.00    -0.016 C 
HETATM   26  C7  UNL     1      -7.276  32.986 -17.859  1.00  0.00     0.018 C 
HETATM   27  C9  UNL     1      -5.237  33.662 -16.773  1.00  0.00     0.012 C 
HETATM   28  C10 UNL     1      -4.549  33.267 -15.498  1.00  0.00     0.002 C 
HETATM   29  C11 UNL     1      -3.753  32.033 -15.807  1.00  0.00     0.014 C 
HETATM   30  C13 UNL     1      -3.750  29.985 -17.074  1.00  0.00     0.020 C 
BRANCH  24  31
HETATM   31  C8  UNL     1      -5.244  32.523 -18.990  1.00  0.00     0.173 C 
BRANCH  31  32
HETATM   32  O1  UNL     1      -6.021  31.785 -19.855  1.00  0.00    -0.400 OA
ATOM     33  H1  UNL     1      -5.531  31.091 -20.280  1.00  0.00     0.209 HD
ENDBRANCH  31  32
ENDBRANCH  24  31
ENDBRANCH  17  18
ENDBRANCH  16  17
ENDBRANCH  14  16
ENDBRANCH  10  14
BRANCH  11  34
HETATM   34  O4  UNL     1      -4.076  26.582 -11.276  1.00  0.00    -0.353 OA
HETATM   35  C28 UNL     1      -5.233  26.451 -12.100  1.00  0.00     0.210 C 
ENDBRANCH  11  34
ENDBRANCH   6   7
ENDBRANCH   1   6
TORSDOF 10
ENDMDL
MODEL 4
REMARK VINA RESULT: -7.915969410      1.065      1.289
REMARK  10 active torsions:
REMARK  status: ('A' for Active; 'I' for Inactive)
REMARK    1  A    between atoms: C6_6  and  C8_8 
REMARK    2  A    between atoms: C8_8  and  O1_9 
REMARK    3  A    between atoms: C14_16  and  C15_17 
REMARK    4  A    between atoms: C15_17  and  C16_18 
REMARK    5  A    between atoms: C16_18  and  C17_19 
REMARK    6  A    between atoms: C17_19  and  C19_21 
REMARK    7  A    between atoms: C20_23  and  O3_24 
REMARK    8  A    between atoms: C21_26  and  C22_27 
REMARK    9  A    between atoms: C22_27  and  C23_28 
REMARK   10  A    between atoms: C27_33  and  O4_34 
ROOT
HETATM    1  C23 UNL     1      -2.860  19.989  -9.044  1.00  0.00    -0.004 C 
HETATM    2  C24 UNL     1      -2.690  18.854  -8.446  1.00  0.00     0.015 C 
HETATM    3  C25 UNL     1      -3.275  17.624  -9.088  1.00  0.00     0.060 C 
HETATM    4  C26 UNL     1      -1.990  18.691  -7.218  1.00  0.00     0.094 C 
HETATM    5  N1  UNL     1      -1.392  18.544  -6.211  1.00  0.00    -0.192 NA
ENDROOT
BRANCH   1   6
HETATM    6  C22 UNL     1      -2.425  21.337  -8.676  1.00  0.00     0.075 C 
BRANCH   6   7
HETATM    7  C21 UNL     1      -2.192  22.252  -9.820  1.00  0.00     0.039 A 
HETATM    8  C20 UNL     1      -2.923  22.556 -10.928  1.00  0.00     0.193 A 
HETATM    9  O2  UNL     1      -2.320  23.490 -11.616  1.00  0.00    -0.289 OA
HETATM   10  C19 UNL     1      -1.191  23.844 -11.009  1.00  0.00     0.093 A 
HETATM   11  C27 UNL     1      -1.059  23.099  -9.885  1.00  0.00     0.109 A 
BRANCH   8  12
HETATM   12  O3  UNL     1      -4.143  21.946 -11.272  1.00  0.00    -0.340 OA
ATOM     13  H3  UNL     1      -4.810  21.662 -10.658  1.00  0.00     0.220 HD
ENDBRANCH   8  12
BRANCH  10  14
HETATM   14  C17 UNL     1      -0.291  24.890 -11.497  1.00  0.00     0.042 C 
HETATM   15  C18 UNL     1       1.150  24.574 -11.538  1.00  0.00     0.017 C 
BRANCH  14  16
HETATM   16  C16 UNL     1      -0.849  25.532 -12.760  1.00  0.00     0.015 C 
BRANCH  16  17
HETATM   17  C15 UNL     1      -1.516  26.870 -12.463  1.00  0.00     0.036 C 
BRANCH  17  18
HETATM   18  C14 UNL     1      -2.901  26.914 -12.988  1.00  0.00    -0.066 C 
HETATM   19  C2  UNL     1      -3.919  26.527 -12.048  1.00  0.00    -0.064 C 
HETATM   20  C1  UNL     1      -3.920  26.402 -10.754  1.00  0.00     0.019 C 
HETATM   21  C3  UNL     1      -5.252  26.225 -12.750  1.00  0.00     0.038 C 
HETATM   22  C4  UNL     1      -5.627  27.617 -13.206  1.00  0.00     0.011 C 
HETATM   23  C5  UNL     1      -4.682  28.243 -14.183  1.00  0.00     0.008 C 
HETATM   24  C6  UNL     1      -5.126  29.657 -14.387  1.00  0.00    -0.018 C 
HETATM   25  C12 UNL     1      -3.219  28.081 -13.901  1.00  0.00    -0.016 C 
HETATM   26  C7  UNL     1      -6.652  29.724 -14.138  1.00  0.00     0.018 C 
HETATM   27  C9  UNL     1      -4.542  30.682 -13.490  1.00  0.00     0.012 C 
HETATM   28  C10 UNL     1      -3.406  30.223 -12.621  1.00  0.00     0.002 C 
HETATM   29  C11 UNL     1      -2.534  29.358 -13.482  1.00  0.00     0.014 C 
HETATM   30  C13 UNL     1      -2.553  27.721 -15.249  1.00  0.00     0.020 C 
BRANCH  24  31
HETATM   31  C8  UNL     1      -5.064  30.102 -15.857  1.00  0.00     0.173 C 
BRANCH  31  32
HETATM   32  O1  UNL     1      -6.004  31.063 -16.155  1.00  0.00    -0.400 OA
ATOM     33  H1  UNL     1      -5.704  31.669 -16.822  1.00  0.00     0.209 HD
ENDBRANCH  31  32
ENDBRANCH  24  31
ENDBRANCH  17  18
ENDBRANCH  16  17
ENDBRANCH  14  16
ENDBRANCH  10  14
BRANCH  11  34
HETATM   34  O4  UNL     1      -0.076  23.032  -8.885  1.00  0.00    -0.353 OA
HETATM   35  C28 UNL     1       1.011  22.114  -8.996  1.00  0.00     0.210 C 
ENDBRANCH  11  34
ENDBRANCH   6   7
ENDBRANCH   1   6
TORSDOF 10
ENDMDL
MODEL 5
REMARK VINA RESULT: -7.871329297      2.049      2.328
REMARK  10 active torsions:
REMARK  status: ('A' for Active; 'I' for Inactive)
REMARK    1  A    between atoms: C6_6  and  C8_8 
REMARK    2  A    between atoms: C8_8  and  O1_9 
REMARK    3  A    between atoms: C14_16  and  C15_17 
REMARK    4  A    between atoms: C15_17  and  C16_18 
REMARK    5  A    between atoms: C16_18  and  C17_19 
REMARK    6  A    between atoms: C17_19  and  C19_21 
REMARK    7  A    between atoms: C20_23  and  O3_24 
REMARK    8  A    between atoms: C21_26  and  C22_27 
REMARK    9  A    between atoms: C22_27  and  C23_28 
REMARK   10  A    between atoms: C27_33  and  O4_34 
ROOT
HETATM    1  C23 UNL     1       0.715  21.738  -8.719  1.00  0.00    -0.004 C 
HETATM    2  C24 UNL     1       1.816  21.260  -8.238  1.00  0.00     0.015 C 
HETATM    3  C25 UNL     1       2.037  19.773  -8.324  1.00  0.00     0.060 C 
HETATM    4  C26 UNL     1       2.833  22.046  -7.627  1.00  0.00     0.094 C 
HETATM    5  N1  UNL     1       3.691  22.693  -7.138  1.00  0.00    -0.192 NA
ENDROOT
BRANCH   1   6
HETATM    6  C22 UNL     1       0.216  23.113  -8.780  1.00  0.00     0.075 C 
BRANCH   6   7
HETATM    7  C21 UNL     1      -0.074  23.612 -10.147  1.00  0.00     0.039 A 
HETATM    8  C20 UNL     1      -1.125  23.434 -10.995  1.00  0.00     0.193 A 
HETATM    9  O2  UNL     1      -0.950  24.149 -12.076  1.00  0.00    -0.289 OA
HETATM   10  C19 UNL     1       0.195  24.821 -11.995  1.00  0.00     0.093 A 
HETATM   11  C27 UNL     1       0.784  24.520 -10.813  1.00  0.00     0.109 A 
BRANCH   8  12
HETATM   12  O3  UNL     1      -2.227  22.599 -10.737  1.00  0.00    -0.340 OA
ATOM     13  H3  UNL     1      -2.737  22.590  -9.935  1.00  0.00     0.220 HD
ENDBRANCH   8  12
BRANCH  10  14
HETATM   14  C17 UNL     1       0.678  25.745 -13.022  1.00  0.00     0.042 C 
HETATM   15  C18 UNL     1       1.902  25.362 -13.751  1.00  0.00     0.017 C 
BRANCH  14  16
HETATM   16  C16 UNL     1      -0.474  26.223 -13.897  1.00  0.00     0.015 C 
BRANCH  16  17
HETATM   17  C15 UNL     1      -1.257  27.348 -13.232  1.00  0.00     0.036 C 
BRANCH  17  18
HETATM   18  C14 UNL     1      -2.714  27.204 -13.459  1.00  0.00    -0.066 C 
HETATM   19  C2  UNL     1      -3.451  26.661 -12.349  1.00  0.00    -0.064 C 
HETATM   20  C1  UNL     1      -3.164  26.514 -11.090  1.00  0.00     0.019 C 
HETATM   21  C3  UNL     1      -4.847  26.183 -12.776  1.00  0.00     0.038 C 
HETATM   22  C4  UNL     1      -5.494  27.516 -13.082  1.00  0.00     0.011 C 
HETATM   23  C5  UNL     1      -4.869  28.286 -14.202  1.00  0.00     0.008 C 
HETATM   24  C6  UNL     1      -5.533  29.626 -14.245  1.00  0.00    -0.018 C 
HETATM   25  C12 UNL     1      -3.371  28.329 -14.233  1.00  0.00    -0.016 C 
HETATM   26  C7  UNL     1      -6.968  29.471 -13.686  1.00  0.00     0.018 C 
HETATM   27  C9  UNL     1      -4.919  30.708 -13.440  1.00  0.00     0.012 C 
HETATM   28  C10 UNL     1      -3.575  30.401 -12.845  1.00  0.00     0.002 C 
HETATM   29  C11 UNL     1      -2.793  29.683 -13.905  1.00  0.00     0.014 C 
HETATM   30  C13 UNL     1      -2.959  28.090 -15.704  1.00  0.00     0.020 C 
BRANCH  24  31
HETATM   31  C8  UNL     1      -5.841  30.100 -15.674  1.00  0.00     0.173 C 
BRANCH  31  32
HETATM   32  O1  UNL     1      -5.178  31.264 -15.996  1.00  0.00    -0.400 OA
ATOM     33  H1  UNL     1      -4.235  31.174 -15.930  1.00  0.00     0.209 HD
ENDBRANCH  31  32
ENDBRANCH  24  31
ENDBRANCH  17  18
ENDBRANCH  16  17
ENDBRANCH  14  16
ENDBRANCH  10  14
BRANCH  11  34
HETATM   34  O4  UNL     1       1.990  24.913 -10.211  1.00  0.00    -0.353 OA
HETATM   35  C28 UNL     1       3.220  24.287 -10.572  1.00  0.00     0.210 C 
ENDBRANCH  11  34
ENDBRANCH   6   7
ENDBRANCH   1   6
TORSDOF 10
ENDMDL
