MODEL 1
REMARK VINA RESULT: -4.015301476      0.000      0.000
REMARK  0 active torsions:
REMARK  status: ('A' for Active; 'I' for Inactive)
ROOT
HETATM    1  C1  UNL     1      28.090   2.673 -14.047  1.00  0.00     0.021 C 
HETATM    2  C2  UNL     1      29.513   2.206 -13.927  1.00  0.00     0.044 C 
HETATM    3  C3  UNL     1      30.461   3.000 -14.810  1.00  0.00     0.025 C 
HETATM    4  C4  UNL     1      31.529   3.354 -13.809  1.00  0.00     0.075 C 
HETATM    5  S1  UNL     1      30.421   2.809 -12.495  1.00  0.00    -0.165 SA
ENDROOT
TORSDOF 0
ENDMDL
MODEL 2
REMARK VINA RESULT: -3.966304862      1.004      1.121
REMARK  0 active torsions:
REMARK  status: ('A' for Active; 'I' for Inactive)
ROOT
HETATM    1  C1  UNL     1      28.997   3.299 -15.042  1.00  0.00     0.021 C 
HETATM    2  C2  UNL     1      29.995   2.487 -14.267  1.00  0.00     0.044 C 
HETATM    3  C3  UNL     1      31.294   3.238 -14.028  1.00  0.00     0.025 C 
HETATM    4  C4  UNL     1      31.454   3.034 -12.544  1.00  0.00     0.075 C 
HETATM    5  S1  UNL     1      29.754   2.436 -12.484  1.00  0.00    -0.165 SA
ENDROOT
TORSDOF 0
ENDMDL
MODEL 3
REMARK VINA RESULT: -3.934476339      1.411      1.645
REMARK  0 active torsions:
REMARK  status: ('A' for Active; 'I' for Inactive)
ROOT
HETATM    1  C1  UNL     1      28.345   2.084 -14.045  1.00  0.00     0.021 C 
HETATM    2  C2  UNL     1      29.311   3.102 -13.511  1.00  0.00     0.044 C 
HETATM    3  C3  UNL     1      30.043   2.615 -12.272  1.00  0.00     0.025 C 
HETATM    4  C4  UNL     1      31.466   2.917 -12.664  1.00  0.00     0.075 C 
HETATM    5  S1  UNL     1      30.900   3.196 -14.353  1.00  0.00    -0.165 SA
ENDROOT
TORSDOF 0
ENDMDL
MODEL 4
REMARK VINA RESULT: -3.684514228      1.594      1.743
REMARK  0 active torsions:
REMARK  status: ('A' for Active; 'I' for Inactive)
ROOT
HETATM    1  C1  UNL     1      28.865   1.810 -12.711  1.00  0.00     0.021 C 
HETATM    2  C2  UNL     1      29.652   3.042 -13.053  1.00  0.00     0.044 C 
HETATM    3  C3  UNL     1      31.105   2.940 -12.620  1.00  0.00     0.025 C 
HETATM    4  C4  UNL     1      31.795   3.341 -13.899  1.00  0.00     0.075 C 
HETATM    5  S1  UNL     1      30.219   3.166 -14.757  1.00  0.00    -0.165 SA
ENDROOT
TORSDOF 0
ENDMDL
MODEL 5
REMARK VINA RESULT: -3.672864259      1.486      2.779
REMARK  0 active torsions:
REMARK  status: ('A' for Active; 'I' for Inactive)
ROOT
HETATM    1  C1  UNL     1      31.318   3.279 -12.609  1.00  0.00     0.021 C 
HETATM    2  C2  UNL     1      30.470   2.416 -13.498  1.00  0.00     0.044 C 
HETATM    3  C3  UNL     1      29.130   2.073 -12.869  1.00  0.00     0.025 C 
HETATM    4  C4  UNL     1      28.201   2.440 -13.998  1.00  0.00     0.075 C 
HETATM    5  S1  UNL     1      29.581   3.271 -14.809  1.00  0.00    -0.165 SA
ENDROOT
TORSDOF 0
ENDMDL
