MODEL 1
REMARK VINA RESULT: -5.109124748      0.000      0.000
REMARK  0 active torsions:
REMARK  status: ('A' for Active; 'I' for Inactive)
ROOT
HETATM    1  C1  UNL     1      29.958   2.651 -12.354  1.00  0.00     0.003 C 
HETATM    2  C2  UNL     1      31.365   2.861 -12.808  1.00  0.00     0.027 C 
HETATM    3  C3  UNL     1      31.519   3.478 -14.143  1.00  0.00     0.232 C 
HETATM    4  N1  UNL     1      30.542   3.135 -15.113  1.00  0.00    -0.075 N 
ATOM      5  H11 UNL     1      30.775   2.249 -15.561  1.00  0.00     0.277 HD
ATOM      6  H12 UNL     1      30.602   3.755 -15.921  1.00  0.00     0.277 HD
HETATM    7  C4  UNL     1      29.188   3.104 -14.589  1.00  0.00     0.232 C 
HETATM    8  C5  UNL     1      29.205   2.003 -13.520  1.00  0.00     0.027 C 
ENDROOT
TORSDOF 0
ENDMDL
MODEL 2
REMARK VINA RESULT: -5.075171535      0.600      2.026
REMARK  0 active torsions:
REMARK  status: ('A' for Active; 'I' for Inactive)
ROOT
HETATM    1  C1  UNL     1      29.979   2.439 -12.447  1.00  0.00     0.003 C 
HETATM    2  C2  UNL     1      28.973   2.989 -13.404  1.00  0.00     0.027 C 
HETATM    3  C3  UNL     1      29.460   3.216 -14.782  1.00  0.00     0.232 C 
HETATM    4  N1  UNL     1      30.811   3.630 -14.913  1.00  0.00    -0.075 N 
ATOM      5  H11 UNL     1      30.893   4.638 -14.782  1.00  0.00     0.277 HD
ATOM      6  H12 UNL     1      31.117   3.559 -15.884  1.00  0.00     0.277 HD
HETATM    7  C4  UNL     1      31.724   2.921 -14.034  1.00  0.00     0.232 C 
HETATM    8  C5  UNL     1      31.256   3.271 -12.615  1.00  0.00     0.027 C 
ENDROOT
TORSDOF 0
ENDMDL
MODEL 3
REMARK VINA RESULT: -5.053399133      1.403      2.077
REMARK  0 active torsions:
REMARK  status: ('A' for Active; 'I' for Inactive)
ROOT
HETATM    1  C1  UNL     1      30.489   2.804 -14.931  1.00  0.00     0.003 C 
HETATM    2  C2  UNL     1      31.475   3.373 -13.964  1.00  0.00     0.027 C 
HETATM    3  C3  UNL     1      31.327   2.922 -12.563  1.00  0.00     0.232 C 
HETATM    4  N1  UNL     1      30.003   2.684 -12.113  1.00  0.00    -0.075 N 
ATOM      5  H11 UNL     1      29.560   3.554 -11.817  1.00  0.00     0.277 HD
ATOM      6  H12 UNL     1      30.009   2.184 -11.224  1.00  0.00     0.277 HD
HETATM    7  C4  UNL     1      29.174   1.992 -13.085  1.00  0.00     0.232 C 
HETATM    8  C5  UNL     1      29.104   2.941 -14.289  1.00  0.00     0.027 C 
ENDROOT
TORSDOF 0
ENDMDL
MODEL 4
REMARK VINA RESULT: -4.866492672      1.252      2.437
REMARK  0 active torsions:
REMARK  status: ('A' for Active; 'I' for Inactive)
ROOT
HETATM    1  C1  UNL     1      29.272   2.874 -14.469  1.00  0.00     0.003 C 
HETATM    2  C2  UNL     1      29.108   2.176 -13.159  1.00  0.00     0.027 C 
HETATM    3  C3  UNL     1      30.131   2.490 -12.138  1.00  0.00     0.232 C 
HETATM    4  N1  UNL     1      31.446   2.728 -12.614  1.00  0.00    -0.075 N 
ATOM      5  H11 UNL     1      31.943   1.848 -12.756  1.00  0.00     0.277 HD
ATOM      6  H12 UNL     1      32.027   3.135 -11.881  1.00  0.00     0.277 HD
HETATM    7  C4  UNL     1      31.490   3.542 -13.816  1.00  0.00     0.232 C 
HETATM    8  C5  UNL     1      30.743   2.722 -14.875  1.00  0.00     0.027 C 
ENDROOT
TORSDOF 0
ENDMDL
MODEL 5
REMARK VINA RESULT: -4.816110826      1.036      1.516
REMARK  0 active torsions:
REMARK  status: ('A' for Active; 'I' for Inactive)
ROOT
HETATM    1  C1  UNL     1      31.271   3.218 -12.588  1.00  0.00     0.003 C 
HETATM    2  C2  UNL     1      31.510   3.000 -14.046  1.00  0.00     0.027 C 
HETATM    3  C3  UNL     1      30.327   3.164 -14.918  1.00  0.00     0.232 C 
HETATM    4  N1  UNL     1      29.081   2.762 -14.372  1.00  0.00    -0.075 N 
ATOM      5  H11 UNL     1      28.947   1.756 -14.480  1.00  0.00     0.277 HD
ATOM      6  H12 UNL     1      28.309   3.099 -14.948  1.00  0.00     0.277 HD
HETATM    7  C4  UNL     1      28.898   3.158 -12.987  1.00  0.00     0.232 C 
HETATM    8  C5  UNL     1      30.010   2.430 -12.219  1.00  0.00     0.027 C 
ENDROOT
TORSDOF 0
ENDMDL
