MODEL 1
REMARK VINA RESULT: -5.696437427      0.000      0.000
REMARK  0 active torsions:
REMARK  status: ('A' for Active; 'I' for Inactive)
ROOT
HETATM    1  C1  UNL     1      31.602   2.988 -14.023  1.00  0.00     0.002 C 
HETATM    2  C2  UNL     1      31.343   3.138 -12.561  1.00  0.00     0.002 C 
HETATM    3  C3  UNL     1      30.020   2.487 -12.114  1.00  0.00     0.027 C 
HETATM    4  C4  UNL     1      28.999   3.118 -12.978  1.00  0.00     0.099 A 
HETATM    5  N1  UNL     1      28.062   2.677 -13.847  1.00  0.00    -0.409 N 
ATOM      6  H1  UNL     1      27.061   2.575 -14.020  1.00  0.00     0.154 HD
HETATM    7  C5  UNL     1      29.309   2.454 -14.345  1.00  0.00     0.099 A 
HETATM    8  C6  UNL     1      30.362   3.322 -14.876  1.00  0.00     0.027 C 
ENDROOT
TORSDOF 0
ENDMDL
MODEL 2
REMARK VINA RESULT: -5.686294728      0.023      1.933
REMARK  0 active torsions:
REMARK  status: ('A' for Active; 'I' for Inactive)
ROOT
HETATM    1  C1  UNL     1      31.349   3.129 -12.552  1.00  0.00     0.002 C 
HETATM    2  C2  UNL     1      31.595   2.979 -14.017  1.00  0.00     0.002 C 
HETATM    3  C3  UNL     1      30.362   3.326 -14.874  1.00  0.00     0.027 C 
HETATM    4  C4  UNL     1      29.298   2.446 -14.345  1.00  0.00     0.099 A 
HETATM    5  N1  UNL     1      28.064   2.627 -13.824  1.00  0.00    -0.409 N 
ATOM      6  H1  UNL     1      27.064   2.490 -13.972  1.00  0.00     0.154 HD
HETATM    7  C5  UNL     1      29.010   3.110 -12.973  1.00  0.00     0.099 A 
HETATM    8  C6  UNL     1      30.018   2.487 -12.113  1.00  0.00     0.027 C 
ENDROOT
TORSDOF 0
ENDMDL
MODEL 3
REMARK VINA RESULT: -5.567412419      1.394      2.551
REMARK  0 active torsions:
REMARK  status: ('A' for Active; 'I' for Inactive)
ROOT
HETATM    1  C1  UNL     1      30.124   2.397 -12.011  1.00  0.00     0.002 C 
HETATM    2  C2  UNL     1      28.867   2.322 -12.812  1.00  0.00     0.002 C 
HETATM    3  C3  UNL     1      29.124   2.198 -14.326  1.00  0.00     0.027 C 
HETATM    4  C4  UNL     1      29.975   3.365 -14.642  1.00  0.00     0.099 A 
HETATM    5  N1  UNL     1      31.191   3.550 -15.203  1.00  0.00    -0.409 N 
ATOM      6  H1  UNL     1      31.693   3.912 -16.015  1.00  0.00     0.154 HD
HETATM    7  C5  UNL     1      31.318   2.944 -13.991  1.00  0.00     0.099 A 
HETATM    8  C6  UNL     1      31.141   3.390 -12.608  1.00  0.00     0.027 C 
ENDROOT
TORSDOF 0
ENDMDL
MODEL 4
REMARK VINA RESULT: -5.542244449      1.393      2.310
REMARK  0 active torsions:
REMARK  status: ('A' for Active; 'I' for Inactive)
ROOT
HETATM    1  C1  UNL     1      28.855   2.295 -12.816  1.00  0.00     0.002 C 
HETATM    2  C2  UNL     1      30.119   2.361 -12.025  1.00  0.00     0.002 C 
HETATM    3  C3  UNL     1      31.138   3.364 -12.598  1.00  0.00     0.027 C 
HETATM    4  C4  UNL     1      31.322   2.928 -13.999  1.00  0.00     0.099 A 
HETATM    5  N1  UNL     1      31.188   3.502 -15.216  1.00  0.00    -0.409 N 
ATOM      6  H1  UNL     1      31.683   3.835 -16.044  1.00  0.00     0.154 HD
HETATM    7  C5  UNL     1      29.969   3.354 -14.628  1.00  0.00     0.099 A 
HETATM    8  C6  UNL     1      29.117   2.200 -14.333  1.00  0.00     0.027 C 
ENDROOT
TORSDOF 0
ENDMDL
MODEL 5
REMARK VINA RESULT: -5.518385983      1.074      1.643
REMARK  0 active torsions:
REMARK  status: ('A' for Active; 'I' for Inactive)
ROOT
HETATM    1  C1  UNL     1      31.415   2.780 -12.479  1.00  0.00     0.002 C 
HETATM    2  C2  UNL     1      30.017   2.476 -12.053  1.00  0.00     0.002 C 
HETATM    3  C3  UNL     1      29.112   2.042 -13.222  1.00  0.00     0.027 C 
HETATM    4  C4  UNL     1      29.221   3.152 -14.192  1.00  0.00     0.099 A 
HETATM    5  N1  UNL     1      29.582   3.270 -15.490  1.00  0.00    -0.409 N 
ATOM      6  H1  UNL     1      29.256   3.473 -16.435  1.00  0.00     0.154 HD
HETATM    7  C5  UNL     1      30.662   2.945 -14.727  1.00  0.00     0.099 A 
HETATM    8  C6  UNL     1      31.464   3.669 -13.738  1.00  0.00     0.027 C 
ENDROOT
TORSDOF 0
ENDMDL
