MODEL 1
REMARK VINA RESULT: -5.038044149      0.000      0.000
REMARK  0 active torsions:
REMARK  status: ('A' for Active; 'I' for Inactive)
ROOT
HETATM    1  C1  UNL     1      27.724   2.403 -14.409  1.00  0.00     0.040 C 
HETATM    2  C2  UNL     1      29.010   2.856 -13.758  1.00  0.00     0.181 C 
HETATM    3  C3  UNL     1      30.077   3.016 -14.836  1.00  0.00     0.032 C 
HETATM    4  C4  UNL     1      31.474   2.935 -14.219  1.00  0.00     0.004 C 
HETATM    5  C5  UNL     1      31.324   3.511 -12.818  1.00  0.00     0.027 C 
HETATM    6  C6  UNL     1      30.456   2.638 -11.943  1.00  0.00     0.232 C 
HETATM    7  N1  UNL     1      29.459   1.921 -12.733  1.00  0.00    -0.071 N 
ATOM      8  H11 UNL     1      29.798   1.036 -13.109  1.00  0.00     0.277 HD
ATOM      9  H12 UNL     1      28.698   1.533 -12.174  1.00  0.00     0.277 HD
ENDROOT
TORSDOF 0
ENDMDL
MODEL 2
REMARK VINA RESULT: -4.888387532      1.178      1.990
REMARK  0 active torsions:
REMARK  status: ('A' for Active; 'I' for Inactive)
ROOT
HETATM    1  C1  UNL     1      27.769   2.059 -13.971  1.00  0.00     0.040 C 
HETATM    2  C2  UNL     1      29.266   2.261 -13.946  1.00  0.00     0.181 C 
HETATM    3  C3  UNL     1      29.727   2.337 -12.493  1.00  0.00     0.032 C 
HETATM    4  C4  UNL     1      31.071   3.060 -12.399  1.00  0.00     0.004 C 
HETATM    5  C5  UNL     1      31.793   2.730 -13.698  1.00  0.00     0.027 C 
HETATM    6  C6  UNL     1      31.101   3.340 -14.895  1.00  0.00     0.232 C 
HETATM    7  N1  UNL     1      29.664   3.463 -14.669  1.00  0.00    -0.071 N 
ATOM      8  H11 UNL     1      29.398   4.329 -14.199  1.00  0.00     0.277 HD
ATOM      9  H12 UNL     1      29.129   3.620 -15.524  1.00  0.00     0.277 HD
ENDROOT
TORSDOF 0
ENDMDL
MODEL 3
REMARK VINA RESULT: -4.847430637      1.038      2.733
REMARK  0 active torsions:
REMARK  status: ('A' for Active; 'I' for Inactive)
ROOT
HETATM    1  C1  UNL     1      31.658   2.925 -12.414  1.00  0.00     0.040 C 
HETATM    2  C2  UNL     1      30.337   2.677 -13.105  1.00  0.00     0.181 C 
HETATM    3  C3  UNL     1      30.472   3.061 -14.576  1.00  0.00     0.032 C 
HETATM    4  C4  UNL     1      29.096   3.351 -15.178  1.00  0.00     0.004 C 
HETATM    5  C5  UNL     1      28.134   2.439 -14.430  1.00  0.00     0.027 C 
HETATM    6  C6  UNL     1      28.014   2.823 -12.974  1.00  0.00     0.232 C 
HETATM    7  N1  UNL     1      29.251   3.425 -12.482  1.00  0.00    -0.071 N 
ATOM      8  H11 UNL     1      29.305   4.431 -12.640  1.00  0.00     0.277 HD
ATOM      9  H12 UNL     1      29.310   3.458 -11.464  1.00  0.00     0.277 HD
ENDROOT
TORSDOF 0
ENDMDL
MODEL 4
REMARK VINA RESULT: -4.798598109      1.114      2.662
REMARK  0 active torsions:
REMARK  status: ('A' for Active; 'I' for Inactive)
ROOT
HETATM    1  C1  UNL     1      31.974   3.609 -14.133  1.00  0.00     0.040 C 
HETATM    2  C2  UNL     1      30.690   2.845 -13.907  1.00  0.00     0.181 C 
HETATM    3  C3  UNL     1      29.655   3.312 -14.926  1.00  0.00     0.032 C 
HETATM    4  C4  UNL     1      28.242   3.005 -14.427  1.00  0.00     0.004 C 
HETATM    5  C5  UNL     1      28.379   1.736 -13.598  1.00  0.00     0.027 C 
HETATM    6  C6  UNL     1      29.196   1.968 -12.348  1.00  0.00     0.232 C 
HETATM    7  N1  UNL     1      30.185   3.023 -12.550  1.00  0.00    -0.071 N 
ATOM      8  H11 UNL     1      29.824   3.960 -12.369  1.00  0.00     0.277 HD
ATOM      9  H12 UNL     1      30.918   3.035 -11.841  1.00  0.00     0.277 HD
ENDROOT
TORSDOF 0
ENDMDL
MODEL 5
REMARK VINA RESULT: -4.718930211      1.359      3.199
REMARK  0 active torsions:
REMARK  status: ('A' for Active; 'I' for Inactive)
ROOT
HETATM    1  C1  UNL     1      31.614   2.970 -12.354  1.00  0.00     0.040 C 
HETATM    2  C2  UNL     1      30.310   3.079 -13.109  1.00  0.00     0.181 C 
HETATM    3  C3  UNL     1      29.353   2.007 -12.593  1.00  0.00     0.032 C 
HETATM    4  C4  UNL     1      28.276   1.710 -13.636  1.00  0.00     0.004 C 
HETATM    5  C5  UNL     1      28.057   3.025 -14.370  1.00  0.00     0.027 C 
HETATM    6  C6  UNL     1      29.274   3.432 -15.167  1.00  0.00     0.232 C 
HETATM    7  N1  UNL     1      30.502   2.939 -14.548  1.00  0.00    -0.071 N 
ATOM      8  H11 UNL     1      30.751   1.993 -14.836  1.00  0.00     0.277 HD
ATOM      9  H12 UNL     1      31.345   3.399 -14.893  1.00  0.00     0.277 HD
ENDROOT
TORSDOF 0
ENDMDL
