MODEL 1
REMARK VINA RESULT: -6.982202494      0.000      0.000
REMARK  6 active torsions:
REMARK  status: ('A' for Active; 'I' for Inactive)
REMARK    1  A    between atoms: N1_2  and  S1_4 
REMARK    2  A    between atoms: S1_4  and  N2_7 
REMARK    3  A    between atoms: C8_14  and  C9_15 
REMARK    4  A    between atoms: C9_15  and  O4_16 
REMARK    5  A    between atoms: C10_18  and  O5_19 
REMARK    6  A    between atoms: O5_19  and  C11_20 
ROOT
HETATM    1  N2  UNL     1      42.280  31.556  13.410  1.00  0.00    -0.262 N 
HETATM    2  C3  UNL     1      42.952  32.788  13.395  1.00  0.00     0.106 C 
HETATM    3  C4  UNL     1      44.023  32.916  14.450  1.00  0.00     0.053 C 
HETATM    4  C5  UNL     1      44.007  31.867  15.480  1.00  0.00    -0.024 C 
HETATM    5  C6  UNL     1      43.017  31.007  15.579  1.00  0.00     0.023 C 
HETATM    6  C7  UNL     1      41.834  31.038  14.645  1.00  0.00     0.259 C 
HETATM    7  O3  UNL     1      40.745  31.677  15.169  1.00  0.00    -0.353 OA
HETATM    8  C8  UNL     1      40.867  33.029  15.359  1.00  0.00     0.177 C 
HETATM    9  C10 UNL     1      40.783  33.869  14.145  1.00  0.00     0.166 C 
HETATM   10  C12 UNL     1      42.052  33.998  13.364  1.00  0.00     0.061 C 
ENDROOT
BRANCH   1  11
HETATM   11  S1  UNL     1      42.254  30.583  12.056  1.00  0.00     0.302 S 
HETATM   12  O1  UNL     1      41.748  31.419  10.870  1.00  0.00    -0.188 OA
HETATM   13  O2  UNL     1      41.148  29.532  12.220  1.00  0.00    -0.188 OA
BRANCH  11  14
HETATM   14  N1  UNL     1      43.688  29.881  11.522  1.00  0.00    -0.202 NA
HETATM   15  C1  UNL     1      43.454  29.076  10.351  1.00  0.00     0.130 C 
HETATM   16  C2  UNL     1      44.545  29.261  12.438  1.00  0.00     0.130 C 
ENDBRANCH  11  14
ENDBRANCH   1  11
BRANCH   9  17
HETATM   17  O5  UNL     1      40.310  35.158  14.482  1.00  0.00    -0.300 OA
BRANCH  17  18
HETATM   18  C11 UNL     1      39.445  35.853  13.655  1.00  0.00     0.358 C 
HETATM   19  O6  UNL     1      39.849  36.661  12.799  1.00  0.00    -0.245 OA
HETATM   20 CL1  UNL     1      37.718  35.529  13.884  1.00  0.00    -0.012 Cl
ENDBRANCH  17  18
ENDBRANCH   9  17
BRANCH   8  21
HETATM   21  C9  UNL     1      39.765  33.427  16.321  1.00  0.00     0.198 C 
BRANCH  21  22
HETATM   22  O4  UNL     1      40.167  34.248  17.340  1.00  0.00    -0.398 OA
ATOM     23  H4  UNL     1      39.774  35.113  17.328  1.00  0.00     0.209 HD
ENDBRANCH  21  22
ENDBRANCH   8  21
TORSDOF 6
ENDMDL
MODEL 2
REMARK VINA RESULT: -6.904903545      4.593      6.186
REMARK  6 active torsions:
REMARK  status: ('A' for Active; 'I' for Inactive)
REMARK    1  A    between atoms: N1_2  and  S1_4 
REMARK    2  A    between atoms: S1_4  and  N2_7 
REMARK    3  A    between atoms: C8_14  and  C9_15 
REMARK    4  A    between atoms: C9_15  and  O4_16 
REMARK    5  A    between atoms: C10_18  and  O5_19 
REMARK    6  A    between atoms: O5_19  and  C11_20 
ROOT
HETATM    1  N2  UNL     1      43.014  34.822  15.889  1.00  0.00    -0.262 N 
HETATM    2  C3  UNL     1      44.153  35.548  15.507  1.00  0.00     0.106 C 
HETATM    3  C4  UNL     1      45.139  34.756  14.683  1.00  0.00     0.053 C 
HETATM    4  C5  UNL     1      44.892  33.308  14.645  1.00  0.00    -0.024 C 
HETATM    5  C6  UNL     1      44.003  32.734  15.427  1.00  0.00     0.023 C 
HETATM    6  C7  UNL     1      43.179  33.522  16.413  1.00  0.00     0.259 C 
HETATM    7  O3  UNL     1      43.673  33.483  17.688  1.00  0.00    -0.353 OA
HETATM    8  C8  UNL     1      44.869  34.119  17.896  1.00  0.00     0.177 C 
HETATM    9  C10 UNL     1      44.822  35.596  17.953  1.00  0.00     0.166 C 
HETATM   10  C12 UNL     1      44.834  36.291  16.629  1.00  0.00     0.061 C 
ENDROOT
BRANCH   1  11
HETATM   11  S1  UNL     1      41.488  35.350  15.474  1.00  0.00     0.302 S 
HETATM   12  O1  UNL     1      41.207  36.658  16.231  1.00  0.00    -0.188 OA
HETATM   13  O2  UNL     1      40.451  34.390  16.069  1.00  0.00    -0.188 OA
BRANCH  11  14
HETATM   14  N1  UNL     1      41.148  35.692  13.861  1.00  0.00    -0.202 NA
HETATM   15  C1  UNL     1      39.799  36.177  13.718  1.00  0.00     0.130 C 
HETATM   16  C2  UNL     1      41.497  34.774  12.864  1.00  0.00     0.130 C 
ENDBRANCH  11  14
ENDBRANCH   1  11
BRANCH   9  17
HETATM   17  O5  UNL     1      45.889  36.082  18.744  1.00  0.00    -0.300 OA
BRANCH  17  18
HETATM   18  C11 UNL     1      46.815  36.979  18.240  1.00  0.00     0.358 C 
HETATM   19  O6  UNL     1      46.753  38.200  18.476  1.00  0.00    -0.245 OA
HETATM   20 CL1  UNL     1      48.100  36.292  17.234  1.00  0.00    -0.012 Cl
ENDBRANCH  17  18
ENDBRANCH   9  17
BRANCH   8  21
HETATM   21  C9  UNL     1      45.417  33.583  19.204  1.00  0.00     0.198 C 
BRANCH  21  22
HETATM   22  O4  UNL     1      44.580  33.737  20.277  1.00  0.00    -0.398 OA
ATOM     23  H4  UNL     1      44.556  32.995  20.869  1.00  0.00     0.209 HD
ENDBRANCH  21  22
ENDBRANCH   8  21
TORSDOF 6
ENDMDL
MODEL 3
REMARK VINA RESULT: -6.547748545      4.786      6.282
REMARK  6 active torsions:
REMARK  status: ('A' for Active; 'I' for Inactive)
REMARK    1  A    between atoms: N1_2  and  S1_4 
REMARK    2  A    between atoms: S1_4  and  N2_7 
REMARK    3  A    between atoms: C8_14  and  C9_15 
REMARK    4  A    between atoms: C9_15  and  O4_16 
REMARK    5  A    between atoms: C10_18  and  O5_19 
REMARK    6  A    between atoms: O5_19  and  C11_20 
ROOT
HETATM    1  N2  UNL     1      44.114  34.575  15.202  1.00  0.00    -0.262 N 
HETATM    2  C3  UNL     1      45.198  35.460  15.084  1.00  0.00     0.106 C 
HETATM    3  C4  UNL     1      46.467  34.812  14.588  1.00  0.00     0.053 C 
HETATM    4  C5  UNL     1      46.448  33.342  14.573  1.00  0.00    -0.024 C 
HETATM    5  C6  UNL     1      45.477  32.655  15.132  1.00  0.00     0.023 C 
HETATM    6  C7  UNL     1      44.319  33.326  15.825  1.00  0.00     0.259 C 
HETATM    7  O3  UNL     1      44.461  33.386  17.184  1.00  0.00    -0.353 OA
HETATM    8  C8  UNL     1      45.457  34.202  17.655  1.00  0.00     0.177 C 
HETATM    9  C10 UNL     1      45.186  35.655  17.613  1.00  0.00     0.166 C 
HETATM   10  C12 UNL     1      45.446  36.318  16.298  1.00  0.00     0.061 C 
ENDROOT
BRANCH   1  11
HETATM   11  S1  UNL     1      42.691  34.856  14.378  1.00  0.00     0.302 S 
HETATM   12  O1  UNL     1      42.209  33.526  13.778  1.00  0.00    -0.188 OA
HETATM   13  O2  UNL     1      42.997  35.695  13.131  1.00  0.00    -0.188 OA
BRANCH  11  14
HETATM   14  N1  UNL     1      41.365  35.469  15.215  1.00  0.00    -0.202 NA
HETATM   15  C1  UNL     1      40.468  36.149  14.318  1.00  0.00     0.130 C 
HETATM   16  C2  UNL     1      41.558  36.167  16.413  1.00  0.00     0.130 C 
ENDBRANCH  11  14
ENDBRANCH   1  11
BRANCH   9  17
HETATM   17  O5  UNL     1      45.927  36.313  18.622  1.00  0.00    -0.300 OA
BRANCH  17  18
HETATM   18  C11 UNL     1      46.896  37.251  18.314  1.00  0.00     0.358 C 
HETATM   19  O6  UNL     1      46.681  38.476  18.383  1.00  0.00    -0.245 OA
HETATM   20 CL1  UNL     1      48.470  36.612  17.811  1.00  0.00    -0.012 Cl
ENDBRANCH  17  18
ENDBRANCH   9  17
BRANCH   8  21
HETATM   21  C9  UNL     1      45.712  33.781  19.089  1.00  0.00     0.198 C 
BRANCH  21  22
HETATM   22  O4  UNL     1      44.598  33.774  19.887  1.00  0.00    -0.398 OA
ATOM     23  H4  UNL     1      44.760  33.517  20.787  1.00  0.00     0.209 HD
ENDBRANCH  21  22
ENDBRANCH   8  21
TORSDOF 6
ENDMDL
MODEL 4
REMARK VINA RESULT: -6.475877575      3.223      3.693
REMARK  6 active torsions:
REMARK  status: ('A' for Active; 'I' for Inactive)
REMARK    1  A    between atoms: N1_2  and  S1_4 
REMARK    2  A    between atoms: S1_4  and  N2_7 
REMARK    3  A    between atoms: C8_14  and  C9_15 
REMARK    4  A    between atoms: C9_15  and  O4_16 
REMARK    5  A    between atoms: C10_18  and  O5_19 
REMARK    6  A    between atoms: O5_19  and  C11_20 
ROOT
HETATM    1  N2  UNL     1      44.697  33.984  15.390  1.00  0.00    -0.262 N 
HETATM    2  C3  UNL     1      44.248  35.266  15.037  1.00  0.00     0.106 C 
HETATM    3  C4  UNL     1      44.206  36.241  16.188  1.00  0.00     0.053 C 
HETATM    4  C5  UNL     1      44.372  35.637  17.517  1.00  0.00    -0.024 C 
HETATM    5  C6  UNL     1      44.358  34.334  17.695  1.00  0.00     0.023 C 
HETATM    6  C7  UNL     1      44.172  33.373  16.549  1.00  0.00     0.259 C 
HETATM    7  O3  UNL     1      42.886  32.924  16.421  1.00  0.00    -0.353 OA
HETATM    8  C8  UNL     1      41.953  33.853  16.037  1.00  0.00     0.177 C 
HETATM    9  C10 UNL     1      41.967  34.241  14.611  1.00  0.00     0.166 C 
HETATM   10  C12 UNL     1      42.968  35.288  14.239  1.00  0.00     0.061 C 
ENDROOT
BRANCH   1  11
HETATM   11  S1  UNL     1      46.023  33.308  14.638  1.00  0.00     0.302 S 
HETATM   12  O1  UNL     1      46.882  32.611  15.705  1.00  0.00    -0.188 OA
HETATM   13  O2  UNL     1      46.944  34.433  14.150  1.00  0.00    -0.188 OA
BRANCH  11  14
HETATM   14  N1  UNL     1      45.785  32.151  13.438  1.00  0.00    -0.202 NA
HETATM   15  C1  UNL     1      44.417  31.703  13.429  1.00  0.00     0.130 C 
HETATM   16  C2  UNL     1      46.696  31.098  13.292  1.00  0.00     0.130 C 
ENDBRANCH  11  14
ENDBRANCH   1  11
BRANCH   9  17
HETATM   17  O5  UNL     1      40.678  34.668  14.215  1.00  0.00    -0.300 OA
BRANCH  17  18
HETATM   18  C11 UNL     1      40.299  35.997  14.292  1.00  0.00     0.358 C 
HETATM   19  O6  UNL     1      40.561  36.707  15.281  1.00  0.00    -0.245 OA
HETATM   20 CL1  UNL     1      39.413  36.637  12.898  1.00  0.00    -0.012 Cl
ENDBRANCH  17  18
ENDBRANCH   9  17
BRANCH   8  21
HETATM   21  C9  UNL     1      40.599  33.267  16.385  1.00  0.00     0.198 C 
BRANCH  21  22
HETATM   22  O4  UNL     1      39.807  34.080  17.151  1.00  0.00    -0.398 OA
ATOM     23  H4  UNL     1      38.957  33.715  17.366  1.00  0.00     0.209 HD
ENDBRANCH  21  22
ENDBRANCH   8  21
TORSDOF 6
ENDMDL
MODEL 5
REMARK VINA RESULT: -6.471164483      3.513      4.137
REMARK  6 active torsions:
REMARK  status: ('A' for Active; 'I' for Inactive)
REMARK    1  A    between atoms: N1_2  and  S1_4 
REMARK    2  A    between atoms: S1_4  and  N2_7 
REMARK    3  A    between atoms: C8_14  and  C9_15 
REMARK    4  A    between atoms: C9_15  and  O4_16 
REMARK    5  A    between atoms: C10_18  and  O5_19 
REMARK    6  A    between atoms: O5_19  and  C11_20 
ROOT
HETATM    1  N2  UNL     1      44.916  33.869  15.705  1.00  0.00    -0.262 N 
HETATM    2  C3  UNL     1      44.636  35.242  15.618  1.00  0.00     0.106 C 
HETATM    3  C4  UNL     1      44.649  35.957  16.947  1.00  0.00     0.053 C 
HETATM    4  C5  UNL     1      44.678  35.077  18.123  1.00  0.00    -0.024 C 
HETATM    5  C6  UNL     1      44.505  33.777  18.022  1.00  0.00     0.023 C 
HETATM    6  C7  UNL     1      44.267  33.103  16.696  1.00  0.00     0.259 C 
HETATM    7  O3  UNL     1      42.946  32.851  16.444  1.00  0.00    -0.353 OA
HETATM    8  C8  UNL     1      42.147  33.947  16.241  1.00  0.00     0.177 C 
HETATM    9  C10 UNL     1      42.276  34.616  14.930  1.00  0.00     0.166 C 
HETATM   10  C12 UNL     1      43.408  35.585  14.811  1.00  0.00     0.061 C 
ENDROOT
BRANCH   1  11
HETATM   11  S1  UNL     1      46.191  33.205  14.860  1.00  0.00     0.302 S 
HETATM   12  O1  UNL     1      45.648  32.621  13.546  1.00  0.00    -0.188 OA
HETATM   13  O2  UNL     1      46.683  31.956  15.603  1.00  0.00    -0.188 OA
BRANCH  11  14
HETATM   14  N1  UNL     1      47.478  34.191  14.406  1.00  0.00    -0.202 NA
HETATM   15  C1  UNL     1      48.084  33.708  13.192  1.00  0.00     0.130 C 
HETATM   16  C2  UNL     1      48.424  34.587  15.358  1.00  0.00     0.130 C 
ENDBRANCH  11  14
ENDBRANCH   1  11
BRANCH   9  17
HETATM   17  O5  UNL     1      41.066  35.270  14.601  1.00  0.00    -0.300 OA
BRANCH  17  18
HETATM   18  C11 UNL     1      40.579  35.286  13.306  1.00  0.00     0.358 C 
HETATM   19  O6  UNL     1      40.945  34.461  12.448  1.00  0.00    -0.245 OA
HETATM   20 CL1  UNL     1      39.399  36.553  12.931  1.00  0.00    -0.012 Cl
ENDBRANCH  17  18
ENDBRANCH   9  17
BRANCH   8  21
HETATM   21  C9  UNL     1      40.718  33.473  16.425  1.00  0.00     0.198 C 
BRANCH  21  22
HETATM   22  O4  UNL     1      39.994  34.190  17.339  1.00  0.00    -0.398 OA
ATOM     23  H4  UNL     1      39.649  33.676  18.060  1.00  0.00     0.209 HD
ENDBRANCH  21  22
ENDBRANCH   8  21
TORSDOF 6
ENDMDL
