MODEL 1
REMARK VINA RESULT: -6.445903518      0.000      0.000
REMARK  4 active torsions:
REMARK  status: ('A' for Active; 'I' for Inactive)
REMARK    1  A    between atoms: C2_2  and  C3_3 
REMARK    2  A    between atoms: C4_5  and  C5_6 
REMARK    3  A    between atoms: C5_6  and  O2_7 
REMARK    4  A    between atoms: C12_18  and  C13_19 
ROOT
HETATM    1  C3  UNL     1      44.922  34.743  16.423  1.00  0.00     0.173 C 
HETATM    2  O1  UNL     1      45.371  33.882  15.392  1.00  0.00    -0.369 OA
HETATM    3  C4  UNL     1      44.341  33.275  14.648  1.00  0.00     0.181 C 
HETATM    4  C6  UNL     1      43.304  32.585  15.427  1.00  0.00     0.213 C 
HETATM    5  O3  UNL     1      43.515  33.073  16.747  1.00  0.00    -0.368 OA
HETATM    6  C7  UNL     1      43.499  34.471  16.517  1.00  0.00     0.158 C 
HETATM    7  C8  UNL     1      42.497  34.981  17.422  1.00  0.00     0.075 C 
HETATM    8  C9  UNL     1      41.168  34.514  16.755  1.00  0.00     0.201 C 
HETATM    9  O4  UNL     1      41.162  33.203  16.409  1.00  0.00    -0.336 OA
HETATM   10  C10 UNL     1      41.859  32.820  15.244  1.00  0.00     0.125 C 
HETATM   11  C11 UNL     1      41.401  33.520  14.031  1.00  0.00     0.193 C 
HETATM   12  O5  UNL     1      41.763  33.122  12.962  1.00  0.00    -0.290 OA
HETATM   13  C12 UNL     1      40.506  34.690  14.253  1.00  0.00     0.144 C 
HETATM   14  C14 UNL     1      40.923  35.322  15.528  1.00  0.00     0.168 C 
HETATM   15  O6  UNL     1      41.064  36.525  15.554  1.00  0.00    -0.294 OA
ENDROOT
BRANCH   3  16
HETATM   16  C5  UNL     1      45.087  32.218  13.807  1.00  0.00     0.199 C 
BRANCH  16  17
HETATM   17  O2  UNL     1      44.151  31.598  13.005  1.00  0.00    -0.398 OA
ATOM     18  H2  UNL     1      44.625  31.047  12.393  1.00  0.00     0.209 HD
ENDBRANCH  16  17
ENDBRANCH   3  16
BRANCH   1  19
HETATM   19  C2  UNL     1      45.322  36.105  16.051  1.00  0.00    -0.003 C 
HETATM   20  C1  UNL     1      45.723  36.930  17.015  1.00  0.00     0.009 C 
ENDBRANCH   1  19
BRANCH  13  21
HETATM   21  C13 UNL     1      40.531  35.667  13.119  1.00  0.00     0.105 C 
HETATM   22 BR1  UNL     1      38.862  36.603  12.979  1.00  0.00    -0.095 Br
ENDBRANCH  13  21
TORSDOF 4
ENDMDL
MODEL 2
REMARK VINA RESULT: -6.342694528      1.751      3.321
REMARK  4 active torsions:
REMARK  status: ('A' for Active; 'I' for Inactive)
REMARK    1  A    between atoms: C2_2  and  C3_3 
REMARK    2  A    between atoms: C4_5  and  C5_6 
REMARK    3  A    between atoms: C5_6  and  O2_7 
REMARK    4  A    between atoms: C12_18  and  C13_19 
ROOT
HETATM    1  C3  UNL     1      44.067  31.825  14.505  1.00  0.00     0.173 C 
HETATM    2  O1  UNL     1      42.980  30.960  14.787  1.00  0.00    -0.369 OA
HETATM    3  C4  UNL     1      41.806  31.615  15.205  1.00  0.00     0.181 C 
HETATM    4  C6  UNL     1      41.958  32.565  16.314  1.00  0.00     0.213 C 
HETATM    5  O3  UNL     1      43.365  32.767  16.375  1.00  0.00    -0.368 OA
HETATM    6  C7  UNL     1      43.640  33.111  15.028  1.00  0.00     0.158 C 
HETATM    7  C8  UNL     1      44.330  34.376  15.104  1.00  0.00     0.075 C 
HETATM    8  C9  UNL     1      43.185  35.365  15.477  1.00  0.00     0.201 C 
HETATM    9  O4  UNL     1      42.421  34.948  16.516  1.00  0.00    -0.336 OA
HETATM   10  C10 UNL     1      41.454  33.952  16.272  1.00  0.00     0.125 C 
HETATM   11  C11 UNL     1      40.481  34.322  15.230  1.00  0.00     0.193 C 
HETATM   12  O5  UNL     1      39.496  33.656  15.093  1.00  0.00    -0.290 OA
HETATM   13  C12 UNL     1      40.823  35.524  14.418  1.00  0.00     0.144 C 
HETATM   14  C14 UNL     1      42.300  35.562  14.296  1.00  0.00     0.168 C 
HETATM   15  O6  UNL     1      42.782  35.758  13.201  1.00  0.00    -0.294 OA
ENDROOT
BRANCH   3  16
HETATM   16  C5  UNL     1      40.908  30.458  15.689  1.00  0.00     0.199 C 
BRANCH  16  17
HETATM   17  O2  UNL     1      41.705  29.598  16.416  1.00  0.00    -0.398 OA
ATOM     18  H2  UNL     1      41.297  28.741  16.385  1.00  0.00     0.209 HD
ENDBRANCH  16  17
ENDBRANCH   3  16
BRANCH   1  19
HETATM   19  C2  UNL     1      44.324  31.738  13.064  1.00  0.00    -0.003 C 
HETATM   20  C1  UNL     1      43.828  30.699  12.397  1.00  0.00     0.009 C 
ENDBRANCH   1  19
BRANCH  13  21
HETATM   21  C13 UNL     1      40.158  35.530  13.077  1.00  0.00     0.105 C 
HETATM   22 BR1  UNL     1      38.644  36.709  13.064  1.00  0.00    -0.095 Br
ENDBRANCH  13  21
TORSDOF 4
ENDMDL
MODEL 3
REMARK VINA RESULT: -6.339206081      3.290      4.878
REMARK  4 active torsions:
REMARK  status: ('A' for Active; 'I' for Inactive)
REMARK    1  A    between atoms: C2_2  and  C3_3 
REMARK    2  A    between atoms: C4_5  and  C5_6 
REMARK    3  A    between atoms: C5_6  and  O2_7 
REMARK    4  A    between atoms: C12_18  and  C13_19 
ROOT
HETATM    1  C3  UNL     1      47.222  36.279  18.333  1.00  0.00     0.173 C 
HETATM    2  O1  UNL     1      47.312  35.169  19.208  1.00  0.00    -0.369 OA
HETATM    3  C4  UNL     1      46.424  34.117  18.910  1.00  0.00     0.181 C 
HETATM    4  C6  UNL     1      45.012  34.490  18.759  1.00  0.00     0.213 C 
HETATM    5  O3  UNL     1      45.065  35.905  18.622  1.00  0.00    -0.368 OA
HETATM    6  C7  UNL     1      46.009  36.034  17.573  1.00  0.00     0.158 C 
HETATM    7  C8  UNL     1      45.342  36.832  16.573  1.00  0.00     0.075 C 
HETATM    8  C9  UNL     1      44.307  35.833  15.975  1.00  0.00     0.201 C 
HETATM    9  O4  UNL     1      43.579  35.175  16.911  1.00  0.00    -0.336 OA
HETATM   10  C10 UNL     1      44.189  34.104  17.595  1.00  0.00     0.125 C 
HETATM   11  C11 UNL     1      44.679  33.041  16.701  1.00  0.00     0.193 C 
HETATM   12  O5  UNL     1      45.013  31.993  17.175  1.00  0.00    -0.290 OA
HETATM   13  C12 UNL     1      44.716  33.376  15.250  1.00  0.00     0.144 C 
HETATM   14  C14 UNL     1      45.020  34.824  15.145  1.00  0.00     0.168 C 
HETATM   15  O6  UNL     1      45.874  35.176  14.360  1.00  0.00    -0.294 OA
ENDROOT
BRANCH   3  16
HETATM   16  C5  UNL     1      46.543  33.194  20.140  1.00  0.00     0.199 C 
BRANCH  16  17
HETATM   17  O2  UNL     1      46.124  33.917  21.237  1.00  0.00    -0.398 OA
ATOM     18  H2  UNL     1      46.763  34.605  21.382  1.00  0.00     0.209 HD
ENDBRANCH  16  17
ENDBRANCH   3  16
BRANCH   1  19
HETATM   19  C2  UNL     1      48.482  36.341  17.585  1.00  0.00    -0.003 C 
HETATM   20  C1  UNL     1      48.609  35.582  16.499  1.00  0.00     0.009 C 
ENDBRANCH   1  19
BRANCH  13  21
HETATM   21  C13 UNL     1      45.700  32.548  14.484  1.00  0.00     0.105 C 
HETATM   22 BR1  UNL     1      44.804  31.288  13.349  1.00  0.00    -0.095 Br
ENDBRANCH  13  21
TORSDOF 4
ENDMDL
MODEL 4
REMARK VINA RESULT: -6.209330021      2.689      5.273
REMARK  4 active torsions:
REMARK  status: ('A' for Active; 'I' for Inactive)
REMARK    1  A    between atoms: C2_2  and  C3_3 
REMARK    2  A    between atoms: C4_5  and  C5_6 
REMARK    3  A    between atoms: C5_6  and  O2_7 
REMARK    4  A    between atoms: C12_18  and  C13_19 
ROOT
HETATM    1  C3  UNL     1      41.952  32.680  14.071  1.00  0.00     0.173 C 
HETATM    2  O1  UNL     1      41.379  33.971  14.179  1.00  0.00    -0.369 OA
HETATM    3  C4  UNL     1      42.005  34.811  15.120  1.00  0.00     0.181 C 
HETATM    4  C6  UNL     1      42.179  34.253  16.467  1.00  0.00     0.213 C 
HETATM    5  O3  UNL     1      41.951  32.862  16.271  1.00  0.00    -0.368 OA
HETATM    6  C7  UNL     1      42.850  32.594  15.209  1.00  0.00     0.158 C 
HETATM    7  C8  UNL     1      43.671  31.508  15.685  1.00  0.00     0.075 C 
HETATM    8  C9  UNL     1      44.587  32.208  16.733  1.00  0.00     0.201 C 
HETATM    9  O4  UNL     1      43.911  32.984  17.617  1.00  0.00    -0.336 OA
HETATM   10  C10 UNL     1      43.468  34.250  17.186  1.00  0.00     0.125 C 
HETATM   11  C11 UNL     1      44.555  35.116  16.698  1.00  0.00     0.193 C 
HETATM   12  O5  UNL     1      44.332  36.278  16.515  1.00  0.00    -0.290 OA
HETATM   13  C12 UNL     1      45.867  34.449  16.470  1.00  0.00     0.144 C 
HETATM   14  C14 UNL     1      45.579  33.064  16.026  1.00  0.00     0.168 C 
HETATM   15  O6  UNL     1      46.175  32.633  15.062  1.00  0.00    -0.294 OA
ENDROOT
BRANCH   3  16
HETATM   16  C5  UNL     1      41.040  36.010  15.222  1.00  0.00     0.199 C 
BRANCH  16  17
HETATM   17  O2  UNL     1      41.283  36.629  16.431  1.00  0.00    -0.398 OA
ATOM     18  H2  UNL     1      40.457  36.670  16.897  1.00  0.00     0.209 HD
ENDBRANCH  16  17
ENDBRANCH   3  16
BRANCH   1  19
HETATM   19  C2  UNL     1      42.550  32.585  12.735  1.00  0.00    -0.003 C 
HETATM   20  C1  UNL     1      42.407  31.448  12.059  1.00  0.00     0.009 C 
ENDBRANCH   1  19
BRANCH  13  21
HETATM   21  C13 UNL     1      46.728  35.176  15.485  1.00  0.00     0.105 C 
HETATM   22 BR1  UNL     1      48.558  35.210  16.064  1.00  0.00    -0.095 Br
ENDBRANCH  13  21
TORSDOF 4
ENDMDL
MODEL 5
REMARK VINA RESULT: -6.134033116      2.656      3.948
REMARK  4 active torsions:
REMARK  status: ('A' for Active; 'I' for Inactive)
REMARK    1  A    between atoms: C2_2  and  C3_3 
REMARK    2  A    between atoms: C4_5  and  C5_6 
REMARK    3  A    between atoms: C5_6  and  O2_7 
REMARK    4  A    between atoms: C12_18  and  C13_19 
ROOT
HETATM    1  C3  UNL     1      47.383  35.657  17.571  1.00  0.00     0.173 C 
HETATM    2  O1  UNL     1      47.451  34.418  18.256  1.00  0.00    -0.369 OA
HETATM    3  C4  UNL     1      46.281  33.639  18.173  1.00  0.00     0.181 C 
HETATM    4  C6  UNL     1      45.030  34.316  18.537  1.00  0.00     0.213 C 
HETATM    5  O3  UNL     1      45.392  35.692  18.526  1.00  0.00    -0.368 OA
HETATM    6  C7  UNL     1      45.976  35.800  17.240  1.00  0.00     0.158 C 
HETATM    7  C8  UNL     1      45.262  36.878  16.600  1.00  0.00     0.075 C 
HETATM    8  C9  UNL     1      43.879  36.231  16.289  1.00  0.00     0.201 C 
HETATM    9  O4  UNL     1      43.327  35.588  17.347  1.00  0.00    -0.336 OA
HETATM   10  C10 UNL     1      43.826  34.313  17.683  1.00  0.00     0.125 C 
HETATM   11  C11 UNL     1      43.740  33.341  16.580  1.00  0.00     0.193 C 
HETATM   12  O5  UNL     1      43.928  32.182  16.814  1.00  0.00    -0.290 OA
HETATM   13  C12 UNL     1      43.421  33.904  15.239  1.00  0.00     0.144 C 
HETATM   14  C14 UNL     1      44.032  35.254  15.176  1.00  0.00     0.168 C 
HETATM   15  O6  UNL     1      44.669  35.551  14.189  1.00  0.00    -0.294 OA
ENDROOT
BRANCH   3  16
HETATM   16  C5  UNL     1      46.530  32.515  19.200  1.00  0.00     0.199 C 
BRANCH  16  17
HETATM   17  O2  UNL     1      45.790  31.423  18.799  1.00  0.00    -0.398 OA
ATOM     18  H2  UNL     1      46.390  30.808  18.395  1.00  0.00     0.209 HD
ENDBRANCH  16  17
ENDBRANCH   3  16
BRANCH   1  19
HETATM   19  C2  UNL     1      48.332  35.584  16.455  1.00  0.00    -0.003 C 
HETATM   20  C1  UNL     1      48.013  34.833  15.404  1.00  0.00     0.009 C 
ENDBRANCH   1  19
BRANCH  13  21
HETATM   21  C13 UNL     1      43.888  33.034  14.114  1.00  0.00     0.105 C 
HETATM   22 BR1  UNL     1      42.408  32.414  13.062  1.00  0.00    -0.095 Br
ENDBRANCH  13  21
TORSDOF 4
ENDMDL
