MODEL 1
REMARK VINA RESULT: -7.838958508      0.000      0.000
REMARK  4 active torsions:
REMARK  status: ('A' for Active; 'I' for Inactive)
REMARK    1  A    between atoms: C4_4  and  C5_5 
REMARK    2  A    between atoms: C8_12  and  O4_13 
REMARK    3  A    between atoms: O4_13  and  C9_14 
REMARK    4  A    between atoms: C9_14  and  C10_16 
ROOT
HETATM    1  C1  UNL     1      41.541  35.524  16.217  1.00  0.00     0.034 C 
HETATM    2  C2  UNL     1      41.153  35.116  14.825  1.00  0.00     0.089 C 
HETATM    3  C3  UNL     1      40.332  36.153  14.114  1.00  0.00     0.034 C 
HETATM    4  C4  UNL     1      40.389  33.811  14.791  1.00  0.00     0.212 C 
HETATM    5  N1  UNL     1      41.236  32.758  14.355  1.00  0.00    -0.315 N 
HETATM    6  C6  UNL     1      41.654  31.394  14.583  1.00  0.00     0.224 C 
HETATM    7  O3  UNL     1      40.962  30.445  14.983  1.00  0.00    -0.273 OA
HETATM    8  C7  UNL     1      43.108  31.310  14.246  1.00  0.00     0.138 C 
HETATM    9  C8  UNL     1      43.144  32.213  13.022  1.00  0.00     0.178 C 
HETATM   10  C12 UNL     1      42.030  33.186  13.184  1.00  0.00     0.241 C 
HETATM   11  S1  UNL     1      42.572  34.760  13.815  1.00  0.00     0.178 S 
HETATM   12  O6  UNL     1      43.786  34.606  14.680  1.00  0.00    -0.225 OA
HETATM   13  O7  UNL     1      42.755  35.770  12.738  1.00  0.00    -0.225 OA
ENDROOT
BRANCH   9  14
HETATM   14  O4  UNL     1      42.828  31.374  11.905  1.00  0.00    -0.309 OA
BRANCH  14  15
HETATM   15  C9  UNL     1      43.649  30.353  11.492  1.00  0.00     0.284 C 
HETATM   16  O5  UNL     1      44.792  30.267  11.959  1.00  0.00    -0.260 OA
BRANCH  15  17
HETATM   17  C10 UNL     1      43.160  29.371  10.501  1.00  0.00     0.094 C 
HETATM   18  C11 UNL     1      42.213  29.695   9.653  1.00  0.00     0.090 C 
HETATM   19 CL1  UNL     1      41.650  28.527   8.493  1.00  0.00    -0.097 Cl
ENDBRANCH  15  17
ENDBRANCH  14  15
ENDBRANCH   9  14
BRANCH   4  20
HETATM   20  C5  UNL     1      39.826  33.574  16.129  1.00  0.00     0.198 C 
HETATM   21  O1  UNL     1      40.502  33.064  17.075  1.00  0.00    -0.646 OA
HETATM   22  O2  UNL     1      38.513  33.912  16.385  1.00  0.00    -0.646 OA
ENDBRANCH   4  20
TORSDOF 4
ENDMDL
MODEL 2
REMARK VINA RESULT: -7.385048005      3.411      5.384
REMARK  4 active torsions:
REMARK  status: ('A' for Active; 'I' for Inactive)
REMARK    1  A    between atoms: C4_4  and  C5_5 
REMARK    2  A    between atoms: C8_12  and  O4_13 
REMARK    3  A    between atoms: O4_13  and  C9_14 
REMARK    4  A    between atoms: C9_14  and  C10_16 
ROOT
HETATM    1  C1  UNL     1      46.103  34.123  16.022  1.00  0.00     0.034 C 
HETATM    2  C2  UNL     1      44.766  34.271  16.690  1.00  0.00     0.089 C 
HETATM    3  C3  UNL     1      44.808  35.153  17.905  1.00  0.00     0.034 C 
HETATM    4  C4  UNL     1      44.165  32.944  17.096  1.00  0.00     0.212 C 
HETATM    5  N1  UNL     1      43.140  32.571  16.187  1.00  0.00    -0.315 N 
HETATM    6  C6  UNL     1      42.574  31.494  15.409  1.00  0.00     0.224 C 
HETATM    7  O3  UNL     1      42.515  30.290  15.706  1.00  0.00    -0.273 OA
HETATM    8  C7  UNL     1      42.051  32.087  14.140  1.00  0.00     0.138 C 
HETATM    9  C8  UNL     1      41.477  33.389  14.679  1.00  0.00     0.178 C 
HETATM   10  C12 UNL     1      42.265  33.725  15.896  1.00  0.00     0.241 C 
HETATM   11  S1  UNL     1      43.538  34.929  15.585  1.00  0.00     0.178 S 
HETATM   12  O6  UNL     1      44.029  34.844  14.172  1.00  0.00    -0.225 OA
HETATM   13  O7  UNL     1      43.123  36.304  15.971  1.00  0.00    -0.225 OA
ENDROOT
BRANCH   9  14
HETATM   14  O4  UNL     1      40.141  33.085  15.097  1.00  0.00    -0.309 OA
BRANCH  14  15
HETATM   15  C9  UNL     1      39.145  34.030  15.134  1.00  0.00     0.284 C 
HETATM   16  O5  UNL     1      38.254  33.939  15.988  1.00  0.00    -0.260 OA
BRANCH  15  17
HETATM   17  C10 UNL     1      39.147  35.141  14.158  1.00  0.00     0.094 C 
HETATM   18  C11 UNL     1      38.017  35.633  13.707  1.00  0.00     0.090 C 
HETATM   19 CL1  UNL     1      38.038  36.941  12.559  1.00  0.00    -0.097 Cl
ENDBRANCH  15  17
ENDBRANCH  14  15
ENDBRANCH   9  14
BRANCH   4  20
HETATM   20  C5  UNL     1      45.251  31.954  17.172  1.00  0.00     0.198 C 
HETATM   21  O1  UNL     1      45.722  31.376  16.144  1.00  0.00    -0.646 OA
HETATM   22  O2  UNL     1      45.790  31.626  18.399  1.00  0.00    -0.646 OA
ENDBRANCH   4  20
TORSDOF 4
ENDMDL
MODEL 3
REMARK VINA RESULT: -7.348842867      1.628      1.759
REMARK  4 active torsions:
REMARK  status: ('A' for Active; 'I' for Inactive)
REMARK    1  A    between atoms: C4_4  and  C5_5 
REMARK    2  A    between atoms: C8_12  and  O4_13 
REMARK    3  A    between atoms: O4_13  and  C9_14 
REMARK    4  A    between atoms: C9_14  and  C10_16 
ROOT
HETATM    1  C1  UNL     1      41.318  35.652  16.157  1.00  0.00     0.034 C 
HETATM    2  C2  UNL     1      41.072  35.159  14.760  1.00  0.00     0.089 C 
HETATM    3  C3  UNL     1      40.286  36.127  13.923  1.00  0.00     0.034 C 
HETATM    4  C4  UNL     1      40.358  33.826  14.727  1.00  0.00     0.212 C 
HETATM    5  N1  UNL     1      41.275  32.786  14.426  1.00  0.00    -0.315 N 
HETATM    6  C6  UNL     1      41.714  31.451  14.763  1.00  0.00     0.224 C 
HETATM    7  O3  UNL     1      41.021  30.498  15.151  1.00  0.00    -0.273 OA
HETATM    8  C7  UNL     1      43.195  31.405  14.563  1.00  0.00     0.138 C 
HETATM    9  C8  UNL     1      43.313  32.246  13.300  1.00  0.00     0.178 C 
HETATM   10  C12 UNL     1      42.158  33.183  13.310  1.00  0.00     0.241 C 
HETATM   11  S1  UNL     1      42.588  34.806  13.901  1.00  0.00     0.178 S 
HETATM   12  O6  UNL     1      43.722  34.742  14.878  1.00  0.00    -0.225 OA
HETATM   13  O7  UNL     1      42.835  35.766  12.792  1.00  0.00    -0.225 OA
ENDROOT
BRANCH   9  14
HETATM   14  O4  UNL     1      43.128  31.340  12.207  1.00  0.00    -0.309 OA
BRANCH  14  15
HETATM   15  C9  UNL     1      43.769  30.127  12.134  1.00  0.00     0.284 C 
HETATM   16  O5  UNL     1      43.103  29.085  12.200  1.00  0.00    -0.260 OA
BRANCH  15  17
HETATM   17  C10 UNL     1      45.238  30.078  11.979  1.00  0.00     0.094 C 
HETATM   18  C11 UNL     1      45.783  29.360  11.025  1.00  0.00     0.090 C 
HETATM   19 CL1  UNL     1      47.514  29.314  10.857  1.00  0.00    -0.097 Cl
ENDBRANCH  15  17
ENDBRANCH  14  15
ENDBRANCH   9  14
BRANCH   4  20
HETATM   20  C5  UNL     1      39.682  33.637  16.020  1.00  0.00     0.198 C 
HETATM   21  O1  UNL     1      40.277  33.168  17.040  1.00  0.00    -0.646 OA
HETATM   22  O2  UNL     1      38.351  33.974  16.150  1.00  0.00    -0.646 OA
ENDBRANCH   4  20
TORSDOF 4
ENDMDL
MODEL 4
REMARK VINA RESULT: -7.185213116      2.987      6.095
REMARK  4 active torsions:
REMARK  status: ('A' for Active; 'I' for Inactive)
REMARK    1  A    between atoms: C4_4  and  C5_5 
REMARK    2  A    between atoms: C8_12  and  O4_13 
REMARK    3  A    between atoms: O4_13  and  C9_14 
REMARK    4  A    between atoms: C9_14  and  C10_16 
ROOT
HETATM    1  C1  UNL     1      44.835  30.054  14.877  1.00  0.00     0.034 C 
HETATM    2  C2  UNL     1      43.902  30.770  13.943  1.00  0.00     0.089 C 
HETATM    3  C3  UNL     1      43.843  30.149  12.577  1.00  0.00     0.034 C 
HETATM    4  C4  UNL     1      44.251  32.233  13.777  1.00  0.00     0.212 C 
HETATM    5  N1  UNL     1      43.356  33.039  14.529  1.00  0.00    -0.315 N 
HETATM    6  C6  UNL     1      43.236  34.163  15.428  1.00  0.00     0.224 C 
HETATM    7  O3  UNL     1      43.916  35.202  15.440  1.00  0.00    -0.273 OA
HETATM    8  C7  UNL     1      42.120  33.861  16.375  1.00  0.00     0.138 C 
HETATM    9  C8  UNL     1      41.144  33.189  15.421  1.00  0.00     0.178 C 
HETATM   10  C12 UNL     1      41.965  32.580  14.340  1.00  0.00     0.241 C 
HETATM   11  S1  UNL     1      42.243  30.838  14.579  1.00  0.00     0.178 S 
HETATM   12  O6  UNL     1      42.243  30.487  16.036  1.00  0.00    -0.225 OA
HETATM   13  O7  UNL     1      41.308  30.000  13.783  1.00  0.00    -0.225 OA
ENDROOT
BRANCH   9  14
HETATM   14  O4  UNL     1      40.374  34.246  14.838  1.00  0.00    -0.309 OA
BRANCH  14  15
HETATM   15  C9  UNL     1      39.019  34.366  15.028  1.00  0.00     0.284 C 
HETATM   16  O5  UNL     1      38.487  33.785  15.982  1.00  0.00    -0.260 OA
BRANCH  15  17
HETATM   17  C10 UNL     1      38.213  35.183  14.095  1.00  0.00     0.094 C 
HETATM   18  C11 UNL     1      38.774  36.137  13.391  1.00  0.00     0.090 C 
HETATM   19 CL1  UNL     1      37.811  37.089  12.298  1.00  0.00    -0.097 Cl
ENDBRANCH  15  17
ENDBRANCH  14  15
ENDBRANCH   9  14
BRANCH   4  20
HETATM   20  C5  UNL     1      45.656  32.416  14.171  1.00  0.00     0.198 C 
HETATM   21  O1  UNL     1      46.014  32.553  15.382  1.00  0.00    -0.646 OA
HETATM   22  O2  UNL     1      46.638  32.445  13.202  1.00  0.00    -0.646 OA
ENDBRANCH   4  20
TORSDOF 4
ENDMDL
MODEL 5
REMARK VINA RESULT: -7.076512529      3.703      5.704
REMARK  4 active torsions:
REMARK  status: ('A' for Active; 'I' for Inactive)
REMARK    1  A    between atoms: C4_4  and  C5_5 
REMARK    2  A    between atoms: C8_12  and  O4_13 
REMARK    3  A    between atoms: O4_13  and  C9_14 
REMARK    4  A    between atoms: C9_14  and  C10_16 
ROOT
HETATM    1  C1  UNL     1      46.770  34.089  16.220  1.00  0.00     0.034 C 
HETATM    2  C2  UNL     1      45.591  34.583  17.007  1.00  0.00     0.089 C 
HETATM    3  C3  UNL     1      45.981  35.298  18.268  1.00  0.00     0.034 C 
HETATM    4  C4  UNL     1      44.629  33.476  17.376  1.00  0.00     0.212 C 
HETATM    5  N1  UNL     1      43.486  33.519  16.536  1.00  0.00    -0.315 N 
HETATM    6  C6  UNL     1      42.563  32.742  15.741  1.00  0.00     0.224 C 
HETATM    7  O3  UNL     1      42.148  31.594  15.964  1.00  0.00    -0.273 OA
HETATM    8  C7  UNL     1      42.178  33.577  14.562  1.00  0.00     0.138 C 
HETATM    9  C8  UNL     1      42.075  34.939  15.231  1.00  0.00     0.178 C 
HETATM   10  C12 UNL     1      43.001  34.907  16.395  1.00  0.00     0.241 C 
HETATM   11  S1  UNL     1      44.567  35.683  16.056  1.00  0.00     0.178 S 
HETATM   12  O6  UNL     1      44.920  35.575  14.603  1.00  0.00    -0.225 OA
HETATM   13  O7  UNL     1      44.630  37.079  16.564  1.00  0.00    -0.225 OA
ENDROOT
BRANCH   9  14
HETATM   14  O4  UNL     1      40.740  35.027  15.741  1.00  0.00    -0.309 OA
BRANCH  14  15
HETATM   15  C9  UNL     1      39.633  34.802  14.959  1.00  0.00     0.284 C 
HETATM   16  O5  UNL     1      38.875  33.864  15.237  1.00  0.00    -0.260 OA
BRANCH  15  17
HETATM   17  C10 UNL     1      39.360  35.677  13.799  1.00  0.00     0.094 C 
HETATM   18  C11 UNL     1      38.134  36.060  13.529  1.00  0.00     0.090 C 
HETATM   19 CL1  UNL     1      37.831  37.091  12.160  1.00  0.00    -0.097 Cl
ENDBRANCH  15  17
ENDBRANCH  14  15
ENDBRANCH   9  14
BRANCH   4  20
HETATM   20  C5  UNL     1      45.351  32.197  17.295  1.00  0.00     0.198 C 
HETATM   21  O1  UNL     1      45.508  31.568  16.203  1.00  0.00    -0.646 OA
HETATM   22  O2  UNL     1      45.885  31.641  18.440  1.00  0.00    -0.646 OA
ENDBRANCH   4  20
TORSDOF 4
ENDMDL
