MODEL 1
REMARK VINA RESULT: -7.548660977      0.000      0.000
REMARK  3 active torsions:
REMARK  status: ('A' for Active; 'I' for Inactive)
REMARK    1  A    between atoms: C3_3  and  C4_4 
REMARK    2  A    between atoms: C4_4  and  C5_5 
REMARK    3  A    between atoms: C15_17  and  O2_18 
ROOT
HETATM    1  C5  UNL     1     -12.929  -2.861  -1.708  1.00  0.00     0.138 C 
HETATM    2  O1  UNL     1     -12.121  -2.283  -0.710  1.00  0.00    -0.338 OA
HETATM    3  C6  UNL     1     -10.831  -2.587  -0.445  1.00  0.00     0.114 C 
HETATM    4  S1  UNL     1     -10.071  -1.887   0.802  1.00  0.00    -0.058 SA
HETATM    5  C7  UNL     1     -10.135  -3.561  -1.309  1.00  0.00     0.087 C 
HETATM    6  C8  UNL     1     -11.158  -4.649  -1.674  1.00  0.00    -0.027 C 
HETATM    7  C9  UNL     1     -11.703  -5.183  -0.354  1.00  0.00     0.016 C 
HETATM    8  C10 UNL     1     -12.309  -4.026  -2.409  1.00  0.00     0.024 C 
HETATM    9  C11 UNL     1     -11.847  -3.634  -3.771  1.00  0.00     0.009 C 
HETATM   10  C12 UNL     1     -11.039  -4.644  -4.497  1.00  0.00     0.012 C 
HETATM   11  C13 UNL     1     -10.931  -5.977  -3.803  1.00  0.00    -0.014 C 
HETATM   12  C14 UNL     1     -12.192  -6.802  -3.987  1.00  0.00     0.018 C 
HETATM   13  C15 UNL     1      -9.799  -6.804  -4.374  1.00  0.00     0.126 C 
HETATM   14  C16 UNL     1      -8.566  -6.535  -3.593  1.00  0.00     0.033 C 
HETATM   15  C17 UNL     1      -9.019  -5.600  -2.504  1.00  0.00     0.009 C 
HETATM   16  C18 UNL     1     -10.526  -5.777  -2.395  1.00  0.00     0.005 C 
ENDROOT
BRANCH   1  17
HETATM   17  C4  UNL     1     -13.344  -1.753  -2.637  1.00  0.00     0.059 C 
BRANCH  17  18
HETATM   18  C3  UNL     1     -14.796  -1.812  -2.864  1.00  0.00    -0.028 C 
HETATM   19  C2  UNL     1     -15.387  -2.230  -3.939  1.00  0.00    -0.035 C 
HETATM   20  C1  UNL     1     -16.898  -2.213  -3.979  1.00  0.00     0.036 C 
ENDBRANCH  17  18
ENDBRANCH   1  17
BRANCH  13  21
HETATM   21  O2  UNL     1      -9.649  -6.606  -5.742  1.00  0.00    -0.395 OA
ATOM     22  H2  UNL     1      -8.756  -6.757  -6.027  1.00  0.00     0.210 HD
ENDBRANCH  13  21
TORSDOF 3
ENDMDL
MODEL 2
REMARK VINA RESULT: -6.866310839      2.290      4.425
REMARK  3 active torsions:
REMARK  status: ('A' for Active; 'I' for Inactive)
REMARK    1  A    between atoms: C3_3  and  C4_4 
REMARK    2  A    between atoms: C4_4  and  C5_5 
REMARK    3  A    between atoms: C15_17  and  O2_18 
ROOT
HETATM    1  C5  UNL     1     -10.543  -2.529  -0.578  1.00  0.00     0.138 C 
HETATM    2  O1  UNL     1     -11.724  -1.934  -1.057  1.00  0.00    -0.338 OA
HETATM    3  C6  UNL     1     -12.676  -2.530  -1.809  1.00  0.00     0.114 C 
HETATM    4  S1  UNL     1     -13.937  -1.671  -2.354  1.00  0.00    -0.058 SA
HETATM    5  C7  UNL     1     -12.545  -3.967  -2.119  1.00  0.00     0.087 C 
HETATM    6  C8  UNL     1     -11.050  -4.243  -2.350  1.00  0.00    -0.027 C 
HETATM    7  C9  UNL     1     -10.601  -3.272  -3.436  1.00  0.00     0.016 C 
HETATM    8  C10 UNL     1     -10.283  -3.902  -1.106  1.00  0.00     0.024 C 
HETATM    9  C11 UNL     1     -10.580  -4.930  -0.068  1.00  0.00     0.009 C 
HETATM   10  C12 UNL     1     -10.551  -6.341  -0.525  1.00  0.00     0.012 C 
HETATM   11  C13 UNL     1     -10.078  -6.530  -1.943  1.00  0.00    -0.014 C 
HETATM   12  C14 UNL     1      -8.566  -6.430  -2.042  1.00  0.00     0.018 C 
HETATM   13  C15 UNL     1     -10.444  -7.903  -2.466  1.00  0.00     0.126 C 
HETATM   14  C16 UNL     1     -11.764  -7.823  -3.140  1.00  0.00     0.033 C 
HETATM   15  C17 UNL     1     -12.122  -6.363  -3.074  1.00  0.00     0.009 C 
HETATM   16  C18 UNL     1     -10.816  -5.618  -2.843  1.00  0.00     0.005 C 
ENDROOT
BRANCH   1  17
HETATM   17  C4  UNL     1     -10.594  -2.464   0.925  1.00  0.00     0.059 C 
BRANCH  17  18
HETATM   18  C3  UNL     1     -10.465  -1.068   1.367  1.00  0.00    -0.028 C 
HETATM   19  C2  UNL     1      -9.504  -0.577   2.086  1.00  0.00    -0.035 C 
HETATM   20  C1  UNL     1      -9.551   0.892   2.438  1.00  0.00     0.036 C 
ENDBRANCH  17  18
ENDBRANCH   1  17
BRANCH  13  21
HETATM   21  O2  UNL     1     -10.382  -8.872  -1.471  1.00  0.00    -0.395 OA
ATOM     22  H2  UNL     1     -10.201  -9.734  -1.826  1.00  0.00     0.210 HD
ENDBRANCH  13  21
TORSDOF 3
ENDMDL
MODEL 3
REMARK VINA RESULT: -6.863268477      2.501      4.603
REMARK  3 active torsions:
REMARK  status: ('A' for Active; 'I' for Inactive)
REMARK    1  A    between atoms: C3_3  and  C4_4 
REMARK    2  A    between atoms: C4_4  and  C5_5 
REMARK    3  A    between atoms: C15_17  and  O2_18 
ROOT
HETATM    1  C5  UNL     1     -10.493  -2.668   0.723  1.00  0.00     0.138 C 
HETATM    2  O1  UNL     1      -9.158  -3.113   0.718  1.00  0.00    -0.338 OA
HETATM    3  C6  UNL     1      -8.549  -3.815  -0.262  1.00  0.00     0.114 C 
HETATM    4  S1  UNL     1      -7.024  -4.328  -0.069  1.00  0.00    -0.058 SA
HETATM    5  C7  UNL     1      -9.295  -4.104  -1.504  1.00  0.00     0.087 C 
HETATM    6  C8  UNL     1     -10.751  -4.387  -1.097  1.00  0.00    -0.027 C 
HETATM    7  C9  UNL     1     -10.695  -5.508  -0.066  1.00  0.00     0.016 C 
HETATM    8  C10 UNL     1     -11.321  -3.180  -0.411  1.00  0.00     0.024 C 
HETATM    9  C11 UNL     1     -11.537  -2.112  -1.428  1.00  0.00     0.009 C 
HETATM   10  C12 UNL     1     -12.176  -2.544  -2.695  1.00  0.00     0.012 C 
HETATM   11  C13 UNL     1     -12.646  -3.975  -2.703  1.00  0.00    -0.014 C 
HETATM   12  C14 UNL     1     -13.954  -4.134  -1.949  1.00  0.00     0.018 C 
HETATM   13  C15 UNL     1     -12.912  -4.457  -4.114  1.00  0.00     0.126 C 
HETATM   14  C16 UNL     1     -11.677  -5.082  -4.649  1.00  0.00     0.033 C 
HETATM   15  C17 UNL     1     -10.711  -5.029  -3.496  1.00  0.00     0.009 C 
HETATM   16  C18 UNL     1     -11.558  -4.862  -2.243  1.00  0.00     0.005 C 
ENDROOT
BRANCH   1  17
HETATM   17  C4  UNL     1     -10.458  -1.167   0.810  1.00  0.00     0.059 C 
BRANCH  17  18
HETATM   18  C3  UNL     1     -10.008  -0.755   2.148  1.00  0.00    -0.028 C 
HETATM   19  C2  UNL     1      -8.957  -0.046   2.418  1.00  0.00    -0.035 C 
HETATM   20  C1  UNL     1      -8.662   0.275   3.866  1.00  0.00     0.036 C 
ENDBRANCH  17  18
ENDBRANCH   1  17
BRANCH  13  21
HETATM   21  O2  UNL     1     -13.424  -3.448  -4.921  1.00  0.00    -0.395 OA
ATOM     22  H2  UNL     1     -13.262  -3.613  -5.842  1.00  0.00     0.210 HD
ENDBRANCH  13  21
TORSDOF 3
ENDMDL
MODEL 4
REMARK VINA RESULT: -6.823087699      2.644      3.976
REMARK  3 active torsions:
REMARK  status: ('A' for Active; 'I' for Inactive)
REMARK    1  A    between atoms: C3_3  and  C4_4 
REMARK    2  A    between atoms: C4_4  and  C5_5 
REMARK    3  A    between atoms: C15_17  and  O2_18 
ROOT
HETATM    1  C5  UNL     1     -13.192  -2.906  -4.056  1.00  0.00     0.138 C 
HETATM    2  O1  UNL     1     -13.518  -3.864  -5.034  1.00  0.00    -0.338 OA
HETATM    3  C6  UNL     1     -13.109  -5.152  -5.064  1.00  0.00     0.114 C 
HETATM    4  S1  UNL     1     -13.504  -6.102  -6.315  1.00  0.00    -0.058 SA
HETATM    5  C7  UNL     1     -12.300  -5.671  -3.942  1.00  0.00     0.087 C 
HETATM    6  C8  UNL     1     -11.357  -4.538  -3.507  1.00  0.00    -0.027 C 
HETATM    7  C9  UNL     1     -10.590  -4.117  -4.755  1.00  0.00     0.016 C 
HETATM    8  C10 UNL     1     -12.169  -3.355  -3.065  1.00  0.00     0.024 C 
HETATM    9  C11 UNL     1     -12.809  -3.679  -1.758  1.00  0.00     0.009 C 
HETATM   10  C12 UNL     1     -11.932  -4.322  -0.749  1.00  0.00     0.012 C 
HETATM   11  C13 UNL     1     -10.482  -4.417  -1.148  1.00  0.00    -0.014 C 
HETATM   12  C14 UNL     1      -9.770  -3.088  -0.971  1.00  0.00     0.018 C 
HETATM   13  C15 UNL     1      -9.739  -5.412  -0.283  1.00  0.00     0.126 C 
HETATM   14  C16 UNL     1      -9.787  -6.745  -0.935  1.00  0.00     0.033 C 
HETATM   15  C17 UNL     1     -10.500  -6.491  -2.235  1.00  0.00     0.009 C 
HETATM   16  C18 UNL     1     -10.373  -4.999  -2.502  1.00  0.00     0.005 C 
ENDROOT
BRANCH   1  17
HETATM   17  C4  UNL     1     -14.484  -2.463  -3.425  1.00  0.00     0.059 C 
BRANCH  17  18
HETATM   18  C3  UNL     1     -15.484  -2.198  -4.471  1.00  0.00    -0.028 C 
HETATM   19  C2  UNL     1     -16.744  -2.498  -4.419  1.00  0.00    -0.035 C 
HETATM   20  C1  UNL     1     -17.615  -2.140  -5.603  1.00  0.00     0.036 C 
ENDBRANCH  17  18
ENDBRANCH   1  17
BRANCH  13  21
HETATM   21  O2  UNL     1     -10.205  -5.413   1.027  1.00  0.00    -0.395 OA
ATOM     22  H2  UNL     1     -11.016  -5.898   1.115  1.00  0.00     0.210 HD
ENDBRANCH  13  21
TORSDOF 3
ENDMDL
MODEL 5
REMARK VINA RESULT: -6.599672471      2.474      4.421
REMARK  3 active torsions:
REMARK  status: ('A' for Active; 'I' for Inactive)
REMARK    1  A    between atoms: C3_3  and  C4_4 
REMARK    2  A    between atoms: C4_4  and  C5_5 
REMARK    3  A    between atoms: C15_17  and  O2_18 
ROOT
HETATM    1  C5  UNL     1     -10.592  -3.314  -1.209  1.00  0.00     0.138 C 
HETATM    2  O1  UNL     1     -11.469  -2.576  -2.025  1.00  0.00    -0.338 OA
HETATM    3  C6  UNL     1     -12.309  -3.075  -2.959  1.00  0.00     0.114 C 
HETATM    4  S1  UNL     1     -13.191  -2.074  -3.878  1.00  0.00    -0.058 SA
HETATM    5  C7  UNL     1     -12.404  -4.540  -3.124  1.00  0.00     0.087 C 
HETATM    6  C8  UNL     1     -10.989  -5.107  -2.931  1.00  0.00    -0.027 C 
HETATM    7  C9  UNL     1     -10.095  -4.371  -3.923  1.00  0.00     0.016 C 
HETATM    8  C10 UNL     1     -10.498  -4.765  -1.554  1.00  0.00     0.024 C 
HETATM    9  C11 UNL     1     -11.247  -5.590  -0.564  1.00  0.00     0.009 C 
HETATM   10  C12 UNL     1     -11.398  -7.027  -0.899  1.00  0.00     0.012 C 
HETATM   11  C13 UNL     1     -10.639  -7.467  -2.125  1.00  0.00    -0.014 C 
HETATM   12  C14 UNL     1      -9.163  -7.656  -1.825  1.00  0.00     0.018 C 
HETATM   13  C15 UNL     1     -11.141  -8.803  -2.630  1.00  0.00     0.126 C 
HETATM   14  C16 UNL     1     -12.208  -8.567  -3.634  1.00  0.00     0.033 C 
HETATM   15  C17 UNL     1     -12.262  -7.069  -3.765  1.00  0.00     0.009 C 
HETATM   16  C18 UNL     1     -10.929  -6.551  -3.248  1.00  0.00     0.005 C 
ENDROOT
BRANCH   1  17
HETATM   17  C4  UNL     1     -10.997  -3.062   0.217  1.00  0.00     0.059 C 
BRANCH  17  18
HETATM   18  C3  UNL     1     -10.134  -2.026   0.804  1.00  0.00    -0.028 C 
HETATM   19  C2  UNL     1     -10.483  -1.153   1.697  1.00  0.00    -0.035 C 
HETATM   20  C1  UNL     1      -9.444  -0.166   2.179  1.00  0.00     0.036 C 
ENDBRANCH  17  18
ENDBRANCH   1  17
BRANCH  13  21
HETATM   21  O2  UNL     1     -11.526  -9.641  -1.590  1.00  0.00    -0.395 OA
ATOM     22  H2  UNL     1     -12.395 -10.000  -1.727  1.00  0.00     0.210 HD
ENDBRANCH  13  21
TORSDOF 3
ENDMDL
