MODEL 1
REMARK VINA RESULT: -7.979469575      0.000      0.000
REMARK  4 active torsions:
REMARK  status: ('A' for Active; 'I' for Inactive)
REMARK    1  A    between atoms: C4_6  and  C5_7 
REMARK    2  A    between atoms: C6_8  and  C7_9 
REMARK    3  A    between atoms: C9_11  and  C10_12 
REMARK    4  A    between atoms: C14_16  and  O1_18 
ROOT
HETATM    1  C1  UNL     1     -13.784  -1.767  -2.461  1.00  0.00     0.146 C 
HETATM    2  N1  UNL     1     -13.280  -2.929  -3.150  1.00  0.00    -0.395 N 
ATOM      3  H1  UNL     1     -13.512  -3.091  -4.130  1.00  0.00     0.159 HD
HETATM    4  C2  UNL     1     -12.537  -3.758  -2.510  1.00  0.00     0.052 C 
HETATM    5  C3  UNL     1     -12.210  -3.512  -1.090  1.00  0.00     0.072 C 
HETATM    6  C4  UNL     1     -10.771  -2.984  -1.045  1.00  0.00     0.048 C 
HETATM    7  C14 UNL     1      -9.828  -3.934  -1.772  1.00  0.00     0.062 C 
HETATM    8  C15 UNL     1      -9.457  -3.358  -3.108  1.00  0.00     0.046 C 
HETATM    9  C16 UNL     1     -10.215  -5.353  -1.759  1.00  0.00     0.055 C 
HETATM   10  C17 UNL     1     -10.992  -5.861  -2.936  1.00  0.00     0.022 C 
HETATM   11  C18 UNL     1     -11.746  -7.111  -2.451  1.00  0.00     0.023 C 
HETATM   12  C19 UNL     1     -10.156  -6.288  -4.098  1.00  0.00     0.023 C 
HETATM   13  C20 UNL     1     -12.084  -4.910  -3.318  1.00  0.00     0.179 C 
HETATM   14  O2  UNL     1     -12.669  -5.087  -4.399  1.00  0.00    -0.290 OA
ENDROOT
BRANCH   6  15
HETATM   15  C5  UNL     1     -10.444  -2.858   0.368  1.00  0.00    -0.018 C 
HETATM   16  C6  UNL     1     -10.478  -1.839   1.138  1.00  0.00     0.003 C 
BRANCH  16  17
HETATM   17  C7  UNL     1     -10.823  -0.447   1.000  1.00  0.00    -0.065 C 
HETATM   18  C8  UNL     1     -11.913   0.038   0.139  1.00  0.00     0.048 C 
HETATM   19  C9  UNL     1     -10.073   0.414   1.702  1.00  0.00    -0.012 C 
BRANCH  19  20
HETATM   20  C10 UNL     1     -10.169   1.858   1.772  1.00  0.00    -0.033 C 
HETATM   21  C11 UNL     1     -11.287   2.368   2.657  1.00  0.00     0.018 C 
HETATM   22  C12 UNL     1      -8.858   2.387   2.408  1.00  0.00     0.018 C 
HETATM   23  C13 UNL     1     -10.208   2.438   0.376  1.00  0.00     0.018 C 
ENDBRANCH  19  20
ENDBRANCH  16  17
ENDBRANCH   6  15
BRANCH   7  24
HETATM   24  O1  UNL     1      -8.633  -3.854  -0.998  1.00  0.00    -0.390 OA
ATOM     25  H1  UNL     1      -8.490  -4.754  -0.732  1.00  0.00     0.210 HD
ENDBRANCH   7  24
TORSDOF 4
ENDMDL
MODEL 2
REMARK VINA RESULT: -7.494600571      1.808      3.115
REMARK  4 active torsions:
REMARK  status: ('A' for Active; 'I' for Inactive)
REMARK    1  A    between atoms: C4_6  and  C5_7 
REMARK    2  A    between atoms: C6_8  and  C7_9 
REMARK    3  A    between atoms: C9_11  and  C10_12 
REMARK    4  A    between atoms: C14_16  and  O1_18 
ROOT
HETATM    1  C1  UNL     1      -8.227  -3.404   0.456  1.00  0.00     0.146 C 
HETATM    2  N1  UNL     1      -8.510  -4.437  -0.509  1.00  0.00    -0.395 N 
ATOM      3  H1  UNL     1      -8.033  -5.337  -0.459  1.00  0.00     0.159 HD
HETATM    4  C2  UNL     1      -9.372  -4.206  -1.434  1.00  0.00     0.052 C 
HETATM    5  C3  UNL     1     -10.055  -2.898  -1.496  1.00  0.00     0.072 C 
HETATM    6  C4  UNL     1     -11.470  -3.103  -0.943  1.00  0.00     0.048 C 
HETATM    7  C14 UNL     1     -12.174  -4.237  -1.677  1.00  0.00     0.062 C 
HETATM    8  C15 UNL     1     -12.207  -5.460  -0.809  1.00  0.00     0.046 C 
HETATM    9  C16 UNL     1     -11.768  -4.440  -3.077  1.00  0.00     0.055 C 
HETATM   10  C17 UNL     1     -10.705  -5.465  -3.338  1.00  0.00     0.022 C 
HETATM   11  C18 UNL     1     -10.069  -5.094  -4.688  1.00  0.00     0.023 C 
HETATM   12  C19 UNL     1     -11.208  -6.865  -3.470  1.00  0.00     0.023 C 
HETATM   13  C20 UNL     1      -9.576  -5.337  -2.363  1.00  0.00     0.179 C 
HETATM   14  O2  UNL     1      -8.731  -6.246  -2.317  1.00  0.00    -0.290 OA
ENDROOT
BRANCH   6  15
HETATM   15  C5  UNL     1     -12.149  -1.827  -1.121  1.00  0.00    -0.018 C 
HETATM   16  C6  UNL     1     -12.039  -0.733  -0.470  1.00  0.00     0.003 C 
BRANCH  16  17
HETATM   17  C7  UNL     1     -11.264  -0.268   0.653  1.00  0.00    -0.065 C 
HETATM   18  C8  UNL     1     -10.742  -1.157   1.703  1.00  0.00     0.048 C 
HETATM   19  C9  UNL     1     -11.047   1.053   0.706  1.00  0.00    -0.012 C 
BRANCH  19  20
HETATM   20  C10 UNL     1     -10.315   1.815   1.697  1.00  0.00    -0.033 C 
HETATM   21  C11 UNL     1      -9.105   1.105   2.266  1.00  0.00     0.018 C 
HETATM   22  C12 UNL     1      -9.763   3.087   1.000  1.00  0.00     0.018 C 
HETATM   23  C13 UNL     1     -11.263   2.315   2.764  1.00  0.00     0.018 C 
ENDBRANCH  19  20
ENDBRANCH  16  17
ENDBRANCH   6  15
BRANCH   7  24
HETATM   24  O1  UNL     1     -13.529  -3.793  -1.730  1.00  0.00    -0.390 OA
ATOM     25  H1  UNL     1     -13.635  -3.540  -2.639  1.00  0.00     0.210 HD
ENDBRANCH   7  24
TORSDOF 4
ENDMDL
MODEL 3
REMARK VINA RESULT: -7.074783079      3.474      5.103
REMARK  4 active torsions:
REMARK  status: ('A' for Active; 'I' for Inactive)
REMARK    1  A    between atoms: C4_6  and  C5_7 
REMARK    2  A    between atoms: C6_8  and  C7_9 
REMARK    3  A    between atoms: C9_11  and  C10_12 
REMARK    4  A    between atoms: C14_16  and  O1_18 
ROOT
HETATM    1  C1  UNL     1     -12.163  -5.924  -5.840  1.00  0.00     0.146 C 
HETATM    2  N1  UNL     1     -11.183  -6.979  -5.763  1.00  0.00    -0.395 N 
ATOM      3  H1  UNL     1     -10.629  -7.233  -6.582  1.00  0.00     0.159 HD
HETATM    4  C2  UNL     1     -11.017  -7.595  -4.648  1.00  0.00     0.052 C 
HETATM    5  C3  UNL     1     -11.826  -7.219  -3.470  1.00  0.00     0.072 C 
HETATM    6  C4  UNL     1     -10.922  -6.388  -2.552  1.00  0.00     0.048 C 
HETATM    7  C14 UNL     1      -9.635  -7.141  -2.241  1.00  0.00     0.062 C 
HETATM    8  C15 UNL     1      -8.502  -6.559  -3.035  1.00  0.00     0.046 C 
HETATM    9  C16 UNL     1      -9.740  -8.608  -2.232  1.00  0.00     0.055 C 
HETATM   10  C17 UNL     1      -9.384  -9.327  -3.498  1.00  0.00     0.022 C 
HETATM   11  C18 UNL     1     -10.098 -10.688  -3.440  1.00  0.00     0.023 C 
HETATM   12  C19 UNL     1      -7.927  -9.613  -3.665  1.00  0.00     0.023 C 
HETATM   13  C20 UNL     1      -9.989  -8.656  -4.693  1.00  0.00     0.179 C 
HETATM   14  O2  UNL     1      -9.609  -9.006  -5.822  1.00  0.00    -0.290 OA
ENDROOT
BRANCH   6  15
HETATM   15  C5  UNL     1     -11.711  -6.129  -1.356  1.00  0.00    -0.018 C 
HETATM   16  C6  UNL     1     -12.274  -5.056  -0.952  1.00  0.00     0.003 C 
BRANCH  16  17
HETATM   17  C7  UNL     1     -12.393  -3.702  -1.433  1.00  0.00    -0.065 C 
HETATM   18  C8  UNL     1     -11.451  -2.629  -1.079  1.00  0.00     0.048 C 
HETATM   19  C9  UNL     1     -13.441  -3.455  -2.230  1.00  0.00    -0.012 C 
BRANCH  19  20
HETATM   20  C10 UNL     1     -13.830  -2.212  -2.864  1.00  0.00    -0.033 C 
HETATM   21  C11 UNL     1     -13.050  -1.879  -4.118  1.00  0.00     0.018 C 
HETATM   22  C12 UNL     1     -15.306  -2.354  -3.316  1.00  0.00     0.018 C 
HETATM   23  C13 UNL     1     -13.821  -1.093  -1.847  1.00  0.00     0.018 C 
ENDBRANCH  19  20
ENDBRANCH  16  17
ENDBRANCH   6  15
BRANCH   7  24
HETATM   24  O1  UNL     1      -9.363  -6.766  -0.892  1.00  0.00    -0.390 OA
ATOM     25  H1  UNL     1      -8.791  -6.014  -0.991  1.00  0.00     0.210 HD
ENDBRANCH   7  24
TORSDOF 4
ENDMDL
MODEL 4
REMARK VINA RESULT: -7.035258413      3.664      5.434
REMARK  4 active torsions:
REMARK  status: ('A' for Active; 'I' for Inactive)
REMARK    1  A    between atoms: C4_6  and  C5_7 
REMARK    2  A    between atoms: C6_8  and  C7_9 
REMARK    3  A    between atoms: C9_11  and  C10_12 
REMARK    4  A    between atoms: C14_16  and  O1_18 
ROOT
HETATM    1  C1  UNL     1      -9.880  -5.160  -5.031  1.00  0.00     0.146 C 
HETATM    2  N1  UNL     1     -10.310  -6.458  -5.487  1.00  0.00    -0.395 N 
ATOM      3  H1  UNL     1      -9.910  -6.870  -6.331  1.00  0.00     0.159 HD
HETATM    4  C2  UNL     1     -11.206  -7.089  -4.816  1.00  0.00     0.052 C 
HETATM    5  C3  UNL     1     -11.778  -6.481  -3.597  1.00  0.00     0.072 C 
HETATM    6  C4  UNL     1     -11.125  -7.180  -2.398  1.00  0.00     0.048 C 
HETATM    7  C14 UNL     1     -11.286  -8.691  -2.505  1.00  0.00     0.062 C 
HETATM    8  C15 UNL     1      -9.985  -9.310  -2.925  1.00  0.00     0.046 C 
HETATM    9  C16 UNL     1     -12.489  -9.157  -3.212  1.00  0.00     0.055 C 
HETATM   10  C17 UNL     1     -12.347  -9.469  -4.671  1.00  0.00     0.022 C 
HETATM   11  C18 UNL     1     -13.756  -9.359  -5.277  1.00  0.00     0.023 C 
HETATM   12  C19 UNL     1     -11.858 -10.849  -4.969  1.00  0.00     0.023 C 
HETATM   13  C20 UNL     1     -11.567  -8.406  -5.381  1.00  0.00     0.179 C 
HETATM   14  O2  UNL     1     -11.185  -8.630  -6.541  1.00  0.00    -0.290 OA
ENDROOT
BRANCH   6  15
HETATM   15  C5  UNL     1     -11.789  -6.638  -1.221  1.00  0.00    -0.018 C 
HETATM   16  C6  UNL     1     -12.146  -5.442  -0.949  1.00  0.00     0.003 C 
BRANCH  16  17
HETATM   17  C7  UNL     1     -12.074  -4.163  -1.609  1.00  0.00    -0.065 C 
HETATM   18  C8  UNL     1     -10.814  -3.437  -1.836  1.00  0.00     0.048 C 
HETATM   19  C9  UNL     1     -13.243  -3.642  -2.004  1.00  0.00    -0.012 C 
BRANCH  19  20
HETATM   20  C10 UNL     1     -13.498  -2.389  -2.685  1.00  0.00    -0.033 C 
HETATM   21  C11 UNL     1     -12.718  -2.204  -3.970  1.00  0.00     0.018 C 
HETATM   22  C12 UNL     1     -14.993  -2.371  -3.097  1.00  0.00     0.018 C 
HETATM   23  C13 UNL     1     -13.328  -1.237  -1.719  1.00  0.00     0.018 C 
ENDBRANCH  19  20
ENDBRANCH  16  17
ENDBRANCH   6  15
BRANCH   7  24
HETATM   24  O1  UNL     1     -11.457  -9.092  -1.147  1.00  0.00    -0.390 OA
ATOM     25  H1  UNL     1     -12.391  -8.987  -1.010  1.00  0.00     0.210 HD
ENDBRANCH   7  24
TORSDOF 4
ENDMDL
MODEL 5
REMARK VINA RESULT: -6.869460084      3.355      5.004
REMARK  4 active torsions:
REMARK  status: ('A' for Active; 'I' for Inactive)
REMARK    1  A    between atoms: C4_6  and  C5_7 
REMARK    2  A    between atoms: C6_8  and  C7_9 
REMARK    3  A    between atoms: C9_11  and  C10_12 
REMARK    4  A    between atoms: C14_16  and  O1_18 
ROOT
HETATM    1  C1  UNL     1     -13.325  -5.906  -6.167  1.00  0.00     0.146 C 
HETATM    2  N1  UNL     1     -12.137  -6.679  -6.432  1.00  0.00    -0.395 N 
ATOM      3  H1  UNL     1     -11.781  -6.772  -7.383  1.00  0.00     0.159 HD
HETATM    4  C2  UNL     1     -11.535  -7.250  -5.452  1.00  0.00     0.052 C 
HETATM    5  C3  UNL     1     -12.062  -7.109  -4.078  1.00  0.00     0.072 C 
HETATM    6  C4  UNL     1     -11.171  -6.090  -3.358  1.00  0.00     0.048 C 
HETATM    7  C14 UNL     1      -9.706  -6.498  -3.451  1.00  0.00     0.062 C 
HETATM    8  C15 UNL     1      -9.003  -5.637  -4.459  1.00  0.00     0.046 C 
HETATM    9  C16 UNL     1      -9.450  -7.944  -3.536  1.00  0.00     0.055 C 
HETATM   10  C17 UNL     1      -9.287  -8.530  -4.907  1.00  0.00     0.022 C 
HETATM   11  C18 UNL     1      -9.611 -10.028  -4.780  1.00  0.00     0.023 C 
HETATM   12  C19 UNL     1      -7.904  -8.436  -5.465  1.00  0.00     0.023 C 
HETATM   13  C20 UNL     1     -10.334  -8.015  -5.846  1.00  0.00     0.179 C 
HETATM   14  O2  UNL     1     -10.199  -8.241  -7.060  1.00  0.00    -0.290 OA
ENDROOT
BRANCH   6  15
HETATM   15  C5  UNL     1     -11.646  -6.058  -1.982  1.00  0.00    -0.018 C 
HETATM   16  C6  UNL     1     -12.143  -5.099  -1.300  1.00  0.00     0.003 C 
BRANCH  16  17
HETATM   17  C7  UNL     1     -12.447  -3.709  -1.534  1.00  0.00    -0.065 C 
HETATM   18  C8  UNL     1     -11.762  -2.602  -0.849  1.00  0.00     0.048 C 
HETATM   19  C9  UNL     1     -13.423  -3.465  -2.419  1.00  0.00    -0.012 C 
BRANCH  19  20
HETATM   20  C10 UNL     1     -13.953  -2.192  -2.861  1.00  0.00    -0.033 C 
HETATM   21  C11 UNL     1     -13.801  -1.067  -1.858  1.00  0.00     0.018 C 
HETATM   22  C12 UNL     1     -13.143  -1.751  -4.108  1.00  0.00     0.018 C 
HETATM   23  C13 UNL     1     -15.377  -2.367  -3.342  1.00  0.00     0.018 C 
ENDBRANCH  19  20
ENDBRANCH  16  17
ENDBRANCH   6  15
BRANCH   7  24
HETATM   24  O1  UNL     1      -9.178  -6.088  -2.191  1.00  0.00    -0.390 OA
ATOM     25  H1  UNL     1      -8.496  -5.473  -2.436  1.00  0.00     0.210 HD
ENDBRANCH   7  24
TORSDOF 4
ENDMDL
