MODEL 1
REMARK VINA RESULT: -7.141742284      0.000      0.000
REMARK  2 active torsions:
REMARK  status: ('A' for Active; 'I' for Inactive)
REMARK    1  A    between atoms: C2_2  and  C3_3 
REMARK    2  A    between atoms: C3_3  and  O1_4 
ROOT
HETATM    1  C3  UNL     1     -13.434  -3.383  -3.670  1.00  0.00     0.114 C 
HETATM    2  C4  UNL     1     -12.849  -4.779  -3.209  1.00  0.00     0.020 C 
HETATM    3  C5  UNL     1     -12.003  -4.928  -2.202  1.00  0.00    -0.075 C 
HETATM    4  C6  UNL     1     -11.501  -3.779  -1.288  1.00  0.00     0.037 C 
HETATM    5  C7  UNL     1     -10.207  -3.231  -1.843  1.00  0.00     0.037 C 
HETATM    6  C8  UNL     1     -10.090  -3.923  -3.195  1.00  0.00     0.130 C 
HETATM    7  O2  UNL     1     -11.089  -3.704  -4.027  1.00  0.00    -0.382 OA
HETATM    8  C9  UNL     1     -12.018  -2.684  -3.912  1.00  0.00     0.214 C 
HETATM    9  C10 UNL     1      -9.794  -5.361  -2.844  1.00  0.00     0.051 C 
HETATM   10  C11 UNL     1      -9.324  -6.211  -3.929  1.00  0.00    -0.082 C 
HETATM   11  C12 UNL     1      -9.282  -5.783  -5.180  1.00  0.00     0.015 C 
HETATM   12  C13 UNL     1      -8.821  -7.620  -3.812  1.00  0.00     0.034 C 
HETATM   13  C14 UNL     1      -8.705  -7.980  -2.375  1.00  0.00     0.009 C 
HETATM   14  C15 UNL     1      -9.949  -8.225  -1.629  1.00  0.00    -0.005 C 
HETATM   15  C16 UNL     1     -10.473  -9.636  -1.748  1.00  0.00     0.005 C 
HETATM   16  C17 UNL     1     -11.481  -9.558  -2.870  1.00  0.00     0.001 C 
HETATM   17  C18 UNL     1     -11.820  -8.092  -3.051  1.00  0.00     0.010 C 
HETATM   18  C19 UNL     1     -11.141  -7.371  -1.965  1.00  0.00    -0.032 C 
HETATM   19  C20 UNL     1     -12.081  -7.632  -0.738  1.00  0.00     0.016 C 
HETATM   20  C21 UNL     1     -10.901  -5.982  -1.962  1.00  0.00     0.033 C 
ENDROOT
BRANCH   1  21
HETATM   21  C2  UNL     1     -14.163  -2.779  -2.591  1.00  0.00     0.007 C 
HETATM   22  C1  UNL     1     -14.185  -1.480  -2.301  1.00  0.00     0.010 C 
ENDBRANCH   1  21
BRANCH   1  23
HETATM   23  O1  UNL     1     -14.065  -3.605  -4.849  1.00  0.00    -0.380 OA
ATOM     24  H1  UNL     1     -13.911  -4.423  -5.308  1.00  0.00     0.211 HD
ENDBRANCH   1  23
TORSDOF 2
ENDMDL
MODEL 2
REMARK VINA RESULT: -6.488532950      2.189      5.399
REMARK  2 active torsions:
REMARK  status: ('A' for Active; 'I' for Inactive)
REMARK    1  A    between atoms: C2_2  and  C3_3 
REMARK    2  A    between atoms: C3_3  and  O1_4 
ROOT
HETATM    1  C3  UNL     1      -7.546  -5.003  -5.790  1.00  0.00     0.114 C 
HETATM    2  C4  UNL     1      -8.140  -4.646  -4.367  1.00  0.00     0.020 C 
HETATM    3  C5  UNL     1      -8.479  -5.549  -3.460  1.00  0.00    -0.075 C 
HETATM    4  C6  UNL     1      -8.296  -7.081  -3.624  1.00  0.00     0.037 C 
HETATM    5  C7  UNL     1      -9.563  -7.676  -4.191  1.00  0.00     0.037 C 
HETATM    6  C8  UNL     1     -10.389  -6.449  -4.555  1.00  0.00     0.130 C 
HETATM    7  O2  UNL     1      -9.826  -5.630  -5.421  1.00  0.00    -0.382 OA
HETATM    8  C9  UNL     1      -8.756  -5.943  -6.241  1.00  0.00     0.214 C 
HETATM    9  C10 UNL     1     -10.785  -5.868  -3.219  1.00  0.00     0.051 C 
HETATM   10  C11 UNL     1     -11.838  -4.861  -3.236  1.00  0.00    -0.082 C 
HETATM   11  C12 UNL     1     -12.330  -4.387  -4.370  1.00  0.00     0.015 C 
HETATM   12  C13 UNL     1     -12.512  -4.247  -2.045  1.00  0.00     0.034 C 
HETATM   13  C14 UNL     1     -12.064  -4.949  -0.814  1.00  0.00     0.009 C 
HETATM   14  C15 UNL     1     -10.697  -4.690  -0.337  1.00  0.00    -0.005 C 
HETATM   15  C16 UNL     1     -10.570  -3.468   0.540  1.00  0.00     0.005 C 
HETATM   16  C17 UNL     1     -10.154  -2.375  -0.416  1.00  0.00     0.001 C 
HETATM   17  C18 UNL     1      -9.640  -3.060  -1.665  1.00  0.00     0.010 C 
HETATM   18  C19 UNL     1      -9.623  -4.501  -1.373  1.00  0.00    -0.032 C 
HETATM   19  C20 UNL     1      -8.318  -4.663  -0.519  1.00  0.00     0.016 C 
HETATM   20  C21 UNL     1      -9.555  -5.510  -2.355  1.00  0.00     0.033 C 
ENDROOT
BRANCH   1  21
HETATM   21  C2  UNL     1      -6.318  -5.730  -5.636  1.00  0.00     0.007 C 
HETATM   22  C1  UNL     1      -5.903  -6.725  -6.416  1.00  0.00     0.010 C 
ENDBRANCH   1  21
BRANCH   1  23
HETATM   23  O1  UNL     1      -7.545  -3.850  -6.502  1.00  0.00    -0.380 OA
ATOM     24  H1  UNL     1      -7.311  -3.877  -7.423  1.00  0.00     0.211 HD
ENDBRANCH   1  23
TORSDOF 2
ENDMDL
MODEL 3
REMARK VINA RESULT: -6.437914116      2.114      5.701
REMARK  2 active torsions:
REMARK  status: ('A' for Active; 'I' for Inactive)
REMARK    1  A    between atoms: C2_2  and  C3_3 
REMARK    2  A    between atoms: C3_3  and  O1_4 
ROOT
HETATM    1  C3  UNL     1      -8.383  -8.985  -2.792  1.00  0.00     0.114 C 
HETATM    2  C4  UNL     1      -9.033  -7.643  -2.262  1.00  0.00     0.020 C 
HETATM    3  C5  UNL     1     -10.267  -7.556  -1.789  1.00  0.00    -0.075 C 
HETATM    4  C6  UNL     1     -11.240  -8.754  -1.628  1.00  0.00     0.037 C 
HETATM    5  C7  UNL     1     -12.092  -8.874  -2.870  1.00  0.00     0.037 C 
HETATM    6  C8  UNL     1     -11.450  -7.879  -3.827  1.00  0.00     0.130 C 
HETATM    7  O2  UNL     1     -10.180  -8.104  -4.104  1.00  0.00    -0.382 OA
HETATM    8  C9  UNL     1      -9.511  -9.295  -3.880  1.00  0.00     0.214 C 
HETATM    9  C10 UNL     1     -11.793  -6.533  -3.238  1.00  0.00     0.051 C 
HETATM   10  C11 UNL     1     -11.581  -5.375  -4.096  1.00  0.00    -0.082 C 
HETATM   11  C12 UNL     1     -10.996  -5.483  -5.279  1.00  0.00     0.015 C 
HETATM   12  C13 UNL     1     -11.982  -3.958  -3.808  1.00  0.00     0.034 C 
HETATM   13  C14 UNL     1     -12.800  -3.924  -2.569  1.00  0.00     0.009 C 
HETATM   14  C15 UNL     1     -12.108  -4.126  -1.286  1.00  0.00    -0.005 C 
HETATM   15  C16 UNL     1     -11.511  -2.869  -0.702  1.00  0.00     0.005 C 
HETATM   16  C17 UNL     1     -10.076  -2.895  -1.171  1.00  0.00     0.001 C 
HETATM   17  C18 UNL     1      -9.785  -4.316  -1.607  1.00  0.00     0.010 C 
HETATM   18  C19 UNL     1     -10.971  -5.110  -1.256  1.00  0.00    -0.032 C 
HETATM   19  C20 UNL     1     -10.786  -5.344   0.283  1.00  0.00     0.016 C 
HETATM   20  C21 UNL     1     -11.265  -6.380  -1.794  1.00  0.00     0.033 C 
ENDROOT
BRANCH   1  21
HETATM   21  C2  UNL     1      -8.356  -9.961  -1.740  1.00  0.00     0.007 C 
HETATM   22  C1  UNL     1      -7.408 -10.077  -0.813  1.00  0.00     0.010 C 
ENDBRANCH   1  21
BRANCH   1  23
HETATM   23  O1  UNL     1      -7.221  -8.634  -3.394  1.00  0.00    -0.380 OA
ATOM     24  H1  UNL     1      -6.454  -8.470  -2.858  1.00  0.00     0.211 HD
ENDBRANCH   1  23
TORSDOF 2
ENDMDL
MODEL 4
REMARK VINA RESULT: -6.437063162      2.383      3.684
REMARK  2 active torsions:
REMARK  status: ('A' for Active; 'I' for Inactive)
REMARK    1  A    between atoms: C2_2  and  C3_3 
REMARK    2  A    between atoms: C3_3  and  O1_4 
ROOT
HETATM    1  C3  UNL     1     -11.030  -2.623  -0.795  1.00  0.00     0.114 C 
HETATM    2  C4  UNL     1     -10.550  -3.468  -2.045  1.00  0.00     0.020 C 
HETATM    3  C5  UNL     1     -10.997  -4.681  -2.332  1.00  0.00    -0.075 C 
HETATM    4  C6  UNL     1     -12.091  -5.434  -1.531  1.00  0.00     0.037 C 
HETATM    5  C7  UNL     1     -11.433  -6.299  -0.481  1.00  0.00     0.037 C 
HETATM    6  C8  UNL     1      -9.974  -5.867  -0.542  1.00  0.00     0.130 C 
HETATM    7  O2  UNL     1      -9.756  -4.589  -0.302  1.00  0.00    -0.382 OA
HETATM    8  C9  UNL     1     -10.652  -3.723   0.301  1.00  0.00     0.214 C 
HETATM    9  C10 UNL     1      -9.488  -6.409  -1.864  1.00  0.00     0.051 C 
HETATM   10  C11 UNL     1      -8.046  -6.423  -2.070  1.00  0.00    -0.082 C 
HETATM   11  C12 UNL     1      -7.214  -5.872  -1.201  1.00  0.00     0.015 C 
HETATM   12  C13 UNL     1      -7.310  -7.044  -3.221  1.00  0.00     0.034 C 
HETATM   13  C14 UNL     1      -8.268  -7.810  -4.058  1.00  0.00     0.009 C 
HETATM   14  C15 UNL     1      -9.204  -7.048  -4.899  1.00  0.00    -0.005 C 
HETATM   15  C16 UNL     1      -8.641  -6.648  -6.242  1.00  0.00     0.005 C 
HETATM   16  C17 UNL     1      -8.125  -5.246  -6.017  1.00  0.00     0.001 C 
HETATM   17  C18 UNL     1      -8.778  -4.739  -4.748  1.00  0.00     0.010 C 
HETATM   18  C19 UNL     1      -9.751  -5.763  -4.342  1.00  0.00    -0.032 C 
HETATM   19  C20 UNL     1     -10.961  -5.486  -5.300  1.00  0.00     0.016 C 
HETATM   20  C21 UNL     1     -10.311  -5.861  -3.052  1.00  0.00     0.033 C 
ENDROOT
BRANCH   1  21
HETATM   21  C2  UNL     1     -12.444  -2.397  -0.875  1.00  0.00     0.007 C 
HETATM   22  C1  UNL     1     -13.039  -1.455  -1.605  1.00  0.00     0.010 C 
ENDBRANCH   1  21
BRANCH   1  23
HETATM   23  O1  UNL     1     -10.195  -1.559  -0.712  1.00  0.00    -0.380 OA
ATOM     24  H1  UNL     1      -9.269  -1.709  -0.558  1.00  0.00     0.211 HD
ENDBRANCH   1  23
TORSDOF 2
ENDMDL
MODEL 5
REMARK VINA RESULT: -6.302863984      1.691      2.369
REMARK  2 active torsions:
REMARK  status: ('A' for Active; 'I' for Inactive)
REMARK    1  A    between atoms: C2_2  and  C3_3 
REMARK    2  A    between atoms: C3_3  and  O1_4 
ROOT
HETATM    1  C3  UNL     1     -13.405  -2.291  -3.652  1.00  0.00     0.114 C 
HETATM    2  C4  UNL     1     -12.815  -3.676  -4.140  1.00  0.00     0.020 C 
HETATM    3  C5  UNL     1     -12.663  -4.731  -3.355  1.00  0.00    -0.075 C 
HETATM    4  C6  UNL     1     -13.087  -4.795  -1.864  1.00  0.00     0.037 C 
HETATM    5  C7  UNL     1     -11.913  -4.410  -0.995  1.00  0.00     0.037 C 
HETATM    6  C8  UNL     1     -10.885  -3.914  -2.004  1.00  0.00     0.130 C 
HETATM    7  O2  UNL     1     -11.273  -2.897  -2.748  1.00  0.00    -0.382 OA
HETATM    8  C9  UNL     1     -12.348  -2.069  -2.474  1.00  0.00     0.214 C 
HETATM    9  C10 UNL     1     -10.450  -5.165  -2.727  1.00  0.00     0.051 C 
HETATM   10  C11 UNL     1      -9.248  -5.059  -3.542  1.00  0.00    -0.082 C 
HETATM   11  C12 UNL     1      -8.643  -3.900  -3.742  1.00  0.00     0.015 C 
HETATM   12  C13 UNL     1      -8.529  -6.182  -4.230  1.00  0.00     0.034 C 
HETATM   13  C14 UNL     1      -9.131  -7.475  -3.816  1.00  0.00     0.009 C 
HETATM   14  C15 UNL     1     -10.455  -7.818  -4.358  1.00  0.00    -0.005 C 
HETATM   15  C16 UNL     1     -10.414  -8.486  -5.712  1.00  0.00     0.005 C 
HETATM   16  C17 UNL     1     -10.610  -7.348  -6.685  1.00  0.00     0.001 C 
HETATM   17  C18 UNL     1     -11.180  -6.189  -5.893  1.00  0.00     0.010 C 
HETATM   18  C19 UNL     1     -11.443  -6.699  -4.540  1.00  0.00    -0.032 C 
HETATM   19  C20 UNL     1     -12.789  -7.483  -4.723  1.00  0.00     0.016 C 
HETATM   20  C21 UNL     1     -11.637  -5.884  -3.407  1.00  0.00     0.033 C 
ENDROOT
BRANCH   1  21
HETATM   21  C2  UNL     1     -14.740  -2.477  -3.159  1.00  0.00     0.007 C 
HETATM   22  C1  UNL     1     -15.858  -2.181  -3.818  1.00  0.00     0.010 C 
ENDBRANCH   1  21
BRANCH   1  23
HETATM   23  O1  UNL     1     -13.191  -1.410  -4.659  1.00  0.00    -0.380 OA
ATOM     24  H1  UNL     1     -12.452  -0.814  -4.602  1.00  0.00     0.211 HD
ENDBRANCH   1  23
TORSDOF 2
ENDMDL
