MODEL 1
REMARK VINA RESULT: -9.285636097      0.000      0.000
REMARK  3 active torsions:
REMARK  status: ('A' for Active; 'I' for Inactive)
REMARK    1  A    between atoms: C11_11  and  C12_12 
REMARK    2  A    between atoms: C15_15  and  O1_16 
REMARK    3  A    between atoms: C20_22  and  O2_23 
ROOT
HETATM    1  C12 UNL     1     -11.026  -5.634  -2.008  1.00  0.00    -0.011 C 
HETATM    2  C13 UNL     1     -12.095  -5.731  -0.888  1.00  0.00     0.018 C 
HETATM    3  C14 UNL     1      -9.824  -6.287  -1.400  1.00  0.00     0.044 C 
HETATM    4  C15 UNL     1      -9.848  -7.780  -1.313  1.00  0.00     0.119 C 
HETATM    5  C16 UNL     1     -10.686  -8.489  -2.291  1.00  0.00     0.043 C 
HETATM    6  C17 UNL     1     -11.007  -7.701  -3.518  1.00  0.00    -0.019 C 
HETATM    7  C18 UNL     1      -9.879  -7.634  -4.491  1.00  0.00     0.017 C 
HETATM    8  C19 UNL     1     -12.079  -8.532  -4.262  1.00  0.00     0.017 C 
HETATM    9  C20 UNL     1     -11.670  -6.468  -3.094  1.00  0.00     0.134 C 
ENDROOT
BRANCH   1  10
HETATM   10  C11 UNL     1     -10.874  -4.239  -2.459  1.00  0.00     0.001 C 
HETATM   11  C7  UNL     1     -11.909  -3.232  -2.171  1.00  0.00     0.003 C 
HETATM   12  C6  UNL     1     -13.332  -3.427  -2.339  1.00  0.00     0.039 C 
HETATM   13  C8  UNL     1     -11.629  -2.626  -0.788  1.00  0.00     0.022 C 
HETATM   14  C4  UNL     1     -13.951  -2.060  -2.387  1.00  0.00    -0.083 C 
HETATM   15  C3  UNL     1     -13.426  -1.095  -1.662  1.00  0.00     0.009 C 
HETATM   16  C5  UNL     1     -15.115  -1.841  -3.231  1.00  0.00     0.043 C 
HETATM   17  C2  UNL     1     -12.254  -1.285  -0.802  1.00  0.00    -0.063 C 
HETATM   18  C1  UNL     1     -11.833  -0.258  -0.100  1.00  0.00     0.019 C 
HETATM   19  C9  UNL     1     -10.146  -2.620  -0.788  1.00  0.00     0.010 C 
HETATM   20  C10 UNL     1      -9.700  -3.427  -1.984  1.00  0.00     0.006 C 
ENDBRANCH   1  10
BRANCH   9  21
HETATM   21  O2  UNL     1     -11.869  -5.673  -4.238  1.00  0.00    -0.394 OA
ATOM     22  H2  UNL     1     -11.826  -6.220  -5.014  1.00  0.00     0.210 HD
ENDBRANCH   9  21
BRANCH   4  23
HETATM   23  O1  UNL     1      -8.544  -8.325  -1.395  1.00  0.00    -0.396 OA
ATOM     24  H1  UNL     1      -8.550  -9.181  -1.809  1.00  0.00     0.210 HD
ENDBRANCH   4  23
TORSDOF 3
ENDMDL
MODEL 2
REMARK VINA RESULT: -8.772205806      1.627      3.313
REMARK  3 active torsions:
REMARK  status: ('A' for Active; 'I' for Inactive)
REMARK    1  A    between atoms: C11_11  and  C12_12 
REMARK    2  A    between atoms: C15_15  and  O1_16 
REMARK    3  A    between atoms: C20_22  and  O2_23 
ROOT
HETATM    1  C12 UNL     1      -9.639  -4.532  -1.181  1.00  0.00    -0.011 C 
HETATM    2  C13 UNL     1      -8.542  -4.073  -0.184  1.00  0.00     0.018 C 
HETATM    3  C14 UNL     1      -9.241  -3.872  -2.464  1.00  0.00     0.044 C 
HETATM    4  C15 UNL     1      -8.082  -4.475  -3.192  1.00  0.00     0.119 C 
HETATM    5  C16 UNL     1      -7.817  -5.901  -2.957  1.00  0.00     0.043 C 
HETATM    6  C17 UNL     1      -8.984  -6.669  -2.430  1.00  0.00    -0.019 C 
HETATM    7  C18 UNL     1      -9.996  -7.000  -3.475  1.00  0.00     0.017 C 
HETATM    8  C19 UNL     1      -8.413  -8.049  -2.029  1.00  0.00     0.017 C 
HETATM    9  C20 UNL     1      -9.413  -6.029  -1.187  1.00  0.00     0.134 C 
ENDROOT
BRANCH   1  10
HETATM   10  C11 UNL     1     -10.979  -4.221  -0.654  1.00  0.00     0.001 C 
HETATM   11  C7  UNL     1     -11.522  -2.854  -0.721  1.00  0.00     0.003 C 
HETATM   12  C6  UNL     1     -10.799  -1.652  -0.371  1.00  0.00     0.039 C 
HETATM   13  C8  UNL     1     -12.210  -2.668  -2.081  1.00  0.00     0.022 C 
HETATM   14  C4  UNL     1     -11.827  -0.583  -0.138  1.00  0.00    -0.083 C 
HETATM   15  C3  UNL     1     -12.930  -0.590  -0.856  1.00  0.00     0.009 C 
HETATM   16  C5  UNL     1     -11.575   0.431   0.874  1.00  0.00     0.043 C 
HETATM   17  C2  UNL     1     -13.213  -1.598  -1.882  1.00  0.00    -0.063 C 
HETATM   18  C1  UNL     1     -14.334  -1.490  -2.558  1.00  0.00     0.019 C 
HETATM   19  C9  UNL     1     -12.779  -4.022  -2.287  1.00  0.00     0.010 C 
HETATM   20  C10 UNL     1     -12.183  -4.917  -1.227  1.00  0.00     0.006 C 
ENDBRANCH   1  10
BRANCH   9  21
HETATM   21  O2  UNL     1     -10.582  -6.680  -0.751  1.00  0.00    -0.394 OA
ATOM     22  H2  UNL     1     -10.520  -7.606  -0.949  1.00  0.00     0.210 HD
ENDBRANCH   9  21
BRANCH   4  23
HETATM   23  O1  UNL     1      -8.196  -4.288  -4.591  1.00  0.00    -0.396 OA
ATOM     24  H1  UNL     1      -8.660  -5.008  -5.002  1.00  0.00     0.210 HD
ENDBRANCH   4  23
TORSDOF 3
ENDMDL
MODEL 3
REMARK VINA RESULT: -8.446728666      0.958      1.115
REMARK  3 active torsions:
REMARK  status: ('A' for Active; 'I' for Inactive)
REMARK    1  A    between atoms: C11_11  and  C12_12 
REMARK    2  A    between atoms: C15_15  and  O1_16 
REMARK    3  A    between atoms: C20_22  and  O2_23 
ROOT
HETATM    1  C12 UNL     1     -11.068  -6.233  -2.066  1.00  0.00    -0.011 C 
HETATM    2  C13 UNL     1     -12.069  -6.273  -0.881  1.00  0.00     0.018 C 
HETATM    3  C14 UNL     1     -10.033  -7.244  -1.681  1.00  0.00     0.044 C 
HETATM    4  C15 UNL     1     -10.418  -8.682  -1.829  1.00  0.00     0.119 C 
HETATM    5  C16 UNL     1     -11.454  -8.994  -2.825  1.00  0.00     0.043 C 
HETATM    6  C17 UNL     1     -11.635  -7.951  -3.877  1.00  0.00    -0.019 C 
HETATM    7  C18 UNL     1     -10.576  -7.979  -4.928  1.00  0.00     0.017 C 
HETATM    8  C19 UNL     1     -12.914  -8.366  -4.641  1.00  0.00     0.017 C 
HETATM    9  C20 UNL     1     -11.952  -6.691  -3.205  1.00  0.00     0.134 C 
ENDROOT
BRANCH   1  10
HETATM   10  C11 UNL     1     -10.603  -4.855  -2.304  1.00  0.00     0.001 C 
HETATM   11  C7  UNL     1     -11.338  -3.702  -1.760  1.00  0.00     0.003 C 
HETATM   12  C6  UNL     1     -12.773  -3.526  -1.816  1.00  0.00     0.039 C 
HETATM   13  C8  UNL     1     -10.838  -3.432  -0.333  1.00  0.00     0.022 C 
HETATM   14  C4  UNL     1     -13.037  -2.066  -1.586  1.00  0.00    -0.083 C 
HETATM   15  C3  UNL     1     -12.249  -1.394  -0.774  1.00  0.00     0.009 C 
HETATM   16  C5  UNL     1     -14.157  -1.435  -2.266  1.00  0.00     0.043 C 
HETATM   17  C2  UNL     1     -11.112  -2.001  -0.074  1.00  0.00    -0.063 C 
HETATM   18  C1  UNL     1     -10.411  -1.242   0.736  1.00  0.00     0.019 C 
HETATM   19  C9  UNL     1      -9.402  -3.772  -0.479  1.00  0.00     0.010 C 
HETATM   20  C10 UNL     1      -9.239  -4.437  -1.825  1.00  0.00     0.006 C 
ENDBRANCH   1  10
BRANCH   9  21
HETATM   21  O2  UNL     1     -12.009  -5.684  -4.187  1.00  0.00    -0.394 OA
ATOM     22  H2  UNL     1     -11.685  -6.028  -5.011  1.00  0.00     0.210 HD
ENDBRANCH   9  21
BRANCH   4  23
HETATM   23  O1  UNL     1      -9.293  -9.492  -2.116  1.00  0.00    -0.396 OA
ATOM     24  H1  UNL     1      -8.638  -9.015  -2.613  1.00  0.00     0.210 HD
ENDBRANCH   4  23
TORSDOF 3
ENDMDL
MODEL 4
REMARK VINA RESULT: -8.344294775      0.967      1.080
REMARK  3 active torsions:
REMARK  status: ('A' for Active; 'I' for Inactive)
REMARK    1  A    between atoms: C11_11  and  C12_12 
REMARK    2  A    between atoms: C15_15  and  O1_16 
REMARK    3  A    between atoms: C20_22  and  O2_23 
ROOT
HETATM    1  C12 UNL     1     -10.585  -5.580  -2.769  1.00  0.00    -0.011 C 
HETATM    2  C13 UNL     1     -11.962  -6.034  -2.216  1.00  0.00     0.018 C 
HETATM    3  C14 UNL     1      -9.614  -6.106  -1.758  1.00  0.00     0.044 C 
HETATM    4  C15 UNL     1      -9.340  -7.575  -1.797  1.00  0.00     0.119 C 
HETATM    5  C16 UNL     1      -9.539  -8.255  -3.085  1.00  0.00     0.043 C 
HETATM    6  C17 UNL     1      -9.509  -7.351  -4.273  1.00  0.00    -0.019 C 
HETATM    7  C18 UNL     1      -8.131  -6.940  -4.670  1.00  0.00     0.017 C 
HETATM    8  C19 UNL     1      -9.981  -8.225  -5.458  1.00  0.00     0.017 C 
HETATM    9  C20 UNL     1     -10.540  -6.331  -4.082  1.00  0.00     0.134 C 
ENDROOT
BRANCH   1  10
HETATM   10  C11 UNL     1     -10.579  -4.127  -3.012  1.00  0.00     0.001 C 
HETATM   11  C7  UNL     1     -11.707  -3.282  -2.588  1.00  0.00     0.003 C 
HETATM   12  C6  UNL     1     -13.105  -3.593  -2.791  1.00  0.00     0.039 C 
HETATM   13  C8  UNL     1     -11.477  -2.857  -1.130  1.00  0.00     0.022 C 
HETATM   14  C4  UNL     1     -13.859  -2.303  -2.644  1.00  0.00    -0.083 C 
HETATM   15  C3  UNL     1     -13.427  -1.405  -1.785  1.00  0.00     0.009 C 
HETATM   16  C5  UNL     1     -15.046  -2.083  -3.454  1.00  0.00     0.043 C 
HETATM   17  C2  UNL     1     -12.234  -1.597  -0.954  1.00  0.00    -0.063 C 
HETATM   18  C1  UNL     1     -11.912  -0.645  -0.109  1.00  0.00     0.019 C 
HETATM   19  C9  UNL     1     -10.002  -2.701  -1.121  1.00  0.00     0.010 C 
HETATM   20  C10 UNL     1      -9.488  -3.278  -2.418  1.00  0.00     0.006 C 
ENDBRANCH   1  10
BRANCH   9  21
HETATM   21  O2  UNL     1     -10.436  -5.413  -5.143  1.00  0.00    -0.394 OA
ATOM     22  H2  UNL     1     -11.105  -4.744  -5.048  1.00  0.00     0.210 HD
ENDBRANCH   9  21
BRANCH   4  23
HETATM   23  O1  UNL     1      -8.026  -7.869  -1.359  1.00  0.00    -0.396 OA
ATOM     24  H1  UNL     1      -7.633  -8.562  -1.877  1.00  0.00     0.210 HD
ENDBRANCH   4  23
TORSDOF 3
ENDMDL
MODEL 5
REMARK VINA RESULT: -8.090236525      1.723      3.505
REMARK  3 active torsions:
REMARK  status: ('A' for Active; 'I' for Inactive)
REMARK    1  A    between atoms: C11_11  and  C12_12 
REMARK    2  A    between atoms: C15_15  and  O1_16 
REMARK    3  A    between atoms: C20_22  and  O2_23 
ROOT
HETATM    1  C12 UNL     1      -9.773  -5.017  -2.565  1.00  0.00    -0.011 C 
HETATM    2  C13 UNL     1      -9.136  -3.684  -3.042  1.00  0.00     0.018 C 
HETATM    3  C14 UNL     1      -9.968  -5.783  -3.836  1.00  0.00     0.044 C 
HETATM    4  C15 UNL     1      -8.743  -6.386  -4.448  1.00  0.00     0.119 C 
HETATM    5  C16 UNL     1      -7.628  -6.691  -3.540  1.00  0.00     0.043 C 
HETATM    6  C17 UNL     1      -8.017  -6.823  -2.105  1.00  0.00    -0.019 C 
HETATM    7  C18 UNL     1      -8.671  -8.125  -1.785  1.00  0.00     0.017 C 
HETATM    8  C19 UNL     1      -6.682  -6.889  -1.328  1.00  0.00     0.017 C 
HETATM    9  C20 UNL     1      -8.661  -5.573  -1.701  1.00  0.00     0.134 C 
ENDROOT
BRANCH   1  10
HETATM   10  C11 UNL     1     -10.971  -4.755  -1.749  1.00  0.00     0.001 C 
HETATM   11  C7  UNL     1     -11.354  -3.382  -1.382  1.00  0.00     0.003 C 
HETATM   12  C6  UNL     1     -10.449  -2.369  -0.884  1.00  0.00     0.039 C 
HETATM   13  C8  UNL     1     -12.216  -2.797  -2.511  1.00  0.00     0.022 C 
HETATM   14  C4  UNL     1     -11.298  -1.324  -0.218  1.00  0.00    -0.083 C 
HETATM   15  C3  UNL     1     -12.491  -1.063  -0.708  1.00  0.00     0.009 C 
HETATM   16  C5  UNL     1     -10.777  -0.630   0.949  1.00  0.00     0.043 C 
HETATM   17  C2  UNL     1     -13.044  -1.745  -1.882  1.00  0.00    -0.063 C 
HETATM   18  C1  UNL     1     -14.235  -1.382  -2.301  1.00  0.00     0.019 C 
HETATM   19  C9  UNL     1     -12.964  -4.005  -2.936  1.00  0.00     0.010 C 
HETATM   20  C10 UNL     1     -12.321  -5.187  -2.250  1.00  0.00     0.006 C 
ENDBRANCH   1  10
BRANCH   9  21
HETATM   21  O2  UNL     1      -9.131  -5.739  -0.385  1.00  0.00    -0.394 OA
ATOM     22  H2  UNL     1      -9.372  -6.647  -0.247  1.00  0.00     0.210 HD
ENDBRANCH   9  21
BRANCH   4  23
HETATM   23  O1  UNL     1      -9.049  -7.570  -5.160  1.00  0.00    -0.396 OA
ATOM     24  H1  UNL     1      -8.472  -8.283  -4.914  1.00  0.00     0.210 HD
ENDBRANCH   4  23
TORSDOF 3
ENDMDL
