MODEL 1
REMARK VINA RESULT: -7.884636492      0.000      0.000
REMARK  4 active torsions:
REMARK  status: ('A' for Active; 'I' for Inactive)
REMARK    1  A    between atoms: C2_2  and  O1_3 
REMARK    2  A    between atoms: C2_2  and  C3_5 
REMARK    3  A    between atoms: C14_16  and  C15_17 
REMARK    4  A    between atoms: C15_17  and  O2_18 
ROOT
HETATM    1  C3  UNL     1     -11.652  -6.439  -7.257  1.00  0.00     0.007 C 
HETATM    2  C4  UNL     1     -11.590  -6.110  -5.971  1.00  0.00    -0.081 C 
HETATM    3  C5  UNL     1     -10.312  -5.814  -5.294  1.00  0.00     0.037 C 
HETATM    4  C6  UNL     1     -10.412  -4.455  -4.655  1.00  0.00     0.042 C 
HETATM    5  C7  UNL     1     -11.602  -4.385  -3.683  1.00  0.00     0.062 C 
HETATM    6  C8  UNL     1     -11.344  -5.399  -2.622  1.00  0.00     0.038 C 
HETATM    7  C9  UNL     1     -12.152  -5.221  -1.378  1.00  0.00     0.006 C 
HETATM    8  C10 UNL     1     -12.715  -3.847  -1.242  1.00  0.00     0.038 C 
HETATM    9  C11 UNL     1     -11.938  -2.799  -1.999  1.00  0.00     0.062 C 
HETATM   10  C12 UNL     1     -12.835  -1.558  -2.039  1.00  0.00     0.038 C 
HETATM   11  C13 UNL     1     -12.824  -0.803  -0.753  1.00  0.00     0.010 C 
HETATM   12  C14 UNL     1     -11.444  -0.476  -0.273  1.00  0.00     0.009 C 
HETATM   13  C16 UNL     1     -10.769  -1.821   0.008  1.00  0.00     0.010 C 
HETATM   14  C17 UNL     1     -10.657  -2.550  -1.281  1.00  0.00     0.038 C 
HETATM   15  O3  UNL     1     -11.679  -3.096  -3.294  1.00  0.00    -0.369 OA
HETATM   16  C18 UNL     1     -12.886  -4.755  -4.388  1.00  0.00     0.042 C 
HETATM   17  C19 UNL     1     -12.821  -6.026  -5.154  1.00  0.00     0.037 C 
ENDROOT
BRANCH   1  18
HETATM   18  C2  UNL     1     -10.463  -6.540  -8.128  1.00  0.00     0.137 C 
HETATM   19  C1  UNL     1     -10.271  -7.964  -8.607  1.00  0.00     0.043 C 
BRANCH  18  20
HETATM   20  O1  UNL     1     -10.664  -5.750  -9.258  1.00  0.00    -0.392 OA
ATOM     21  H1  UNL     1     -11.294  -5.079  -9.022  1.00  0.00     0.210 HD
ENDBRANCH  18  20
ENDBRANCH   1  18
BRANCH  12  22
HETATM   22  C15 UNL     1     -11.531   0.235   1.062  1.00  0.00     0.168 C 
BRANCH  22  23
HETATM   23  O2  UNL     1     -12.702   1.027   1.079  1.00  0.00    -0.400 OA
ATOM     24  H2  UNL     1     -13.052   1.036   1.963  1.00  0.00     0.209 HD
ENDBRANCH  22  23
ENDBRANCH  12  22
TORSDOF 4
ENDMDL
MODEL 2
REMARK VINA RESULT: -7.438299865      3.361      4.534
REMARK  4 active torsions:
REMARK  status: ('A' for Active; 'I' for Inactive)
REMARK    1  A    between atoms: C2_2  and  O1_3 
REMARK    2  A    between atoms: C2_2  and  C3_5 
REMARK    3  A    between atoms: C14_16  and  C15_17 
REMARK    4  A    between atoms: C15_17  and  O2_18 
ROOT
HETATM    1  C3  UNL     1     -10.289  -9.635  -1.616  1.00  0.00     0.007 C 
HETATM    2  C4  UNL     1     -10.432  -8.339  -1.880  1.00  0.00    -0.081 C 
HETATM    3  C5  UNL     1     -11.758  -7.706  -2.023  1.00  0.00     0.037 C 
HETATM    4  C6  UNL     1     -11.840  -6.546  -1.068  1.00  0.00     0.042 C 
HETATM    5  C7  UNL     1     -10.700  -5.543  -1.313  1.00  0.00     0.062 C 
HETATM    6  C8  UNL     1     -10.872  -5.036  -2.704  1.00  0.00     0.038 C 
HETATM    7  C9  UNL     1     -10.133  -3.774  -3.004  1.00  0.00     0.006 C 
HETATM    8  C10 UNL     1      -9.740  -3.024  -1.777  1.00  0.00     0.038 C 
HETATM    9  C11 UNL     1     -10.609  -3.325  -0.581  1.00  0.00     0.062 C 
HETATM   10  C12 UNL     1      -9.864  -2.763   0.633  1.00  0.00     0.038 C 
HETATM   11  C13 UNL     1     -10.007  -1.283   0.757  1.00  0.00     0.010 C 
HETATM   12  C14 UNL     1     -11.431  -0.823   0.717  1.00  0.00     0.009 C 
HETATM   13  C16 UNL     1     -11.952  -1.195  -0.673  1.00  0.00     0.010 C 
HETATM   14  C17 UNL     1     -11.934  -2.675  -0.785  1.00  0.00     0.038 C 
HETATM   15  O3  UNL     1     -10.789  -4.640  -0.316  1.00  0.00    -0.369 OA
HETATM   16  C18 UNL     1      -9.358  -6.233  -1.223  1.00  0.00     0.042 C 
HETATM   17  C19 UNL     1      -9.248  -7.468  -2.042  1.00  0.00     0.037 C 
ENDROOT
BRANCH   1  18
HETATM   18  C2  UNL     1     -11.428 -10.559  -1.442  1.00  0.00     0.137 C 
HETATM   19  C1  UNL     1     -11.486 -11.556  -2.581  1.00  0.00     0.043 C 
BRANCH  18  20
HETATM   20  O1  UNL     1     -11.241 -11.287  -0.268  1.00  0.00    -0.392 OA
ATOM     21  H1  UNL     1     -10.435 -10.978   0.127  1.00  0.00     0.210 HD
ENDBRANCH  18  20
ENDBRANCH   1  18
BRANCH  12  22
HETATM   22  C15 UNL     1     -11.473   0.689   0.790  1.00  0.00     0.168 C 
BRANCH  22  23
HETATM   23  O2  UNL     1     -12.785   1.091   1.132  1.00  0.00    -0.400 OA
ATOM     24  H2  UNL     1     -12.866   2.026   0.986  1.00  0.00     0.209 HD
ENDBRANCH  22  23
ENDBRANCH  12  22
TORSDOF 4
ENDMDL
MODEL 3
REMARK VINA RESULT: -7.309818810      3.213      7.827
REMARK  4 active torsions:
REMARK  status: ('A' for Active; 'I' for Inactive)
REMARK    1  A    between atoms: C2_2  and  O1_3 
REMARK    2  A    between atoms: C2_2  and  C3_5 
REMARK    3  A    between atoms: C14_16  and  C15_17 
REMARK    4  A    between atoms: C15_17  and  O2_18 
ROOT
HETATM    1  C3  UNL     1     -12.307   0.416   0.520  1.00  0.00     0.007 C 
HETATM    2  C4  UNL     1     -11.788  -0.565  -0.212  1.00  0.00    -0.081 C 
HETATM    3  C5  UNL     1     -10.394  -1.021  -0.042  1.00  0.00     0.037 C 
HETATM    4  C6  UNL     1     -10.404  -2.504   0.213  1.00  0.00     0.042 C 
HETATM    5  C7  UNL     1     -11.116  -3.258  -0.922  1.00  0.00     0.062 C 
HETATM    6  C8  UNL     1     -10.340  -2.987  -2.165  1.00  0.00     0.038 C 
HETATM    7  C9  UNL     1     -10.611  -3.932  -3.290  1.00  0.00     0.006 C 
HETATM    8  C10 UNL     1     -11.242  -5.206  -2.839  1.00  0.00     0.038 C 
HETATM    9  C11 UNL     1     -10.960  -5.542  -1.396  1.00  0.00     0.062 C 
HETATM   10  C12 UNL     1     -11.948  -6.651  -1.022  1.00  0.00     0.038 C 
HETATM   11  C13 UNL     1     -11.527  -7.988  -1.535  1.00  0.00     0.010 C 
HETATM   12  C14 UNL     1     -10.122  -8.346  -1.164  1.00  0.00     0.009 C 
HETATM   13  C16 UNL     1      -9.230  -7.314  -1.859  1.00  0.00     0.010 C 
HETATM   14  C17 UNL     1      -9.542  -5.982  -1.282  1.00  0.00     0.038 C 
HETATM   15  O3  UNL     1     -11.194  -4.541  -0.515  1.00  0.00    -0.369 OA
HETATM   16  C18 UNL     1     -12.518  -2.726  -1.115  1.00  0.00     0.042 C 
HETATM   17  C19 UNL     1     -12.600  -1.248  -1.242  1.00  0.00     0.037 C 
ENDROOT
BRANCH   1  18
HETATM   18  C2  UNL     1     -11.551   1.138   1.564  1.00  0.00     0.137 C 
HETATM   19  C1  UNL     1     -10.618   2.156   0.940  1.00  0.00     0.043 C 
BRANCH  18  20
HETATM   20  O1  UNL     1     -12.450   1.842   2.365  1.00  0.00    -0.392 OA
ATOM     21  H1  UNL     1     -12.775   1.235   3.019  1.00  0.00     0.210 HD
ENDBRANCH  18  20
ENDBRANCH   1  18
BRANCH  12  22
HETATM   22  C15 UNL     1      -9.766  -9.686  -1.776  1.00  0.00     0.168 C 
BRANCH  22  23
HETATM   23  O2  UNL     1     -10.537 -10.690  -1.147  1.00  0.00    -0.400 OA
ATOM     24  H2  UNL     1     -10.931 -11.237  -1.817  1.00  0.00     0.209 HD
ENDBRANCH  22  23
ENDBRANCH  12  22
TORSDOF 4
ENDMDL
MODEL 4
REMARK VINA RESULT: -7.062078819      3.376      5.243
REMARK  4 active torsions:
REMARK  status: ('A' for Active; 'I' for Inactive)
REMARK    1  A    between atoms: C2_2  and  O1_3 
REMARK    2  A    between atoms: C2_2  and  C3_5 
REMARK    3  A    between atoms: C14_16  and  C15_17 
REMARK    4  A    between atoms: C15_17  and  O2_18 
ROOT
HETATM    1  C3  UNL     1     -14.856  -2.282  -4.170  1.00  0.00     0.007 C 
HETATM    2  C4  UNL     1     -14.034  -3.136  -3.567  1.00  0.00    -0.081 C 
HETATM    3  C5  UNL     1     -13.204  -4.095  -4.322  1.00  0.00     0.037 C 
HETATM    4  C6  UNL     1     -11.767  -3.906  -3.918  1.00  0.00     0.042 C 
HETATM    5  C7  UNL     1     -11.591  -4.072  -2.399  1.00  0.00     0.062 C 
HETATM    6  C8  UNL     1     -12.005  -5.465  -2.072  1.00  0.00     0.038 C 
HETATM    7  C9  UNL     1     -11.536  -5.961  -0.743  1.00  0.00     0.006 C 
HETATM    8  C10 UNL     1     -10.395  -5.171  -0.198  1.00  0.00     0.038 C 
HETATM    9  C11 UNL     1      -9.588  -4.464  -1.258  1.00  0.00     0.062 C 
HETATM   10  C12 UNL     1      -8.713  -3.451  -0.515  1.00  0.00     0.038 C 
HETATM   11  C13 UNL     1      -7.526  -4.084   0.128  1.00  0.00     0.010 C 
HETATM   12  C14 UNL     1      -6.723  -4.926  -0.815  1.00  0.00     0.009 C 
HETATM   13  C16 UNL     1      -7.646  -6.069  -1.244  1.00  0.00     0.010 C 
HETATM   14  C17 UNL     1      -8.783  -5.478  -1.994  1.00  0.00     0.038 C 
HETATM   15  O3  UNL     1     -10.311  -3.736  -2.141  1.00  0.00    -0.369 OA
HETATM   16  C18 UNL     1     -12.500  -3.121  -1.653  1.00  0.00     0.042 C 
HETATM   17  C19 UNL     1     -13.918  -3.158  -2.093  1.00  0.00     0.037 C 
ENDROOT
BRANCH   1  18
HETATM   18  C2  UNL     1     -15.018  -2.208  -5.636  1.00  0.00     0.137 C 
HETATM   19  C1  UNL     1     -16.484  -2.257  -6.015  1.00  0.00     0.043 C 
BRANCH  18  20
HETATM   20  O1  UNL     1     -14.520  -0.985  -6.083  1.00  0.00    -0.392 OA
ATOM     21  H1  UNL     1     -14.988  -0.304  -5.614  1.00  0.00     0.210 HD
ENDBRANCH  18  20
ENDBRANCH   1  18
BRANCH  12  22
HETATM   22  C15 UNL     1      -5.578  -5.572  -0.062  1.00  0.00     0.168 C 
BRANCH  22  23
HETATM   23  O2  UNL     1      -5.869  -5.541   1.321  1.00  0.00    -0.400 OA
ATOM     24  H2  UNL     1      -5.877  -6.431   1.652  1.00  0.00     0.209 HD
ENDBRANCH  22  23
ENDBRANCH  12  22
TORSDOF 4
ENDMDL
MODEL 5
REMARK VINA RESULT: -7.061639154      1.201      1.246
REMARK  4 active torsions:
REMARK  status: ('A' for Active; 'I' for Inactive)
REMARK    1  A    between atoms: C2_2  and  O1_3 
REMARK    2  A    between atoms: C2_2  and  C3_5 
REMARK    3  A    between atoms: C14_16  and  C15_17 
REMARK    4  A    between atoms: C15_17  and  O2_18 
ROOT
HETATM    1  C3  UNL     1     -11.831  -6.759  -7.838  1.00  0.00     0.007 C 
HETATM    2  C4  UNL     1     -11.637  -6.548  -6.539  1.00  0.00    -0.081 C 
HETATM    3  C5  UNL     1     -10.294  -6.325  -5.970  1.00  0.00     0.037 C 
HETATM    4  C6  UNL     1     -10.308  -5.029  -5.205  1.00  0.00     0.042 C 
HETATM    5  C7  UNL     1     -11.394  -5.038  -4.116  1.00  0.00     0.062 C 
HETATM    6  C8  UNL     1     -11.050  -6.146  -3.181  1.00  0.00     0.038 C 
HETATM    7  C9  UNL     1     -11.728  -6.076  -1.852  1.00  0.00     0.006 C 
HETATM    8  C10 UNL     1     -12.252  -4.716  -1.539  1.00  0.00     0.038 C 
HETATM    9  C11 UNL     1     -11.537  -3.609  -2.272  1.00  0.00     0.062 C 
HETATM   10  C12 UNL     1     -12.413  -2.363  -2.111  1.00  0.00     0.038 C 
HETATM   11  C13 UNL     1     -12.262  -1.728  -0.770  1.00  0.00     0.010 C 
HETATM   12  C14 UNL     1     -10.837  -1.456  -0.403  1.00  0.00     0.009 C 
HETATM   13  C16 UNL     1     -10.160  -2.826  -0.313  1.00  0.00     0.010 C 
HETATM   14  C17 UNL     1     -10.187  -3.436  -1.666  1.00  0.00     0.038 C 
HETATM   15  O3  UNL     1     -11.411  -3.790  -3.608  1.00  0.00    -0.369 OA
HETATM   16  C18 UNL     1     -12.748  -5.332  -4.721  1.00  0.00     0.042 C 
HETATM   17  C19 UNL     1     -12.779  -6.529  -5.600  1.00  0.00     0.037 C 
ENDROOT
BRANCH   1  18
HETATM   18  C2  UNL     1     -10.735  -6.789  -8.828  1.00  0.00     0.137 C 
HETATM   19  C1  UNL     1     -10.909  -7.953  -9.782  1.00  0.00     0.043 C 
BRANCH  18  20
HETATM   20  O1  UNL     1     -10.786  -5.623  -9.590  1.00  0.00    -0.392 OA
ATOM     21  H1  UNL     1     -10.977  -4.908  -8.995  1.00  0.00     0.210 HD
ENDBRANCH  18  20
ENDBRANCH   1  18
BRANCH  12  22
HETATM   22  C15 UNL     1     -10.780  -0.869   0.993  1.00  0.00     0.168 C 
BRANCH  22  23
HETATM   23  O2  UNL     1      -9.526  -1.183   1.567  1.00  0.00    -0.400 OA
ATOM     24  H2  UNL     1      -9.131  -1.890   1.069  1.00  0.00     0.209 HD
ENDBRANCH  22  23
ENDBRANCH  12  22
TORSDOF 4
ENDMDL
