MODEL 1
REMARK VINA RESULT: -8.217631944      0.000      0.000
REMARK  2 active torsions:
REMARK  status: ('A' for Active; 'I' for Inactive)
REMARK    1  A    between atoms: C12_12  and  C13_13 
REMARK    2  A    between atoms: C19_20  and  C20_21 
ROOT
HETATM    1  C1  UNL     1      -9.126  -4.002  -3.546  1.00  0.00     0.043 C 
HETATM    2  C2  UNL     1      -9.596  -5.184  -2.871  1.00  0.00    -0.081 C 
HETATM    3  C3  UNL     1      -8.728  -5.610  -1.683  1.00  0.00     0.043 C 
HETATM    4  C4  UNL     1     -10.619  -5.964  -3.025  1.00  0.00    -0.050 C 
HETATM    5  C5  UNL     1     -10.825  -7.180  -2.118  1.00  0.00     0.039 C 
HETATM    6  C6  UNL     1     -11.413  -8.313  -2.873  1.00  0.00     0.006 C 
HETATM    7  C7  UNL     1     -12.368  -8.032  -3.960  1.00  0.00     0.014 C 
HETATM    8  C8  UNL     1     -11.904  -6.967  -4.931  1.00  0.00    -0.020 C 
HETATM    9  C9  UNL     1     -10.721  -7.457  -5.700  1.00  0.00     0.020 C 
HETATM   10  C10 UNL     1     -12.949  -6.664  -5.972  1.00  0.00     0.020 C 
HETATM   11  C11 UNL     1     -11.651  -5.784  -4.027  1.00  0.00    -0.046 C 
HETATM   12  C12 UNL     1     -12.356  -4.710  -4.054  1.00  0.00    -0.002 C 
ENDROOT
BRANCH  12  13
HETATM   13  C13 UNL     1     -12.494  -3.474  -3.342  1.00  0.00     0.107 C 
HETATM   14  C14 UNL     1     -12.823  -3.610  -1.885  1.00  0.00     0.138 C 
HETATM   15  O1  UNL     1     -13.137  -4.601  -1.301  1.00  0.00    -0.297 OA
HETATM   16  C15 UNL     1     -12.755  -2.391  -1.067  1.00  0.00     0.079 C 
HETATM   17  C16 UNL     1     -12.952  -1.196  -1.955  1.00  0.00     0.012 C 
HETATM   18  C17 UNL     1     -13.947  -1.427  -3.062  1.00  0.00     0.036 C 
HETATM   19  C18 UNL     1     -13.684  -2.653  -3.829  1.00  0.00    -0.059 C 
HETATM   20  C19 UNL     1     -14.380  -3.076  -4.846  1.00  0.00     0.088 C 
BRANCH  20  21
HETATM   21  C20 UNL     1     -15.509  -2.352  -5.353  1.00  0.00     0.198 C 
HETATM   22  O2  UNL     1     -16.687  -2.511  -4.961  1.00  0.00    -0.644 OA
HETATM   23  O3  UNL     1     -15.340  -1.382  -6.364  1.00  0.00    -0.644 OA
ENDBRANCH  20  21
ENDBRANCH  12  13
TORSDOF 2
ENDMDL
MODEL 2
REMARK VINA RESULT: -7.052643300      2.014      2.865
REMARK  2 active torsions:
REMARK  status: ('A' for Active; 'I' for Inactive)
REMARK    1  A    between atoms: C12_12  and  C13_13 
REMARK    2  A    between atoms: C19_20  and  C20_21 
ROOT
HETATM    1  C1  UNL     1      -8.056  -4.904  -3.842  1.00  0.00     0.043 C 
HETATM    2  C2  UNL     1      -8.654  -6.207  -3.701  1.00  0.00    -0.081 C 
HETATM    3  C3  UNL     1      -7.646  -7.330  -3.438  1.00  0.00     0.043 C 
HETATM    4  C4  UNL     1      -9.873  -6.647  -3.719  1.00  0.00    -0.050 C 
HETATM    5  C5  UNL     1     -10.173  -8.138  -3.549  1.00  0.00     0.039 C 
HETATM    6  C6  UNL     1     -11.328  -8.547  -4.384  1.00  0.00     0.006 C 
HETATM    7  C7  UNL     1     -12.429  -7.591  -4.603  1.00  0.00     0.014 C 
HETATM    8  C8  UNL     1     -11.974  -6.208  -5.015  1.00  0.00    -0.020 C 
HETATM    9  C9  UNL     1     -11.355  -6.256  -6.374  1.00  0.00     0.020 C 
HETATM   10  C10 UNL     1     -13.131  -5.253  -5.148  1.00  0.00     0.020 C 
HETATM   11  C11 UNL     1     -11.048  -5.816  -3.889  1.00  0.00    -0.046 C 
HETATM   12  C12 UNL     1     -11.308  -4.873  -3.055  1.00  0.00    -0.002 C 
ENDROOT
BRANCH  12  13
HETATM   13  C13 UNL     1     -10.771  -4.288  -1.862  1.00  0.00     0.107 C 
HETATM   14  C14 UNL     1     -10.840  -5.155  -0.639  1.00  0.00     0.138 C 
HETATM   15  O1  UNL     1     -11.427  -6.185  -0.513  1.00  0.00    -0.297 OA
HETATM   16  C15 UNL     1     -10.109  -4.696   0.549  1.00  0.00     0.079 C 
HETATM   17  C16 UNL     1      -9.946  -3.205   0.476  1.00  0.00     0.012 C 
HETATM   18  C17 UNL     1     -11.137  -2.499  -0.118  1.00  0.00     0.036 C 
HETATM   19  C18 UNL     1     -11.570  -3.075  -1.399  1.00  0.00    -0.059 C 
HETATM   20  C19 UNL     1     -12.560  -2.644  -2.129  1.00  0.00     0.088 C 
BRANCH  20  21
HETATM   21  C20 UNL     1     -13.351  -1.509  -1.751  1.00  0.00     0.198 C 
HETATM   22  O2  UNL     1     -13.033  -0.688  -0.861  1.00  0.00    -0.644 OA
HETATM   23  O3  UNL     1     -14.580  -1.250  -2.393  1.00  0.00    -0.644 OA
ENDBRANCH  20  21
ENDBRANCH  12  13
TORSDOF 2
ENDMDL
MODEL 3
REMARK VINA RESULT: -7.049301943      1.739      2.295
REMARK  2 active torsions:
REMARK  status: ('A' for Active; 'I' for Inactive)
REMARK    1  A    between atoms: C12_12  and  C13_13 
REMARK    2  A    between atoms: C19_20  and  C20_21 
ROOT
HETATM    1  C1  UNL     1      -8.363  -6.757  -3.301  1.00  0.00     0.043 C 
HETATM    2  C2  UNL     1      -9.115  -7.806  -2.662  1.00  0.00    -0.081 C 
HETATM    3  C3  UNL     1      -8.301  -8.640  -1.668  1.00  0.00     0.043 C 
HETATM    4  C4  UNL     1     -10.351  -8.193  -2.718  1.00  0.00    -0.050 C 
HETATM    5  C5  UNL     1     -10.838  -9.389  -1.898  1.00  0.00     0.039 C 
HETATM    6  C6  UNL     1     -11.858 -10.165  -2.643  1.00  0.00     0.006 C 
HETATM    7  C7  UNL     1     -12.790  -9.453  -3.536  1.00  0.00     0.014 C 
HETATM    8  C8  UNL     1     -12.119  -8.472  -4.474  1.00  0.00    -0.020 C 
HETATM    9  C9  UNL     1     -11.271  -9.205  -5.461  1.00  0.00     0.020 C 
HETATM   10  C10 UNL     1     -13.121  -7.716  -5.306  1.00  0.00     0.020 C 
HETATM   11  C11 UNL     1     -11.377  -7.562  -3.524  1.00  0.00    -0.046 C 
HETATM   12  C12 UNL     1     -11.680  -6.326  -3.346  1.00  0.00    -0.002 C 
ENDROOT
BRANCH  12  13
HETATM   13  C13 UNL     1     -11.309  -5.216  -2.518  1.00  0.00     0.107 C 
HETATM   14  C14 UNL     1     -11.486  -5.432  -1.045  1.00  0.00     0.138 C 
HETATM   15  O1  UNL     1     -12.041  -6.339  -0.506  1.00  0.00    -0.297 OA
HETATM   16  C15 UNL     1     -10.916  -4.419  -0.146  1.00  0.00     0.079 C 
HETATM   17  C16 UNL     1     -10.806  -3.117  -0.887  1.00  0.00     0.012 C 
HETATM   18  C17 UNL     1     -11.947  -2.869  -1.839  1.00  0.00     0.036 C 
HETATM   19  C18 UNL     1     -12.205  -4.002  -2.740  1.00  0.00    -0.059 C 
HETATM   20  C19 UNL     1     -13.120  -4.042  -3.667  1.00  0.00     0.088 C 
BRANCH  20  21
HETATM   21  C20 UNL     1     -13.994  -2.935  -3.925  1.00  0.00     0.198 C 
HETATM   22  O2  UNL     1     -15.182  -2.863  -3.537  1.00  0.00    -0.644 OA
HETATM   23  O3  UNL     1     -13.537  -1.822  -4.662  1.00  0.00    -0.644 OA
ENDBRANCH  20  21
ENDBRANCH  12  13
TORSDOF 2
ENDMDL
MODEL 4
REMARK VINA RESULT: -6.909279012      2.490      4.856
REMARK  2 active torsions:
REMARK  status: ('A' for Active; 'I' for Inactive)
REMARK    1  A    between atoms: C12_12  and  C13_13 
REMARK    2  A    between atoms: C19_20  and  C20_21 
ROOT
HETATM    1  C1  UNL     1     -12.214  -6.360  -0.650  1.00  0.00     0.043 C 
HETATM    2  C2  UNL     1     -11.169  -6.388  -1.641  1.00  0.00    -0.081 C 
HETATM    3  C3  UNL     1     -11.299  -7.531  -2.652  1.00  0.00     0.043 C 
HETATM    4  C4  UNL     1     -10.144  -5.636  -1.892  1.00  0.00    -0.050 C 
HETATM    5  C5  UNL     1      -9.194  -5.962  -3.047  1.00  0.00     0.039 C 
HETATM    6  C6  UNL     1      -7.794  -5.623  -2.696  1.00  0.00     0.006 C 
HETATM    7  C7  UNL     1      -7.533  -4.459  -1.830  1.00  0.00     0.014 C 
HETATM    8  C8  UNL     1      -8.390  -4.410  -0.584  1.00  0.00    -0.020 C 
HETATM    9  C9  UNL     1      -8.032  -5.538   0.328  1.00  0.00     0.020 C 
HETATM   10  C10 UNL     1      -8.140  -3.162   0.221  1.00  0.00     0.020 C 
HETATM   11  C11 UNL     1      -9.791  -4.444  -1.146  1.00  0.00    -0.046 C 
HETATM   12  C12 UNL     1     -10.608  -3.454  -1.070  1.00  0.00    -0.002 C 
ENDROOT
BRANCH  12  13
HETATM   13  C13 UNL     1     -11.911  -3.073  -1.531  1.00  0.00     0.107 C 
HETATM   14  C14 UNL     1     -12.055  -2.967  -3.020  1.00  0.00     0.138 C 
HETATM   15  O1  UNL     1     -11.188  -3.002  -3.837  1.00  0.00    -0.297 OA
HETATM   16  C15 UNL     1     -13.415  -2.799  -3.550  1.00  0.00     0.079 C 
HETATM   17  C16 UNL     1     -14.281  -2.186  -2.488  1.00  0.00     0.012 C 
HETATM   18  C17 UNL     1     -13.563  -1.167  -1.641  1.00  0.00     0.036 C 
HETATM   19  C18 UNL     1     -12.286  -1.658  -1.104  1.00  0.00    -0.059 C 
HETATM   20  C19 UNL     1     -11.479  -0.987  -0.331  1.00  0.00     0.088 C 
BRANCH  20  21
HETATM   21  C20 UNL     1     -11.773   0.347   0.106  1.00  0.00     0.198 C 
HETATM   22  O2  UNL     1     -12.728   0.653   0.855  1.00  0.00    -0.644 OA
HETATM   23  O3  UNL     1     -10.963   1.427  -0.304  1.00  0.00    -0.644 OA
ENDBRANCH  20  21
ENDBRANCH  12  13
TORSDOF 2
ENDMDL
MODEL 5
REMARK VINA RESULT: -6.894415359      1.705      2.214
REMARK  2 active torsions:
REMARK  status: ('A' for Active; 'I' for Inactive)
REMARK    1  A    between atoms: C12_12  and  C13_13 
REMARK    2  A    between atoms: C19_20  and  C20_21 
ROOT
HETATM    1  C1  UNL     1      -7.890  -4.648  -3.159  1.00  0.00     0.043 C 
HETATM    2  C2  UNL     1      -8.236  -5.894  -2.527  1.00  0.00    -0.081 C 
HETATM    3  C3  UNL     1      -7.098  -6.519  -1.716  1.00  0.00     0.043 C 
HETATM    4  C4  UNL     1      -9.319  -6.604  -2.465  1.00  0.00    -0.050 C 
HETATM    5  C5  UNL     1      -9.349  -7.928  -1.699  1.00  0.00     0.039 C 
HETATM    6  C6  UNL     1     -10.219  -8.917  -2.379  1.00  0.00     0.006 C 
HETATM    7  C7  UNL     1     -11.423  -8.447  -3.087  1.00  0.00     0.014 C 
HETATM    8  C8  UNL     1     -11.178  -7.273  -4.011  1.00  0.00    -0.020 C 
HETATM    9  C9  UNL     1     -10.312  -7.693  -5.154  1.00  0.00     0.020 C 
HETATM   10  C10 UNL     1     -12.452  -6.783  -4.646  1.00  0.00     0.020 C 
HETATM   11  C11 UNL     1     -10.580  -6.242  -3.083  1.00  0.00    -0.046 C 
HETATM   12  C12 UNL     1     -11.174  -5.148  -2.764  1.00  0.00    -0.002 C 
ENDROOT
BRANCH  12  13
HETATM   13  C13 UNL     1     -11.001  -4.022  -1.894  1.00  0.00     0.107 C 
HETATM   14  C14 UNL     1     -10.927  -4.350  -0.432  1.00  0.00     0.138 C 
HETATM   15  O1  UNL     1     -11.155  -5.398   0.089  1.00  0.00    -0.297 OA
HETATM   16  C15 UNL     1     -10.529  -3.267   0.478  1.00  0.00     0.079 C 
HETATM   17  C16 UNL     1     -10.855  -1.949  -0.163  1.00  0.00     0.012 C 
HETATM   18  C17 UNL     1     -12.132  -1.966  -0.961  1.00  0.00     0.036 C 
HETATM   19  C18 UNL     1     -12.201  -3.081  -1.917  1.00  0.00    -0.059 C 
HETATM   20  C19 UNL     1     -13.184  -3.318  -2.738  1.00  0.00     0.088 C 
BRANCH  20  21
HETATM   21  C20 UNL     1     -14.340  -2.472  -2.809  1.00  0.00     0.198 C 
HETATM   22  O2  UNL     1     -14.399  -1.311  -2.346  1.00  0.00    -0.644 OA
HETATM   23  O3  UNL     1     -15.521  -2.928  -3.434  1.00  0.00    -0.644 OA
ENDBRANCH  20  21
ENDBRANCH  12  13
TORSDOF 2
ENDMDL
