MODEL 1
REMARK VINA RESULT: -6.839876572      0.000      0.000
REMARK  15 active torsions:
REMARK  status: ('A' for Active; 'I' for Inactive)
REMARK    1  A    between atoms: N3_4  and  C2_6 
REMARK    2  A    between atoms: C2_6  and  C3_7 
REMARK    3  A    between atoms: C3_7  and  N4_8 
REMARK    4  A    between atoms: N4_8  and  C4_9 
REMARK    5  A    between atoms: N4_8  and  C14_26 
REMARK    6  A    between atoms: C4_9  and  C5_10 
REMARK    7  A    between atoms: C5_10  and  C6_11 
REMARK    8  A    between atoms: C6_11  and  C7_12 
REMARK    9  A    between atoms: C7_12  and  C8_13 
REMARK   10  A    between atoms: C14_26  and  C15_27 
REMARK   11  A    between atoms: C15_27  and  N8_28 
REMARK   12  A    between atoms: N8_28  and  C16_31 
REMARK   13  A    between atoms: C16_31  and  C17_32 
REMARK   14  A    between atoms: C17_32  and  N9_33 
REMARK   15  A    between atoms: N9_33  and  C18_35 
ROOT
HETATM    1  N4  UNL     1     -41.013   2.639 -33.925  1.00  0.00     0.091 N 
ENDROOT
BRANCH   1   2
HETATM    2  C3  UNL     1     -41.987   3.693 -33.682  1.00  0.00     0.292 C 
BRANCH   2   3
HETATM    3  C2  UNL     1     -41.484   5.086 -33.801  1.00  0.00     0.152 C 
BRANCH   3   4
HETATM    4  N3  UNL     1     -42.687   5.904 -34.066  1.00  0.00    -0.365 N 
HETATM    5  C1  UNL     1     -42.851   7.084 -33.641  1.00  0.00     0.197 C 
HETATM    6  N1  UNL     1     -44.057   7.749 -33.969  1.00  0.00    -0.067 NA
HETATM    7  N2  UNL     1     -41.902   7.787 -32.859  1.00  0.00    -0.067 NA
ATOM      8  H3  UNL     1     -43.433   5.490 -34.626  1.00  0.00     0.161 HD
ENDBRANCH   3   4
ENDBRANCH   2   3
ENDBRANCH   1   2
BRANCH   1   9
HETATM    9  C4  UNL     1     -39.737   3.066 -33.447  1.00  0.00     0.272 C 
BRANCH   9  10
HETATM   10  C5  UNL     1     -38.899   2.158 -32.669  1.00  0.00     0.030 C 
BRANCH  10  11
HETATM   11  C6  UNL     1     -38.021   2.970 -31.708  1.00  0.00     0.008 C 
BRANCH  11  12
HETATM   12  C7  UNL     1     -38.192   4.450 -31.848  1.00  0.00     0.057 C 
BRANCH  12  13
HETATM   13  C8  UNL     1     -36.865   5.065 -32.147  1.00  0.00     0.012 A 
HETATM   14  C9  UNL     1     -35.965   4.672 -33.107  1.00  0.00     0.046 A 
HETATM   15  C10 UNL     1     -34.878   5.535 -33.036  1.00  0.00     0.078 A 
HETATM   16  C11 UNL     1     -33.698   5.592 -33.772  1.00  0.00     0.260 A 
HETATM   17  C13 UNL     1     -35.155   6.427 -32.028  1.00  0.00     0.122 A 
HETATM   18  O1  UNL     1     -33.475   4.779 -34.670  1.00  0.00    -0.267 OA
HETATM   19  N5  UNL     1     -32.807   6.560 -33.473  1.00  0.00    -0.319 N 
HETATM   20  C12 UNL     1     -33.086   7.440 -32.473  1.00  0.00     0.184 A 
ATOM     21  H5  UNL     1     -31.931   6.630 -33.991  1.00  0.00     0.169 HD
HETATM   22  N6  UNL     1     -34.224   7.371 -31.778  1.00  0.00    -0.338 N 
ATOM     23  H6  UNL     1     -34.394   8.051 -31.036  1.00  0.00     0.168 HD
HETATM   24  N7  UNL     1     -36.366   6.121 -31.505  1.00  0.00    -0.345 N 
ATOM     25  H7  UNL     1     -36.824   6.620 -30.742  1.00  0.00     0.167 HD
ENDBRANCH  12  13
ENDBRANCH  11  12
ENDBRANCH  10  11
ENDBRANCH   9  10
ENDBRANCH   1   9
BRANCH   1  26
HETATM   26  C14 UNL     1     -41.517   1.375 -33.552  1.00  0.00     0.300 C 
BRANCH  26  27
HETATM   27  C15 UNL     1     -42.978   1.131 -33.713  1.00  0.00     0.262 C 
BRANCH  27  28
HETATM   28  N8  UNL     1     -43.309   0.541 -34.997  1.00  0.00    -0.072 N 
ATOM     29  H82 UNL     1     -43.507   1.263 -35.689  1.00  0.00     0.277 HD
ATOM     30  H81 UNL     1     -42.485   0.119 -35.427  1.00  0.00     0.277 HD
BRANCH  28  31
HETATM   31  C16 UNL     1     -44.376  -0.394 -34.920  1.00  0.00     0.251 C 
BRANCH  31  32
HETATM   32  C17 UNL     1     -43.999  -1.821 -35.258  1.00  0.00     0.149 C 
BRANCH  32  33
HETATM   33  N9  UNL     1     -43.760  -2.549 -34.028  1.00  0.00    -0.367 N 
ATOM     34  H9  UNL     1     -44.544  -3.057 -33.617  1.00  0.00     0.161 HD
BRANCH  33  35
HETATM   35  C18 UNL     1     -42.514  -2.605 -33.355  1.00  0.00     0.348 C 
HETATM   36  O2  UNL     1     -41.977  -3.769 -33.212  1.00  0.00    -0.284 OA
ENDBRANCH  33  35
ENDBRANCH  32  33
ENDBRANCH  31  32
ENDBRANCH  28  31
ENDBRANCH  27  28
ENDBRANCH  26  27
ENDBRANCH   1  26
TORSDOF 15
ENDMDL
MODEL 2
REMARK VINA RESULT: -6.768360809      1.591      1.828
REMARK  15 active torsions:
REMARK  status: ('A' for Active; 'I' for Inactive)
REMARK    1  A    between atoms: N3_4  and  C2_6 
REMARK    2  A    between atoms: C2_6  and  C3_7 
REMARK    3  A    between atoms: C3_7  and  N4_8 
REMARK    4  A    between atoms: N4_8  and  C4_9 
REMARK    5  A    between atoms: N4_8  and  C14_26 
REMARK    6  A    between atoms: C4_9  and  C5_10 
REMARK    7  A    between atoms: C5_10  and  C6_11 
REMARK    8  A    between atoms: C6_11  and  C7_12 
REMARK    9  A    between atoms: C7_12  and  C8_13 
REMARK   10  A    between atoms: C14_26  and  C15_27 
REMARK   11  A    between atoms: C15_27  and  N8_28 
REMARK   12  A    between atoms: N8_28  and  C16_31 
REMARK   13  A    between atoms: C16_31  and  C17_32 
REMARK   14  A    between atoms: C17_32  and  N9_33 
REMARK   15  A    between atoms: N9_33  and  C18_35 
ROOT
HETATM    1  N4  UNL     1     -41.723   2.534 -34.014  1.00  0.00     0.091 N 
ENDROOT
BRANCH   1   2
HETATM    2  C3  UNL     1     -42.609   3.645 -34.326  1.00  0.00     0.292 C 
BRANCH   2   3
HETATM    3  C2  UNL     1     -42.040   5.006 -34.141  1.00  0.00     0.152 C 
BRANCH   3   4
HETATM    4  N3  UNL     1     -43.207   5.913 -34.166  1.00  0.00    -0.365 N 
HETATM    5  C1  UNL     1     -43.193   7.100 -33.728  1.00  0.00     0.197 C 
HETATM    6  N1  UNL     1     -44.387   7.855 -33.813  1.00  0.00    -0.067 NA
HETATM    7  N2  UNL     1     -42.055   7.726 -33.161  1.00  0.00    -0.067 NA
ATOM      8  H3  UNL     1     -44.079   5.559 -34.560  1.00  0.00     0.161 HD
ENDBRANCH   3   4
ENDBRANCH   2   3
ENDBRANCH   1   2
BRANCH   1   9
HETATM    9  C4  UNL     1     -40.369   2.972 -34.130  1.00  0.00     0.272 C 
BRANCH   9  10
HETATM   10  C5  UNL     1     -39.433   2.778 -33.027  1.00  0.00     0.030 C 
BRANCH  10  11
HETATM   11  C6  UNL     1     -38.793   4.123 -32.657  1.00  0.00     0.008 C 
BRANCH  11  12
HETATM   12  C7  UNL     1     -37.780   4.023 -31.561  1.00  0.00     0.057 C 
BRANCH  12  13
HETATM   13  C8  UNL     1     -36.571   4.809 -31.944  1.00  0.00     0.012 A 
HETATM   14  C9  UNL     1     -35.665   4.511 -32.933  1.00  0.00     0.046 A 
HETATM   15  C10 UNL     1     -34.713   5.523 -32.944  1.00  0.00     0.078 A 
HETATM   16  C11 UNL     1     -33.586   5.719 -33.737  1.00  0.00     0.260 A 
HETATM   17  C13 UNL     1     -35.074   6.407 -31.955  1.00  0.00     0.122 A 
HETATM   18  O1  UNL     1     -33.286   4.911 -34.616  1.00  0.00    -0.267 OA
HETATM   19  N5  UNL     1     -32.834   6.816 -33.514  1.00  0.00    -0.319 N 
HETATM   20  C12 UNL     1     -33.195   7.688 -32.534  1.00  0.00     0.184 A 
ATOM     21  H5  UNL     1     -32.001   6.991 -34.076  1.00  0.00     0.169 HD
HETATM   22  N6  UNL     1     -34.281   7.484 -31.782  1.00  0.00    -0.338 N 
ATOM     23  H6  UNL     1     -34.516   8.162 -31.057  1.00  0.00     0.168 HD
HETATM   24  N7  UNL     1     -36.204   5.952 -31.364  1.00  0.00    -0.345 N 
ATOM     25  H7  UNL     1     -36.696   6.410 -30.598  1.00  0.00     0.167 HD
ENDBRANCH  12  13
ENDBRANCH  11  12
ENDBRANCH  10  11
ENDBRANCH   9  10
ENDBRANCH   1   9
BRANCH   1  26
HETATM   26  C14 UNL     1     -42.143   1.850 -32.854  1.00  0.00     0.300 C 
BRANCH  26  27
HETATM   27  C15 UNL     1     -43.422   1.089 -32.918  1.00  0.00     0.262 C 
BRANCH  27  28
HETATM   28  N8  UNL     1     -43.285  -0.181 -33.608  1.00  0.00    -0.072 N 
ATOM     29  H82 UNL     1     -42.304  -0.391 -33.791  1.00  0.00     0.277 HD
ATOM     30  H81 UNL     1     -43.509  -0.959 -32.987  1.00  0.00     0.277 HD
BRANCH  28  31
HETATM   31  C16 UNL     1     -44.050  -0.249 -34.804  1.00  0.00     0.251 C 
BRANCH  31  32
HETATM   32  C17 UNL     1     -44.426  -1.649 -35.241  1.00  0.00     0.149 C 
BRANCH  32  33
HETATM   33  N9  UNL     1     -45.335  -1.562 -36.367  1.00  0.00    -0.367 N 
ATOM     34  H9  UNL     1     -45.069  -2.038 -37.229  1.00  0.00     0.161 HD
BRANCH  33  35
HETATM   35  C18 UNL     1     -46.567  -0.861 -36.354  1.00  0.00     0.348 C 
HETATM   36  O2  UNL     1     -47.644  -1.570 -36.338  1.00  0.00    -0.284 OA
ENDBRANCH  33  35
ENDBRANCH  32  33
ENDBRANCH  31  32
ENDBRANCH  28  31
ENDBRANCH  27  28
ENDBRANCH  26  27
ENDBRANCH   1  26
TORSDOF 15
ENDMDL
MODEL 3
REMARK VINA RESULT: -6.743486485      2.759      5.226
REMARK  15 active torsions:
REMARK  status: ('A' for Active; 'I' for Inactive)
REMARK    1  A    between atoms: N3_4  and  C2_6 
REMARK    2  A    between atoms: C2_6  and  C3_7 
REMARK    3  A    between atoms: C3_7  and  N4_8 
REMARK    4  A    between atoms: N4_8  and  C4_9 
REMARK    5  A    between atoms: N4_8  and  C14_26 
REMARK    6  A    between atoms: C4_9  and  C5_10 
REMARK    7  A    between atoms: C5_10  and  C6_11 
REMARK    8  A    between atoms: C6_11  and  C7_12 
REMARK    9  A    between atoms: C7_12  and  C8_13 
REMARK   10  A    between atoms: C14_26  and  C15_27 
REMARK   11  A    between atoms: C15_27  and  N8_28 
REMARK   12  A    between atoms: N8_28  and  C16_31 
REMARK   13  A    between atoms: C16_31  and  C17_32 
REMARK   14  A    between atoms: C17_32  and  N9_33 
REMARK   15  A    between atoms: N9_33  and  C18_35 
ROOT
HETATM    1  N4  UNL     1     -41.447   2.560 -33.721  1.00  0.00     0.091 N 
ENDROOT
BRANCH   1   2
HETATM    2  C3  UNL     1     -41.645   1.495 -32.749  1.00  0.00     0.292 C 
BRANCH   2   3
HETATM    3  C2  UNL     1     -40.533   0.518 -32.615  1.00  0.00     0.152 C 
BRANCH   3   4
HETATM    4  N3  UNL     1     -41.181  -0.809 -32.693  1.00  0.00    -0.365 N 
HETATM    5  C1  UNL     1     -40.568  -1.885 -32.949  1.00  0.00     0.197 C 
HETATM    6  N1  UNL     1     -41.317  -3.085 -32.995  1.00  0.00    -0.067 NA
HETATM    7  N2  UNL     1     -39.174  -1.968 -33.190  1.00  0.00    -0.067 NA
ATOM      8  H3  UNL     1     -42.187  -0.860 -32.530  1.00  0.00     0.161 HD
ENDBRANCH   3   4
ENDBRANCH   2   3
ENDBRANCH   1   2
BRANCH   1   9
HETATM    9  C4  UNL     1     -40.049   2.833 -33.831  1.00  0.00     0.272 C 
BRANCH   9  10
HETATM   10  C5  UNL     1     -39.553   4.201 -33.707  1.00  0.00     0.030 C 
BRANCH  10  11
HETATM   11  C6  UNL     1     -39.100   4.450 -32.263  1.00  0.00     0.008 C 
BRANCH  11  12
HETATM   12  C7  UNL     1     -37.833   3.740 -31.902  1.00  0.00     0.057 C 
BRANCH  12  13
HETATM   13  C8  UNL     1     -36.680   4.662 -32.128  1.00  0.00     0.012 A 
HETATM   14  C9  UNL     1     -35.706   4.553 -33.090  1.00  0.00     0.046 A 
HETATM   15  C10 UNL     1     -34.847   5.634 -32.936  1.00  0.00     0.078 A 
HETATM   16  C11 UNL     1     -33.705   6.011 -33.638  1.00  0.00     0.260 A 
HETATM   17  C13 UNL     1     -35.330   6.367 -31.878  1.00  0.00     0.122 A 
HETATM   18  O1  UNL     1     -33.294   5.336 -34.582  1.00  0.00    -0.267 OA
HETATM   19  N5  UNL     1     -33.063   7.133 -33.253  1.00  0.00    -0.319 N 
HETATM   20  C12 UNL     1     -33.545   7.855 -32.205  1.00  0.00     0.184 A 
ATOM     21  H5  UNL     1     -32.223   7.438 -33.744  1.00  0.00     0.169 HD
HETATM   22  N6  UNL     1     -34.643   7.479 -31.543  1.00  0.00    -0.338 N 
ATOM     23  H6  UNL     1     -34.971   8.048 -30.762  1.00  0.00     0.168 HD
HETATM   24  N7  UNL     1     -36.442   5.757 -31.406  1.00  0.00    -0.345 N 
ATOM     25  H7  UNL     1     -37.009   6.083 -30.623  1.00  0.00     0.167 HD
ENDBRANCH  12  13
ENDBRANCH  11  12
ENDBRANCH  10  11
ENDBRANCH   9  10
ENDBRANCH   1   9
BRANCH   1  26
HETATM   26  C14 UNL     1     -42.215   2.346 -34.884  1.00  0.00     0.300 C 
BRANCH  26  27
HETATM   27  C15 UNL     1     -43.562   1.728 -34.727  1.00  0.00     0.262 C 
BRANCH  27  28
HETATM   28  N8  UNL     1     -44.625   2.713 -34.647  1.00  0.00    -0.072 N 
ATOM     29  H82 UNL     1     -45.538   2.261 -34.618  1.00  0.00     0.277 HD
ATOM     30  H81 UNL     1     -44.633   3.166 -33.733  1.00  0.00     0.277 HD
BRANCH  28  31
HETATM   31  C16 UNL     1     -44.568   3.676 -35.690  1.00  0.00     0.251 C 
BRANCH  31  32
HETATM   32  C17 UNL     1     -45.142   5.032 -35.337  1.00  0.00     0.149 C 
BRANCH  32  33
HETATM   33  N9  UNL     1     -44.068   5.896 -34.890  1.00  0.00    -0.367 N 
ATOM     34  H9  UNL     1     -43.178   5.843 -35.387  1.00  0.00     0.161 HD
BRANCH  33  35
HETATM   35  C18 UNL     1     -44.166   6.809 -33.811  1.00  0.00     0.348 C 
HETATM   36  O2  UNL     1     -44.154   8.065 -34.103  1.00  0.00    -0.284 OA
ENDBRANCH  33  35
ENDBRANCH  32  33
ENDBRANCH  31  32
ENDBRANCH  28  31
ENDBRANCH  27  28
ENDBRANCH  26  27
ENDBRANCH   1  26
TORSDOF 15
ENDMDL
MODEL 4
REMARK VINA RESULT: -6.688660204      2.584      3.161
REMARK  15 active torsions:
REMARK  status: ('A' for Active; 'I' for Inactive)
REMARK    1  A    between atoms: N3_4  and  C2_6 
REMARK    2  A    between atoms: C2_6  and  C3_7 
REMARK    3  A    between atoms: C3_7  and  N4_8 
REMARK    4  A    between atoms: N4_8  and  C4_9 
REMARK    5  A    between atoms: N4_8  and  C14_26 
REMARK    6  A    between atoms: C4_9  and  C5_10 
REMARK    7  A    between atoms: C5_10  and  C6_11 
REMARK    8  A    between atoms: C6_11  and  C7_12 
REMARK    9  A    between atoms: C7_12  and  C8_13 
REMARK   10  A    between atoms: C14_26  and  C15_27 
REMARK   11  A    between atoms: C15_27  and  N8_28 
REMARK   12  A    between atoms: N8_28  and  C16_31 
REMARK   13  A    between atoms: C16_31  and  C17_32 
REMARK   14  A    between atoms: C17_32  and  N9_33 
REMARK   15  A    between atoms: N9_33  and  C18_35 
ROOT
HETATM    1  N4  UNL     1     -40.763   3.252 -33.794  1.00  0.00     0.091 N 
ENDROOT
BRANCH   1   2
HETATM    2  C3  UNL     1     -41.637   4.414 -33.749  1.00  0.00     0.292 C 
BRANCH   2   3
HETATM    3  C2  UNL     1     -41.125   5.587 -32.991  1.00  0.00     0.152 C 
BRANCH   3   4
HETATM    4  N3  UNL     1     -42.315   6.431 -32.748  1.00  0.00    -0.365 N 
HETATM    5  C1  UNL     1     -42.359   7.367 -31.899  1.00  0.00     0.197 C 
HETATM    6  N1  UNL     1     -43.567   8.093 -31.769  1.00  0.00    -0.067 NA
HETATM    7  N2  UNL     1     -41.273   7.741 -31.069  1.00  0.00    -0.067 NA
ATOM      8  H3  UNL     1     -43.153   6.246 -33.299  1.00  0.00     0.161 HD
ENDBRANCH   3   4
ENDBRANCH   2   3
ENDBRANCH   1   2
BRANCH   1   9
HETATM    9  C4  UNL     1     -39.511   3.588 -33.194  1.00  0.00     0.272 C 
BRANCH   9  10
HETATM   10  C5  UNL     1     -38.754   2.582 -32.456  1.00  0.00     0.030 C 
BRANCH  10  11
HETATM   11  C6  UNL     1     -37.815   3.278 -31.460  1.00  0.00     0.008 C 
BRANCH  11  12
HETATM   12  C7  UNL     1     -37.919   4.770 -31.483  1.00  0.00     0.057 C 
BRANCH  12  13
HETATM   13  C8  UNL     1     -36.605   5.342 -31.902  1.00  0.00     0.012 A 
HETATM   14  C9  UNL     1     -35.774   4.876 -32.891  1.00  0.00     0.046 A 
HETATM   15  C10 UNL     1     -34.673   5.721 -32.941  1.00  0.00     0.078 A 
HETATM   16  C11 UNL     1     -33.541   5.713 -33.751  1.00  0.00     0.260 A 
HETATM   17  C13 UNL     1     -34.872   6.677 -31.973  1.00  0.00     0.122 A 
HETATM   18  O1  UNL     1     -33.388   4.844 -34.611  1.00  0.00    -0.267 OA
HETATM   19  N5  UNL     1     -32.619   6.680 -33.567  1.00  0.00    -0.319 N 
HETATM   20  C12 UNL     1     -32.820   7.623 -32.607  1.00  0.00     0.184 A 
ATOM     21  H5  UNL     1     -31.777   6.704 -34.142  1.00  0.00     0.169 HD
HETATM   22  N6  UNL     1     -33.913   7.617 -31.839  1.00  0.00    -0.338 N 
ATOM     23  H6  UNL     1     -34.025   8.342 -31.130  1.00  0.00     0.168 HD
HETATM   24  N7  UNL     1     -36.051   6.425 -31.358  1.00  0.00    -0.345 N 
ATOM     25  H7  UNL     1     -36.452   6.976 -30.599  1.00  0.00     0.167 HD
ENDBRANCH  12  13
ENDBRANCH  11  12
ENDBRANCH  10  11
ENDBRANCH   9  10
ENDBRANCH   1   9
BRANCH   1  26
HETATM   26  C14 UNL     1     -41.441   2.081 -33.395  1.00  0.00     0.300 C 
BRANCH  26  27
HETATM   27  C15 UNL     1     -42.931   2.100 -33.408  1.00  0.00     0.262 C 
BRANCH  27  28
HETATM   28  N8  UNL     1     -43.492   1.327 -34.500  1.00  0.00    -0.072 N 
ATOM     29  H82 UNL     1     -42.897   0.529 -34.724  1.00  0.00     0.277 HD
ATOM     30  H81 UNL     1     -44.332   0.830 -34.201  1.00  0.00     0.277 HD
BRANCH  28  31
HETATM   31  C16 UNL     1     -43.749   2.108 -35.659  1.00  0.00     0.251 C 
BRANCH  31  32
HETATM   32  C17 UNL     1     -45.020   2.930 -35.604  1.00  0.00     0.149 C 
BRANCH  32  33
HETATM   33  N9  UNL     1     -44.678   4.333 -35.730  1.00  0.00    -0.367 N 
ATOM     34  H9  UNL     1     -44.077   4.607 -36.508  1.00  0.00     0.161 HD
BRANCH  33  35
HETATM   35  C18 UNL     1     -45.120   5.351 -34.849  1.00  0.00     0.348 C 
HETATM   36  O2  UNL     1     -44.491   6.476 -34.890  1.00  0.00    -0.284 OA
ENDBRANCH  33  35
ENDBRANCH  32  33
ENDBRANCH  31  32
ENDBRANCH  28  31
ENDBRANCH  27  28
ENDBRANCH  26  27
ENDBRANCH   1  26
TORSDOF 15
ENDMDL
MODEL 5
REMARK VINA RESULT: -6.677710221      3.902     10.665
REMARK  15 active torsions:
REMARK  status: ('A' for Active; 'I' for Inactive)
REMARK    1  A    between atoms: N3_4  and  C2_6 
REMARK    2  A    between atoms: C2_6  and  C3_7 
REMARK    3  A    between atoms: C3_7  and  N4_8 
REMARK    4  A    between atoms: N4_8  and  C4_9 
REMARK    5  A    between atoms: N4_8  and  C14_26 
REMARK    6  A    between atoms: C4_9  and  C5_10 
REMARK    7  A    between atoms: C5_10  and  C6_11 
REMARK    8  A    between atoms: C6_11  and  C7_12 
REMARK    9  A    between atoms: C7_12  and  C8_13 
REMARK   10  A    between atoms: C14_26  and  C15_27 
REMARK   11  A    between atoms: C15_27  and  N8_28 
REMARK   12  A    between atoms: N8_28  and  C16_31 
REMARK   13  A    between atoms: C16_31  and  C17_32 
REMARK   14  A    between atoms: C17_32  and  N9_33 
REMARK   15  A    between atoms: N9_33  and  C18_35 
ROOT
HETATM    1  N4  UNL     1     -36.100   6.276 -31.182  1.00  0.00     0.091 N 
ENDROOT
BRANCH   1   2
HETATM    2  C3  UNL     1     -34.928   5.560 -30.703  1.00  0.00     0.292 C 
BRANCH   2   3
HETATM    3  C2  UNL     1     -34.159   4.806 -31.728  1.00  0.00     0.152 C 
BRANCH   3   4
HETATM    4  N3  UNL     1     -33.217   5.792 -32.299  1.00  0.00    -0.365 N 
HETATM    5  C1  UNL     1     -33.154   6.085 -33.527  1.00  0.00     0.197 C 
HETATM    6  N1  UNL     1     -32.199   7.048 -33.935  1.00  0.00    -0.067 NA
HETATM    7  N2  UNL     1     -33.983   5.515 -34.525  1.00  0.00    -0.067 NA
ATOM      8  H3  UNL     1     -32.576   6.265 -31.661  1.00  0.00     0.161 HD
ENDBRANCH   3   4
ENDBRANCH   2   3
ENDBRANCH   1   2
BRANCH   1   9
HETATM    9  C4  UNL     1     -37.124   5.333 -31.499  1.00  0.00     0.272 C 
BRANCH   9  10
HETATM   10  C5  UNL     1     -38.313   5.224 -30.658  1.00  0.00     0.030 C 
BRANCH  10  11
HETATM   11  C6  UNL     1     -39.566   5.444 -31.516  1.00  0.00     0.008 C 
BRANCH  11  12
HETATM   12  C7  UNL     1     -39.522   4.736 -32.833  1.00  0.00     0.057 C 
BRANCH  12  13
HETATM   13  C8  UNL     1     -40.870   4.810 -33.469  1.00  0.00     0.012 A 
HETATM   14  C9  UNL     1     -41.679   5.916 -33.575  1.00  0.00     0.046 A 
HETATM   15  C10 UNL     1     -42.829   5.526 -34.250  1.00  0.00     0.078 A 
HETATM   16  C11 UNL     1     -43.964   6.240 -34.624  1.00  0.00     0.260 A 
HETATM   17  C13 UNL     1     -42.680   4.189 -34.533  1.00  0.00     0.122 A 
HETATM   18  O1  UNL     1     -44.071   7.438 -34.358  1.00  0.00    -0.267 OA
HETATM   19  N5  UNL     1     -44.941   5.584 -35.284  1.00  0.00    -0.319 N 
HETATM   20  C12 UNL     1     -44.789   4.260 -35.561  1.00  0.00     0.184 A 
ATOM     21  H5  UNL     1     -45.786   6.076 -35.573  1.00  0.00     0.169 HD
HETATM   22  N6  UNL     1     -43.692   3.591 -35.195  1.00  0.00    -0.338 N 
ATOM     23  H6  UNL     1     -43.618   2.598 -35.422  1.00  0.00     0.168 HD
HETATM   24  N7  UNL     1     -41.484   3.779 -34.050  1.00  0.00    -0.345 N 
ATOM     25  H7  UNL     1     -41.111   2.832 -34.119  1.00  0.00     0.167 HD
ENDBRANCH  12  13
ENDBRANCH  11  12
ENDBRANCH  10  11
ENDBRANCH   9  10
ENDBRANCH   1   9
BRANCH   1  26
HETATM   26  C14 UNL     1     -36.396   7.386 -30.364  1.00  0.00     0.300 C 
BRANCH  26  27
HETATM   27  C15 UNL     1     -35.259   8.097 -29.713  1.00  0.00     0.262 C 
BRANCH  27  28
HETATM   28  N8  UNL     1     -34.956   9.367 -30.347  1.00  0.00    -0.072 N 
ATOM     29  H82 UNL     1     -35.800   9.792 -30.731  1.00  0.00     0.277 HD
ATOM     30  H81 UNL     1     -34.716  10.073 -29.650  1.00  0.00     0.277 HD
BRANCH  28  31
HETATM   31  C16 UNL     1     -33.943   9.265 -31.338  1.00  0.00     0.251 C 
BRANCH  31  32
HETATM   32  C17 UNL     1     -32.526   9.277 -30.804  1.00  0.00     0.149 C 
BRANCH  32  33
HETATM   33  N9  UNL     1     -31.603   9.340 -31.920  1.00  0.00    -0.367 N 
ATOM     34  H9  UNL     1     -31.918   8.971 -32.818  1.00  0.00     0.161 HD
BRANCH  33  35
HETATM   35  C18 UNL     1     -30.294   9.879 -31.852  1.00  0.00     0.348 C 
HETATM   36  O2  UNL     1     -30.190  11.165 -31.828  1.00  0.00    -0.284 OA
ENDBRANCH  33  35
ENDBRANCH  32  33
ENDBRANCH  31  32
ENDBRANCH  28  31
ENDBRANCH  27  28
ENDBRANCH  26  27
ENDBRANCH   1  26
TORSDOF 15
ENDMDL
