MODEL 1
REMARK VINA RESULT: -6.212161525      0.000      0.000
REMARK  16 active torsions:
REMARK  status: ('A' for Active; 'I' for Inactive)
REMARK       I    between atoms: C2_2  and  N1_4 
REMARK    1  A    between atoms: N1_4  and  C3_6 
REMARK    2  A    between atoms: C3_6  and  C4_7 
REMARK    3  A    between atoms: C7_10  and  C8_11 
REMARK    4  A    between atoms: C8_11  and  N2_12 
REMARK       I    between atoms: N2_12  and  C9_14 
REMARK    5  A    between atoms: N4_16  and  C10_18 
REMARK    6  A    between atoms: C10_18  and  C11_19 
REMARK    7  A    between atoms: C11_19  and  N5_20 
REMARK    8  A    between atoms: N5_20  and  C12_23 
REMARK    9  A    between atoms: C12_23  and  C13_24 
REMARK   10  A    between atoms: C13_24  and  O2_25 
REMARK   11  A    between atoms: O2_25  and  C14_26 
REMARK   12  A    between atoms: C14_26  and  C15_27 
REMARK   13  A    between atoms: C15_27  and  N6_28 
REMARK   14  A    between atoms: N6_28  and  C16_30 
REMARK   15  A    between atoms: C16_30  and  C17_31 
REMARK   16  A    between atoms: C17_31  and  N7_32 
ROOT
HETATM    1  N2  UNL     1     -45.772   0.460 -35.942  1.00  0.00    -0.360 N 
ATOM      2  H2  UNL     1     -46.664   0.953 -35.887  1.00  0.00     0.162 HD
HETATM    3  C9  UNL     1     -45.842  -0.923 -36.121  1.00  0.00     0.184 C 
HETATM    4  N3  UNL     1     -47.026  -1.484 -36.728  1.00  0.00    -0.064 NA
HETATM    5  N4  UNL     1     -44.956  -1.757 -35.803  1.00  0.00    -0.363 N 
ATOM      6  H4  UNL     1     -45.205  -2.723 -36.018  1.00  0.00     0.162 HD
ENDROOT
BRANCH   5   7
HETATM    7  C10 UNL     1     -43.676  -1.616 -35.201  1.00  0.00     0.150 C 
BRANCH   7   8
HETATM    8  C11 UNL     1     -43.828  -2.032 -33.743  1.00  0.00     0.252 C 
BRANCH   8   9
HETATM    9  N5  UNL     1     -43.045  -3.162 -33.375  1.00  0.00    -0.072 N 
ATOM     10  H52 UNL     1     -43.162  -3.401 -32.390  1.00  0.00     0.277 HD
ATOM     11  H51 UNL     1     -43.407  -4.024 -33.784  1.00  0.00     0.277 HD
BRANCH   9  12
HETATM   12  C12 UNL     1     -41.654  -2.949 -33.714  1.00  0.00     0.258 C 
BRANCH  12  13
HETATM   13  C13 UNL     1     -40.930  -2.157 -32.648  1.00  0.00     0.195 C 
BRANCH  13  14
HETATM   14  O2  UNL     1     -40.673  -0.859 -32.951  1.00  0.00    -0.385 OA
BRANCH  14  15
HETATM   15  C14 UNL     1     -41.000   0.065 -32.015  1.00  0.00     0.212 C 
BRANCH  15  16
HETATM   16  C15 UNL     1     -41.842   1.208 -32.529  1.00  0.00     0.086 C 
BRANCH  16  17
HETATM   17  N6  UNL     1     -41.623   1.590 -33.853  1.00  0.00    -0.379 N 
ATOM     18  H6  UNL     1     -41.867   0.936 -34.597  1.00  0.00     0.164 HD
BRANCH  17  19
HETATM   19  C16 UNL     1     -41.086   2.824 -34.201  1.00  0.00     0.087 C 
BRANCH  19  20
HETATM   20  C17 UNL     1     -41.683   4.043 -33.563  1.00  0.00     0.274 C 
BRANCH  20  21
HETATM   21  N7  UNL     1     -41.379   5.182 -34.404  1.00  0.00    -0.075 N 
ATOM     22  H73 UNL     1     -42.192   5.774 -34.576  1.00  0.00     0.274 HD
ATOM     23  H72 UNL     1     -40.801   5.877 -33.933  1.00  0.00     0.274 HD
ATOM     24  H71 UNL     1     -40.956   4.835 -35.264  1.00  0.00     0.274 HD
ENDBRANCH  20  21
ENDBRANCH  19  20
ENDBRANCH  17  19
ENDBRANCH  16  17
ENDBRANCH  15  16
ENDBRANCH  14  15
ENDBRANCH  13  14
ENDBRANCH  12  13
ENDBRANCH   9  12
ENDBRANCH   8   9
ENDBRANCH   7   8
ENDBRANCH   5   7
BRANCH   1  25
HETATM   25  C8  UNL     1     -44.596   1.269 -35.826  1.00  0.00     0.160 C 
BRANCH  25  26
HETATM   26  C7  UNL     1     -44.864   2.541 -35.087  1.00  0.00    -0.041 A 
HETATM   27  C6  UNL     1     -44.792   3.722 -35.770  1.00  0.00     0.009 A 
HETATM   28  C5  UNL     1     -45.032   4.927 -35.123  1.00  0.00     0.009 A 
HETATM   29  C4  UNL     1     -45.344   4.942 -33.788  1.00  0.00    -0.041 A 
HETATM   30  C19 UNL     1     -45.410   3.737 -33.117  1.00  0.00     0.009 A 
HETATM   31  C18 UNL     1     -45.172   2.530 -33.760  1.00  0.00     0.009 A 
BRANCH  29  32
HETATM   32  C3  UNL     1     -45.607   6.223 -33.088  1.00  0.00     0.161 C 
BRANCH  32  33
HETATM   33  N1  UNL     1     -44.526   6.447 -32.148  1.00  0.00    -0.357 N 
HETATM   34  C2  UNL     1     -43.367   7.170 -32.451  1.00  0.00     0.213 C 
HETATM   35  C1  UNL     1     -42.312   7.353 -31.435  1.00  0.00     0.117 C 
HETATM   36  O1  UNL     1     -43.210   7.669 -33.584  1.00  0.00    -0.274 OA
ATOM     37  H1  UNL     1     -44.616   6.054 -31.212  1.00  0.00     0.162 HD
ENDBRANCH  32  33
ENDBRANCH  29  32
ENDBRANCH  25  26
ENDBRANCH   1  25
TORSDOF 16
ENDMDL
MODEL 2
REMARK VINA RESULT: -6.141908546      9.211     13.351
REMARK  16 active torsions:
REMARK  status: ('A' for Active; 'I' for Inactive)
REMARK       I    between atoms: C2_2  and  N1_4 
REMARK    1  A    between atoms: N1_4  and  C3_6 
REMARK    2  A    between atoms: C3_6  and  C4_7 
REMARK    3  A    between atoms: C7_10  and  C8_11 
REMARK    4  A    between atoms: C8_11  and  N2_12 
REMARK       I    between atoms: N2_12  and  C9_14 
REMARK    5  A    between atoms: N4_16  and  C10_18 
REMARK    6  A    between atoms: C10_18  and  C11_19 
REMARK    7  A    between atoms: C11_19  and  N5_20 
REMARK    8  A    between atoms: N5_20  and  C12_23 
REMARK    9  A    between atoms: C12_23  and  C13_24 
REMARK   10  A    between atoms: C13_24  and  O2_25 
REMARK   11  A    between atoms: O2_25  and  C14_26 
REMARK   12  A    between atoms: C14_26  and  C15_27 
REMARK   13  A    between atoms: C15_27  and  N6_28 
REMARK   14  A    between atoms: N6_28  and  C16_30 
REMARK   15  A    between atoms: C16_30  and  C17_31 
REMARK   16  A    between atoms: C17_31  and  N7_32 
ROOT
HETATM    1  N2  UNL     1     -32.466   7.295 -32.962  1.00  0.00    -0.360 N 
ATOM      2  H2  UNL     1     -32.460   6.349 -33.345  1.00  0.00     0.162 HD
HETATM    3  C9  UNL     1     -31.413   8.125 -33.354  1.00  0.00     0.184 C 
HETATM    4  N3  UNL     1     -30.733   7.842 -34.596  1.00  0.00    -0.064 NA
HETATM    5  N4  UNL     1     -30.981   9.122 -32.722  1.00  0.00    -0.363 N 
ATOM      6  H4  UNL     1     -30.202   9.593 -33.181  1.00  0.00     0.162 HD
ENDROOT
BRANCH   5   7
HETATM    7  C10 UNL     1     -31.369   9.721 -31.492  1.00  0.00     0.150 C 
BRANCH   7   8
HETATM    8  C11 UNL     1     -30.402   9.209 -30.430  1.00  0.00     0.252 C 
BRANCH   8   9
HETATM    9  N5  UNL     1     -29.513  10.200 -29.926  1.00  0.00    -0.072 N 
ATOM     10  H52 UNL     1     -29.311  10.060 -28.936  1.00  0.00     0.277 HD
ATOM     11  H51 UNL     1     -28.568  10.083 -30.292  1.00  0.00     0.277 HD
BRANCH   9  12
HETATM   12  C12 UNL     1     -30.030  11.527 -30.186  1.00  0.00     0.258 C 
BRANCH  12  13
HETATM   13  C13 UNL     1     -30.363  12.262 -28.906  1.00  0.00     0.195 C 
BRANCH  13  14
HETATM   14  O2  UNL     1     -31.684  12.360 -28.609  1.00  0.00    -0.385 OA
BRANCH  14  15
HETATM   15  C14 UNL     1     -32.132  11.632 -27.558  1.00  0.00     0.212 C 
BRANCH  15  16
HETATM   16  C15 UNL     1     -33.073  10.510 -27.926  1.00  0.00     0.086 C 
BRANCH  16  17
HETATM   17  N6  UNL     1     -33.820  10.688 -29.091  1.00  0.00    -0.379 N 
ATOM     18  H6  UNL     1     -33.559  11.441 -29.727  1.00  0.00     0.164 HD
BRANCH  17  19
HETATM   19  C16 UNL     1     -34.903   9.883 -29.420  1.00  0.00     0.087 C 
BRANCH  19  20
HETATM   20  C17 UNL     1     -36.197  10.136 -28.705  1.00  0.00     0.274 C 
BRANCH  20  21
HETATM   21  N7  UNL     1     -36.909  11.172 -29.423  1.00  0.00    -0.075 N 
ATOM     22  H73 UNL     1     -36.980  10.983 -30.423  1.00  0.00     0.274 HD
ATOM     23  H72 UNL     1     -37.908  11.181 -29.215  1.00  0.00     0.274 HD
ATOM     24  H71 UNL     1     -36.457  12.063 -29.222  1.00  0.00     0.274 HD
ENDBRANCH  20  21
ENDBRANCH  19  20
ENDBRANCH  17  19
ENDBRANCH  16  17
ENDBRANCH  15  16
ENDBRANCH  14  15
ENDBRANCH  13  14
ENDBRANCH  12  13
ENDBRANCH   9  12
ENDBRANCH   8   9
ENDBRANCH   7   8
ENDBRANCH   5   7
BRANCH   1  25
HETATM   25  C8  UNL     1     -33.554   7.615 -32.087  1.00  0.00     0.160 C 
BRANCH  25  26
HETATM   26  C7  UNL     1     -34.639   6.590 -32.147  1.00  0.00    -0.041 A 
HETATM   27  C6  UNL     1     -35.662   6.665 -31.244  1.00  0.00     0.009 A 
HETATM   28  C5  UNL     1     -36.691   5.733 -31.263  1.00  0.00     0.009 A 
HETATM   29  C4  UNL     1     -36.689   4.724 -32.192  1.00  0.00    -0.041 A 
HETATM   30  C19 UNL     1     -35.645   4.666 -33.094  1.00  0.00     0.009 A 
HETATM   31  C18 UNL     1     -34.616   5.596 -33.080  1.00  0.00     0.009 A 
BRANCH  29  32
HETATM   32  C3  UNL     1     -37.785   3.725 -32.224  1.00  0.00     0.161 C 
BRANCH  32  33
HETATM   33  N1  UNL     1     -39.034   4.440 -32.395  1.00  0.00    -0.357 N 
HETATM   34  C2  UNL     1     -39.803   4.400 -33.564  1.00  0.00     0.213 C 
HETATM   35  C1  UNL     1     -41.066   5.157 -33.657  1.00  0.00     0.117 C 
HETATM   36  O1  UNL     1     -39.430   3.722 -34.544  1.00  0.00    -0.274 OA
ATOM     37  H1  UNL     1     -39.373   5.006 -31.618  1.00  0.00     0.162 HD
ENDBRANCH  32  33
ENDBRANCH  29  32
ENDBRANCH  25  26
ENDBRANCH   1  25
TORSDOF 16
ENDMDL
MODEL 3
REMARK VINA RESULT: -6.036364223      1.358      2.064
REMARK  16 active torsions:
REMARK  status: ('A' for Active; 'I' for Inactive)
REMARK       I    between atoms: C2_2  and  N1_4 
REMARK    1  A    between atoms: N1_4  and  C3_6 
REMARK    2  A    between atoms: C3_6  and  C4_7 
REMARK    3  A    between atoms: C7_10  and  C8_11 
REMARK    4  A    between atoms: C8_11  and  N2_12 
REMARK       I    between atoms: N2_12  and  C9_14 
REMARK    5  A    between atoms: N4_16  and  C10_18 
REMARK    6  A    between atoms: C10_18  and  C11_19 
REMARK    7  A    between atoms: C11_19  and  N5_20 
REMARK    8  A    between atoms: N5_20  and  C12_23 
REMARK    9  A    between atoms: C12_23  and  C13_24 
REMARK   10  A    between atoms: C13_24  and  O2_25 
REMARK   11  A    between atoms: O2_25  and  C14_26 
REMARK   12  A    between atoms: C14_26  and  C15_27 
REMARK   13  A    between atoms: C15_27  and  N6_28 
REMARK   14  A    between atoms: N6_28  and  C16_30 
REMARK   15  A    between atoms: C16_30  and  C17_31 
REMARK   16  A    between atoms: C17_31  and  N7_32 
ROOT
HETATM    1  N2  UNL     1     -45.891   0.421 -36.050  1.00  0.00    -0.360 N 
ATOM      2  H2  UNL     1     -46.763   0.944 -35.975  1.00  0.00     0.162 HD
HETATM    3  C9  UNL     1     -46.012  -0.963 -36.197  1.00  0.00     0.184 C 
HETATM    4  N3  UNL     1     -47.235  -1.496 -36.750  1.00  0.00    -0.064 NA
HETATM    5  N4  UNL     1     -45.144  -1.819 -35.891  1.00  0.00    -0.363 N 
ATOM      6  H4  UNL     1     -45.432  -2.780 -36.076  1.00  0.00     0.162 HD
ENDROOT
BRANCH   5   7
HETATM    7  C10 UNL     1     -43.839  -1.709 -35.337  1.00  0.00     0.150 C 
BRANCH   7   8
HETATM    8  C11 UNL     1     -43.977  -1.946 -33.837  1.00  0.00     0.252 C 
BRANCH   8   9
HETATM    9  N5  UNL     1     -43.603  -0.832 -33.034  1.00  0.00    -0.072 N 
ATOM     10  H52 UNL     1     -44.325  -0.111 -33.025  1.00  0.00     0.277 HD
ATOM     11  H51 UNL     1     -43.606  -1.063 -32.041  1.00  0.00     0.277 HD
BRANCH   9  12
HETATM   12  C12 UNL     1     -42.324  -0.306 -33.460  1.00  0.00     0.258 C 
BRANCH  12  13
HETATM   13  C13 UNL     1     -41.783   0.718 -32.485  1.00  0.00     0.195 C 
BRANCH  13  14
HETATM   14  O2  UNL     1     -40.917   1.624 -33.004  1.00  0.00    -0.385 OA
BRANCH  14  15
HETATM   15  C14 UNL     1     -41.361   2.371 -34.044  1.00  0.00     0.212 C 
BRANCH  15  16
HETATM   16  C15 UNL     1     -41.530   3.839 -33.736  1.00  0.00     0.086 C 
BRANCH  16  17
HETATM   17  N6  UNL     1     -40.432   4.657 -34.003  1.00  0.00    -0.379 N 
ATOM     18  H6  UNL     1     -40.596   5.642 -34.213  1.00  0.00     0.164 HD
BRANCH  17  19
HETATM   19  C16 UNL     1     -39.124   4.188 -33.998  1.00  0.00     0.087 C 
BRANCH  19  20
HETATM   20  C17 UNL     1     -38.425   4.100 -32.674  1.00  0.00     0.274 C 
BRANCH  20  21
HETATM   21  N7  UNL     1     -38.047   2.719 -32.457  1.00  0.00    -0.075 N 
ATOM     22  H73 UNL     1     -38.775   2.179 -31.990  1.00  0.00     0.274 HD
ATOM     23  H72 UNL     1     -38.011   2.181 -33.323  1.00  0.00     0.274 HD
ATOM     24  H71 UNL     1     -37.163   2.711 -31.950  1.00  0.00     0.274 HD
ENDBRANCH  20  21
ENDBRANCH  19  20
ENDBRANCH  17  19
ENDBRANCH  16  17
ENDBRANCH  15  16
ENDBRANCH  14  15
ENDBRANCH  13  14
ENDBRANCH  12  13
ENDBRANCH   9  12
ENDBRANCH   8   9
ENDBRANCH   7   8
ENDBRANCH   5   7
BRANCH   1  25
HETATM   25  C8  UNL     1     -44.685   1.192 -35.993  1.00  0.00     0.160 C 
BRANCH  25  26
HETATM   26  C7  UNL     1     -44.866   2.453 -35.211  1.00  0.00    -0.041 A 
HETATM   27  C6  UNL     1     -45.128   2.362 -33.873  1.00  0.00     0.009 A 
HETATM   28  C5  UNL     1     -45.305   3.507 -33.108  1.00  0.00     0.009 A 
HETATM   29  C4  UNL     1     -45.218   4.745 -33.691  1.00  0.00    -0.041 A 
HETATM   30  C19 UNL     1     -44.954   4.814 -35.045  1.00  0.00     0.009 A 
HETATM   31  C18 UNL     1     -44.776   3.672 -35.813  1.00  0.00     0.009 A 
BRANCH  29  32
HETATM   32  C3  UNL     1     -45.401   5.975 -32.884  1.00  0.00     0.161 C 
BRANCH  32  33
HETATM   33  N1  UNL     1     -44.150   6.254 -32.208  1.00  0.00    -0.357 N 
HETATM   34  C2  UNL     1     -43.203   7.177 -32.668  1.00  0.00     0.213 C 
HETATM   35  C1  UNL     1     -41.952   7.403 -31.918  1.00  0.00     0.117 C 
HETATM   36  O1  UNL     1     -43.405   7.820 -33.718  1.00  0.00    -0.274 OA
ATOM     37  H1  UNL     1     -43.947   5.748 -31.346  1.00  0.00     0.162 HD
ENDBRANCH  32  33
ENDBRANCH  29  32
ENDBRANCH  25  26
ENDBRANCH   1  25
TORSDOF 16
ENDMDL
MODEL 4
REMARK VINA RESULT: -6.006620155      5.709      8.331
REMARK  16 active torsions:
REMARK  status: ('A' for Active; 'I' for Inactive)
REMARK       I    between atoms: C2_2  and  N1_4 
REMARK    1  A    between atoms: N1_4  and  C3_6 
REMARK    2  A    between atoms: C3_6  and  C4_7 
REMARK    3  A    between atoms: C7_10  and  C8_11 
REMARK    4  A    between atoms: C8_11  and  N2_12 
REMARK       I    between atoms: N2_12  and  C9_14 
REMARK    5  A    between atoms: N4_16  and  C10_18 
REMARK    6  A    between atoms: C10_18  and  C11_19 
REMARK    7  A    between atoms: C11_19  and  N5_20 
REMARK    8  A    between atoms: N5_20  and  C12_23 
REMARK    9  A    between atoms: C12_23  and  C13_24 
REMARK   10  A    between atoms: C13_24  and  O2_25 
REMARK   11  A    between atoms: O2_25  and  C14_26 
REMARK   12  A    between atoms: C14_26  and  C15_27 
REMARK   13  A    between atoms: C15_27  and  N6_28 
REMARK   14  A    between atoms: N6_28  and  C16_30 
REMARK   15  A    between atoms: C16_30  and  C17_31 
REMARK   16  A    between atoms: C17_31  and  N7_32 
ROOT
HETATM    1  N2  UNL     1     -39.079   4.835 -32.037  1.00  0.00    -0.360 N 
ATOM      2  H2  UNL     1     -39.552   5.724 -31.869  1.00  0.00     0.162 HD
HETATM    3  C9  UNL     1     -39.614   4.034 -33.048  1.00  0.00     0.184 C 
HETATM    4  N3  UNL     1     -40.383   4.664 -34.096  1.00  0.00    -0.064 NA
HETATM    5  N4  UNL     1     -39.493   2.787 -33.148  1.00  0.00    -0.363 N 
ATOM      6  H4  UNL     1     -39.962   2.392 -33.963  1.00  0.00     0.162 HD
ENDROOT
BRANCH   5   7
HETATM    7  C10 UNL     1     -38.828   1.820 -32.346  1.00  0.00     0.150 C 
BRANCH   7   8
HETATM    8  C11 UNL     1     -39.905   0.892 -31.794  1.00  0.00     0.252 C 
BRANCH   8   9
HETATM    9  N5  UNL     1     -40.717   0.284 -32.792  1.00  0.00    -0.072 N 
ATOM     10  H52 UNL     1     -40.617   0.746 -33.696  1.00  0.00     0.277 HD
ATOM     11  H51 UNL     1     -40.368  -0.639 -33.054  1.00  0.00     0.277 HD
BRANCH   9  12
HETATM   12  C12 UNL     1     -42.098   0.234 -32.363  1.00  0.00     0.258 C 
BRANCH  12  13
HETATM   13  C13 UNL     1     -42.955   1.234 -33.108  1.00  0.00     0.195 C 
BRANCH  13  14
HETATM   14  O2  UNL     1     -42.330   1.928 -34.093  1.00  0.00    -0.385 OA
BRANCH  14  15
HETATM   15  C14 UNL     1     -42.863   1.844 -35.336  1.00  0.00     0.212 C 
BRANCH  15  16
HETATM   16  C15 UNL     1     -44.340   2.147 -35.407  1.00  0.00     0.086 C 
BRANCH  16  17
HETATM   17  N6  UNL     1     -44.694   3.359 -36.000  1.00  0.00    -0.379 N 
ATOM     18  H6  UNL     1     -44.996   3.356 -36.974  1.00  0.00     0.164 HD
BRANCH  17  19
HETATM   19  C16 UNL     1     -44.652   4.570 -35.320  1.00  0.00     0.087 C 
BRANCH  19  20
HETATM   20  C17 UNL     1     -44.764   4.530 -33.825  1.00  0.00     0.274 C 
BRANCH  20  21
HETATM   21  N7  UNL     1     -43.463   4.845 -33.270  1.00  0.00    -0.075 N 
ATOM     22  H73 UNL     1     -43.271   4.340 -32.405  1.00  0.00     0.274 HD
ATOM     23  H72 UNL     1     -42.696   4.465 -33.825  1.00  0.00     0.274 HD
ATOM     24  H71 UNL     1     -43.405   5.856 -33.157  1.00  0.00     0.274 HD
ENDBRANCH  20  21
ENDBRANCH  19  20
ENDBRANCH  17  19
ENDBRANCH  16  17
ENDBRANCH  15  16
ENDBRANCH  14  15
ENDBRANCH  13  14
ENDBRANCH  12  13
ENDBRANCH   9  12
ENDBRANCH   8   9
ENDBRANCH   7   8
ENDBRANCH   5   7
BRANCH   1  25
HETATM   25  C8  UNL     1     -37.946   4.556 -31.206  1.00  0.00     0.160 C 
BRANCH  25  26
HETATM   26  C7  UNL     1     -36.666   4.991 -31.843  1.00  0.00    -0.041 A 
HETATM   27  C6  UNL     1     -36.093   4.180 -32.782  1.00  0.00     0.009 A 
HETATM   28  C5  UNL     1     -34.903   4.544 -33.398  1.00  0.00     0.009 A 
HETATM   29  C4  UNL     1     -34.291   5.726 -33.070  1.00  0.00    -0.041 A 
HETATM   30  C19 UNL     1     -34.887   6.530 -32.118  1.00  0.00     0.009 A 
HETATM   31  C18 UNL     1     -36.076   6.170 -31.500  1.00  0.00     0.009 A 
BRANCH  29  32
HETATM   32  C3  UNL     1     -33.023   6.128 -33.725  1.00  0.00     0.161 C 
BRANCH  32  33
HETATM   33  N1  UNL     1     -32.464   7.234 -32.973  1.00  0.00    -0.357 N 
HETATM   34  C2  UNL     1     -31.394   8.019 -33.418  1.00  0.00     0.213 C 
HETATM   35  C1  UNL     1     -30.886   9.130 -32.591  1.00  0.00     0.117 C 
HETATM   36  O1  UNL     1     -30.857   7.789 -34.521  1.00  0.00    -0.274 OA
ATOM     37  H1  UNL     1     -32.875   7.454 -32.067  1.00  0.00     0.162 HD
ENDBRANCH  32  33
ENDBRANCH  29  32
ENDBRANCH  25  26
ENDBRANCH   1  25
TORSDOF 16
ENDMDL
MODEL 5
REMARK VINA RESULT: -5.958948646      5.814      8.845
REMARK  16 active torsions:
REMARK  status: ('A' for Active; 'I' for Inactive)
REMARK       I    between atoms: C2_2  and  N1_4 
REMARK    1  A    between atoms: N1_4  and  C3_6 
REMARK    2  A    between atoms: C3_6  and  C4_7 
REMARK    3  A    between atoms: C7_10  and  C8_11 
REMARK    4  A    between atoms: C8_11  and  N2_12 
REMARK       I    between atoms: N2_12  and  C9_14 
REMARK    5  A    between atoms: N4_16  and  C10_18 
REMARK    6  A    between atoms: C10_18  and  C11_19 
REMARK    7  A    between atoms: C11_19  and  N5_20 
REMARK    8  A    between atoms: N5_20  and  C12_23 
REMARK    9  A    between atoms: C12_23  and  C13_24 
REMARK   10  A    between atoms: C13_24  and  O2_25 
REMARK   11  A    between atoms: O2_25  and  C14_26 
REMARK   12  A    between atoms: C14_26  and  C15_27 
REMARK   13  A    between atoms: C15_27  and  N6_28 
REMARK   14  A    between atoms: N6_28  and  C16_30 
REMARK   15  A    between atoms: C16_30  and  C17_31 
REMARK   16  A    between atoms: C17_31  and  N7_32 
ROOT
HETATM    1  N2  UNL     1     -38.809   5.731 -30.473  1.00  0.00    -0.360 N 
ATOM      2  H2  UNL     1     -38.570   6.309 -29.667  1.00  0.00     0.162 HD
HETATM    3  C9  UNL     1     -39.968   6.088 -31.166  1.00  0.00     0.184 C 
HETATM    4  N3  UNL     1     -40.435   7.451 -31.079  1.00  0.00    -0.064 NA
HETATM    5  N4  UNL     1     -40.669   5.326 -31.880  1.00  0.00    -0.363 N 
ATOM      6  H4  UNL     1     -41.478   5.784 -32.298  1.00  0.00     0.162 HD
ENDROOT
BRANCH   5   7
HETATM    7  C10 UNL     1     -40.552   3.949 -32.217  1.00  0.00     0.150 C 
BRANCH   7   8
HETATM    8  C11 UNL     1     -40.064   3.891 -33.660  1.00  0.00     0.252 C 
BRANCH   8   9
HETATM    9  N5  UNL     1     -40.756   2.946 -34.470  1.00  0.00    -0.072 N 
ATOM     10  H52 UNL     1     -41.279   3.399 -35.219  1.00  0.00     0.277 HD
ATOM     11  H51 UNL     1     -40.114   2.397 -35.043  1.00  0.00     0.277 HD
BRANCH   9  12
HETATM   12  C12 UNL     1     -41.604   2.102 -33.656  1.00  0.00     0.258 C 
BRANCH  12  13
HETATM   13  C13 UNL     1     -42.681   1.427 -34.477  1.00  0.00     0.195 C 
BRANCH  13  14
HETATM   14  O2  UNL     1     -43.060   2.081 -35.603  1.00  0.00    -0.385 OA
BRANCH  14  15
HETATM   15  C14 UNL     1     -44.360   2.455 -35.688  1.00  0.00     0.212 C 
BRANCH  15  16
HETATM   16  C15 UNL     1     -44.589   3.946 -35.635  1.00  0.00     0.086 C 
BRANCH  16  17
HETATM   17  N6  UNL     1     -44.239   4.583 -34.444  1.00  0.00    -0.379 N 
ATOM     18  H6  UNL     1     -44.657   4.254 -33.573  1.00  0.00     0.164 HD
BRANCH  17  19
HETATM   19  C16 UNL     1     -43.345   5.645 -34.393  1.00  0.00     0.087 C 
BRANCH  19  20
HETATM   20  C17 UNL     1     -43.825   6.925 -33.775  1.00  0.00     0.274 C 
BRANCH  20  21
HETATM   21  N7  UNL     1     -42.663   7.696 -33.383  1.00  0.00    -0.075 N 
ATOM     22  H73 UNL     1     -41.927   7.688 -34.090  1.00  0.00     0.274 HD
ATOM     23  H72 UNL     1     -42.839   8.701 -33.381  1.00  0.00     0.274 HD
ATOM     24  H71 UNL     1     -42.345   7.349 -32.479  1.00  0.00     0.274 HD
ENDBRANCH  20  21
ENDBRANCH  19  20
ENDBRANCH  17  19
ENDBRANCH  16  17
ENDBRANCH  15  16
ENDBRANCH  14  15
ENDBRANCH  13  14
ENDBRANCH  12  13
ENDBRANCH   9  12
ENDBRANCH   8   9
ENDBRANCH   7   8
ENDBRANCH   5   7
BRANCH   1  25
HETATM   25  C8  UNL     1     -37.915   4.649 -30.762  1.00  0.00     0.160 C 
BRANCH  25  26
HETATM   26  C7  UNL     1     -36.708   5.108 -31.515  1.00  0.00    -0.041 A 
HETATM   27  C6  UNL     1     -36.286   4.372 -32.586  1.00  0.00     0.009 A 
HETATM   28  C5  UNL     1     -35.169   4.760 -33.314  1.00  0.00     0.009 A 
HETATM   29  C4  UNL     1     -34.477   5.891 -32.963  1.00  0.00    -0.041 A 
HETATM   30  C19 UNL     1     -34.921   6.620 -31.877  1.00  0.00     0.009 A 
HETATM   31  C18 UNL     1     -36.037   6.236 -31.147  1.00  0.00     0.009 A 
BRANCH  29  32
HETATM   32  C3  UNL     1     -33.286   6.319 -33.735  1.00  0.00     0.161 C 
BRANCH  32  33
HETATM   33  N1  UNL     1     -32.593   7.330 -32.962  1.00  0.00    -0.357 N 
HETATM   34  C2  UNL     1     -31.450   8.005 -33.406  1.00  0.00     0.213 C 
HETATM   35  C1  UNL     1     -30.804   9.023 -32.556  1.00  0.00     0.117 C 
HETATM   36  O1  UNL     1     -30.963   7.754 -34.527  1.00  0.00    -0.274 OA
ATOM     37  H1  UNL     1     -32.959   7.563 -32.040  1.00  0.00     0.162 HD
ENDBRANCH  32  33
ENDBRANCH  29  32
ENDBRANCH  25  26
ENDBRANCH   1  25
TORSDOF 16
ENDMDL
