MODEL 1
REMARK VINA RESULT: -6.705776242      0.000      0.000
REMARK  16 active torsions:
REMARK  status: ('A' for Active; 'I' for Inactive)
REMARK    1  A    between atoms: C3_3  and  C4_4 
REMARK    2  A    between atoms: C3_3  and  C12_22 
REMARK    3  A    between atoms: C4_4  and  C5_5 
REMARK    4  A    between atoms: N2_7  and  C6_9 
REMARK    5  A    between atoms: C6_9  and  C7_10 
REMARK    6  A    between atoms: C7_10  and  N3_11 
REMARK    7  A    between atoms: N3_11  and  C8_14 
REMARK    8  A    between atoms: C8_14  and  C9_15 
REMARK    9  A    between atoms: C9_15  and  C10_16 
REMARK   10  A    between atoms: C10_16  and  N4_17 
REMARK   11  A    between atoms: C12_22  and  C13_23 
REMARK   12  A    between atoms: N7_27  and  C17_28 
REMARK   13  A    between atoms: C17_28  and  C18_29 
REMARK   14  A    between atoms: C18_29  and  C19_30 
REMARK   15  A    between atoms: C19_30  and  C20_31 
REMARK   16  A    between atoms: C20_31  and  O1_32 
ROOT
HETATM    1  C1  UNL     1     -44.624   3.263 -35.919  1.00  0.00     0.097 C 
HETATM    2  C2  UNL     1     -43.712   2.871 -35.199  1.00  0.00    -0.182 C 
HETATM    3  C3  UNL     1     -42.644   2.378 -34.335  1.00  0.00     0.060 C 
ENDROOT
BRANCH   3   4
HETATM    4  C4  UNL     1     -41.975   3.460 -33.553  1.00  0.00     0.089 C 
BRANCH   4   5
HETATM    5  C5  UNL     1     -40.516   3.186 -33.495  1.00  0.00     0.090 C 
HETATM    6  N1  UNL     1     -39.662   3.342 -34.621  1.00  0.00    -0.088 NA
HETATM    7  N2  UNL     1     -39.953   2.787 -32.396  1.00  0.00    -0.380 N 
ATOM      8  H2  UNL     1     -40.523   2.660 -31.559  1.00  0.00     0.160 HD
BRANCH   7   9
HETATM    9  C6  UNL     1     -38.537   2.519 -32.335  1.00  0.00     0.148 C 
BRANCH   9  10
HETATM   10  C7  UNL     1     -37.732   3.693 -31.888  1.00  0.00     0.251 C 
BRANCH  10  11
HETATM   11  N3  UNL     1     -36.884   4.169 -32.958  1.00  0.00    -0.074 N 
ATOM     12  H32 UNL     1     -36.442   3.393 -33.453  1.00  0.00     0.277 HD
ATOM     13  H31 UNL     1     -37.437   4.555 -33.723  1.00  0.00     0.277 HD
BRANCH  11  14
HETATM   14  C8  UNL     1     -35.898   5.121 -32.490  1.00  0.00     0.234 C 
BRANCH  14  15
HETATM   15  C9  UNL     1     -34.716   5.232 -33.392  1.00  0.00     0.047 C 
BRANCH  15  16
HETATM   16  C10 UNL     1     -33.759   6.244 -32.800  1.00  0.00     0.123 C 
BRANCH  16  17
HETATM   17  N4  UNL     1     -32.643   6.448 -33.682  1.00  0.00    -0.367 N 
HETATM   18  C11 UNL     1     -31.929   7.521 -33.566  1.00  0.00     0.196 C 
HETATM   19  N5  UNL     1     -30.815   7.769 -34.414  1.00  0.00    -0.067 NA
HETATM   20  N6  UNL     1     -32.236   8.489 -32.587  1.00  0.00    -0.067 NA
ATOM     21  H4  UNL     1     -32.416   5.754 -34.394  1.00  0.00     0.161 HD
ENDBRANCH  16  17
ENDBRANCH  15  16
ENDBRANCH  14  15
ENDBRANCH  11  14
ENDBRANCH  10  11
ENDBRANCH   9  10
ENDBRANCH   7   9
ENDBRANCH   4   5
ENDBRANCH   3   4
BRANCH   3  22
HETATM   22  C12 UNL     1     -43.167   1.262 -33.426  1.00  0.00     0.052 C 
BRANCH  22  23
HETATM   23  C13 UNL     1     -42.441   0.025 -33.795  1.00  0.00     0.224 C 
HETATM   24  C14 UNL     1     -41.603  -0.426 -32.618  1.00  0.00     0.037 C 
HETATM   25  C15 UNL     1     -41.484  -1.922 -32.810  1.00  0.00     0.032 C 
HETATM   26  C16 UNL     1     -42.480  -2.255 -33.887  1.00  0.00     0.273 C 
HETATM   27  N7  UNL     1     -43.238  -1.096 -34.189  1.00  0.00     0.093 N 
BRANCH  27  28
HETATM   28  C17 UNL     1     -43.784  -1.010 -35.495  1.00  0.00     0.273 C 
BRANCH  28  29
HETATM   29  C18 UNL     1     -45.244  -1.315 -35.536  1.00  0.00     0.032 C 
BRANCH  29  30
HETATM   30  C19 UNL     1     -45.999  -0.166 -36.202  1.00  0.00     0.028 C 
BRANCH  30  31
HETATM   31  C20 UNL     1     -46.858  -0.670 -37.340  1.00  0.00     0.164 C 
BRANCH  31  32
HETATM   32  O1  UNL     1     -47.126  -2.044 -37.173  1.00  0.00    -0.401 OA
ATOM     33  H1  UNL     1     -46.316  -2.540 -37.195  1.00  0.00     0.209 HD
ENDBRANCH  31  32
ENDBRANCH  30  31
ENDBRANCH  29  30
ENDBRANCH  28  29
ENDBRANCH  27  28
ENDBRANCH  22  23
ENDBRANCH   3  22
TORSDOF 16
ENDMDL
MODEL 2
REMARK VINA RESULT: -6.670149877      2.396      3.992
REMARK  16 active torsions:
REMARK  status: ('A' for Active; 'I' for Inactive)
REMARK    1  A    between atoms: C3_3  and  C4_4 
REMARK    2  A    between atoms: C3_3  and  C12_22 
REMARK    3  A    between atoms: C4_4  and  C5_5 
REMARK    4  A    between atoms: N2_7  and  C6_9 
REMARK    5  A    between atoms: C6_9  and  C7_10 
REMARK    6  A    between atoms: C7_10  and  N3_11 
REMARK    7  A    between atoms: N3_11  and  C8_14 
REMARK    8  A    between atoms: C8_14  and  C9_15 
REMARK    9  A    between atoms: C9_15  and  C10_16 
REMARK   10  A    between atoms: C10_16  and  N4_17 
REMARK   11  A    between atoms: C12_22  and  C13_23 
REMARK   12  A    between atoms: N7_27  and  C17_28 
REMARK   13  A    between atoms: C17_28  and  C18_29 
REMARK   14  A    between atoms: C18_29  and  C19_30 
REMARK   15  A    between atoms: C19_30  and  C20_31 
REMARK   16  A    between atoms: C20_31  and  O1_32 
ROOT
HETATM    1  C1  UNL     1     -45.321   2.574 -32.348  1.00  0.00     0.097 C 
HETATM    2  C2  UNL     1     -45.167   2.816 -33.540  1.00  0.00    -0.182 C 
HETATM    3  C3  UNL     1     -44.976   3.072 -34.964  1.00  0.00     0.060 C 
ENDROOT
BRANCH   3   4
HETATM    4  C4  UNL     1     -44.404   4.423 -35.245  1.00  0.00     0.089 C 
BRANCH   4   5
HETATM    5  C5  UNL     1     -43.261   4.666 -34.327  1.00  0.00     0.090 C 
HETATM    6  N1  UNL     1     -43.354   5.530 -33.201  1.00  0.00    -0.088 NA
HETATM    7  N2  UNL     1     -42.114   4.090 -34.519  1.00  0.00    -0.380 N 
ATOM      8  H2  UNL     1     -41.996   3.461 -35.313  1.00  0.00     0.160 HD
BRANCH   7   9
HETATM    9  C6  UNL     1     -41.002   4.324 -33.630  1.00  0.00     0.148 C 
BRANCH   9  10
HETATM   10  C7  UNL     1     -39.891   3.344 -33.803  1.00  0.00     0.251 C 
BRANCH  10  11
HETATM   11  N3  UNL     1     -38.607   4.005 -33.722  1.00  0.00    -0.074 N 
ATOM     12  H32 UNL     1     -37.975   3.675 -34.452  1.00  0.00     0.277 HD
ATOM     13  H31 UNL     1     -38.679   4.984 -34.000  1.00  0.00     0.277 HD
BRANCH  11  14
HETATM   14  C8  UNL     1     -38.008   3.874 -32.411  1.00  0.00     0.234 C 
BRANCH  14  15
HETATM   15  C9  UNL     1     -36.928   4.871 -32.158  1.00  0.00     0.047 C 
BRANCH  15  16
HETATM   16  C10 UNL     1     -35.768   4.559 -33.079  1.00  0.00     0.123 C 
BRANCH  16  17
HETATM   17  N4  UNL     1     -34.835   5.651 -33.089  1.00  0.00    -0.367 N 
HETATM   18  C11 UNL     1     -33.764   5.566 -33.813  1.00  0.00     0.196 C 
HETATM   19  N5  UNL     1     -32.810   6.619 -33.857  1.00  0.00    -0.067 NA
HETATM   20  N6  UNL     1     -33.505   4.414 -34.585  1.00  0.00    -0.067 NA
ATOM     21  H4  UNL     1     -35.013   6.487 -32.532  1.00  0.00     0.161 HD
ENDBRANCH  16  17
ENDBRANCH  15  16
ENDBRANCH  14  15
ENDBRANCH  11  14
ENDBRANCH  10  11
ENDBRANCH   9  10
ENDBRANCH   7   9
ENDBRANCH   4   5
ENDBRANCH   3   4
BRANCH   3  22
HETATM   22  C12 UNL     1     -44.136   1.958 -35.597  1.00  0.00     0.052 C 
BRANCH  22  23
HETATM   23  C13 UNL     1     -44.792   0.674 -35.257  1.00  0.00     0.224 C 
HETATM   24  C14 UNL     1     -45.871   0.385 -36.279  1.00  0.00     0.037 C 
HETATM   25  C15 UNL     1     -45.978  -1.124 -36.277  1.00  0.00     0.032 C 
HETATM   26  C16 UNL     1     -44.781  -1.595 -35.496  1.00  0.00     0.273 C 
HETATM   27  N7  UNL     1     -43.952  -0.483 -35.204  1.00  0.00     0.093 N 
BRANCH  27  28
HETATM   28  C17 UNL     1     -43.138  -0.577 -34.048  1.00  0.00     0.273 C 
BRANCH  28  29
HETATM   29  C18 UNL     1     -42.491  -1.913 -33.899  1.00  0.00     0.032 C 
BRANCH  29  30
HETATM   30  C19 UNL     1     -41.261  -1.801 -33.000  1.00  0.00     0.028 C 
BRANCH  30  31
HETATM   31  C20 UNL     1     -40.147  -2.697 -33.492  1.00  0.00     0.164 C 
BRANCH  31  32
HETATM   32  O1  UNL     1     -38.897  -2.175 -33.102  1.00  0.00    -0.401 OA
ATOM     33  H1  UNL     1     -38.272  -2.880 -32.980  1.00  0.00     0.209 HD
ENDBRANCH  31  32
ENDBRANCH  30  31
ENDBRANCH  29  30
ENDBRANCH  28  29
ENDBRANCH  27  28
ENDBRANCH  22  23
ENDBRANCH   3  22
TORSDOF 16
ENDMDL
MODEL 3
REMARK VINA RESULT: -6.504552502      5.716      8.216
REMARK  16 active torsions:
REMARK  status: ('A' for Active; 'I' for Inactive)
REMARK    1  A    between atoms: C3_3  and  C4_4 
REMARK    2  A    between atoms: C3_3  and  C12_22 
REMARK    3  A    between atoms: C4_4  and  C5_5 
REMARK    4  A    between atoms: N2_7  and  C6_9 
REMARK    5  A    between atoms: C6_9  and  C7_10 
REMARK    6  A    between atoms: C7_10  and  N3_11 
REMARK    7  A    between atoms: N3_11  and  C8_14 
REMARK    8  A    between atoms: C8_14  and  C9_15 
REMARK    9  A    between atoms: C9_15  and  C10_16 
REMARK   10  A    between atoms: C10_16  and  N4_17 
REMARK   11  A    between atoms: C12_22  and  C13_23 
REMARK   12  A    between atoms: N7_27  and  C17_28 
REMARK   13  A    between atoms: C17_28  and  C18_29 
REMARK   14  A    between atoms: C18_29  and  C19_30 
REMARK   15  A    between atoms: C19_30  and  C20_31 
REMARK   16  A    between atoms: C20_31  and  O1_32 
ROOT
HETATM    1  C1  UNL     1     -45.884   2.681 -32.684  1.00  0.00     0.097 C 
HETATM    2  C2  UNL     1     -45.282   2.286 -33.678  1.00  0.00    -0.182 C 
HETATM    3  C3  UNL     1     -44.551   1.845 -34.861  1.00  0.00     0.060 C 
ENDROOT
BRANCH   3   4
HETATM    4  C4  UNL     1     -45.380   1.017 -35.787  1.00  0.00     0.089 C 
BRANCH   4   5
HETATM    5  C5  UNL     1     -45.051  -0.417 -35.581  1.00  0.00     0.090 C 
HETATM    6  N1  UNL     1     -45.905  -1.470 -36.012  1.00  0.00    -0.088 NA
HETATM    7  N2  UNL     1     -43.952  -0.773 -34.989  1.00  0.00    -0.380 N 
ATOM      8  H2  UNL     1     -43.304  -0.056 -34.662  1.00  0.00     0.160 HD
BRANCH   7   9
HETATM    9  C6  UNL     1     -43.628  -2.164 -34.787  1.00  0.00     0.148 C 
BRANCH   9  10
HETATM   10  C7  UNL     1     -43.255  -2.486 -33.378  1.00  0.00     0.251 C 
BRANCH  10  11
HETATM   11  N3  UNL     1     -41.959  -1.935 -33.053  1.00  0.00    -0.074 N 
ATOM     12  H32 UNL     1     -41.882  -0.965 -33.360  1.00  0.00     0.277 HD
ATOM     13  H31 UNL     1     -41.859  -1.795 -32.047  1.00  0.00     0.277 HD
BRANCH  11  14
HETATM   14  C8  UNL     1     -40.877  -2.738 -33.582  1.00  0.00     0.234 C 
BRANCH  14  15
HETATM   15  C9  UNL     1     -39.531  -2.271 -33.142  1.00  0.00     0.047 C 
BRANCH  15  16
HETATM   16  C10 UNL     1     -39.707  -0.999 -32.341  1.00  0.00     0.123 C 
BRANCH  16  17
HETATM   17  N4  UNL     1     -39.099  -1.139 -31.047  1.00  0.00    -0.367 N 
HETATM   18  C11 UNL     1     -39.850  -1.318 -30.007  1.00  0.00     0.196 C 
HETATM   19  N5  UNL     1     -39.296  -1.462 -28.705  1.00  0.00    -0.067 NA
HETATM   20  N6  UNL     1     -41.253  -1.373 -30.132  1.00  0.00    -0.067 NA
ATOM     21  H4  UNL     1     -38.084  -1.098 -30.947  1.00  0.00     0.161 HD
ENDBRANCH  16  17
ENDBRANCH  15  16
ENDBRANCH  14  15
ENDBRANCH  11  14
ENDBRANCH  10  11
ENDBRANCH   9  10
ENDBRANCH   7   9
ENDBRANCH   4   5
ENDBRANCH   3   4
BRANCH   3  22
HETATM   22  C12 UNL     1     -43.926   3.045 -35.579  1.00  0.00     0.052 C 
BRANCH  22  23
HETATM   23  C13 UNL     1     -43.353   3.924 -34.534  1.00  0.00     0.224 C 
HETATM   24  C14 UNL     1     -41.962   3.437 -34.186  1.00  0.00     0.037 C 
HETATM   25  C15 UNL     1     -41.251   4.681 -33.703  1.00  0.00     0.032 C 
HETATM   26  C16 UNL     1     -42.163   5.818 -34.077  1.00  0.00     0.273 C 
HETATM   27  N7  UNL     1     -43.234   5.313 -34.856  1.00  0.00     0.093 N 
BRANCH  27  28
HETATM   28  C17 UNL     1     -44.452   6.040 -34.819  1.00  0.00     0.273 C 
BRANCH  28  29
HETATM   29  C18 UNL     1     -44.479   7.073 -33.743  1.00  0.00     0.032 C 
BRANCH  29  30
HETATM   30  C19 UNL     1     -45.614   6.778 -32.764  1.00  0.00     0.028 C 
BRANCH  30  31
HETATM   31  C20 UNL     1     -46.071   8.041 -32.068  1.00  0.00     0.164 C 
BRANCH  31  32
HETATM   32  O1  UNL     1     -45.521   9.172 -32.706  1.00  0.00    -0.401 OA
ATOM     33  H1  UNL     1     -46.007   9.951 -32.464  1.00  0.00     0.209 HD
ENDBRANCH  31  32
ENDBRANCH  30  31
ENDBRANCH  29  30
ENDBRANCH  28  29
ENDBRANCH  27  28
ENDBRANCH  22  23
ENDBRANCH   3  22
TORSDOF 16
ENDMDL
MODEL 4
REMARK VINA RESULT: -6.410764097      5.219     11.271
REMARK  16 active torsions:
REMARK  status: ('A' for Active; 'I' for Inactive)
REMARK    1  A    between atoms: C3_3  and  C4_4 
REMARK    2  A    between atoms: C3_3  and  C12_22 
REMARK    3  A    between atoms: C4_4  and  C5_5 
REMARK    4  A    between atoms: N2_7  and  C6_9 
REMARK    5  A    between atoms: C6_9  and  C7_10 
REMARK    6  A    between atoms: C7_10  and  N3_11 
REMARK    7  A    between atoms: N3_11  and  C8_14 
REMARK    8  A    between atoms: C8_14  and  C9_15 
REMARK    9  A    between atoms: C9_15  and  C10_16 
REMARK   10  A    between atoms: C10_16  and  N4_17 
REMARK   11  A    between atoms: C12_22  and  C13_23 
REMARK   12  A    between atoms: N7_27  and  C17_28 
REMARK   13  A    between atoms: C17_28  and  C18_29 
REMARK   14  A    between atoms: C18_29  and  C19_30 
REMARK   15  A    between atoms: C19_30  and  C20_31 
REMARK   16  A    between atoms: C20_31  and  O1_32 
ROOT
HETATM    1  C1  UNL     1     -34.349   4.874 -33.989  1.00  0.00     0.097 C 
HETATM    2  C2  UNL     1     -35.287   4.993 -33.209  1.00  0.00    -0.182 C 
HETATM    3  C3  UNL     1     -36.385   5.150 -32.259  1.00  0.00     0.060 C 
ENDROOT
BRANCH   3   4
HETATM    4  C4  UNL     1     -37.319   3.984 -32.245  1.00  0.00     0.089 C 
BRANCH   4   5
HETATM    5  C5  UNL     1     -38.664   4.436 -32.684  1.00  0.00     0.090 C 
HETATM    6  N1  UNL     1     -39.206   4.106 -33.957  1.00  0.00    -0.088 NA
HETATM    7  N2  UNL     1     -39.412   5.162 -31.910  1.00  0.00    -0.380 N 
ATOM      8  H2  UNL     1     -39.069   5.426 -30.987  1.00  0.00     0.160 HD
BRANCH   7   9
HETATM    9  C6  UNL     1     -40.719   5.603 -32.333  1.00  0.00     0.148 C 
BRANCH   9  10
HETATM   10  C7  UNL     1     -41.068   6.970 -31.847  1.00  0.00     0.251 C 
BRANCH  10  11
HETATM   11  N3  UNL     1     -42.119   7.548 -32.654  1.00  0.00    -0.074 N 
ATOM     12  H32 UNL     1     -42.561   8.334 -32.178  1.00  0.00     0.277 HD
ATOM     13  H31 UNL     1     -41.735   8.041 -33.461  1.00  0.00     0.277 HD
BRANCH  11  14
HETATM   14  C8  UNL     1     -43.099   6.562 -33.060  1.00  0.00     0.234 C 
BRANCH  14  15
HETATM   15  C9  UNL     1     -44.059   7.076 -34.078  1.00  0.00     0.047 C 
BRANCH  15  16
HETATM   16  C10 UNL     1     -45.124   6.024 -34.301  1.00  0.00     0.123 C 
BRANCH  16  17
HETATM   17  N4  UNL     1     -44.787   5.208 -35.435  1.00  0.00    -0.367 N 
HETATM   18  C11 UNL     1     -44.730   3.922 -35.299  1.00  0.00     0.196 C 
HETATM   19  N5  UNL     1     -44.402   3.071 -36.390  1.00  0.00    -0.067 NA
HETATM   20  N6  UNL     1     -44.992   3.316 -34.052  1.00  0.00    -0.067 NA
ATOM     21  H4  UNL     1     -44.594   5.638 -36.340  1.00  0.00     0.161 HD
ENDBRANCH  16  17
ENDBRANCH  15  16
ENDBRANCH  14  15
ENDBRANCH  11  14
ENDBRANCH  10  11
ENDBRANCH   9  10
ENDBRANCH   7   9
ENDBRANCH   4   5
ENDBRANCH   3   4
BRANCH   3  22
HETATM   22  C12 UNL     1     -35.840   5.457 -30.861  1.00  0.00     0.052 C 
BRANCH  22  23
HETATM   23  C13 UNL     1     -35.734   6.930 -30.751  1.00  0.00     0.224 C 
HETATM   24  C14 UNL     1     -36.935   7.455 -29.992  1.00  0.00     0.037 C 
HETATM   25  C15 UNL     1     -36.433   8.734 -29.360  1.00  0.00     0.032 C 
HETATM   26  C16 UNL     1     -34.941   8.701 -29.549  1.00  0.00     0.273 C 
HETATM   27  N7  UNL     1     -34.573   7.445 -30.093  1.00  0.00     0.093 N 
BRANCH  27  28
HETATM   28  C17 UNL     1     -33.383   7.404 -30.865  1.00  0.00     0.273 C 
BRANCH  28  29
HETATM   29  C18 UNL     1     -33.284   8.528 -31.840  1.00  0.00     0.032 C 
BRANCH  29  30
HETATM   30  C19 UNL     1     -32.791   8.009 -33.189  1.00  0.00     0.028 C 
BRANCH  30  31
HETATM   31  C20 UNL     1     -31.349   8.398 -33.425  1.00  0.00     0.164 C 
BRANCH  31  32
HETATM   32  O1  UNL     1     -30.844   7.725 -34.555  1.00  0.00    -0.401 OA
ATOM     33  H1  UNL     1     -30.020   8.113 -34.826  1.00  0.00     0.209 HD
ENDBRANCH  31  32
ENDBRANCH  30  31
ENDBRANCH  29  30
ENDBRANCH  28  29
ENDBRANCH  27  28
ENDBRANCH  22  23
ENDBRANCH   3  22
TORSDOF 16
ENDMDL
MODEL 5
REMARK VINA RESULT: -6.352624237      4.657     11.339
REMARK  16 active torsions:
REMARK  status: ('A' for Active; 'I' for Inactive)
REMARK    1  A    between atoms: C3_3  and  C4_4 
REMARK    2  A    between atoms: C3_3  and  C12_22 
REMARK    3  A    between atoms: C4_4  and  C5_5 
REMARK    4  A    between atoms: N2_7  and  C6_9 
REMARK    5  A    between atoms: C6_9  and  C7_10 
REMARK    6  A    between atoms: C7_10  and  N3_11 
REMARK    7  A    between atoms: N3_11  and  C8_14 
REMARK    8  A    between atoms: C8_14  and  C9_15 
REMARK    9  A    between atoms: C9_15  and  C10_16 
REMARK   10  A    between atoms: C10_16  and  N4_17 
REMARK   11  A    between atoms: C12_22  and  C13_23 
REMARK   12  A    between atoms: N7_27  and  C17_28 
REMARK   13  A    between atoms: C17_28  and  C18_29 
REMARK   14  A    between atoms: C18_29  and  C19_30 
REMARK   15  A    between atoms: C19_30  and  C20_31 
REMARK   16  A    between atoms: C20_31  and  O1_32 
ROOT
HETATM    1  C1  UNL     1     -34.150   5.172 -34.063  1.00  0.00     0.097 C 
HETATM    2  C2  UNL     1     -35.068   5.193 -33.249  1.00  0.00    -0.182 C 
HETATM    3  C3  UNL     1     -36.140   5.234 -32.260  1.00  0.00     0.060 C 
ENDROOT
BRANCH   3   4
HETATM    4  C4  UNL     1     -36.978   3.997 -32.253  1.00  0.00     0.089 C 
BRANCH   4   5
HETATM    5  C5  UNL     1     -38.396   4.371 -32.488  1.00  0.00     0.090 C 
HETATM    6  N1  UNL     1     -39.132   5.193 -31.590  1.00  0.00    -0.088 NA
HETATM    7  N2  UNL     1     -39.031   3.957 -33.542  1.00  0.00    -0.380 N 
ATOM      8  H2  UNL     1     -38.548   3.365 -34.218  1.00  0.00     0.160 HD
BRANCH   7   9
HETATM    9  C6  UNL     1     -40.409   4.317 -33.775  1.00  0.00     0.148 C 
BRANCH   9  10
HETATM   10  C7  UNL     1     -41.290   3.144 -34.044  1.00  0.00     0.251 C 
BRANCH  10  11
HETATM   11  N3  UNL     1     -42.654   3.429 -33.657  1.00  0.00    -0.074 N 
ATOM     12  H32 UNL     1     -42.808   3.230 -32.669  1.00  0.00     0.277 HD
ATOM     13  H31 UNL     1     -42.834   4.433 -33.651  1.00  0.00     0.277 HD
BRANCH  11  14
HETATM   14  C8  UNL     1     -43.613   2.730 -34.488  1.00  0.00     0.234 C 
BRANCH  14  15
HETATM   15  C9  UNL     1     -44.044   3.520 -35.677  1.00  0.00     0.047 C 
BRANCH  15  16
HETATM   16  C10 UNL     1     -45.154   4.456 -35.249  1.00  0.00     0.123 C 
BRANCH  16  17
HETATM   17  N4  UNL     1     -44.702   5.819 -35.301  1.00  0.00    -0.367 N 
HETATM   18  C11 UNL     1     -44.497   6.464 -34.197  1.00  0.00     0.196 C 
HETATM   19  N5  UNL     1     -44.049   7.814 -34.196  1.00  0.00    -0.067 NA
HETATM   20  N6  UNL     1     -44.714   5.845 -32.949  1.00  0.00    -0.067 NA
ATOM     21  H4  UNL     1     -44.544   6.275 -36.200  1.00  0.00     0.161 HD
ENDBRANCH  16  17
ENDBRANCH  15  16
ENDBRANCH  14  15
ENDBRANCH  11  14
ENDBRANCH  10  11
ENDBRANCH   9  10
ENDBRANCH   7   9
ENDBRANCH   4   5
ENDBRANCH   3   4
BRANCH   3  22
HETATM   22  C12 UNL     1     -35.572   5.542 -30.871  1.00  0.00     0.052 C 
BRANCH  22  23
HETATM   23  C13 UNL     1     -35.357   7.006 -30.806  1.00  0.00     0.224 C 
HETATM   24  C14 UNL     1     -36.494   7.638 -30.032  1.00  0.00     0.037 C 
HETATM   25  C15 UNL     1     -35.883   8.894 -29.450  1.00  0.00     0.032 C 
HETATM   26  C16 UNL     1     -34.403   8.745 -29.678  1.00  0.00     0.273 C 
HETATM   27  N7  UNL     1     -34.143   7.451 -30.195  1.00  0.00     0.093 N 
BRANCH  27  28
HETATM   28  C17 UNL     1     -32.982   7.303 -30.996  1.00  0.00     0.273 C 
BRANCH  28  29
HETATM   29  C18 UNL     1     -32.941   8.255 -32.143  1.00  0.00     0.032 C 
BRANCH  29  30
HETATM   30  C19 UNL     1     -31.528   8.808 -32.314  1.00  0.00     0.028 C 
BRANCH  30  31
HETATM   31  C20 UNL     1     -31.005   8.537 -33.707  1.00  0.00     0.164 C 
BRANCH  31  32
HETATM   32  O1  UNL     1     -31.289   7.208 -34.081  1.00  0.00    -0.401 OA
ATOM     33  H1  UNL     1     -31.702   7.190 -34.936  1.00  0.00     0.209 HD
ENDBRANCH  31  32
ENDBRANCH  30  31
ENDBRANCH  29  30
ENDBRANCH  28  29
ENDBRANCH  27  28
ENDBRANCH  22  23
ENDBRANCH   3  22
TORSDOF 16
ENDMDL
