MODEL 1
REMARK VINA RESULT: -6.345130665      0.000      0.000
REMARK  17 active torsions:
REMARK  status: ('A' for Active; 'I' for Inactive)
REMARK    1  A    between atoms: N1_1  and  C1_4 
REMARK    2  A    between atoms: C3_6  and  C4_7 
REMARK    3  A    between atoms: C4_7  and  C5_8 
REMARK    4  A    between atoms: C5_8  and  C6_9 
REMARK    5  A    between atoms: C6_9  and  O1_10 
REMARK    6  A    between atoms: O1_10  and  C7_11 
REMARK    7  A    between atoms: C7_11  and  C8_12 
REMARK    8  A    between atoms: C8_12  and  N2_13 
REMARK    9  A    between atoms: N2_13  and  C9_15 
REMARK   10  A    between atoms: C9_15  and  C10_16 
REMARK   11  A    between atoms: C10_16  and  O2_17 
REMARK   12  A    between atoms: N4_23  and  C12_24 
REMARK   13  A    between atoms: C12_24  and  C13_25 
REMARK   14  A    between atoms: C13_25  and  C14_26 
REMARK   15  A    between atoms: C14_26  and  C15_27 
REMARK   16  A    between atoms: C15_27  and  C16_28 
REMARK   17  A    between atoms: C16_28  and  N5_29 
ROOT
HETATM    1  C1  UNL     1     -44.479  -1.211 -35.316  1.00  0.00     0.106 A 
HETATM    2  C2  UNL     1     -43.647  -2.243 -34.915  1.00  0.00     0.073 A 
HETATM    3  C3  UNL     1     -42.732  -2.051 -33.917  1.00  0.00     0.017 A 
HETATM    4  N3  UNL     1     -42.673  -0.822 -33.342  1.00  0.00    -0.312 N 
ATOM      5  H3  UNL     1     -42.002  -0.646 -32.594  1.00  0.00     0.170 HD
HETATM    6  C11 UNL     1     -43.507   0.184 -33.756  1.00  0.00     0.328 A 
HETATM    7  O3  UNL     1     -43.443   1.311 -33.219  1.00  0.00    -0.246 OA
HETATM    8  N4  UNL     1     -44.389  -0.022 -34.728  1.00  0.00    -0.286 N 
ENDROOT
BRANCH   3   9
HETATM    9  C4  UNL     1     -41.783  -3.132 -33.446  1.00  0.00     0.059 C 
BRANCH   9  10
HETATM   10  C5  UNL     1     -40.427  -2.740 -33.854  1.00  0.00     0.032 C 
BRANCH  10  11
HETATM   11  C6  UNL     1     -39.484  -2.228 -32.820  1.00  0.00     0.168 C 
BRANCH  11  12
HETATM   12  O1  UNL     1     -39.933  -1.366 -31.942  1.00  0.00    -0.386 OA
BRANCH  12  13
HETATM   13  C7  UNL     1     -39.442  -0.217 -31.532  1.00  0.00     0.211 C 
BRANCH  13  14
HETATM   14  C8  UNL     1     -39.524   0.876 -32.604  1.00  0.00     0.081 C 
BRANCH  14  15
HETATM   15  N2  UNL     1     -38.454   1.777 -32.662  1.00  0.00    -0.398 N 
ATOM     16  H2  UNL     1     -37.498   1.456 -32.817  1.00  0.00     0.158 HD
BRANCH  15  17
HETATM   17  C9  UNL     1     -38.753   3.152 -32.497  1.00  0.00     0.144 C 
BRANCH  17  18
HETATM   18  C10 UNL     1     -39.728   3.612 -33.592  1.00  0.00     0.183 C 
BRANCH  18  19
HETATM   19  O2  UNL     1     -39.002   3.748 -34.774  1.00  0.00    -0.399 OA
ATOM     20  H2  UNL     1     -38.411   3.007 -34.837  1.00  0.00     0.209 HD
ENDBRANCH  18  19
ENDBRANCH  17  18
ENDBRANCH  15  17
ENDBRANCH  14  15
ENDBRANCH  13  14
ENDBRANCH  12  13
ENDBRANCH  11  12
ENDBRANCH  10  11
ENDBRANCH   9  10
ENDBRANCH   3   9
BRANCH   1  21
HETATM   21  N1  UNL     1     -45.347  -1.426 -36.279  1.00  0.00    -0.385 N 
ATOM     22  H12 UNL     1     -45.040  -1.584 -37.238  1.00  0.00     0.157 HD
ATOM     23  H11 UNL     1     -46.342  -1.434 -36.056  1.00  0.00     0.157 HD
ENDBRANCH   1  21
BRANCH   8  24
HETATM   24  C12 UNL     1     -45.291   1.064 -35.180  1.00  0.00     0.135 C 
BRANCH  24  25
HETATM   25  C13 UNL     1     -44.447   2.030 -35.905  1.00  0.00     0.020 C 
BRANCH  25  26
HETATM   26  C14 UNL     1     -44.766   3.463 -35.953  1.00  0.00     0.003 C 
BRANCH  26  27
HETATM   27  C15 UNL     1     -44.649   4.285 -34.737  1.00  0.00     0.022 C 
BRANCH  27  28
HETATM   28  C16 UNL     1     -44.090   5.649 -34.816  1.00  0.00     0.148 C 
BRANCH  28  29
HETATM   29  N5  UNL     1     -44.750   6.541 -33.833  1.00  0.00    -0.304 N 
HETATM   30  C17 UNL     1     -45.738   6.149 -33.014  1.00  0.00     0.111 A 
HETATM   31  C18 UNL     1     -46.129   7.212 -32.235  1.00  0.00     0.037 A 
HETATM   32  C19 UNL     1     -45.329   8.256 -32.628  1.00  0.00     0.108 A 
HETATM   33  N6  UNL     1     -44.514   7.799 -33.594  1.00  0.00    -0.310 N 
ATOM     34  H6  UNL     1     -43.809   8.359 -34.074  1.00  0.00     0.186 HD
ENDBRANCH  28  29
ENDBRANCH  27  28
ENDBRANCH  26  27
ENDBRANCH  25  26
ENDBRANCH  24  25
ENDBRANCH   8  24
TORSDOF 17
ENDMDL
MODEL 2
REMARK VINA RESULT: -6.218046689      5.244      8.166
REMARK  17 active torsions:
REMARK  status: ('A' for Active; 'I' for Inactive)
REMARK    1  A    between atoms: N1_1  and  C1_4 
REMARK    2  A    between atoms: C3_6  and  C4_7 
REMARK    3  A    between atoms: C4_7  and  C5_8 
REMARK    4  A    between atoms: C5_8  and  C6_9 
REMARK    5  A    between atoms: C6_9  and  O1_10 
REMARK    6  A    between atoms: O1_10  and  C7_11 
REMARK    7  A    between atoms: C7_11  and  C8_12 
REMARK    8  A    between atoms: C8_12  and  N2_13 
REMARK    9  A    between atoms: N2_13  and  C9_15 
REMARK   10  A    between atoms: C9_15  and  C10_16 
REMARK   11  A    between atoms: C10_16  and  O2_17 
REMARK   12  A    between atoms: N4_23  and  C12_24 
REMARK   13  A    between atoms: C12_24  and  C13_25 
REMARK   14  A    between atoms: C13_25  and  C14_26 
REMARK   15  A    between atoms: C14_26  and  C15_27 
REMARK   16  A    between atoms: C15_27  and  C16_28 
REMARK   17  A    between atoms: C16_28  and  N5_29 
ROOT
HETATM    1  C1  UNL     1     -38.898   5.327 -31.363  1.00  0.00     0.106 A 
HETATM    2  C2  UNL     1     -37.522   5.211 -31.480  1.00  0.00     0.073 A 
HETATM    3  C3  UNL     1     -36.966   4.589 -32.564  1.00  0.00     0.017 A 
HETATM    4  N3  UNL     1     -37.807   4.098 -33.510  1.00  0.00    -0.312 N 
ATOM      5  H3  UNL     1     -37.424   3.630 -34.331  1.00  0.00     0.170 HD
HETATM    6  C11 UNL     1     -39.165   4.225 -33.373  1.00  0.00     0.328 A 
HETATM    7  O3  UNL     1     -39.928   3.768 -34.251  1.00  0.00    -0.246 OA
HETATM    8  N4  UNL     1     -39.686   4.831 -32.312  1.00  0.00    -0.286 N 
ENDROOT
BRANCH   3   9
HETATM    9  C4  UNL     1     -35.473   4.415 -32.741  1.00  0.00     0.059 C 
BRANCH   9  10
HETATM   10  C5  UNL     1     -34.855   5.742 -32.621  1.00  0.00     0.032 C 
BRANCH  10  11
HETATM   11  C6  UNL     1     -33.589   6.016 -33.358  1.00  0.00     0.168 C 
BRANCH  11  12
HETATM   12  O1  UNL     1     -32.981   7.156 -33.146  1.00  0.00    -0.386 OA
BRANCH  12  13
HETATM   13  C7  UNL     1     -33.331   8.198 -32.424  1.00  0.00     0.211 C 
BRANCH  13  14
HETATM   14  C8  UNL     1     -32.159   8.781 -31.624  1.00  0.00     0.081 C 
BRANCH  14  15
HETATM   15  N2  UNL     1     -30.890   8.262 -31.906  1.00  0.00    -0.398 N 
ATOM     16  H2  UNL     1     -30.586   7.366 -31.524  1.00  0.00     0.158 HD
BRANCH  15  17
HETATM   17  C9  UNL     1     -30.044   9.033 -32.742  1.00  0.00     0.144 C 
BRANCH  17  18
HETATM   18  C10 UNL     1     -29.498   8.161 -33.882  1.00  0.00     0.183 C 
BRANCH  18  19
HETATM   19  O2  UNL     1     -30.587   7.680 -34.607  1.00  0.00    -0.399 OA
ATOM     20  H2  UNL     1     -30.462   7.927 -35.515  1.00  0.00     0.209 HD
ENDBRANCH  18  19
ENDBRANCH  17  18
ENDBRANCH  15  17
ENDBRANCH  14  15
ENDBRANCH  13  14
ENDBRANCH  12  13
ENDBRANCH  11  12
ENDBRANCH  10  11
ENDBRANCH   9  10
ENDBRANCH   3   9
BRANCH   1  21
HETATM   21  N1  UNL     1     -39.402   5.928 -30.310  1.00  0.00    -0.385 N 
ATOM     22  H12 UNL     1     -39.458   5.452 -29.410  1.00  0.00     0.157 HD
ATOM     23  H11 UNL     1     -39.740   6.886 -30.399  1.00  0.00     0.157 HD
ENDBRANCH   1  21
BRANCH   8  24
HETATM   24  C12 UNL     1     -41.154   4.968 -32.159  1.00  0.00     0.135 C 
BRANCH  24  25
HETATM   25  C13 UNL     1     -41.528   6.221 -32.837  1.00  0.00     0.020 C 
BRANCH  25  26
HETATM   26  C14 UNL     1     -42.891   6.764 -32.780  1.00  0.00     0.003 C 
BRANCH  26  27
HETATM   27  C15 UNL     1     -44.008   6.014 -33.378  1.00  0.00     0.022 C 
BRANCH  27  28
HETATM   28  C16 UNL     1     -44.034   5.760 -34.832  1.00  0.00     0.148 C 
BRANCH  28  29
HETATM   29  N5  UNL     1     -43.933   4.308 -35.110  1.00  0.00    -0.304 N 
HETATM   30  C17 UNL     1     -44.853   3.613 -35.797  1.00  0.00     0.111 A 
HETATM   31  C18 UNL     1     -44.461   2.298 -35.875  1.00  0.00     0.037 A 
HETATM   32  C19 UNL     1     -43.266   2.240 -35.203  1.00  0.00     0.108 A 
HETATM   33  N6  UNL     1     -42.991   3.480 -34.761  1.00  0.00    -0.310 N 
ATOM     34  H6  UNL     1     -42.161   3.736 -34.226  1.00  0.00     0.186 HD
ENDBRANCH  28  29
ENDBRANCH  27  28
ENDBRANCH  26  27
ENDBRANCH  25  26
ENDBRANCH  24  25
ENDBRANCH   8  24
TORSDOF 17
ENDMDL
MODEL 3
REMARK VINA RESULT: -6.210750567      2.082      3.437
REMARK  17 active torsions:
REMARK  status: ('A' for Active; 'I' for Inactive)
REMARK    1  A    between atoms: N1_1  and  C1_4 
REMARK    2  A    between atoms: C3_6  and  C4_7 
REMARK    3  A    between atoms: C4_7  and  C5_8 
REMARK    4  A    between atoms: C5_8  and  C6_9 
REMARK    5  A    between atoms: C6_9  and  O1_10 
REMARK    6  A    between atoms: O1_10  and  C7_11 
REMARK    7  A    between atoms: C7_11  and  C8_12 
REMARK    8  A    between atoms: C8_12  and  N2_13 
REMARK    9  A    between atoms: N2_13  and  C9_15 
REMARK   10  A    between atoms: C9_15  and  C10_16 
REMARK   11  A    between atoms: C10_16  and  O2_17 
REMARK   12  A    between atoms: N4_23  and  C12_24 
REMARK   13  A    between atoms: C12_24  and  C13_25 
REMARK   14  A    between atoms: C13_25  and  C14_26 
REMARK   15  A    between atoms: C14_26  and  C15_27 
REMARK   16  A    between atoms: C15_27  and  C16_28 
REMARK   17  A    between atoms: C16_28  and  N5_29 
ROOT
HETATM    1  C1  UNL     1     -44.415  -1.251 -35.209  1.00  0.00     0.106 A 
HETATM    2  C2  UNL     1     -43.565  -2.292 -34.872  1.00  0.00     0.073 A 
HETATM    3  C3  UNL     1     -42.604  -2.122 -33.914  1.00  0.00     0.017 A 
HETATM    4  N3  UNL     1     -42.519  -0.908 -33.313  1.00  0.00    -0.312 N 
ATOM      5  H3  UNL     1     -41.814  -0.749 -32.593  1.00  0.00     0.170 HD
HETATM    6  C11 UNL     1     -43.371   0.107 -33.663  1.00  0.00     0.328 A 
HETATM    7  O3  UNL     1     -43.282   1.220 -33.102  1.00  0.00    -0.246 OA
HETATM    8  N4  UNL     1     -44.297  -0.077 -34.597  1.00  0.00    -0.286 N 
ENDROOT
BRANCH   3   9
HETATM    9  C4  UNL     1     -41.635  -3.214 -33.513  1.00  0.00     0.059 C 
BRANCH   9  10
HETATM   10  C5  UNL     1     -40.280  -2.737 -33.820  1.00  0.00     0.032 C 
BRANCH  10  11
HETATM   11  C6  UNL     1     -39.492  -2.066 -32.747  1.00  0.00     0.168 C 
BRANCH  11  12
HETATM   12  O1  UNL     1     -39.360  -0.764 -32.796  1.00  0.00    -0.386 OA
BRANCH  12  13
HETATM   13  C7  UNL     1     -39.313   0.134 -31.837  1.00  0.00     0.211 C 
BRANCH  13  14
HETATM   14  C8  UNL     1     -39.158  -0.495 -30.447  1.00  0.00     0.081 C 
BRANCH  14  15
HETATM   15  N2  UNL     1     -40.162  -0.206 -29.515  1.00  0.00    -0.398 N 
ATOM     16  H2  UNL     1     -40.229   0.711 -29.073  1.00  0.00     0.158 HD
BRANCH  15  17
HETATM   17  C9  UNL     1     -41.081  -1.241 -29.210  1.00  0.00     0.144 C 
BRANCH  17  18
HETATM   18  C10 UNL     1     -42.484  -0.861 -29.707  1.00  0.00     0.183 C 
BRANCH  18  19
HETATM   19  O2  UNL     1     -42.980  -1.939 -30.438  1.00  0.00    -0.399 OA
ATOM     20  H2  UNL     1     -43.912  -1.801 -30.560  1.00  0.00     0.209 HD
ENDBRANCH  18  19
ENDBRANCH  17  18
ENDBRANCH  15  17
ENDBRANCH  14  15
ENDBRANCH  13  14
ENDBRANCH  12  13
ENDBRANCH  11  12
ENDBRANCH  10  11
ENDBRANCH   9  10
ENDBRANCH   3   9
BRANCH   1  21
HETATM   21  N1  UNL     1     -45.327  -1.444 -36.135  1.00  0.00    -0.385 N 
ATOM     22  H12 UNL     1     -45.860  -2.312 -36.174  1.00  0.00     0.157 HD
ATOM     23  H11 UNL     1     -45.501  -0.710 -36.821  1.00  0.00     0.157 HD
ENDBRANCH   1  21
BRANCH   8  24
HETATM   24  C12 UNL     1     -45.219   1.019 -34.980  1.00  0.00     0.135 C 
BRANCH  24  25
HETATM   25  C13 UNL     1     -44.487   1.862 -35.941  1.00  0.00     0.020 C 
BRANCH  25  26
HETATM   26  C14 UNL     1     -44.589   3.327 -35.932  1.00  0.00     0.003 C 
BRANCH  26  27
HETATM   27  C15 UNL     1     -44.343   4.074 -34.687  1.00  0.00     0.022 C 
BRANCH  27  28
HETATM   28  C16 UNL     1     -43.317   5.136 -34.651  1.00  0.00     0.148 C 
BRANCH  28  29
HETATM   29  N5  UNL     1     -42.019   4.592 -34.188  1.00  0.00    -0.304 N 
HETATM   30  C17 UNL     1     -41.125   5.297 -33.477  1.00  0.00     0.111 A 
HETATM   31  C18 UNL     1     -40.033   4.505 -33.211  1.00  0.00     0.037 A 
HETATM   32  C19 UNL     1     -40.317   3.296 -33.796  1.00  0.00     0.108 A 
HETATM   33  N6  UNL     1     -41.527   3.401 -34.372  1.00  0.00    -0.310 N 
ATOM     34  H6  UNL     1     -41.995   2.651 -34.883  1.00  0.00     0.186 HD
ENDBRANCH  28  29
ENDBRANCH  27  28
ENDBRANCH  26  27
ENDBRANCH  25  26
ENDBRANCH  24  25
ENDBRANCH   8  24
TORSDOF 17
ENDMDL
MODEL 4
REMARK VINA RESULT: -6.122058583      4.377      6.200
REMARK  17 active torsions:
REMARK  status: ('A' for Active; 'I' for Inactive)
REMARK    1  A    between atoms: N1_1  and  C1_4 
REMARK    2  A    between atoms: C3_6  and  C4_7 
REMARK    3  A    between atoms: C4_7  and  C5_8 
REMARK    4  A    between atoms: C5_8  and  C6_9 
REMARK    5  A    between atoms: C6_9  and  O1_10 
REMARK    6  A    between atoms: O1_10  and  C7_11 
REMARK    7  A    between atoms: C7_11  and  C8_12 
REMARK    8  A    between atoms: C8_12  and  N2_13 
REMARK    9  A    between atoms: N2_13  and  C9_15 
REMARK   10  A    between atoms: C9_15  and  C10_16 
REMARK   11  A    between atoms: C10_16  and  O2_17 
REMARK   12  A    between atoms: N4_23  and  C12_24 
REMARK   13  A    between atoms: C12_24  and  C13_25 
REMARK   14  A    between atoms: C13_25  and  C14_26 
REMARK   15  A    between atoms: C14_26  and  C15_27 
REMARK   16  A    between atoms: C15_27  and  C16_28 
REMARK   17  A    between atoms: C16_28  and  N5_29 
ROOT
HETATM    1  C1  UNL     1     -42.105   6.363 -33.491  1.00  0.00     0.106 A 
HETATM    2  C2  UNL     1     -40.837   5.828 -33.325  1.00  0.00     0.073 A 
HETATM    3  C3  UNL     1     -40.565   4.549 -33.723  1.00  0.00     0.017 A 
HETATM    4  N3  UNL     1     -41.574   3.833 -34.282  1.00  0.00    -0.312 N 
ATOM      5  H3  UNL     1     -41.403   2.876 -34.590  1.00  0.00     0.170 HD
HETATM    6  C11 UNL     1     -42.819   4.383 -34.436  1.00  0.00     0.328 A 
HETATM    7  O3  UNL     1     -43.740   3.713 -34.952  1.00  0.00    -0.246 OA
HETATM    8  N4  UNL     1     -43.065   5.627 -34.042  1.00  0.00    -0.286 N 
ENDROOT
BRANCH   3   9
HETATM    9  C4  UNL     1     -39.207   3.902 -33.553  1.00  0.00     0.059 C 
BRANCH   9  10
HETATM   10  C5  UNL     1     -38.750   4.183 -32.186  1.00  0.00     0.032 C 
BRANCH  10  11
HETATM   11  C6  UNL     1     -37.411   4.805 -31.987  1.00  0.00     0.168 C 
BRANCH  11  12
HETATM   12  O1  UNL     1     -36.381   4.270 -32.594  1.00  0.00    -0.386 OA
BRANCH  12  13
HETATM   13  C7  UNL     1     -35.447   4.810 -33.345  1.00  0.00     0.211 C 
BRANCH  13  14
HETATM   14  C8  UNL     1     -34.047   4.672 -32.736  1.00  0.00     0.081 C 
BRANCH  14  15
HETATM   15  N2  UNL     1     -33.571   3.368 -32.551  1.00  0.00    -0.398 N 
ATOM     16  H2  UNL     1     -33.420   2.985 -31.618  1.00  0.00     0.158 HD
BRANCH  15  17
HETATM   17  C9  UNL     1     -33.308   2.602 -33.714  1.00  0.00     0.144 C 
BRANCH  17  18
HETATM   18  C10 UNL     1     -32.447   1.381 -33.355  1.00  0.00     0.183 C 
BRANCH  18  19
HETATM   19  O2  UNL     1     -32.448   0.525 -34.455  1.00  0.00    -0.399 OA
ATOM     20  H2  UNL     1     -31.563   0.496 -34.798  1.00  0.00     0.209 HD
ENDBRANCH  18  19
ENDBRANCH  17  18
ENDBRANCH  15  17
ENDBRANCH  14  15
ENDBRANCH  13  14
ENDBRANCH  12  13
ENDBRANCH  11  12
ENDBRANCH  10  11
ENDBRANCH   9  10
ENDBRANCH   3   9
BRANCH   1  21
HETATM   21  N1  UNL     1     -42.336   7.595 -33.098  1.00  0.00    -0.385 N 
ATOM     22  H12 UNL     1     -41.634   8.121 -32.579  1.00  0.00     0.157 HD
ATOM     23  H11 UNL     1     -43.234   8.025 -33.318  1.00  0.00     0.157 HD
ENDBRANCH   1  21
BRANCH   8  24
HETATM   24  C12 UNL     1     -44.412   6.225 -34.205  1.00  0.00     0.135 C 
BRANCH  24  25
HETATM   25  C13 UNL     1     -45.102   6.055 -32.914  1.00  0.00     0.020 C 
BRANCH  25  26
HETATM   26  C14 UNL     1     -46.372   6.727 -32.613  1.00  0.00     0.003 C 
BRANCH  26  27
HETATM   27  C15 UNL     1     -46.378   7.976 -31.833  1.00  0.00     0.022 C 
BRANCH  27  28
HETATM   28  C16 UNL     1     -45.500   9.097 -32.225  1.00  0.00     0.148 C 
BRANCH  28  29
HETATM   29  N5  UNL     1     -46.108  10.393 -31.844  1.00  0.00    -0.304 N 
HETATM   30  C17 UNL     1     -47.166  10.511 -31.026  1.00  0.00     0.111 A 
HETATM   31  C18 UNL     1     -47.480  11.841 -30.880  1.00  0.00     0.037 A 
HETATM   32  C19 UNL     1     -46.560  12.511 -31.648  1.00  0.00     0.108 A 
HETATM   33  N6  UNL     1     -45.755  11.592 -32.208  1.00  0.00    -0.310 N 
ATOM     34  H6  UNL     1     -44.976  11.805 -32.832  1.00  0.00     0.186 HD
ENDBRANCH  28  29
ENDBRANCH  27  28
ENDBRANCH  26  27
ENDBRANCH  25  26
ENDBRANCH  24  25
ENDBRANCH   8  24
TORSDOF 17
ENDMDL
MODEL 5
REMARK VINA RESULT: -6.102932961      2.754      6.197
REMARK  17 active torsions:
REMARK  status: ('A' for Active; 'I' for Inactive)
REMARK    1  A    between atoms: N1_1  and  C1_4 
REMARK    2  A    between atoms: C3_6  and  C4_7 
REMARK    3  A    between atoms: C4_7  and  C5_8 
REMARK    4  A    between atoms: C5_8  and  C6_9 
REMARK    5  A    between atoms: C6_9  and  O1_10 
REMARK    6  A    between atoms: O1_10  and  C7_11 
REMARK    7  A    between atoms: C7_11  and  C8_12 
REMARK    8  A    between atoms: C8_12  and  N2_13 
REMARK    9  A    between atoms: N2_13  and  C9_15 
REMARK   10  A    between atoms: C9_15  and  C10_16 
REMARK   11  A    between atoms: C10_16  and  O2_17 
REMARK   12  A    between atoms: N4_23  and  C12_24 
REMARK   13  A    between atoms: C12_24  and  C13_25 
REMARK   14  A    between atoms: C13_25  and  C14_26 
REMARK   15  A    between atoms: C14_26  and  C15_27 
REMARK   16  A    between atoms: C15_27  and  C16_28 
REMARK   17  A    between atoms: C16_28  and  N5_29 
ROOT
HETATM    1  C1  UNL     1     -42.259   6.661 -33.071  1.00  0.00     0.106 A 
HETATM    2  C2  UNL     1     -41.065   5.993 -32.849  1.00  0.00     0.073 A 
HETATM    3  C3  UNL     1     -40.818   4.792 -33.453  1.00  0.00     0.017 A 
HETATM    4  N3  UNL     1     -41.778   4.286 -34.270  1.00  0.00    -0.312 N 
ATOM      5  H3  UNL     1     -41.624   3.392 -34.737  1.00  0.00     0.170 HD
HETATM    6  C11 UNL     1     -42.950   4.965 -34.474  1.00  0.00     0.328 A 
HETATM    7  O3  UNL     1     -43.826   4.489 -35.228  1.00  0.00    -0.246 OA
HETATM    8  N4  UNL     1     -43.173   6.131 -33.877  1.00  0.00    -0.286 N 
ENDROOT
BRANCH   3   9
HETATM    9  C4  UNL     1     -39.542   4.005 -33.238  1.00  0.00     0.059 C 
BRANCH   9  10
HETATM   10  C5  UNL     1     -39.781   2.636 -33.712  1.00  0.00     0.032 C 
BRANCH  10  11
HETATM   11  C6  UNL     1     -39.673   1.509 -32.743  1.00  0.00     0.168 C 
BRANCH  11  12
HETATM   12  O1  UNL     1     -40.773   0.908 -32.363  1.00  0.00    -0.386 OA
BRANCH  12  13
HETATM   13  C7  UNL     1     -41.207  -0.314 -32.582  1.00  0.00     0.211 C 
BRANCH  13  14
HETATM   14  C8  UNL     1     -42.655  -0.343 -33.084  1.00  0.00     0.081 C 
BRANCH  14  15
HETATM   15  N2  UNL     1     -43.016  -1.430 -33.891  1.00  0.00    -0.398 N 
ATOM     16  H2  UNL     1     -43.283  -1.300 -34.867  1.00  0.00     0.158 HD
BRANCH  15  17
HETATM   17  C9  UNL     1     -42.993  -2.715 -33.296  1.00  0.00     0.144 C 
BRANCH  17  18
HETATM   18  C10 UNL     1     -44.053  -2.801 -32.189  1.00  0.00     0.183 C 
BRANCH  18  19
HETATM   19  O2  UNL     1     -44.131  -4.131 -31.779  1.00  0.00    -0.399 OA
ATOM     20  H2  UNL     1     -44.517  -4.143 -30.911  1.00  0.00     0.209 HD
ENDBRANCH  18  19
ENDBRANCH  17  18
ENDBRANCH  15  17
ENDBRANCH  14  15
ENDBRANCH  13  14
ENDBRANCH  12  13
ENDBRANCH  11  12
ENDBRANCH  10  11
ENDBRANCH   9  10
ENDBRANCH   3   9
BRANCH   1  21
HETATM   21  N1  UNL     1     -42.468   7.813 -32.476  1.00  0.00    -0.385 N 
ATOM     22  H12 UNL     1     -42.569   7.870 -31.463  1.00  0.00     0.157 HD
ATOM     23  H11 UNL     1     -42.528   8.660 -33.040  1.00  0.00     0.157 HD
ENDBRANCH   1  21
BRANCH   8  24
HETATM   24  C12 UNL     1     -44.442   6.867 -34.094  1.00  0.00     0.135 C 
BRANCH  24  25
HETATM   25  C13 UNL     1     -45.403   6.336 -33.112  1.00  0.00     0.020 C 
BRANCH  25  26
HETATM   26  C14 UNL     1     -46.131   7.209 -32.181  1.00  0.00     0.003 C 
BRANCH  26  27
HETATM   27  C15 UNL     1     -45.943   8.668 -32.241  1.00  0.00     0.022 C 
BRANCH  27  28
HETATM   28  C16 UNL     1     -46.250   9.502 -31.062  1.00  0.00     0.148 C 
BRANCH  28  29
HETATM   29  N5  UNL     1     -46.294  10.936 -31.435  1.00  0.00    -0.304 N 
HETATM   30  C17 UNL     1     -47.139  11.825 -30.888  1.00  0.00     0.111 A 
HETATM   31  C18 UNL     1     -46.925  13.059 -31.452  1.00  0.00     0.037 A 
HETATM   32  C19 UNL     1     -45.914  12.866 -32.361  1.00  0.00     0.108 A 
HETATM   33  N6  UNL     1     -45.569  11.568 -32.312  1.00  0.00    -0.310 N 
ATOM     34  H6  UNL     1     -44.841  11.138 -32.883  1.00  0.00     0.186 HD
ENDBRANCH  28  29
ENDBRANCH  27  28
ENDBRANCH  26  27
ENDBRANCH  25  26
ENDBRANCH  24  25
ENDBRANCH   8  24
TORSDOF 17
ENDMDL
