MODEL 1
REMARK VINA RESULT: -6.248788792      0.000      0.000
REMARK  10 active torsions:
REMARK  status: ('A' for Active; 'I' for Inactive)
REMARK    1  A    between atoms: N1_2  and  C2_3 
REMARK    2  A    between atoms: N1_2  and  C8_11 
REMARK    3  A    between atoms: C2_3  and  C3_4 
REMARK    4  A    between atoms: C8_11  and  O1_12 
REMARK    5  A    between atoms: C8_11  and  C9_14 
REMARK    6  A    between atoms: C11_16  and  C12_17 
REMARK    7  A    between atoms: C14_23  and  C15_24 
REMARK    8  A    between atoms: N5_25  and  N6_27 
REMARK    9  A    between atoms: N6_27  and  C16_29 
REMARK   10  A    between atoms: C18_33  and  C19_34 
ROOT
HETATM    1  C9  UNL     1      -2.067  15.826  -4.388  1.00  0.00     0.016 A 
HETATM    2  C10 UNL     1      -2.533  14.699  -4.995  1.00  0.00     0.031 A 
HETATM    3  C11 UNL     1      -2.433  13.399  -4.441  1.00  0.00     0.017 A 
HETATM    4  C13 UNL     1      -1.851  13.269  -3.223  1.00  0.00    -0.001 A 
HETATM    5  C14 UNL     1      -1.789  12.046  -2.605  1.00  0.00    -0.006 A 
HETATM    6  C17 UNL     1      -1.189  11.947  -1.331  1.00  0.00     0.026 A 
HETATM    7  C18 UNL     1      -0.686  13.042  -0.702  1.00  0.00    -0.024 A 
HETATM    8  C25 UNL     1      -0.767  14.267  -1.311  1.00  0.00     0.024 A 
HETATM    9  C26 UNL     1      -1.351  14.408  -2.570  1.00  0.00    -0.022 A 
HETATM   10  C27 UNL     1      -1.456  15.644  -3.136  1.00  0.00     0.028 A 
ENDROOT
BRANCH   1  11
HETATM   11  C8  UNL     1      -2.152  17.171  -4.897  1.00  0.00     0.148 C 
BRANCH  11  12
HETATM   12  N1  UNL     1      -1.468  17.871  -5.853  1.00  0.00    -0.360 N 
HETATM   13  C1  UNL     1      -0.184  18.574  -5.437  1.00  0.00     0.152 C 
BRANCH  12  14
HETATM   14  C2  UNL     1      -1.778  18.062  -7.224  1.00  0.00     0.181 C 
BRANCH  14  15
HETATM   15  C3  UNL     1      -2.101  16.748  -7.848  1.00  0.00     0.027 A 
HETATM   16  C4  UNL     1      -1.139  15.827  -8.195  1.00  0.00     0.027 A 
HETATM   17  C5  UNL     1      -1.487  14.638  -8.763  1.00  0.00     0.003 A 
HETATM   18  C6  UNL     1      -2.812  14.330  -9.003  1.00  0.00     0.017 A 
HETATM   19  C7  UNL     1      -3.742  15.264  -8.647  1.00  0.00     0.088 A 
HETATM   20  N2  UNL     1      -3.399  16.435  -8.088  1.00  0.00    -0.368 N 
ATOM     21  H2  UNL     1      -4.129  17.102  -7.838  1.00  0.00     0.165 HD
ENDBRANCH  14  15
ENDBRANCH  12  14
ENDBRANCH  11  12
BRANCH  11  22
HETATM   22  O1  UNL     1      -3.097  17.890  -4.318  1.00  0.00    -0.346 OA
ATOM     23  H1  UNL     1      -3.739  17.356  -3.867  1.00  0.00     0.219 HD
ENDBRANCH  11  22
ENDBRANCH   1  11
BRANCH   3  24
HETATM   24  C12 UNL     1      -2.531  12.326  -5.430  1.00  0.00     0.121 C 
HETATM   25  N3  UNL     1      -3.668  12.003  -5.903  1.00  0.00    -0.387 N 
ATOM     26  H32 UNL     1      -4.478  12.379  -5.411  1.00  0.00     0.157 HD
ATOM     27  H31 UNL     1      -3.736  11.254  -6.593  1.00  0.00     0.157 HD
HETATM   28  N4  UNL     1      -1.410  11.804  -6.111  1.00  0.00    -0.082 NA
ENDBRANCH   3  24
BRANCH   5  29
HETATM   29  C15 UNL     1      -2.620  10.925  -3.007  1.00  0.00     0.119 C 
HETATM   30  N5  UNL     1      -2.974  10.062  -2.122  1.00  0.00    -0.309 N 
ATOM     31  H5  UNL     1      -2.646  10.213  -1.168  1.00  0.00     0.186 HD
BRANCH  30  32
HETATM   32  N6  UNL     1      -3.752   8.958  -2.347  1.00  0.00    -0.279 N 
ATOM     33  H6  UNL     1      -3.757   8.527  -3.271  1.00  0.00     0.189 HD
BRANCH  32  34
HETATM   34  C16 UNL     1      -4.545   8.410  -1.320  1.00  0.00     0.199 C 
HETATM   35  N7  UNL     1      -5.746   7.673  -1.600  1.00  0.00    -0.068 NA
HETATM   36  S1  UNL     1      -4.080   8.621   0.227  1.00  0.00    -0.043 SA
ENDBRANCH  32  34
ENDBRANCH  30  32
ENDBRANCH   5  29
BRANCH   7  37
HETATM   37  C19 UNL     1      -0.045  12.956   0.632  1.00  0.00    -0.026 A 
HETATM   38  C20 UNL     1       0.701  14.020   1.093  1.00  0.00     0.012 A 
HETATM   39  C21 UNL     1       1.309  13.976   2.321  1.00  0.00     0.001 A 
HETATM   40  C22 UNL     1       1.170  12.838   3.114  1.00  0.00     0.000 A 
HETATM   41  C23 UNL     1       0.420  11.777   2.645  1.00  0.00     0.001 A 
HETATM   42  C24 UNL     1      -0.180  11.839   1.416  1.00  0.00     0.012 A 
ENDBRANCH   7  37
TORSDOF 10
ENDMDL
MODEL 2
REMARK VINA RESULT: -6.187501667      1.885      3.406
REMARK  10 active torsions:
REMARK  status: ('A' for Active; 'I' for Inactive)
REMARK    1  A    between atoms: N1_2  and  C2_3 
REMARK    2  A    between atoms: N1_2  and  C8_11 
REMARK    3  A    between atoms: C2_3  and  C3_4 
REMARK    4  A    between atoms: C8_11  and  O1_12 
REMARK    5  A    between atoms: C8_11  and  C9_14 
REMARK    6  A    between atoms: C11_16  and  C12_17 
REMARK    7  A    between atoms: C14_23  and  C15_24 
REMARK    8  A    between atoms: N5_25  and  N6_27 
REMARK    9  A    between atoms: N6_27  and  C16_29 
REMARK   10  A    between atoms: C18_33  and  C19_34 
ROOT
HETATM    1  C9  UNL     1      -2.589  12.775  -4.727  1.00  0.00     0.016 A 
HETATM    2  C10 UNL     1      -2.934  11.553  -4.233  1.00  0.00     0.031 A 
HETATM    3  C11 UNL     1      -2.580  11.089  -2.942  1.00  0.00     0.017 A 
HETATM    4  C13 UNL     1      -1.867  11.919  -2.141  1.00  0.00    -0.001 A 
HETATM    5  C14 UNL     1      -1.556  11.553  -0.856  1.00  0.00    -0.006 A 
HETATM    6  C17 UNL     1      -0.824  12.445  -0.043  1.00  0.00     0.026 A 
HETATM    7  C18 UNL     1      -0.435  13.662  -0.506  1.00  0.00    -0.024 A 
HETATM    8  C25 UNL     1      -0.764  14.036  -1.782  1.00  0.00     0.024 A 
HETATM    9  C26 UNL     1      -1.485  13.184  -2.619  1.00  0.00    -0.022 A 
HETATM   10  C27 UNL     1      -1.835  13.595  -3.871  1.00  0.00     0.028 A 
ENDROOT
BRANCH   1  11
HETATM   11  C8  UNL     1      -2.930  13.303  -6.023  1.00  0.00     0.148 C 
BRANCH  11  12
HETATM   12  N1  UNL     1      -2.255  14.042  -6.956  1.00  0.00    -0.360 N 
HETATM   13  C1  UNL     1      -1.243  13.324  -7.837  1.00  0.00     0.152 C 
BRANCH  12  14
HETATM   14  C2  UNL     1      -2.344  15.429  -7.242  1.00  0.00     0.181 C 
BRANCH  14  15
HETATM   15  C3  UNL     1      -1.811  16.208  -6.090  1.00  0.00     0.027 A 
HETATM   16  C4  UNL     1      -0.470  16.275  -5.787  1.00  0.00     0.027 A 
HETATM   17  C5  UNL     1      -0.034  17.003  -4.720  1.00  0.00     0.003 A 
HETATM   18  C6  UNL     1      -0.925  17.691  -3.920  1.00  0.00     0.017 A 
HETATM   19  C7  UNL     1      -2.248  17.605  -4.248  1.00  0.00     0.088 A 
HETATM   20  N2  UNL     1      -2.678  16.888  -5.298  1.00  0.00    -0.368 N 
ATOM     21  H2  UNL     1      -3.676  16.853  -5.504  1.00  0.00     0.165 HD
ENDBRANCH  14  15
ENDBRANCH  12  14
ENDBRANCH  11  12
BRANCH  11  22
HETATM   22  O1  UNL     1      -4.162  13.011  -6.398  1.00  0.00    -0.346 OA
ATOM     23  H1  UNL     1      -4.640  12.524  -5.738  1.00  0.00     0.219 HD
ENDBRANCH  11  22
ENDBRANCH   1  11
BRANCH   3  24
HETATM   24  C12 UNL     1      -2.610   9.633  -2.808  1.00  0.00     0.121 C 
HETATM   25  N3  UNL     1      -3.726   9.030  -2.697  1.00  0.00    -0.387 N 
ATOM     26  H32 UNL     1      -4.534   9.622  -2.504  1.00  0.00     0.157 HD
ATOM     27  H31 UNL     1      -3.747   8.015  -2.604  1.00  0.00     0.157 HD
HETATM   28  N4  UNL     1      -1.492   8.814  -3.076  1.00  0.00    -0.082 NA
ENDBRANCH   3  24
BRANCH   5  29
HETATM   29  C15 UNL     1      -2.240  10.475  -0.164  1.00  0.00     0.119 C 
HETATM   30  N5  UNL     1      -3.299  10.744   0.515  1.00  0.00    -0.309 N 
ATOM     31  H5  UNL     1      -3.607  11.716   0.533  1.00  0.00     0.186 HD
BRANCH  30  32
HETATM   32  N6  UNL     1      -4.050   9.840   1.217  1.00  0.00    -0.279 N 
ATOM     33  H6  UNL     1      -4.579  10.151   2.031  1.00  0.00     0.189 HD
BRANCH  32  34
HETATM   34  C16 UNL     1      -4.103   8.486   0.830  1.00  0.00     0.199 C 
HETATM   35  N7  UNL     1      -4.991   8.025  -0.201  1.00  0.00    -0.068 NA
HETATM   36  S1  UNL     1      -3.126   7.418   1.580  1.00  0.00    -0.043 SA
ENDBRANCH  32  34
ENDBRANCH  30  32
ENDBRANCH   5  29
BRANCH   7  37
HETATM   37  C19 UNL     1       0.341  14.609   0.331  1.00  0.00    -0.026 A 
HETATM   38  C20 UNL     1       0.797  14.201   1.566  1.00  0.00     0.012 A 
HETATM   39  C21 UNL     1       1.517  15.049   2.368  1.00  0.00     0.001 A 
HETATM   40  C22 UNL     1       1.790  16.342   1.926  1.00  0.00     0.000 A 
HETATM   41  C23 UNL     1       1.330  16.743   0.687  1.00  0.00     0.001 A 
HETATM   42  C24 UNL     1       0.614  15.882  -0.100  1.00  0.00     0.012 A 
ENDBRANCH   7  37
TORSDOF 10
ENDMDL
MODEL 3
REMARK VINA RESULT: -6.176424106      1.951      3.354
REMARK  10 active torsions:
REMARK  status: ('A' for Active; 'I' for Inactive)
REMARK    1  A    between atoms: N1_2  and  C2_3 
REMARK    2  A    between atoms: N1_2  and  C8_11 
REMARK    3  A    between atoms: C2_3  and  C3_4 
REMARK    4  A    between atoms: C8_11  and  O1_12 
REMARK    5  A    between atoms: C8_11  and  C9_14 
REMARK    6  A    between atoms: C11_16  and  C12_17 
REMARK    7  A    between atoms: C14_23  and  C15_24 
REMARK    8  A    between atoms: N5_25  and  N6_27 
REMARK    9  A    between atoms: N6_27  and  C16_29 
REMARK   10  A    between atoms: C18_33  and  C19_34 
ROOT
HETATM    1  C9  UNL     1      -2.343  14.019  -4.046  1.00  0.00     0.016 A 
HETATM    2  C10 UNL     1      -2.721  12.721  -3.884  1.00  0.00     0.031 A 
HETATM    3  C11 UNL     1      -2.365  11.924  -2.768  1.00  0.00     0.017 A 
HETATM    4  C13 UNL     1      -1.614  12.494  -1.793  1.00  0.00    -0.001 A 
HETATM    5  C14 UNL     1      -1.298  11.794  -0.656  1.00  0.00    -0.006 A 
HETATM    6  C17 UNL     1      -0.527  12.421   0.347  1.00  0.00     0.026 A 
HETATM    7  C18 UNL     1      -0.105  13.706   0.212  1.00  0.00    -0.024 A 
HETATM    8  C25 UNL     1      -0.439  14.411  -0.914  1.00  0.00     0.024 A 
HETATM    9  C26 UNL     1      -1.199  13.829  -1.929  1.00  0.00    -0.022 A 
HETATM   10  C27 UNL     1      -1.552  14.564  -3.022  1.00  0.00     0.028 A 
ENDROOT
BRANCH   1  11
HETATM   11  C8  UNL     1      -2.685  14.879  -5.151  1.00  0.00     0.148 C 
BRANCH  11  12
HETATM   12  N1  UNL     1      -1.958  15.531  -6.109  1.00  0.00    -0.360 N 
HETATM   13  C1  UNL     1      -1.081  14.694  -7.029  1.00  0.00     0.152 C 
BRANCH  12  14
HETATM   14  C2  UNL     1      -1.878  16.919  -6.391  1.00  0.00     0.181 C 
BRANCH  14  15
HETATM   15  C3  UNL     1      -1.591  17.664  -5.133  1.00  0.00     0.027 A 
HETATM   16  C4  UNL     1      -0.370  17.621  -4.499  1.00  0.00     0.027 A 
HETATM   17  C5  UNL     1      -0.158  18.323  -3.349  1.00  0.00     0.003 A 
HETATM   18  C6  UNL     1      -1.162  19.093  -2.795  1.00  0.00     0.017 A 
HETATM   19  C7  UNL     1      -2.361  19.115  -3.448  1.00  0.00     0.088 A 
HETATM   20  N2  UNL     1      -2.569  18.424  -4.580  1.00  0.00    -0.368 N 
ATOM     21  H2  UNL     1      -3.482  18.471  -5.033  1.00  0.00     0.165 HD
ENDBRANCH  14  15
ENDBRANCH  12  14
ENDBRANCH  11  12
BRANCH  11  22
HETATM   22  O1  UNL     1      -3.984  15.085  -5.270  1.00  0.00    -0.346 OA
ATOM     23  H1  UNL     1      -4.445  14.328  -5.612  1.00  0.00     0.219 HD
ENDBRANCH  11  22
ENDBRANCH   1  11
BRANCH   3  24
HETATM   24  C12 UNL     1      -2.440  10.486  -3.020  1.00  0.00     0.121 C 
HETATM   25  N3  UNL     1      -3.545   9.872  -2.868  1.00  0.00    -0.387 N 
ATOM     26  H32 UNL     1      -4.276  10.388  -2.380  1.00  0.00     0.157 HD
ATOM     27  H31 UNL     1      -3.597   8.869  -3.045  1.00  0.00     0.157 HD
HETATM   28  N4  UNL     1      -1.428   9.771  -3.697  1.00  0.00    -0.082 NA
ENDBRANCH   3  24
BRANCH   5  29
HETATM   29  C15 UNL     1      -2.007  10.592  -0.257  1.00  0.00     0.119 C 
HETATM   30  N5  UNL     1      -3.103  10.705   0.407  1.00  0.00    -0.309 N 
ATOM     31  H5  UNL     1      -3.421  11.650   0.621  1.00  0.00     0.186 HD
BRANCH  30  32
HETATM   32  N6  UNL     1      -3.881   9.670   0.850  1.00  0.00    -0.279 N 
ATOM     33  H6  UNL     1      -4.096   8.897   0.220  1.00  0.00     0.189 HD
BRANCH  32  34
HETATM   34  C16 UNL     1      -4.388   9.656   2.164  1.00  0.00     0.199 C 
HETATM   35  N7  UNL     1      -5.486   8.812   2.546  1.00  0.00    -0.068 NA
HETATM   36  S1  UNL     1      -3.705  10.630   3.279  1.00  0.00    -0.043 SA
ENDBRANCH  32  34
ENDBRANCH  30  32
ENDBRANCH   5  29
BRANCH   7  37
HETATM   37  C19 UNL     1       0.712  14.377   1.251  1.00  0.00    -0.026 A 
HETATM   38  C20 UNL     1       1.171  15.658   1.025  1.00  0.00     0.012 A 
HETATM   39  C21 UNL     1       1.931  16.310   1.962  1.00  0.00     0.001 A 
HETATM   40  C22 UNL     1       2.242  15.668   3.159  1.00  0.00     0.000 A 
HETATM   41  C23 UNL     1       1.778  14.385   3.377  1.00  0.00     0.001 A 
HETATM   42  C24 UNL     1       1.020  13.750   2.430  1.00  0.00     0.012 A 
ENDBRANCH   7  37
TORSDOF 10
ENDMDL
MODEL 4
REMARK VINA RESULT: -6.158170023      3.560      6.164
REMARK  10 active torsions:
REMARK  status: ('A' for Active; 'I' for Inactive)
REMARK    1  A    between atoms: N1_2  and  C2_3 
REMARK    2  A    between atoms: N1_2  and  C8_11 
REMARK    3  A    between atoms: C2_3  and  C3_4 
REMARK    4  A    between atoms: C8_11  and  O1_12 
REMARK    5  A    between atoms: C8_11  and  C9_14 
REMARK    6  A    between atoms: C11_16  and  C12_17 
REMARK    7  A    between atoms: C14_23  and  C15_24 
REMARK    8  A    between atoms: N5_25  and  N6_27 
REMARK    9  A    between atoms: N6_27  and  C16_29 
REMARK   10  A    between atoms: C18_33  and  C19_34 
ROOT
HETATM    1  C9  UNL     1       0.083  17.020  -2.038  1.00  0.00     0.016 A 
HETATM    2  C10 UNL     1      -0.591  17.373  -3.167  1.00  0.00     0.031 A 
HETATM    3  C11 UNL     1      -1.479  16.516  -3.864  1.00  0.00     0.017 A 
HETATM    4  C13 UNL     1      -1.681  15.271  -3.367  1.00  0.00    -0.001 A 
HETATM    5  C14 UNL     1      -2.582  14.421  -3.958  1.00  0.00    -0.006 A 
HETATM    6  C17 UNL     1      -2.780  13.136  -3.407  1.00  0.00     0.026 A 
HETATM    7  C18 UNL     1      -2.106  12.733  -2.298  1.00  0.00    -0.024 A 
HETATM    8  C25 UNL     1      -1.222  13.589  -1.697  1.00  0.00     0.024 A 
HETATM    9  C26 UNL     1      -0.996  14.867  -2.209  1.00  0.00    -0.022 A 
HETATM   10  C27 UNL     1      -0.142  15.716  -1.568  1.00  0.00     0.028 A 
ENDROOT
BRANCH   1  11
HETATM   11  C8  UNL     1       0.986  17.852  -1.284  1.00  0.00     0.148 C 
BRANCH  11  12
HETATM   12  N1  UNL     1       0.818  18.791  -0.303  1.00  0.00    -0.360 N 
HETATM   13  C1  UNL     1       0.865  18.325   1.145  1.00  0.00     0.152 C 
BRANCH  12  14
HETATM   14  C2  UNL     1       0.589  20.187  -0.422  1.00  0.00     0.181 C 
BRANCH  14  15
HETATM   15  C3  UNL     1      -0.685  20.420  -1.158  1.00  0.00     0.027 A 
HETATM   16  C4  UNL     1      -1.921  20.136  -0.624  1.00  0.00     0.027 A 
HETATM   17  C5  UNL     1      -3.058  20.368  -1.339  1.00  0.00     0.003 A 
HETATM   18  C6  UNL     1      -2.996  20.893  -2.615  1.00  0.00     0.017 A 
HETATM   19  C7  UNL     1      -1.755  21.164  -3.116  1.00  0.00     0.088 A 
HETATM   20  N2  UNL     1      -0.636  20.935  -2.412  1.00  0.00    -0.368 N 
ATOM     21  H2  UNL     1       0.270  21.153  -2.827  1.00  0.00     0.165 HD
ENDBRANCH  14  15
ENDBRANCH  12  14
ENDBRANCH  11  12
BRANCH  11  22
HETATM   22  O1  UNL     1       2.254  17.672  -1.605  1.00  0.00    -0.346 OA
ATOM     23  H1  UNL     1       2.372  17.004  -2.270  1.00  0.00     0.219 HD
ENDBRANCH  11  22
ENDBRANCH   1  11
BRANCH   3  24
HETATM   24  C12 UNL     1      -1.693  16.895  -5.259  1.00  0.00     0.121 C 
HETATM   25  N3  UNL     1      -2.323  17.967  -5.535  1.00  0.00    -0.387 N 
ATOM     26  H32 UNL     1      -2.822  18.402  -4.760  1.00  0.00     0.157 HD
ATOM     27  H31 UNL     1      -2.472  18.231  -6.509  1.00  0.00     0.157 HD
HETATM   28  N4  UNL     1      -1.003  16.293  -6.334  1.00  0.00    -0.082 NA
ENDBRANCH   3  24
BRANCH   5  29
HETATM   29  C15 UNL     1      -3.603  14.884  -4.879  1.00  0.00     0.119 C 
HETATM   30  N5  UNL     1      -3.756  14.272  -6.000  1.00  0.00    -0.309 N 
ATOM     31  H5  UNL     1      -3.141  13.480  -6.185  1.00  0.00     0.186 HD
BRANCH  30  32
HETATM   32  N6  UNL     1      -4.672  14.589  -6.967  1.00  0.00    -0.279 N 
ATOM     33  H6  UNL     1      -5.528  15.077  -6.707  1.00  0.00     0.189 HD
BRANCH  32  34
HETATM   34  C16 UNL     1      -4.448  14.251  -8.316  1.00  0.00     0.199 C 
HETATM   35  N7  UNL     1      -5.480  14.363  -9.309  1.00  0.00    -0.068 NA
HETATM   36  S1  UNL     1      -2.972  13.717  -8.756  1.00  0.00    -0.043 SA
ENDBRANCH  32  34
ENDBRANCH  30  32
ENDBRANCH   5  29
BRANCH   7  37
HETATM   37  C19 UNL     1      -2.295  11.384  -1.711  1.00  0.00    -0.026 A 
HETATM   38  C20 UNL     1      -2.751  10.358  -2.511  1.00  0.00     0.012 A 
HETATM   39  C21 UNL     1      -2.939   9.098  -2.003  1.00  0.00     0.001 A 
HETATM   40  C22 UNL     1      -2.665   8.854  -0.659  1.00  0.00     0.000 A 
HETATM   41  C23 UNL     1      -2.208   9.887   0.135  1.00  0.00     0.001 A 
HETATM   42  C24 UNL     1      -2.026  11.139  -0.389  1.00  0.00     0.012 A 
ENDBRANCH   7  37
TORSDOF 10
ENDMDL
MODEL 5
REMARK VINA RESULT: -6.142829554      1.781      3.510
REMARK  10 active torsions:
REMARK  status: ('A' for Active; 'I' for Inactive)
REMARK    1  A    between atoms: N1_2  and  C2_3 
REMARK    2  A    between atoms: N1_2  and  C8_11 
REMARK    3  A    between atoms: C2_3  and  C3_4 
REMARK    4  A    between atoms: C8_11  and  O1_12 
REMARK    5  A    between atoms: C8_11  and  C9_14 
REMARK    6  A    between atoms: C11_16  and  C12_17 
REMARK    7  A    between atoms: C14_23  and  C15_24 
REMARK    8  A    between atoms: N5_25  and  N6_27 
REMARK    9  A    between atoms: N6_27  and  C16_29 
REMARK   10  A    between atoms: C18_33  and  C19_34 
ROOT
HETATM    1  C9  UNL     1      -1.839  15.861  -3.986  1.00  0.00     0.016 A 
HETATM    2  C10 UNL     1      -2.329  14.775  -4.646  1.00  0.00     0.031 A 
HETATM    3  C11 UNL     1      -2.281  13.451  -4.143  1.00  0.00     0.017 A 
HETATM    4  C13 UNL     1      -1.726  13.255  -2.922  1.00  0.00    -0.001 A 
HETATM    5  C14 UNL     1      -1.714  12.006  -2.353  1.00  0.00    -0.006 A 
HETATM    6  C17 UNL     1      -1.140  11.838  -1.073  1.00  0.00     0.026 A 
HETATM    7  C18 UNL     1      -0.614  12.889  -0.393  1.00  0.00    -0.024 A 
HETATM    8  C25 UNL     1      -0.645  14.139  -0.952  1.00  0.00     0.024 A 
HETATM    9  C26 UNL     1      -1.201  14.349  -2.214  1.00  0.00    -0.022 A 
HETATM   10  C27 UNL     1      -1.256  15.610  -2.733  1.00  0.00     0.028 A 
ENDROOT
BRANCH   1  11
HETATM   11  C8  UNL     1      -1.871  17.228  -4.442  1.00  0.00     0.148 C 
BRANCH  11  12
HETATM   12  N1  UNL     1      -0.912  18.128  -4.816  1.00  0.00    -0.360 N 
HETATM   13  C1  UNL     1       0.133  17.676  -5.826  1.00  0.00     0.152 C 
BRANCH  12  14
HETATM   14  C2  UNL     1      -0.719  19.468  -4.392  1.00  0.00     0.181 C 
BRANCH  14  15
HETATM   15  C3  UNL     1      -1.112  19.596  -2.960  1.00  0.00     0.027 A 
HETATM   16  C4  UNL     1      -0.327  19.142  -1.925  1.00  0.00     0.027 A 
HETATM   17  C5  UNL     1      -0.732  19.284  -0.631  1.00  0.00     0.003 A 
HETATM   18  C6  UNL     1      -1.938  19.887  -0.329  1.00  0.00     0.017 A 
HETATM   19  C7  UNL     1      -2.693  20.327  -1.378  1.00  0.00     0.088 A 
HETATM   20  N2  UNL     1      -2.294  20.187  -2.652  1.00  0.00    -0.368 N 
ATOM     21  H2  UNL     1      -2.891  20.532  -3.404  1.00  0.00     0.165 HD
ENDBRANCH  14  15
ENDBRANCH  12  14
ENDBRANCH  11  12
BRANCH  11  22
HETATM   22  O1  UNL     1      -3.093  17.724  -4.517  1.00  0.00    -0.346 OA
ATOM     23  H1  UNL     1      -3.699  17.140  -4.958  1.00  0.00     0.219 HD
ENDBRANCH  11  22
ENDBRANCH   1  11
BRANCH   3  24
HETATM   24  C12 UNL     1      -2.395  12.423  -5.176  1.00  0.00     0.121 C 
HETATM   25  N3  UNL     1      -3.540  12.116  -5.640  1.00  0.00    -0.387 N 
ATOM     26  H32 UNL     1      -4.341  12.467  -5.116  1.00  0.00     0.157 HD
ATOM     27  H31 UNL     1      -3.619  11.398  -6.361  1.00  0.00     0.157 HD
HETATM   28  N4  UNL     1      -1.286  11.936  -5.901  1.00  0.00    -0.082 NA
ENDBRANCH   3  24
BRANCH   5  29
HETATM   29  C15 UNL     1      -2.572  10.930  -2.814  1.00  0.00     0.119 C 
HETATM   30  N5  UNL     1      -3.015  10.076  -1.960  1.00  0.00    -0.309 N 
ATOM     31  H5  UNL     1      -2.735  10.202  -0.988  1.00  0.00     0.186 HD
BRANCH  30  32
HETATM   32  N6  UNL     1      -3.830   9.013  -2.241  1.00  0.00    -0.279 N 
ATOM     33  H6  UNL     1      -3.880   8.656  -3.195  1.00  0.00     0.189 HD
BRANCH  32  34
HETATM   34  C16 UNL     1      -4.601   8.404  -1.231  1.00  0.00     0.199 C 
HETATM   35  N7  UNL     1      -5.757   7.606  -1.535  1.00  0.00    -0.068 NA
HETATM   36  S1  UNL     1      -4.164   8.617   0.324  1.00  0.00    -0.043 SA
ENDBRANCH  32  34
ENDBRANCH  30  32
ENDBRANCH   5  29
BRANCH   7  37
HETATM   37  C19 UNL     1      -0.001  12.729   0.948  1.00  0.00    -0.026 A 
HETATM   38  C20 UNL     1      -0.266  11.591   1.680  1.00  0.00     0.012 A 
HETATM   39  C21 UNL     1       0.282  11.409   2.923  1.00  0.00     0.001 A 
HETATM   40  C22 UNL     1       1.118  12.390   3.454  1.00  0.00     0.000 A 
HETATM   41  C23 UNL     1       1.379  13.526   2.714  1.00  0.00     0.001 A 
HETATM   42  C24 UNL     1       0.823  13.691   1.474  1.00  0.00     0.012 A 
ENDBRANCH   7  37
TORSDOF 10
ENDMDL
