MODEL 1
REMARK VINA RESULT: -6.361528741      0.000      0.000
REMARK  11 active torsions:
REMARK  status: ('A' for Active; 'I' for Inactive)
REMARK    1  A    between atoms: C5_5  and  C6_6 
REMARK    2  A    between atoms: C6_6  and  N1_7 
REMARK    3  A    between atoms: N1_7  and  C7_9 
REMARK    4  A    between atoms: C12_16  and  N3_17 
REMARK    5  A    between atoms: N3_17  and  C13_19 
REMARK    6  A    between atoms: C13_19  and  C14_20 
REMARK    7  A    between atoms: C14_20  and  O1_21 
REMARK    8  A    between atoms: C15_25  and  N5_26 
REMARK    9  A    between atoms: N5_26  and  C16_28 
REMARK   10  A    between atoms: C16_28  and  C17_29 
REMARK   11  A    between atoms: C20_32  and  C21_33 
ROOT
HETATM    1  C7  UNL     1      -2.746  12.545  -4.379  1.00  0.00     0.130 A 
HETATM    2  N2  UNL     1      -2.688  11.353  -4.989  1.00  0.00    -0.345 N 
ATOM      3  H2  UNL     1      -2.655  10.495  -4.437  1.00  0.00     0.167 HD
HETATM    4  C8  UNL     1      -2.674  11.293  -6.338  1.00  0.00     0.008 A 
HETATM    5  C9  UNL     1      -2.609   9.951  -6.972  1.00  0.00     0.068 C 
HETATM    6  C10 UNL     1      -2.720  12.469  -7.074  1.00  0.00     0.042 A 
HETATM    7  C11 UNL     1      -2.780  13.699  -6.468  1.00  0.00     0.041 A 
HETATM    8  C12 UNL     1      -2.828  14.895  -7.157  1.00  0.00     0.129 A 
HETATM    9  N4  UNL     1      -2.887  16.077  -6.526  1.00  0.00    -0.176 N 
ATOM     10  H4  UNL     1      -2.923  16.945  -7.058  1.00  0.00     0.186 HD
HETATM   11  C15 UNL     1      -2.900  16.101  -5.177  1.00  0.00     0.680 A 
HETATM   12  N6  UNL     1      -2.852  14.932  -4.496  1.00  0.00    -0.187 N 
ATOM     13  H6  UNL     1      -2.861  14.963  -3.477  1.00  0.00     0.184 HD
HETATM   14  C29 UNL     1      -2.793  13.735  -5.100  1.00  0.00     0.106 A 
ENDROOT
BRANCH  11  15
HETATM   15  N5  UNL     1      -2.958  17.196  -4.516  1.00  0.00    -0.222 N 
ATOM     16  H5  UNL     1      -3.753  17.321  -3.890  1.00  0.00     0.178 HD
BRANCH  15  17
HETATM   17  C16 UNL     1      -2.000  18.259  -4.580  1.00  0.00     0.176 C 
BRANCH  17  18
HETATM   18  C17 UNL     1      -1.615  18.613  -3.198  1.00  0.00    -0.040 A 
HETATM   19  C18 UNL     1      -2.268  19.660  -2.585  1.00  0.00     0.009 A 
HETATM   20  C19 UNL     1      -1.919  20.009  -1.289  1.00  0.00     0.013 A 
HETATM   21  C20 UNL     1      -0.936  19.344  -0.584  1.00  0.00    -0.026 A 
HETATM   22  C27 UNL     1      -0.304  18.297  -1.239  1.00  0.00     0.013 A 
HETATM   23  C28 UNL     1      -0.627  17.925  -2.525  1.00  0.00     0.009 A 
BRANCH  21  24
HETATM   24  C21 UNL     1      -0.594  19.736   0.779  1.00  0.00    -0.026 A 
HETATM   25  C22 UNL     1      -0.964  20.952   1.312  1.00  0.00     0.012 A 
HETATM   26  C23 UNL     1      -0.634  21.320   2.608  1.00  0.00     0.001 A 
HETATM   27  C24 UNL     1       0.084  20.466   3.417  1.00  0.00     0.000 A 
HETATM   28  C25 UNL     1       0.458  19.246   2.892  1.00  0.00     0.001 A 
HETATM   29  C26 UNL     1       0.125  18.880   1.586  1.00  0.00     0.012 A 
ENDBRANCH  21  24
ENDBRANCH  17  18
ENDBRANCH  15  17
ENDBRANCH  11  15
BRANCH   8  30
HETATM   30  N3  UNL     1      -2.816  14.865  -8.433  1.00  0.00    -0.373 N 
ATOM     31  H3  UNL     1      -2.044  14.413  -8.924  1.00  0.00     0.161 HD
BRANCH  30  32
HETATM   32  C13 UNL     1      -3.890  15.470  -9.185  1.00  0.00     0.147 C 
BRANCH  32  33
HETATM   33  C14 UNL     1      -4.861  14.384  -9.653  1.00  0.00     0.183 C 
BRANCH  33  34
HETATM   34  O1  UNL     1      -6.025  14.445  -8.905  1.00  0.00    -0.399 OA
ATOM     35  H1  UNL     1      -6.529  13.649  -9.033  1.00  0.00     0.209 HD
ENDBRANCH  33  34
ENDBRANCH  32  33
ENDBRANCH  30  32
ENDBRANCH   8  30
BRANCH   1  36
HETATM   36  N1  UNL     1      -2.761  12.664  -3.112  1.00  0.00    -0.370 N 
ATOM     37  H1  UNL     1      -3.287  13.458  -2.749  1.00  0.00     0.161 HD
BRANCH  36  38
HETATM   38  C6  UNL     1      -2.141  11.835  -2.134  1.00  0.00     0.161 C 
BRANCH  38  39
HETATM   39  C5  UNL     1      -1.264  12.649  -1.229  1.00  0.00    -0.025 A 
HETATM   40  C4  UNL     1      -0.929  13.930  -1.615  1.00  0.00     0.012 A 
HETATM   41  C3  UNL     1      -0.124  14.686  -0.787  1.00  0.00     0.025 A 
HETATM   42  C2  UNL     1       0.360  14.211   0.415  1.00  0.00     0.005 A 
HETATM   43  C1  UNL     1       1.221  15.054   1.277  1.00  0.00     0.068 C 
HETATM   44  N7  UNL     1       0.010  12.951   0.760  1.00  0.00    -0.369 N 
HETATM   45  C30 UNL     1      -0.781  12.190  -0.040  1.00  0.00     0.096 A 
ATOM     46  H7  UNL     1       0.347  12.564   1.641  1.00  0.00     0.165 HD
ENDBRANCH  38  39
ENDBRANCH  36  38
ENDBRANCH   1  36
TORSDOF 11
ENDMDL
MODEL 2
REMARK VINA RESULT: -6.289955791      4.769      7.251
REMARK  11 active torsions:
REMARK  status: ('A' for Active; 'I' for Inactive)
REMARK    1  A    between atoms: C5_5  and  C6_6 
REMARK    2  A    between atoms: C6_6  and  N1_7 
REMARK    3  A    between atoms: N1_7  and  C7_9 
REMARK    4  A    between atoms: C12_16  and  N3_17 
REMARK    5  A    between atoms: N3_17  and  C13_19 
REMARK    6  A    between atoms: C13_19  and  C14_20 
REMARK    7  A    between atoms: C14_20  and  O1_21 
REMARK    8  A    between atoms: C15_25  and  N5_26 
REMARK    9  A    between atoms: N5_26  and  C16_28 
REMARK   10  A    between atoms: C16_28  and  C17_29 
REMARK   11  A    between atoms: C20_32  and  C21_33 
ROOT
HETATM    1  C7  UNL     1      -4.501   7.713   0.881  1.00  0.00     0.130 A 
HETATM    2  N2  UNL     1      -4.761   6.520   1.435  1.00  0.00    -0.345 N 
ATOM      3  H2  UNL     1      -5.057   6.460   2.410  1.00  0.00     0.167 HD
HETATM    4  C8  UNL     1      -4.630   5.398   0.695  1.00  0.00     0.008 A 
HETATM    5  C9  UNL     1      -4.929   4.097   1.349  1.00  0.00     0.068 C 
HETATM    6  C10 UNL     1      -4.229   5.496  -0.630  1.00  0.00     0.042 A 
HETATM    7  C11 UNL     1      -3.958   6.708  -1.215  1.00  0.00     0.041 A 
HETATM    8  C12 UNL     1      -3.556   6.857  -2.527  1.00  0.00     0.129 A 
HETATM    9  N4  UNL     1      -3.303   8.060  -3.061  1.00  0.00    -0.176 N 
ATOM     10  H4  UNL     1      -3.009   8.142  -4.034  1.00  0.00     0.186 HD
HETATM   11  C15 UNL     1      -3.443   9.162  -2.295  1.00  0.00     0.680 A 
HETATM   12  N6  UNL     1      -3.836   9.023  -1.007  1.00  0.00    -0.187 N 
ATOM     13  H6  UNL     1      -3.937   9.862  -0.437  1.00  0.00     0.184 HD
HETATM   14  C29 UNL     1      -4.097   7.831  -0.446  1.00  0.00     0.106 A 
ENDROOT
BRANCH  11  15
HETATM   15  N5  UNL     1      -3.219  10.339  -2.746  1.00  0.00    -0.222 N 
ATOM     16  H5  UNL     1      -3.954  11.034  -2.621  1.00  0.00     0.178 HD
BRANCH  15  17
HETATM   17  C16 UNL     1      -2.023  10.762  -3.411  1.00  0.00     0.176 C 
BRANCH  17  18
HETATM   18  C17 UNL     1      -1.478  11.924  -2.678  1.00  0.00    -0.040 A 
HETATM   19  C18 UNL     1      -1.452  13.145  -3.315  1.00  0.00     0.009 A 
HETATM   20  C19 UNL     1      -0.942  14.247  -2.645  1.00  0.00     0.013 A 
HETATM   21  C20 UNL     1      -0.457  14.169  -1.356  1.00  0.00    -0.026 A 
HETATM   22  C27 UNL     1      -0.500  12.920  -0.752  1.00  0.00     0.013 A 
HETATM   23  C28 UNL     1      -1.001  11.806  -1.390  1.00  0.00     0.009 A 
BRANCH  21  24
HETATM   24  C21 UNL     1       0.072  15.348  -0.680  1.00  0.00    -0.026 A 
HETATM   25  C22 UNL     1      -0.037  16.615  -1.211  1.00  0.00     0.012 A 
HETATM   26  C23 UNL     1       0.469  17.732  -0.564  1.00  0.00     0.001 A 
HETATM   27  C24 UNL     1       1.106  17.608   0.653  1.00  0.00     0.000 A 
HETATM   28  C25 UNL     1       1.219  16.344   1.193  1.00  0.00     0.001 A 
HETATM   29  C26 UNL     1       0.709  15.221   0.537  1.00  0.00     0.012 A 
ENDBRANCH  21  24
ENDBRANCH  17  18
ENDBRANCH  15  17
ENDBRANCH  11  15
BRANCH   8  30
HETATM   30  N3  UNL     1      -3.425   5.810  -3.248  1.00  0.00    -0.373 N 
ATOM     31  H3  UNL     1      -3.801   4.920  -2.923  1.00  0.00     0.161 HD
BRANCH  30  32
HETATM   32  C13 UNL     1      -2.748   5.885  -4.521  1.00  0.00     0.147 C 
BRANCH  32  33
HETATM   33  C14 UNL     1      -3.780   5.871  -5.651  1.00  0.00     0.183 C 
BRANCH  33  34
HETATM   34  O1  UNL     1      -4.025   7.167  -6.075  1.00  0.00    -0.399 OA
ATOM     35  H1  UNL     1      -4.492   7.150  -6.903  1.00  0.00     0.209 HD
ENDBRANCH  33  34
ENDBRANCH  32  33
ENDBRANCH  30  32
ENDBRANCH   8  30
BRANCH   1  36
HETATM   36  N1  UNL     1      -4.606   8.804   1.528  1.00  0.00    -0.370 N 
ATOM     37  H1  UNL     1      -4.202   9.625   1.078  1.00  0.00     0.161 HD
BRANCH  36  38
HETATM   38  C6  UNL     1      -5.212   9.030   2.797  1.00  0.00     0.161 C 
BRANCH  38  39
HETATM   39  C5  UNL     1      -4.389   9.981   3.615  1.00  0.00    -0.025 A 
HETATM   40  C4  UNL     1      -3.192  10.428   3.097  1.00  0.00     0.012 A 
HETATM   41  C3  UNL     1      -2.430  11.305   3.843  1.00  0.00     0.025 A 
HETATM   42  C2  UNL     1      -2.819  11.753   5.089  1.00  0.00     0.005 A 
HETATM   43  C1  UNL     1      -1.973  12.695   5.859  1.00  0.00     0.068 C 
HETATM   44  N7  UNL     1      -3.999  11.293   5.563  1.00  0.00    -0.369 N 
HETATM   45  C30 UNL     1      -4.764  10.430   4.846  1.00  0.00     0.096 A 
ATOM     46  H7  UNL     1      -4.322  11.601   6.480  1.00  0.00     0.165 HD
ENDBRANCH  38  39
ENDBRANCH  36  38
ENDBRANCH   1  36
TORSDOF 11
ENDMDL
MODEL 3
REMARK VINA RESULT: -6.248149198      4.723      7.208
REMARK  11 active torsions:
REMARK  status: ('A' for Active; 'I' for Inactive)
REMARK    1  A    between atoms: C5_5  and  C6_6 
REMARK    2  A    between atoms: C6_6  and  N1_7 
REMARK    3  A    between atoms: N1_7  and  C7_9 
REMARK    4  A    between atoms: C12_16  and  N3_17 
REMARK    5  A    between atoms: N3_17  and  C13_19 
REMARK    6  A    between atoms: C13_19  and  C14_20 
REMARK    7  A    between atoms: C14_20  and  O1_21 
REMARK    8  A    between atoms: C15_25  and  N5_26 
REMARK    9  A    between atoms: N5_26  and  C16_28 
REMARK   10  A    between atoms: C16_28  and  C17_29 
REMARK   11  A    between atoms: C20_32  and  C21_33 
ROOT
HETATM    1  C7  UNL     1      -4.472   7.909   0.695  1.00  0.00     0.130 A 
HETATM    2  N2  UNL     1      -4.767   6.675   1.125  1.00  0.00    -0.345 N 
ATOM      3  H2  UNL     1      -5.140   6.534   2.064  1.00  0.00     0.167 HD
HETATM    4  C8  UNL     1      -4.567   5.617   0.308  1.00  0.00     0.008 A 
HETATM    5  C9  UNL     1      -4.907   4.267   0.827  1.00  0.00     0.068 C 
HETATM    6  C10 UNL     1      -4.059   5.825  -0.967  1.00  0.00     0.042 A 
HETATM    7  C11 UNL     1      -3.752   7.082  -1.426  1.00  0.00     0.041 A 
HETATM    8  C12 UNL     1      -3.246   7.339  -2.684  1.00  0.00     0.129 A 
HETATM    9  N4  UNL     1      -2.960   8.583  -3.095  1.00  0.00    -0.176 N 
ATOM     10  H4  UNL     1      -2.588   8.745  -4.030  1.00  0.00     0.186 HD
HETATM   11  C15 UNL     1      -3.171   9.617  -2.255  1.00  0.00     0.680 A 
HETATM   12  N6  UNL     1      -3.666   9.372  -1.019  1.00  0.00    -0.187 N 
ATOM     13  H6  UNL     1      -3.820  10.161  -0.392  1.00  0.00     0.184 HD
HETATM   14  C29 UNL     1      -3.962   8.138  -0.581  1.00  0.00     0.106 A 
ENDROOT
BRANCH  11  15
HETATM   15  N5  UNL     1      -2.920  10.828  -2.588  1.00  0.00    -0.222 N 
ATOM     16  H5  UNL     1      -3.701  11.483  -2.586  1.00  0.00     0.178 HD
BRANCH  15  17
HETATM   17  C16 UNL     1      -1.636  11.339  -2.961  1.00  0.00     0.176 C 
BRANCH  17  18
HETATM   18  C17 UNL     1      -1.050  12.011  -1.783  1.00  0.00    -0.040 A 
HETATM   19  C18 UNL     1      -0.957  13.386  -1.793  1.00  0.00     0.009 A 
HETATM   20  C19 UNL     1      -0.408  14.035  -0.697  1.00  0.00     0.013 A 
HETATM   21  C20 UNL     1       0.053  13.353   0.411  1.00  0.00    -0.026 A 
HETATM   22  C27 UNL     1      -0.059  11.971   0.379  1.00  0.00     0.013 A 
HETATM   23  C28 UNL     1      -0.600  11.296  -0.693  1.00  0.00     0.009 A 
BRANCH  21  24
HETATM   24  C21 UNL     1       0.624  14.067   1.548  1.00  0.00    -0.026 A 
HETATM   25  C22 UNL     1       0.697  13.511   2.807  1.00  0.00     0.012 A 
HETATM   26  C23 UNL     1       1.240  14.195   3.884  1.00  0.00     0.001 A 
HETATM   27  C24 UNL     1       1.734  15.472   3.726  1.00  0.00     0.000 A 
HETATM   28  C25 UNL     1       1.665  16.036   2.469  1.00  0.00     0.001 A 
HETATM   29  C26 UNL     1       1.117  15.345   1.387  1.00  0.00     0.012 A 
ENDBRANCH  21  24
ENDBRANCH  17  18
ENDBRANCH  15  17
ENDBRANCH  11  15
BRANCH   8  30
HETATM   30  N3  UNL     1      -3.048   6.356  -3.476  1.00  0.00    -0.373 N 
ATOM     31  H3  UNL     1      -2.279   5.710  -3.300  1.00  0.00     0.161 HD
BRANCH  30  32
HETATM   32  C13 UNL     1      -3.909   6.157  -4.617  1.00  0.00     0.147 C 
BRANCH  32  33
HETATM   33  C14 UNL     1      -3.143   6.491  -5.900  1.00  0.00     0.183 C 
BRANCH  33  34
HETATM   34  O1  UNL     1      -3.263   7.843  -6.176  1.00  0.00    -0.399 OA
ATOM     35  H1  UNL     1      -2.599   8.327  -5.698  1.00  0.00     0.209 HD
ENDBRANCH  33  34
ENDBRANCH  32  33
ENDBRANCH  30  32
ENDBRANCH   8  30
BRANCH   1  36
HETATM   36  N1  UNL     1      -4.638   8.943   1.418  1.00  0.00    -0.370 N 
ATOM     37  H1  UNL     1      -4.421   9.834   0.973  1.00  0.00     0.161 HD
BRANCH  36  38
HETATM   38  C6  UNL     1      -5.086   9.020   2.768  1.00  0.00     0.161 C 
BRANCH  38  39
HETATM   39  C5  UNL     1      -4.260  10.003   3.544  1.00  0.00    -0.025 A 
HETATM   40  C4  UNL     1      -3.046  10.399   3.023  1.00  0.00     0.012 A 
HETATM   41  C3  UNL     1      -2.282  11.306   3.731  1.00  0.00     0.025 A 
HETATM   42  C2  UNL     1      -2.685  11.832   4.941  1.00  0.00     0.005 A 
HETATM   43  C1  UNL     1      -1.836  12.803   5.670  1.00  0.00     0.068 C 
HETATM   44  N7  UNL     1      -3.881  11.420   5.419  1.00  0.00    -0.369 N 
HETATM   45  C30 UNL     1      -4.649  10.530   4.740  1.00  0.00     0.096 A 
ATOM     46  H7  UNL     1      -4.214  11.787   6.311  1.00  0.00     0.165 HD
ENDBRANCH  38  39
ENDBRANCH  36  38
ENDBRANCH   1  36
TORSDOF 11
ENDMDL
MODEL 4
REMARK VINA RESULT: -6.210171371      6.640     13.378
REMARK  11 active torsions:
REMARK  status: ('A' for Active; 'I' for Inactive)
REMARK    1  A    between atoms: C5_5  and  C6_6 
REMARK    2  A    between atoms: C6_6  and  N1_7 
REMARK    3  A    between atoms: N1_7  and  C7_9 
REMARK    4  A    between atoms: C12_16  and  N3_17 
REMARK    5  A    between atoms: N3_17  and  C13_19 
REMARK    6  A    between atoms: C13_19  and  C14_20 
REMARK    7  A    between atoms: C14_20  and  O1_21 
REMARK    8  A    between atoms: C15_25  and  N5_26 
REMARK    9  A    between atoms: N5_26  and  C16_28 
REMARK   10  A    between atoms: C16_28  and  C17_29 
REMARK   11  A    between atoms: C20_32  and  C21_33 
ROOT
HETATM    1  C7  UNL     1      -3.645   9.028  -0.795  1.00  0.00     0.130 A 
HETATM    2  N2  UNL     1      -3.893   9.886   0.205  1.00  0.00    -0.345 N 
ATOM      3  H2  UNL     1      -3.745  10.886   0.071  1.00  0.00     0.167 HD
HETATM    4  C8  UNL     1      -4.340   9.417   1.390  1.00  0.00     0.008 A 
HETATM    5  C9  UNL     1      -4.602  10.403   2.471  1.00  0.00     0.068 C 
HETATM    6  C10 UNL     1      -4.537   8.053   1.555  1.00  0.00     0.042 A 
HETATM    7  C11 UNL     1      -4.289   7.160   0.543  1.00  0.00     0.041 A 
HETATM    8  C12 UNL     1      -4.470   5.796   0.659  1.00  0.00     0.129 A 
HETATM    9  N4  UNL     1      -4.217   4.956  -0.356  1.00  0.00    -0.176 N 
ATOM     10  H4  UNL     1      -4.361   3.953  -0.244  1.00  0.00     0.186 HD
HETATM   11  C15 UNL     1      -3.772   5.456  -1.527  1.00  0.00     0.680 A 
HETATM   12  N6  UNL     1      -3.592   6.793  -1.646  1.00  0.00    -0.187 N 
ATOM     13  H6  UNL     1      -3.254   7.159  -2.536  1.00  0.00     0.184 HD
HETATM   14  C29 UNL     1      -3.837   7.657  -0.649  1.00  0.00     0.106 A 
ENDROOT
BRANCH  11  15
HETATM   15  N5  UNL     1      -3.515   4.708  -2.534  1.00  0.00    -0.222 N 
ATOM     16  H5  UNL     1      -3.722   3.715  -2.441  1.00  0.00     0.178 HD
BRANCH  15  17
HETATM   17  C16 UNL     1      -2.961   5.150  -3.778  1.00  0.00     0.176 C 
BRANCH  17  18
HETATM   18  C17 UNL     1      -3.893   4.763  -4.857  1.00  0.00    -0.040 A 
HETATM   19  C18 UNL     1      -4.514   3.536  -4.777  1.00  0.00     0.009 A 
HETATM   20  C19 UNL     1      -5.391   3.154  -5.781  1.00  0.00     0.013 A 
HETATM   21  C20 UNL     1      -5.669   3.961  -6.866  1.00  0.00    -0.026 A 
HETATM   22  C27 UNL     1      -5.022   5.187  -6.908  1.00  0.00     0.013 A 
HETATM   23  C28 UNL     1      -4.146   5.597  -5.927  1.00  0.00     0.009 A 
BRANCH  21  24
HETATM   24  C21 UNL     1      -6.598   3.529  -7.905  1.00  0.00    -0.026 A 
HETATM   25  C22 UNL     1      -6.284   2.538  -8.810  1.00  0.00     0.012 A 
HETATM   26  C23 UNL     1      -7.170   2.133  -9.796  1.00  0.00     0.001 A 
HETATM   27  C24 UNL     1      -8.414   2.718  -9.903  1.00  0.00     0.000 A 
HETATM   28  C25 UNL     1      -8.737   3.711  -9.002  1.00  0.00     0.001 A 
HETATM   29  C26 UNL     1      -7.841   4.117  -8.010  1.00  0.00     0.012 A 
ENDBRANCH  21  24
ENDBRANCH  17  18
ENDBRANCH  15  17
ENDBRANCH  11  15
BRANCH   8  30
HETATM   30  N3  UNL     1      -4.892   5.328   1.770  1.00  0.00    -0.373 N 
ATOM     31  H3  UNL     1      -5.807   5.608   2.124  1.00  0.00     0.161 HD
BRANCH  30  32
HETATM   32  C13 UNL     1      -4.079   4.405   2.525  1.00  0.00     0.147 C 
BRANCH  32  33
HETATM   33  C14 UNL     1      -4.864   3.114   2.769  1.00  0.00     0.183 C 
BRANCH  33  34
HETATM   34  O1  UNL     1      -5.451   2.695   1.586  1.00  0.00    -0.399 OA
ATOM     35  H1  UNL     1      -6.006   1.941   1.754  1.00  0.00     0.209 HD
ENDBRANCH  33  34
ENDBRANCH  32  33
ENDBRANCH  30  32
ENDBRANCH   8  30
BRANCH   1  36
HETATM   36  N1  UNL     1      -3.222   9.410  -1.934  1.00  0.00    -0.370 N 
ATOM     37  H1  UNL     1      -3.801   9.147  -2.731  1.00  0.00     0.161 HD
BRANCH  36  38
HETATM   38  C6  UNL     1      -2.048  10.155  -2.241  1.00  0.00     0.161 C 
BRANCH  38  39
HETATM   39  C5  UNL     1      -2.396  11.398  -3.006  1.00  0.00    -0.025 A 
HETATM   40  C4  UNL     1      -2.507  12.586  -2.315  1.00  0.00     0.012 A 
HETATM   41  C3  UNL     1      -2.825  13.735  -3.013  1.00  0.00     0.025 A 
HETATM   42  C2  UNL     1      -3.036  13.741  -4.377  1.00  0.00     0.005 A 
HETATM   43  C1  UNL     1      -3.375  14.995  -5.089  1.00  0.00     0.068 C 
HETATM   44  N7  UNL     1      -2.918  12.557  -5.019  1.00  0.00    -0.369 N 
HETATM   45  C30 UNL     1      -2.606  11.416  -4.353  1.00  0.00     0.096 A 
ATOM     46  H7  UNL     1      -3.066  12.521  -6.028  1.00  0.00     0.165 HD
ENDBRANCH  38  39
ENDBRANCH  36  38
ENDBRANCH   1  36
TORSDOF 11
ENDMDL
MODEL 5
REMARK VINA RESULT: -6.175762064      4.390      9.184
REMARK  11 active torsions:
REMARK  status: ('A' for Active; 'I' for Inactive)
REMARK    1  A    between atoms: C5_5  and  C6_6 
REMARK    2  A    between atoms: C6_6  and  N1_7 
REMARK    3  A    between atoms: N1_7  and  C7_9 
REMARK    4  A    between atoms: C12_16  and  N3_17 
REMARK    5  A    between atoms: N3_17  and  C13_19 
REMARK    6  A    between atoms: C13_19  and  C14_20 
REMARK    7  A    between atoms: C14_20  and  O1_21 
REMARK    8  A    between atoms: C15_25  and  N5_26 
REMARK    9  A    between atoms: N5_26  and  C16_28 
REMARK   10  A    between atoms: C16_28  and  C17_29 
REMARK   11  A    between atoms: C20_32  and  C21_33 
ROOT
HETATM    1  C7  UNL     1      -0.394  12.928  -0.461  1.00  0.00     0.130 A 
HETATM    2  N2  UNL     1       0.172  14.081  -0.079  1.00  0.00    -0.345 N 
ATOM      3  H2  UNL     1       0.736  14.119   0.771  1.00  0.00     0.167 HD
HETATM    4  C8  UNL     1      -0.008  15.192  -0.826  1.00  0.00     0.008 A 
HETATM    5  C9  UNL     1       0.638  16.449  -0.365  1.00  0.00     0.068 C 
HETATM    6  C10 UNL     1      -0.777  15.123  -1.979  1.00  0.00     0.042 A 
HETATM    7  C11 UNL     1      -1.364  13.952  -2.386  1.00  0.00     0.041 A 
HETATM    8  C12 UNL     1      -2.137  13.833  -3.525  1.00  0.00     0.129 A 
HETATM    9  N4  UNL     1      -2.692  12.668  -3.889  1.00  0.00    -0.176 N 
ATOM     10  H4  UNL     1      -3.258  12.608  -4.735  1.00  0.00     0.186 HD
HETATM   11  C15 UNL     1      -2.493  11.577  -3.122  1.00  0.00     0.680 A 
HETATM   12  N6  UNL     1      -1.738  11.687  -2.004  1.00  0.00    -0.187 N 
ATOM     13  H6  UNL     1      -1.595  10.856  -1.430  1.00  0.00     0.184 HD
HETATM   14  C29 UNL     1      -1.169  12.839  -1.614  1.00  0.00     0.106 A 
ENDROOT
BRANCH  11  15
HETATM   15  N5  UNL     1      -2.995  10.436  -3.415  1.00  0.00    -0.222 N 
ATOM     16  H5  UNL     1      -4.001  10.396  -3.574  1.00  0.00     0.178 HD
BRANCH  15  17
HETATM   17  C16 UNL     1      -2.262   9.212  -3.541  1.00  0.00     0.176 C 
BRANCH  17  18
HETATM   18  C17 UNL     1      -2.717   8.294  -2.477  1.00  0.00    -0.040 A 
HETATM   19  C18 UNL     1      -1.767   7.691  -1.682  1.00  0.00     0.009 A 
HETATM   20  C19 UNL     1      -2.175   6.824  -0.679  1.00  0.00     0.013 A 
HETATM   21  C20 UNL     1      -3.504   6.540  -0.443  1.00  0.00    -0.026 A 
HETATM   22  C27 UNL     1      -4.428   7.168  -1.267  1.00  0.00     0.013 A 
HETATM   23  C28 UNL     1      -4.056   8.034  -2.271  1.00  0.00     0.009 A 
BRANCH  21  24
HETATM   24  C21 UNL     1      -3.899   5.624   0.621  1.00  0.00    -0.026 A 
HETATM   25  C22 UNL     1      -4.612   4.470   0.375  1.00  0.00     0.012 A 
HETATM   26  C23 UNL     1      -4.987   3.604   1.391  1.00  0.00     0.001 A 
HETATM   27  C24 UNL     1      -4.650   3.874   2.701  1.00  0.00     0.000 A 
HETATM   28  C25 UNL     1      -3.936   5.026   2.956  1.00  0.00     0.001 A 
HETATM   29  C26 UNL     1      -3.562   5.896   1.930  1.00  0.00     0.012 A 
ENDBRANCH  21  24
ENDBRANCH  17  18
ENDBRANCH  15  17
ENDBRANCH  11  15
BRANCH   8  30
HETATM   30  N3  UNL     1      -2.322  14.870  -4.248  1.00  0.00    -0.373 N 
ATOM     31  H3  UNL     1      -1.523  15.424  -4.555  1.00  0.00     0.161 HD
BRANCH  30  32
HETATM   32  C13 UNL     1      -3.658  15.259  -4.631  1.00  0.00     0.147 C 
BRANCH  32  33
HETATM   33  C14 UNL     1      -3.845  15.032  -6.134  1.00  0.00     0.183 C 
BRANCH  33  34
HETATM   34  O1  UNL     1      -4.560  13.864  -6.344  1.00  0.00    -0.399 OA
ATOM     35  H1  UNL     1      -5.324  14.049  -6.877  1.00  0.00     0.209 HD
ENDBRANCH  33  34
ENDBRANCH  32  33
ENDBRANCH  30  32
ENDBRANCH   8  30
BRANCH   1  36
HETATM   36  N1  UNL     1      -0.261  11.849   0.202  1.00  0.00    -0.370 N 
ATOM     37  H1  UNL     1      -0.043  11.018  -0.347  1.00  0.00     0.161 HD
BRANCH  36  38
HETATM   38  C6  UNL     1      -0.377  11.649   1.607  1.00  0.00     0.161 C 
BRANCH  38  39
HETATM   39  C5  UNL     1      -1.674  10.973   1.940  1.00  0.00    -0.025 A 
HETATM   40  C4  UNL     1      -2.381  10.368   0.923  1.00  0.00     0.012 A 
HETATM   41  C3  UNL     1      -3.575   9.742   1.223  1.00  0.00     0.025 A 
HETATM   42  C2  UNL     1      -4.090   9.698   2.502  1.00  0.00     0.005 A 
HETATM   43  C1  UNL     1      -5.375   9.016   2.783  1.00  0.00     0.068 C 
HETATM   44  N7  UNL     1      -3.368  10.303   3.473  1.00  0.00    -0.369 N 
HETATM   45  C30 UNL     1      -2.192  10.924   3.201  1.00  0.00     0.096 A 
ATOM     46  H7  UNL     1      -3.716  10.291   4.432  1.00  0.00     0.165 HD
ENDBRANCH  38  39
ENDBRANCH  36  38
ENDBRANCH   1  36
TORSDOF 11
ENDMDL
