MODEL 1
REMARK VINA RESULT: -7.286976054      0.000      0.000
REMARK  8 active torsions:
REMARK  status: ('A' for Active; 'I' for Inactive)
REMARK    1  A    between atoms: C1_4  and  C2_6 
REMARK    2  A    between atoms: C9_13  and  C10_14 
REMARK    3  A    between atoms: N3_15  and  C11_17 
REMARK    4  A    between atoms: C14_20  and  C15_21 
REMARK    5  A    between atoms: C15_21  and  C16_22 
REMARK    6  A    between atoms: C16_22  and  N4_23 
REMARK    7  A    between atoms: N4_23  and  C17_25 
REMARK    8  A    between atoms: C18_28  and  N6_29 
ROOT
HETATM    1  C11 UNL     1      -0.346  12.105  -0.074  1.00  0.00     0.031 A 
HETATM    2  C12 UNL     1       0.033  13.453  -0.141  1.00  0.00     0.030 A 
HETATM    3  C13 UNL     1      -0.451  14.320  -1.089  1.00  0.00     0.009 A 
HETATM    4  C14 UNL     1      -1.353  13.903  -2.045  1.00  0.00    -0.057 A 
HETATM    5  C25 UNL     1      -1.740  12.581  -1.998  1.00  0.00     0.009 A 
HETATM    6  C26 UNL     1      -1.263  11.704  -1.055  1.00  0.00     0.030 A 
ENDROOT
BRANCH   4   7
HETATM    7  C15 UNL     1      -1.893  14.827  -3.079  1.00  0.00     0.058 C 
BRANCH   7   8
HETATM    8  C16 UNL     1      -2.650  14.067  -4.154  1.00  0.00     0.142 C 
BRANCH   8   9
HETATM    9  N4  UNL     1      -3.525  14.899  -4.892  1.00  0.00    -0.226 N 
ATOM     10  H4  UNL     1      -4.469  15.024  -4.525  1.00  0.00     0.177 HD
BRANCH   9  11
HETATM   11  C17 UNL     1      -3.238  15.503  -5.971  1.00  0.00     0.682 A 
HETATM   12  N5  UNL     1      -3.639  15.050  -7.157  1.00  0.00    -0.176 N 
HETATM   13  C18 UNL     1      -3.328  15.707  -8.306  1.00  0.00     0.131 A 
ATOM     14  H5  UNL     1      -4.191  14.194  -7.205  1.00  0.00     0.186 HD
HETATM   15  C23 UNL     1      -2.581  16.859  -8.191  1.00  0.00     0.124 A 
HETATM   16  C24 UNL     1      -2.173  17.315  -6.957  1.00  0.00     0.263 A 
HETATM   17  O2  UNL     1      -1.489  18.366  -6.819  1.00  0.00    -0.268 OA
HETATM   18  N7  UNL     1      -2.500  16.640  -5.861  1.00  0.00    -0.156 N 
ATOM     19  H7  UNL     1      -2.200  16.973  -4.945  1.00  0.00     0.187 HD
BRANCH  13  20
HETATM   20  N6  UNL     1      -3.761  15.219  -9.585  1.00  0.00    -0.303 N 
HETATM   21  C19 UNL     1      -2.995  15.388 -10.825  1.00  0.00     0.134 C 
HETATM   22  C20 UNL     1      -3.309  14.046 -11.499  1.00  0.00     0.029 C 
HETATM   23  C21 UNL     1      -4.830  14.017 -11.314  1.00  0.00     0.105 C 
HETATM   24  C22 UNL     1      -4.949  14.512  -9.914  1.00  0.00     0.225 C 
HETATM   25  O1  UNL     1      -5.906  14.369  -9.099  1.00  0.00    -0.273 OA
ENDBRANCH  13  20
ENDBRANCH   9  11
ENDBRANCH   8   9
ENDBRANCH   7   8
ENDBRANCH   4   7
BRANCH   1  26
HETATM   26  N3  UNL     1       0.167  11.255   0.878  1.00  0.00    -0.365 N 
HETATM   27  C10 UNL     1      -0.101  10.858   2.024  1.00  0.00     0.100 C 
ATOM     28  H3  UNL     1       1.027  10.820   0.541  1.00  0.00     0.165 HD
BRANCH  27  29
HETATM   29  C9  UNL     1      -1.154  11.136   2.936  1.00  0.00    -0.010 A 
HETATM   30  C8  UNL     1      -0.968  11.897   4.057  1.00  0.00     0.013 A 
HETATM   31  C7  UNL     1      -1.997  12.187   4.969  1.00  0.00     0.002 A 
HETATM   32  C6  UNL     1      -3.241  11.699   4.743  1.00  0.00     0.012 A 
HETATM   33  C5  UNL     1      -3.454  10.926   3.615  1.00  0.00    -0.025 A 
HETATM   34  C4  UNL     1      -4.741  10.459   3.447  1.00  0.00     0.013 A 
HETATM   35  C27 UNL     1      -2.446  10.638   2.716  1.00  0.00    -0.013 A 
HETATM   36  C3  UNL     1      -5.044   9.686   2.360  1.00  0.00     0.015 A 
HETATM   37  C2  UNL     1      -4.032   9.388   1.445  1.00  0.00     0.005 A 
HETATM   38  C28 UNL     1      -2.747   9.854   1.614  1.00  0.00     0.028 A 
BRANCH  37  39
HETATM   39  C1  UNL     1      -4.379   8.563   0.300  1.00  0.00     0.120 C 
HETATM   40  N1  UNL     1      -4.170   8.912  -0.907  1.00  0.00    -0.387 N 
ATOM     41  H12 UNL     1      -4.413   8.333  -1.711  1.00  0.00     0.157 HD
ATOM     42  H11 UNL     1      -3.736   9.822  -1.058  1.00  0.00     0.157 HD
HETATM   43  N2  UNL     1      -4.989   7.286   0.512  1.00  0.00    -0.082 NA
ENDBRANCH  37  39
ENDBRANCH  27  29
ENDBRANCH   1  26
TORSDOF 8
ENDMDL
MODEL 2
REMARK VINA RESULT: -7.252131477      2.231      3.587
REMARK  8 active torsions:
REMARK  status: ('A' for Active; 'I' for Inactive)
REMARK    1  A    between atoms: C1_4  and  C2_6 
REMARK    2  A    between atoms: C9_13  and  C10_14 
REMARK    3  A    between atoms: N3_15  and  C11_17 
REMARK    4  A    between atoms: C14_20  and  C15_21 
REMARK    5  A    between atoms: C15_21  and  C16_22 
REMARK    6  A    between atoms: C16_22  and  N4_23 
REMARK    7  A    between atoms: N4_23  and  C17_25 
REMARK    8  A    between atoms: C18_28  and  N6_29 
ROOT
HETATM    1  C11 UNL     1       0.225  12.599   0.575  1.00  0.00     0.031 A 
HETATM    2  C12 UNL     1       0.831  13.844   0.799  1.00  0.00     0.030 A 
HETATM    3  C13 UNL     1       0.607  14.940   0.004  1.00  0.00     0.009 A 
HETATM    4  C14 UNL     1      -0.244  14.874  -1.080  1.00  0.00    -0.057 A 
HETATM    5  C25 UNL     1      -0.851  13.660  -1.319  1.00  0.00     0.009 A 
HETATM    6  C26 UNL     1      -0.635  12.557  -0.531  1.00  0.00     0.030 A 
ENDROOT
BRANCH   4   7
HETATM    7  C15 UNL     1      -0.504  16.051  -1.953  1.00  0.00     0.058 C 
BRANCH   7   8
HETATM    8  C16 UNL     1      -0.440  15.671  -3.422  1.00  0.00     0.142 C 
BRANCH   8   9
HETATM    9  N4  UNL     1      -1.698  15.767  -4.062  1.00  0.00    -0.226 N 
ATOM     10  H4  UNL     1      -2.216  16.638  -3.942  1.00  0.00     0.177 HD
BRANCH   9  11
HETATM   11  C17 UNL     1      -2.238  14.865  -4.773  1.00  0.00     0.682 A 
HETATM   12  N5  UNL     1      -2.020  13.570  -4.550  1.00  0.00    -0.176 N 
HETATM   13  C18 UNL     1      -2.607  12.613  -5.317  1.00  0.00     0.131 A 
ATOM     14  H5  UNL     1      -1.402  13.292  -3.789  1.00  0.00     0.186 HD
HETATM   15  C23 UNL     1      -3.434  13.038  -6.333  1.00  0.00     0.124 A 
HETATM   16  C24 UNL     1      -3.649  14.381  -6.552  1.00  0.00     0.263 A 
HETATM   17  O2  UNL     1      -4.401  14.802  -7.474  1.00  0.00    -0.268 OA
HETATM   18  N7  UNL     1      -3.055  15.281  -5.778  1.00  0.00    -0.156 N 
ATOM     19  H7  UNL     1      -3.210  16.277  -5.936  1.00  0.00     0.187 HD
BRANCH  13  20
HETATM   20  N6  UNL     1      -2.373  11.218  -5.076  1.00  0.00    -0.303 N 
HETATM   21  C19 UNL     1      -2.077  10.245  -6.133  1.00  0.00     0.134 C 
HETATM   22  C20 UNL     1      -1.072   9.358  -5.386  1.00  0.00     0.029 C 
HETATM   23  C21 UNL     1      -1.845   9.142  -4.080  1.00  0.00     0.105 C 
HETATM   24  C22 UNL     1      -2.376  10.513  -3.842  1.00  0.00     0.225 C 
HETATM   25  O1  UNL     1      -2.779  11.032  -2.760  1.00  0.00    -0.273 OA
ENDBRANCH  13  20
ENDBRANCH   9  11
ENDBRANCH   8   9
ENDBRANCH   7   8
ENDBRANCH   4   7
BRANCH   1  26
HETATM   26  N3  UNL     1       0.481  11.514   1.380  1.00  0.00    -0.365 N 
HETATM   27  C10 UNL     1       0.019  10.970   2.397  1.00  0.00     0.100 C 
ATOM     28  H3  UNL     1       1.295  11.002   1.039  1.00  0.00     0.165 HD
BRANCH  27  29
HETATM   29  C9  UNL     1      -1.077  11.261   3.252  1.00  0.00    -0.010 A 
HETATM   30  C8  UNL     1      -0.937  11.997   4.396  1.00  0.00     0.013 A 
HETATM   31  C7  UNL     1      -2.009  12.299   5.252  1.00  0.00     0.002 A 
HETATM   32  C6  UNL     1      -3.251  11.850   4.945  1.00  0.00     0.012 A 
HETATM   33  C5  UNL     1      -3.418  11.103   3.792  1.00  0.00    -0.025 A 
HETATM   34  C4  UNL     1      -4.706  10.676   3.540  1.00  0.00     0.013 A 
HETATM   35  C27 UNL     1      -2.367  10.803   2.947  1.00  0.00    -0.013 A 
HETATM   36  C3  UNL     1      -4.964   9.931   2.423  1.00  0.00     0.015 A 
HETATM   37  C2  UNL     1      -3.910   9.621   1.563  1.00  0.00     0.005 A 
HETATM   38  C28 UNL     1      -2.625  10.047   1.815  1.00  0.00     0.028 A 
BRANCH  37  39
HETATM   39  C1  UNL     1      -4.211   8.826   0.384  1.00  0.00     0.120 C 
HETATM   40  N1  UNL     1      -3.826   9.137  -0.790  1.00  0.00    -0.387 N 
ATOM     41  H12 UNL     1      -4.037   8.579  -1.618  1.00  0.00     0.157 HD
ATOM     42  H11 UNL     1      -3.278   9.991  -0.888  1.00  0.00     0.157 HD
HETATM   43  N2  UNL     1      -4.979   7.627   0.521  1.00  0.00    -0.082 NA
ENDBRANCH  37  39
ENDBRANCH  27  29
ENDBRANCH   1  26
TORSDOF 8
ENDMDL
MODEL 3
REMARK VINA RESULT: -7.181166722      6.461      9.828
REMARK  8 active torsions:
REMARK  status: ('A' for Active; 'I' for Inactive)
REMARK    1  A    between atoms: C1_4  and  C2_6 
REMARK    2  A    between atoms: C9_13  and  C10_14 
REMARK    3  A    between atoms: N3_15  and  C11_17 
REMARK    4  A    between atoms: C14_20  and  C15_21 
REMARK    5  A    between atoms: C15_21  and  C16_22 
REMARK    6  A    between atoms: C16_22  and  N4_23 
REMARK    7  A    between atoms: N4_23  and  C17_25 
REMARK    8  A    between atoms: C18_28  and  N6_29 
ROOT
HETATM    1  C11 UNL     1      -4.263   4.147  -3.768  1.00  0.00     0.031 A 
HETATM    2  C12 UNL     1      -4.598   4.097  -2.407  1.00  0.00     0.030 A 
HETATM    3  C13 UNL     1      -4.663   5.212  -1.611  1.00  0.00     0.009 A 
HETATM    4  C14 UNL     1      -4.399   6.468  -2.116  1.00  0.00    -0.057 A 
HETATM    5  C25 UNL     1      -4.068   6.542  -3.452  1.00  0.00     0.009 A 
HETATM    6  C26 UNL     1      -3.999   5.433  -4.259  1.00  0.00     0.030 A 
ENDROOT
BRANCH   4   7
HETATM    7  C15 UNL     1      -4.468   7.691  -1.271  1.00  0.00     0.058 C 
BRANCH   7   8
HETATM    8  C16 UNL     1      -3.129   8.405  -1.226  1.00  0.00     0.142 C 
BRANCH   8   9
HETATM    9  N4  UNL     1      -3.221   9.757  -1.631  1.00  0.00    -0.226 N 
ATOM     10  H4  UNL     1      -3.626  10.416  -0.965  1.00  0.00     0.177 HD
BRANCH   9  11
HETATM   11  C17 UNL     1      -2.844  10.222  -2.750  1.00  0.00     0.682 A 
HETATM   12  N5  UNL     1      -2.957  11.516  -3.047  1.00  0.00    -0.176 N 
HETATM   13  C18 UNL     1      -2.547  12.003  -4.248  1.00  0.00     0.131 A 
ATOM     14  H5  UNL     1      -3.359  12.153  -2.360  1.00  0.00     0.186 HD
HETATM   15  C23 UNL     1      -2.011  11.104  -5.144  1.00  0.00     0.124 A 
HETATM   16  C24 UNL     1      -1.901   9.769  -4.823  1.00  0.00     0.263 A 
HETATM   17  O2  UNL     1      -1.415   8.921  -5.621  1.00  0.00    -0.268 OA
HETATM   18  N7  UNL     1      -2.314   9.337  -3.638  1.00  0.00    -0.156 N 
ATOM     19  H7  UNL     1      -2.236   8.350  -3.394  1.00  0.00     0.187 HD
BRANCH  13  20
HETATM   20  N6  UNL     1      -2.669  13.397  -4.568  1.00  0.00    -0.303 N 
HETATM   21  C19 UNL     1      -3.079  13.900  -5.884  1.00  0.00     0.134 C 
HETATM   22  C20 UNL     1      -3.906  15.115  -5.443  1.00  0.00     0.029 C 
HETATM   23  C21 UNL     1      -2.926  15.742  -4.444  1.00  0.00     0.105 C 
HETATM   24  C22 UNL     1      -2.434  14.526  -3.738  1.00  0.00     0.225 C 
HETATM   25  O1  UNL     1      -1.891  14.435  -2.599  1.00  0.00    -0.273 OA
ENDBRANCH  13  20
ENDBRANCH   9  11
ENDBRANCH   8   9
ENDBRANCH   7   8
ENDBRANCH   4   7
BRANCH   1  26
HETATM   26  N3  UNL     1      -4.190   3.010  -4.539  1.00  0.00    -0.365 N 
HETATM   27  C10 UNL     1      -4.912   2.345  -5.300  1.00  0.00     0.100 C 
ATOM     28  H3  UNL     1      -3.265   2.586  -4.461  1.00  0.00     0.165 HD
BRANCH  27  29
HETATM   29  C9  UNL     1      -6.253   2.481  -5.748  1.00  0.00    -0.010 A 
HETATM   30  C8  UNL     1      -7.272   1.717  -5.248  1.00  0.00     0.013 A 
HETATM   31  C7  UNL     1      -8.605   1.841  -5.674  1.00  0.00     0.002 A 
HETATM   32  C6  UNL     1      -8.916   2.755  -6.625  1.00  0.00     0.012 A 
HETATM   33  C5  UNL     1      -7.902   3.540  -7.146  1.00  0.00    -0.025 A 
HETATM   34  C4  UNL     1      -8.287   4.448  -8.111  1.00  0.00     0.013 A 
HETATM   35  C27 UNL     1      -6.590   3.423  -6.731  1.00  0.00    -0.013 A 
HETATM   36  C3  UNL     1      -7.352   5.264  -8.682  1.00  0.00     0.015 A 
HETATM   37  C2  UNL     1      -6.022   5.155  -8.270  1.00  0.00     0.005 A 
HETATM   38  C28 UNL     1      -5.638   4.248  -7.308  1.00  0.00     0.028 A 
BRANCH  37  39
HETATM   39  C1  UNL     1      -5.047   6.033  -8.895  1.00  0.00     0.120 C 
HETATM   40  N1  UNL     1      -4.597   7.089  -8.344  1.00  0.00    -0.387 N 
ATOM     41  H12 UNL     1      -3.913   7.706  -8.782  1.00  0.00     0.157 HD
ATOM     42  H11 UNL     1      -4.952   7.314  -7.415  1.00  0.00     0.157 HD
HETATM   43  N2  UNL     1      -4.549   5.717 -10.199  1.00  0.00    -0.082 NA
ENDBRANCH  37  39
ENDBRANCH  27  29
ENDBRANCH   1  26
TORSDOF 8
ENDMDL
MODEL 4
REMARK VINA RESULT: -7.149841420      3.630      6.321
REMARK  8 active torsions:
REMARK  status: ('A' for Active; 'I' for Inactive)
REMARK    1  A    between atoms: C1_4  and  C2_6 
REMARK    2  A    between atoms: C9_13  and  C10_14 
REMARK    3  A    between atoms: N3_15  and  C11_17 
REMARK    4  A    between atoms: C14_20  and  C15_21 
REMARK    5  A    between atoms: C15_21  and  C16_22 
REMARK    6  A    between atoms: C16_22  and  N4_23 
REMARK    7  A    between atoms: N4_23  and  C17_25 
REMARK    8  A    between atoms: C18_28  and  N6_29 
ROOT
HETATM    1  C11 UNL     1      -1.314  12.881  -1.373  1.00  0.00     0.031 A 
HETATM    2  C12 UNL     1      -0.728  14.132  -1.617  1.00  0.00     0.030 A 
HETATM    3  C13 UNL     1      -1.171  14.989  -2.593  1.00  0.00     0.009 A 
HETATM    4  C14 UNL     1      -2.239  14.660  -3.401  1.00  0.00    -0.057 A 
HETATM    5  C25 UNL     1      -2.832  13.436  -3.180  1.00  0.00     0.009 A 
HETATM    6  C26 UNL     1      -2.397  12.570  -2.207  1.00  0.00     0.030 A 
ENDROOT
BRANCH   4   7
HETATM    7  C15 UNL     1      -2.738  15.576  -4.463  1.00  0.00     0.058 C 
BRANCH   7   8
HETATM    8  C16 UNL     1      -1.731  16.671  -4.764  1.00  0.00     0.142 C 
BRANCH   8   9
HETATM    9  N4  UNL     1      -2.341  17.932  -4.956  1.00  0.00    -0.226 N 
ATOM     10  H4  UNL     1      -2.702  18.138  -5.888  1.00  0.00     0.177 HD
BRANCH   9  11
HETATM   11  C17 UNL     1      -2.480  18.831  -4.070  1.00  0.00     0.682 A 
HETATM   12  N5  UNL     1      -1.766  18.824  -2.946  1.00  0.00    -0.176 N 
HETATM   13  C18 UNL     1      -1.921  19.794  -2.005  1.00  0.00     0.131 A 
ATOM     14  H5  UNL     1      -1.090  18.077  -2.787  1.00  0.00     0.186 HD
HETATM   15  C23 UNL     1      -2.846  20.781  -2.264  1.00  0.00     0.124 A 
HETATM   16  C24 UNL     1      -3.577  20.774  -3.431  1.00  0.00     0.263 A 
HETATM   17  O2  UNL     1      -4.431  21.664  -3.697  1.00  0.00    -0.268 OA
HETATM   18  N7  UNL     1      -3.393  19.808  -4.322  1.00  0.00    -0.156 N 
ATOM     19  H7  UNL     1      -3.931  19.797  -5.188  1.00  0.00     0.187 HD
BRANCH  13  20
HETATM   20  N6  UNL     1      -1.151  19.786  -0.793  1.00  0.00    -0.303 N 
HETATM   21  C19 UNL     1      -1.219  20.842   0.223  1.00  0.00     0.134 C 
HETATM   22  C20 UNL     1      -1.069  19.985   1.487  1.00  0.00     0.029 C 
HETATM   23  C21 UNL     1       0.137  19.132   1.075  1.00  0.00     0.105 C 
HETATM   24  C22 UNL     1      -0.213  18.820  -0.338  1.00  0.00     0.225 C 
HETATM   25  O1  UNL     1       0.208  17.879  -1.072  1.00  0.00    -0.273 OA
ENDBRANCH  13  20
ENDBRANCH   9  11
ENDBRANCH   8   9
ENDBRANCH   7   8
ENDBRANCH   4   7
BRANCH   1  26
HETATM   26  N3  UNL     1      -0.839  12.036  -0.398  1.00  0.00    -0.365 N 
HETATM   27  C10 UNL     1      -1.183  11.000   0.195  1.00  0.00     0.100 C 
ATOM     28  H3  UNL     1       0.069  12.357  -0.061  1.00  0.00     0.165 HD
BRANCH  27  29
HETATM   29  C9  UNL     1      -2.324  10.159   0.117  1.00  0.00    -0.010 A 
HETATM   30  C8  UNL     1      -2.643   9.463  -1.016  1.00  0.00     0.013 A 
HETATM   31  C7  UNL     1      -3.765   8.622  -1.112  1.00  0.00     0.002 A 
HETATM   32  C6  UNL     1      -4.582   8.481  -0.039  1.00  0.00     0.012 A 
HETATM   33  C5  UNL     1      -4.280   9.175   1.119  1.00  0.00    -0.025 A 
HETATM   34  C4  UNL     1      -5.153   8.988   2.171  1.00  0.00     0.013 A 
HETATM   35  C27 UNL     1      -3.179  10.003   1.219  1.00  0.00    -0.013 A 
HETATM   36  C3  UNL     1      -4.934   9.636   3.355  1.00  0.00     0.015 A 
HETATM   37  C2  UNL     1      -3.824  10.475   3.466  1.00  0.00     0.005 A 
HETATM   38  C28 UNL     1      -2.953  10.662   2.416  1.00  0.00     0.028 A 
BRANCH  37  39
HETATM   39  C1  UNL     1      -3.615  11.154   4.735  1.00  0.00     0.120 C 
HETATM   40  N1  UNL     1      -4.432  11.088   5.710  1.00  0.00    -0.387 N 
ATOM     41  H12 UNL     1      -4.286  11.564   6.600  1.00  0.00     0.157 HD
ATOM     42  H11 UNL     1      -5.272  10.525   5.575  1.00  0.00     0.157 HD
HETATM   43  N2  UNL     1      -2.438  11.944   4.924  1.00  0.00    -0.082 NA
ENDBRANCH  37  39
ENDBRANCH  27  29
ENDBRANCH   1  26
TORSDOF 8
ENDMDL
MODEL 5
REMARK VINA RESULT: -7.144527082      1.187      2.552
REMARK  8 active torsions:
REMARK  status: ('A' for Active; 'I' for Inactive)
REMARK    1  A    between atoms: C1_4  and  C2_6 
REMARK    2  A    between atoms: C9_13  and  C10_14 
REMARK    3  A    between atoms: N3_15  and  C11_17 
REMARK    4  A    between atoms: C14_20  and  C15_21 
REMARK    5  A    between atoms: C15_21  and  C16_22 
REMARK    6  A    between atoms: C16_22  and  N4_23 
REMARK    7  A    between atoms: N4_23  and  C17_25 
REMARK    8  A    between atoms: C18_28  and  N6_29 
ROOT
HETATM    1  C11 UNL     1      -0.232  12.174   0.066  1.00  0.00     0.031 A 
HETATM    2  C12 UNL     1       0.106  13.534  -0.005  1.00  0.00     0.030 A 
HETATM    3  C13 UNL     1      -0.383  14.377  -0.971  1.00  0.00     0.009 A 
HETATM    4  C14 UNL     1      -1.251  13.923  -1.943  1.00  0.00    -0.057 A 
HETATM    5  C25 UNL     1      -1.597  12.590  -1.893  1.00  0.00     0.009 A 
HETATM    6  C26 UNL     1      -1.114  11.737  -0.931  1.00  0.00     0.030 A 
ENDROOT
BRANCH   4   7
HETATM    7  C15 UNL     1      -1.796  14.821  -2.997  1.00  0.00     0.058 C 
BRANCH   7   8
HETATM    8  C16 UNL     1      -2.869  14.122  -3.814  1.00  0.00     0.142 C 
BRANCH   8   9
HETATM    9  N4  UNL     1      -3.690  15.031  -4.521  1.00  0.00    -0.226 N 
ATOM     10  H4  UNL     1      -4.368  15.566  -3.978  1.00  0.00     0.177 HD
BRANCH   9  11
HETATM   11  C17 UNL     1      -3.657  15.240  -5.773  1.00  0.00     0.682 A 
HETATM   12  N5  UNL     1      -2.866  16.167  -6.309  1.00  0.00    -0.176 N 
HETATM   13  C18 UNL     1      -2.837  16.380  -7.652  1.00  0.00     0.131 A 
ATOM     14  H5  UNL     1      -2.270  16.728  -5.702  1.00  0.00     0.186 HD
HETATM   15  C23 UNL     1      -3.660  15.598  -8.432  1.00  0.00     0.124 A 
HETATM   16  C24 UNL     1      -4.473  14.643  -7.862  1.00  0.00     0.263 A 
HETATM   17  O2  UNL     1      -5.238  13.911  -8.550  1.00  0.00    -0.268 OA
HETATM   18  N7  UNL     1      -4.469  14.470  -6.546  1.00  0.00    -0.156 N 
ATOM     19  H7  UNL     1      -5.069  13.765  -6.119  1.00  0.00     0.187 HD
BRANCH  13  20
HETATM   20  N6  UNL     1      -1.984  17.379  -8.230  1.00  0.00    -0.303 N 
HETATM   21  C19 UNL     1      -1.344  17.245  -9.543  1.00  0.00     0.134 C 
HETATM   22  C20 UNL     1      -1.432  18.702 -10.017  1.00  0.00     0.029 C 
HETATM   23  C21 UNL     1      -0.903  19.410  -8.765  1.00  0.00     0.105 C 
HETATM   24  C22 UNL     1      -1.594  18.636  -7.696  1.00  0.00     0.225 C 
HETATM   25  O1  UNL     1      -1.829  18.972  -6.499  1.00  0.00    -0.273 OA
ENDBRANCH  13  20
ENDBRANCH   9  11
ENDBRANCH   8   9
ENDBRANCH   7   8
ENDBRANCH   4   7
BRANCH   1  26
HETATM   26  N3  UNL     1       0.286  11.349   1.037  1.00  0.00    -0.365 N 
HETATM   27  C10 UNL     1       0.018  10.973   2.190  1.00  0.00     0.100 C 
ATOM     28  H3  UNL     1       1.151  10.916   0.712  1.00  0.00     0.165 HD
BRANCH  27  29
HETATM   29  C9  UNL     1      -1.041  11.259   3.093  1.00  0.00    -0.010 A 
HETATM   30  C8  UNL     1      -0.855  12.004   4.225  1.00  0.00     0.013 A 
HETATM   31  C7  UNL     1      -1.890  12.302   5.127  1.00  0.00     0.002 A 
HETATM   32  C6  UNL     1      -3.139  11.838   4.881  1.00  0.00     0.012 A 
HETATM   33  C5  UNL     1      -3.352  11.082   3.741  1.00  0.00    -0.025 A 
HETATM   34  C4  UNL     1      -4.646  10.640   3.553  1.00  0.00     0.013 A 
HETATM   35  C27 UNL     1      -2.339  10.786   2.851  1.00  0.00    -0.013 A 
HETATM   36  C3  UNL     1      -4.948   9.885   2.454  1.00  0.00     0.015 A 
HETATM   37  C2  UNL     1      -3.931   9.579   1.548  1.00  0.00     0.005 A 
HETATM   38  C28 UNL     1      -2.641  10.020   1.737  1.00  0.00     0.028 A 
BRANCH  37  39
HETATM   39  C1  UNL     1      -4.279   8.773   0.389  1.00  0.00     0.120 C 
HETATM   40  N1  UNL     1      -3.937   9.070  -0.802  1.00  0.00    -0.387 N 
ATOM     41  H12 UNL     1      -4.180   8.504  -1.615  1.00  0.00     0.157 HD
ATOM     42  H11 UNL     1      -3.391   9.922  -0.929  1.00  0.00     0.157 HD
HETATM   43  N2  UNL     1      -5.045   7.578   0.567  1.00  0.00    -0.082 NA
ENDBRANCH  37  39
ENDBRANCH  27  29
ENDBRANCH   1  26
TORSDOF 8
ENDMDL
