MODEL 1
REMARK VINA RESULT: -5.949836092      0.000      0.000
REMARK  4 active torsions:
REMARK  status: ('A' for Active; 'I' for Inactive)
REMARK    1  A    between atoms: C2_2  and  S1_5 
REMARK    2  A    between atoms: S1_5  and  C4_6 
REMARK    3  A    between atoms: C4_6  and  C5_7 
REMARK    4  A    between atoms: C10_12  and  C11_13 
ROOT
HETATM    1  C5  UNL     1       1.265   3.979   6.884  1.00  0.00     0.007 C 
HETATM    2  C6  UNL     1       2.679   4.480   6.711  1.00  0.00     0.006 C 
HETATM    3  C7  UNL     1       3.504   4.222   7.924  1.00  0.00     0.000 C 
HETATM    4  C8  UNL     1       3.505   2.723   8.253  1.00  0.00     0.001 C 
HETATM    5  C9  UNL     1       2.061   2.388   8.602  1.00  0.00     0.014 C 
HETATM    6  C10 UNL     1       1.191   2.579   7.393  1.00  0.00     0.080 C 
ENDROOT
BRANCH   1   7
HETATM    7  C4  UNL     1       0.471   4.101   5.610  1.00  0.00     0.082 C 
BRANCH   7   8
HETATM    8  S1  UNL     1       1.036   5.481   4.586  1.00  0.00    -0.126 SA
BRANCH   8   9
HETATM    9  C2  UNL     1       0.254   5.383   2.958  1.00  0.00     0.144 C 
HETATM   10  C1  UNL     1       0.110   6.709   2.286  1.00  0.00     0.064 C 
HETATM   11  C3  UNL     1      -1.094   4.692   3.036  1.00  0.00     0.064 C 
HETATM   12  F1  UNL     1       1.061   4.576   2.157  1.00  0.00    -0.232 F 
ENDBRANCH   8   9
ENDBRANCH   7   8
ENDBRANCH   1   7
BRANCH   6  13
HETATM   13  C11 UNL     1      -0.229   2.334   7.832  1.00  0.00     0.235 C 
HETATM   14  N1  UNL     1      -0.470   1.257   8.724  1.00  0.00    -0.062 NA
HETATM   15  O1  UNL     1      -1.153   3.051   7.425  1.00  0.00    -0.276 OA
ENDBRANCH   6  13
TORSDOF 4
ENDMDL
MODEL 2
REMARK VINA RESULT: -5.895640188      0.842      1.208
REMARK  4 active torsions:
REMARK  status: ('A' for Active; 'I' for Inactive)
REMARK    1  A    between atoms: C2_2  and  S1_5 
REMARK    2  A    between atoms: S1_5  and  C4_6 
REMARK    3  A    between atoms: C4_6  and  C5_7 
REMARK    4  A    between atoms: C10_12  and  C11_13 
ROOT
HETATM    1  C5  UNL     1       1.279   3.972   6.897  1.00  0.00     0.007 C 
HETATM    2  C6  UNL     1       2.683   4.496   6.710  1.00  0.00     0.006 C 
HETATM    3  C7  UNL     1       3.522   4.257   7.916  1.00  0.00     0.000 C 
HETATM    4  C8  UNL     1       3.552   2.760   8.251  1.00  0.00     0.001 C 
HETATM    5  C9  UNL     1       2.117   2.401   8.614  1.00  0.00     0.014 C 
HETATM    6  C10 UNL     1       1.233   2.573   7.412  1.00  0.00     0.080 C 
ENDROOT
BRANCH   1   7
HETATM    7  C4  UNL     1       0.472   4.076   5.629  1.00  0.00     0.082 C 
BRANCH   7   8
HETATM    8  S1  UNL     1       1.022   5.445   4.584  1.00  0.00    -0.126 SA
BRANCH   8   9
HETATM    9  C2  UNL     1       0.041   5.475   3.064  1.00  0.00     0.144 C 
HETATM   10  C1  UNL     1       0.048   4.177   2.325  1.00  0.00     0.064 C 
HETATM   11  C3  UNL     1       0.484   6.597   2.144  1.00  0.00     0.064 C 
HETATM   12  F1  UNL     1      -1.275   5.762   3.424  1.00  0.00    -0.232 F 
ENDBRANCH   8   9
ENDBRANCH   7   8
ENDBRANCH   1   7
BRANCH   6  13
HETATM   13  C11 UNL     1      -0.178   2.306   7.864  1.00  0.00     0.235 C 
HETATM   14  N1  UNL     1      -0.395   1.217   8.750  1.00  0.00    -0.062 NA
HETATM   15  O1  UNL     1      -1.116   3.013   7.473  1.00  0.00    -0.276 OA
ENDBRANCH   6  13
TORSDOF 4
ENDMDL
MODEL 3
REMARK VINA RESULT: -5.878822708      1.619      1.814
REMARK  4 active torsions:
REMARK  status: ('A' for Active; 'I' for Inactive)
REMARK    1  A    between atoms: C2_2  and  S1_5 
REMARK    2  A    between atoms: S1_5  and  C4_6 
REMARK    3  A    between atoms: C4_6  and  C5_7 
REMARK    4  A    between atoms: C10_12  and  C11_13 
ROOT
HETATM    1  C5  UNL     1       1.207   3.980   6.898  1.00  0.00     0.007 C 
HETATM    2  C6  UNL     1       2.616   4.487   6.706  1.00  0.00     0.006 C 
HETATM    3  C7  UNL     1       3.460   4.227   7.904  1.00  0.00     0.000 C 
HETATM    4  C8  UNL     1       3.474   2.726   8.225  1.00  0.00     0.001 C 
HETATM    5  C9  UNL     1       2.036   2.383   8.595  1.00  0.00     0.014 C 
HETATM    6  C10 UNL     1       1.146   2.577   7.401  1.00  0.00     0.080 C 
ENDROOT
BRANCH   1   7
HETATM    7  C4  UNL     1       0.393   4.105   5.637  1.00  0.00     0.082 C 
BRANCH   7   8
HETATM    8  S1  UNL     1       1.100   5.310   4.488  1.00  0.00    -0.126 SA
BRANCH   8   9
HETATM    9  C2  UNL     1       0.336   6.926   4.764  1.00  0.00     0.144 C 
HETATM   10  C1  UNL     1      -1.024   6.846   5.376  1.00  0.00     0.064 C 
HETATM   11  C3  UNL     1       0.280   7.734   3.481  1.00  0.00     0.064 C 
HETATM   12  F1  UNL     1       1.163   7.634   5.635  1.00  0.00    -0.232 F 
ENDBRANCH   8   9
ENDBRANCH   7   8
ENDBRANCH   1   7
BRANCH   6  13
HETATM   13  C11 UNL     1      -0.265   2.324   7.860  1.00  0.00     0.235 C 
HETATM   14  N1  UNL     1      -0.489   1.240   8.750  1.00  0.00    -0.062 NA
HETATM   15  O1  UNL     1      -1.198   3.039   7.473  1.00  0.00    -0.276 OA
ENDBRANCH   6  13
TORSDOF 4
ENDMDL
MODEL 4
REMARK VINA RESULT: -5.743808752      1.323      1.631
REMARK  4 active torsions:
REMARK  status: ('A' for Active; 'I' for Inactive)
REMARK    1  A    between atoms: C2_2  and  S1_5 
REMARK    2  A    between atoms: S1_5  and  C4_6 
REMARK    3  A    between atoms: C4_6  and  C5_7 
REMARK    4  A    between atoms: C10_12  and  C11_13 
ROOT
HETATM    1  C5  UNL     1       1.277   4.478   6.140  1.00  0.00     0.007 C 
HETATM    2  C6  UNL     1       2.487   5.280   5.723  1.00  0.00     0.006 C 
HETATM    3  C7  UNL     1       3.415   5.506   6.865  1.00  0.00     0.000 C 
HETATM    4  C8  UNL     1       3.848   4.162   7.468  1.00  0.00     0.001 C 
HETATM    5  C9  UNL     1       2.573   3.546   8.029  1.00  0.00     0.014 C 
HETATM    6  C10 UNL     1       1.619   3.247   6.908  1.00  0.00     0.080 C 
ENDROOT
BRANCH   1   7
HETATM    7  C4  UNL     1       0.413   4.120   4.960  1.00  0.00     0.082 C 
BRANCH   7   8
HETATM    8  S1  UNL     1       0.495   5.367   3.653  1.00  0.00    -0.126 SA
BRANCH   8   9
HETATM    9  C2  UNL     1      -0.452   4.801   2.219  1.00  0.00     0.144 C 
HETATM   10  C1  UNL     1       0.045   3.514   1.648  1.00  0.00     0.064 C 
HETATM   11  C3  UNL     1      -0.501   5.864   1.138  1.00  0.00     0.064 C 
HETATM   12  F1  UNL     1      -1.768   4.611   2.639  1.00  0.00    -0.232 F 
ENDBRANCH   8   9
ENDBRANCH   7   8
ENDBRANCH   1   7
BRANCH   6  13
HETATM   13  C11 UNL     1       0.348   2.741   7.538  1.00  0.00     0.235 C 
HETATM   14  N1  UNL     1       0.445   1.652   8.444  1.00  0.00    -0.062 NA
HETATM   15  O1  UNL     1      -0.744   3.260   7.271  1.00  0.00    -0.276 OA
ENDBRANCH   6  13
TORSDOF 4
ENDMDL
MODEL 5
REMARK VINA RESULT: -5.742863460      1.567      1.567
REMARK  4 active torsions:
REMARK  status: ('A' for Active; 'I' for Inactive)
REMARK    1  A    between atoms: C2_2  and  S1_5 
REMARK    2  A    between atoms: S1_5  and  C4_6 
REMARK    3  A    between atoms: C4_6  and  C5_7 
REMARK    4  A    between atoms: C10_12  and  C11_13 
ROOT
HETATM    1  C5  UNL     1       1.252   4.033   6.883  1.00  0.00     0.007 C 
HETATM    2  C6  UNL     1       2.662   4.535   6.682  1.00  0.00     0.006 C 
HETATM    3  C7  UNL     1       3.511   4.275   7.878  1.00  0.00     0.000 C 
HETATM    4  C8  UNL     1       3.520   2.775   8.205  1.00  0.00     0.001 C 
HETATM    5  C9  UNL     1       2.083   2.439   8.582  1.00  0.00     0.014 C 
HETATM    6  C10 UNL     1       1.188   2.632   7.391  1.00  0.00     0.080 C 
ENDROOT
BRANCH   1   7
HETATM    7  C4  UNL     1       0.433   4.157   5.625  1.00  0.00     0.082 C 
BRANCH   7   8
HETATM    8  S1  UNL     1       1.112   5.391   4.491  1.00  0.00    -0.126 SA
BRANCH   8   9
HETATM    9  C2  UNL     1       0.171   6.929   4.639  1.00  0.00     0.144 C 
HETATM   10  C1  UNL     1       0.851   7.966   5.470  1.00  0.00     0.064 C 
HETATM   11  C3  UNL     1      -1.226   6.670   5.173  1.00  0.00     0.064 C 
HETATM   12  F1  UNL     1       0.007   7.442   3.352  1.00  0.00    -0.232 F 
ENDBRANCH   8   9
ENDBRANCH   7   8
ENDBRANCH   1   7
BRANCH   6  13
HETATM   13  C11 UNL     1      -0.223   2.387   7.858  1.00  0.00     0.235 C 
HETATM   14  N1  UNL     1      -0.430   1.384   8.841  1.00  0.00    -0.062 NA
HETATM   15  O1  UNL     1      -1.168   3.039   7.397  1.00  0.00    -0.276 OA
ENDBRANCH   6  13
TORSDOF 4
ENDMDL
