MODEL 1
REMARK VINA RESULT: -5.851444878      0.000      0.000
REMARK  4 active torsions:
REMARK  status: ('A' for Active; 'I' for Inactive)
REMARK    1  A    between atoms: C2_2  and  C3_3 
REMARK    2  A    between atoms: C3_3  and  O1_4 
REMARK    3  A    between atoms: O1_4  and  C4_5 
REMARK       I    between atoms: C4_5  and  N1_7 
REMARK    4  A    between atoms: N1_7  and  N2_9 
ROOT
HETATM    1  N2  UNL     1      -0.778   3.938   6.080  1.00  0.00    -0.303 N 
ATOM      2  H2  UNL     1      -1.724   3.618   6.291  1.00  0.00     0.186 HD
HETATM    3  C5  UNL     1      -0.586   4.804   5.156  1.00  0.00     0.022 C 
HETATM    4  C6  UNL     1      -1.755   5.321   4.412  1.00  0.00     0.056 C 
HETATM    5  C7  UNL     1      -1.292   6.186   3.263  1.00  0.00     0.010 C 
HETATM    6  C8  UNL     1      -0.203   5.469   2.537  1.00  0.00    -0.017 C 
HETATM    7  C9  UNL     1      -0.786   4.140   2.051  1.00  0.00     0.010 C 
HETATM    8  C10 UNL     1       0.997   5.154   3.361  1.00  0.00     0.030 C 
HETATM    9  C11 UNL     1       0.770   5.271   4.847  1.00  0.00     0.129 C 
HETATM   10 CL1  UNL     1       1.032   6.955   5.375  1.00  0.00    -0.119 Cl
ENDROOT
BRANCH   1  11
HETATM   11  N1  UNL     1       0.294   3.438   6.790  1.00  0.00    -0.245 N 
HETATM   12  C4  UNL     1       0.080   2.458   7.789  1.00  0.00     0.379 C 
HETATM   13  O2  UNL     1      -1.079   2.058   8.015  1.00  0.00    -0.237 OA
ATOM     14  H1  UNL     1       1.237   3.774   6.596  1.00  0.00     0.192 HD
BRANCH  12  15
HETATM   15  O1  UNL     1       1.136   1.946   8.510  1.00  0.00    -0.299 OA
BRANCH  15  16
HETATM   16  C3  UNL     1       2.411   1.905   7.949  1.00  0.00     0.207 C 
BRANCH  16  17
HETATM   17  C2  UNL     1       3.373   2.863   8.555  1.00  0.00    -0.011 C 
HETATM   18  C1  UNL     1       3.424   4.084   8.071  1.00  0.00     0.009 C 
ENDBRANCH  16  17
ENDBRANCH  15  16
ENDBRANCH  12  15
ENDBRANCH   1  11
TORSDOF 4
ENDMDL
MODEL 2
REMARK VINA RESULT: -5.648992852      4.259      5.328
REMARK  4 active torsions:
REMARK  status: ('A' for Active; 'I' for Inactive)
REMARK    1  A    between atoms: C2_2  and  C3_3 
REMARK    2  A    between atoms: C3_3  and  O1_4 
REMARK    3  A    between atoms: O1_4  and  C4_5 
REMARK       I    between atoms: C4_5  and  N1_7 
REMARK    4  A    between atoms: N1_7  and  N2_9 
ROOT
HETATM    1  N2  UNL     1      -2.841   1.926   8.690  1.00  0.00    -0.303 N 
ATOM      2  H2  UNL     1      -2.712   1.105   9.282  1.00  0.00     0.186 HD
HETATM    3  C5  UNL     1      -3.978   2.514   8.649  1.00  0.00     0.022 C 
HETATM    4  C6  UNL     1      -5.085   1.979   9.471  1.00  0.00     0.056 C 
HETATM    5  C7  UNL     1      -6.368   2.704   9.142  1.00  0.00     0.010 C 
HETATM    6  C8  UNL     1      -6.508   2.773   7.657  1.00  0.00    -0.017 C 
HETATM    7  C9  UNL     1      -6.518   1.334   7.139  1.00  0.00     0.010 C 
HETATM    8  C10 UNL     1      -5.405   3.491   6.958  1.00  0.00     0.030 C 
HETATM    9  C11 UNL     1      -4.173   3.696   7.802  1.00  0.00     0.129 C 
HETATM   10 CL1  UNL     1      -4.333   5.188   8.766  1.00  0.00    -0.119 Cl
ENDROOT
BRANCH   1  11
HETATM   11  N1  UNL     1      -1.791   2.403   7.934  1.00  0.00    -0.245 N 
HETATM   12  C4  UNL     1      -0.475   1.944   8.187  1.00  0.00     0.379 C 
HETATM   13  O2  UNL     1      -0.283   1.111   9.095  1.00  0.00    -0.237 OA
ATOM     14  H1  UNL     1      -1.961   3.085   7.194  1.00  0.00     0.192 HD
BRANCH  12  15
HETATM   15  O1  UNL     1       0.587   2.409   7.444  1.00  0.00    -0.299 OA
BRANCH  15  16
HETATM   16  C3  UNL     1       1.893   2.199   7.883  1.00  0.00     0.207 C 
BRANCH  16  17
HETATM   17  C2  UNL     1       2.720   3.433   7.937  1.00  0.00    -0.011 C 
HETATM   18  C1  UNL     1       3.764   3.449   8.736  1.00  0.00     0.009 C 
ENDBRANCH  16  17
ENDBRANCH  15  16
ENDBRANCH  12  15
ENDBRANCH   1  11
TORSDOF 4
ENDMDL
MODEL 3
REMARK VINA RESULT: -5.583111090      2.453      3.378
REMARK  4 active torsions:
REMARK  status: ('A' for Active; 'I' for Inactive)
REMARK    1  A    between atoms: C2_2  and  C3_3 
REMARK    2  A    between atoms: C3_3  and  O1_4 
REMARK    3  A    between atoms: O1_4  and  C4_5 
REMARK       I    between atoms: C4_5  and  N1_7 
REMARK    4  A    between atoms: N1_7  and  N2_9 
ROOT
HETATM    1  N2  UNL     1       2.065   5.993   5.653  1.00  0.00    -0.303 N 
ATOM      2  H2  UNL     1       2.651   6.826   5.703  1.00  0.00     0.186 HD
HETATM    3  C5  UNL     1       0.981   6.012   4.971  1.00  0.00     0.022 C 
HETATM    4  C6  UNL     1       0.606   7.258   4.267  1.00  0.00     0.056 C 
HETATM    5  C7  UNL     1      -0.778   7.121   3.679  1.00  0.00     0.010 C 
HETATM    6  C8  UNL     1      -1.684   6.551   4.720  1.00  0.00    -0.017 C 
HETATM    7  C9  UNL     1      -1.663   7.513   5.910  1.00  0.00     0.010 C 
HETATM    8  C10 UNL     1      -1.286   5.208   5.228  1.00  0.00     0.030 C 
HETATM    9  C11 UNL     1       0.132   4.819   4.892  1.00  0.00     0.129 C 
HETATM   10 CL1  UNL     1       0.192   4.063   3.277  1.00  0.00    -0.119 Cl
ENDROOT
BRANCH   1  11
HETATM   11  N1  UNL     1       2.439   4.845   6.319  1.00  0.00    -0.245 N 
HETATM   12  C4  UNL     1       3.652   4.818   7.049  1.00  0.00     0.379 C 
HETATM   13  O2  UNL     1       4.369   5.839   7.080  1.00  0.00    -0.237 OA
ATOM     14  H1  UNL     1       1.844   4.017   6.285  1.00  0.00     0.192 HD
BRANCH  12  15
HETATM   15  O1  UNL     1       4.044   3.682   7.721  1.00  0.00    -0.299 OA
BRANCH  15  16
HETATM   16  C3  UNL     1       3.156   3.032   8.575  1.00  0.00     0.207 C 
BRANCH  16  17
HETATM   17  C2  UNL     1       2.477   1.858   7.967  1.00  0.00    -0.011 C 
HETATM   18  C1  UNL     1       1.176   1.744   8.114  1.00  0.00     0.009 C 
ENDBRANCH  16  17
ENDBRANCH  15  16
ENDBRANCH  12  15
ENDBRANCH   1  11
TORSDOF 4
ENDMDL
MODEL 4
REMARK VINA RESULT: -5.523653028      1.894      2.510
REMARK  4 active torsions:
REMARK  status: ('A' for Active; 'I' for Inactive)
REMARK    1  A    between atoms: C2_2  and  C3_3 
REMARK    2  A    between atoms: C3_3  and  O1_4 
REMARK    3  A    between atoms: O1_4  and  C4_5 
REMARK       I    between atoms: C4_5  and  N1_7 
REMARK    4  A    between atoms: N1_7  and  N2_9 
ROOT
HETATM    1  N2  UNL     1      -2.541   3.728   7.067  1.00  0.00    -0.303 N 
ATOM      2  H2  UNL     1      -3.230   3.390   7.738  1.00  0.00     0.186 HD
HETATM    3  C5  UNL     1      -2.881   4.582   6.175  1.00  0.00     0.022 C 
HETATM    4  C6  UNL     1      -4.281   5.060   6.145  1.00  0.00     0.056 C 
HETATM    5  C7  UNL     1      -4.507   5.915   4.921  1.00  0.00     0.010 C 
HETATM    6  C8  UNL     1      -3.933   5.212   3.736  1.00  0.00    -0.017 C 
HETATM    7  C9  UNL     1      -4.644   3.861   3.626  1.00  0.00     0.010 C 
HETATM    8  C10 UNL     1      -2.471   4.939   3.818  1.00  0.00     0.030 C 
HETATM    9  C11 UNL     1      -1.897   5.076   5.205  1.00  0.00     0.129 C 
HETATM   10 CL1  UNL     1      -1.447   6.774   5.516  1.00  0.00    -0.119 Cl
ENDROOT
BRANCH   1  11
HETATM   11  N1  UNL     1      -1.242   3.266   7.118  1.00  0.00    -0.245 N 
HETATM   12  C4  UNL     1      -0.890   2.258   8.048  1.00  0.00     0.379 C 
HETATM   13  O2  UNL     1      -1.763   1.801   8.812  1.00  0.00    -0.237 OA
ATOM     14  H1  UNL     1      -0.537   3.650   6.488  1.00  0.00     0.192 HD
BRANCH  12  15
HETATM   15  O1  UNL     1       0.401   1.784   8.116  1.00  0.00    -0.299 OA
BRANCH  15  16
HETATM   16  C3  UNL     1       1.442   2.500   7.527  1.00  0.00     0.207 C 
BRANCH  16  17
HETATM   17  C2  UNL     1       2.784   2.189   8.086  1.00  0.00    -0.011 C 
HETATM   18  C1  UNL     1       3.469   3.165   8.640  1.00  0.00     0.009 C 
ENDBRANCH  16  17
ENDBRANCH  15  16
ENDBRANCH  12  15
ENDBRANCH   1  11
TORSDOF 4
ENDMDL
MODEL 5
REMARK VINA RESULT: -5.275391766      4.113      5.485
REMARK  4 active torsions:
REMARK  status: ('A' for Active; 'I' for Inactive)
REMARK    1  A    between atoms: C2_2  and  C3_3 
REMARK    2  A    between atoms: C3_3  and  O1_4 
REMARK    3  A    between atoms: O1_4  and  C4_5 
REMARK       I    between atoms: C4_5  and  N1_7 
REMARK    4  A    between atoms: N1_7  and  N2_9 
ROOT
HETATM    1  N2  UNL     1      -2.466   2.110   8.572  1.00  0.00    -0.303 N 
ATOM      2  H2  UNL     1      -2.209   1.351   9.202  1.00  0.00     0.186 HD
HETATM    3  C5  UNL     1      -3.643   2.614   8.623  1.00  0.00     0.022 C 
HETATM    4  C6  UNL     1      -4.606   2.073   9.606  1.00  0.00     0.056 C 
HETATM    5  C7  UNL     1      -5.970   2.680   9.379  1.00  0.00     0.010 C 
HETATM    6  C8  UNL     1      -6.281   2.619   7.920  1.00  0.00    -0.017 C 
HETATM    7  C9  UNL     1      -6.238   1.145   7.511  1.00  0.00     0.010 C 
HETATM    8  C10 UNL     1      -5.323   3.352   7.046  1.00  0.00     0.030 C 
HETATM    9  C11 UNL     1      -4.023   3.708   7.722  1.00  0.00     0.129 C 
HETATM   10 CL1  UNL     1      -4.188   5.259   8.588  1.00  0.00    -0.119 Cl
ENDROOT
BRANCH   1  11
HETATM   11  N1  UNL     1      -1.548   2.596   7.664  1.00  0.00    -0.245 N 
HETATM   12  C4  UNL     1      -0.172   2.308   7.833  1.00  0.00     0.379 C 
HETATM   13  O2  UNL     1       0.192   1.616   8.805  1.00  0.00    -0.237 OA
ATOM     14  H1  UNL     1      -1.859   3.162   6.874  1.00  0.00     0.192 HD
BRANCH  12  15
HETATM   15  O1  UNL     1       0.761   2.784   6.939  1.00  0.00    -0.299 OA
BRANCH  15  16
HETATM   16  C3  UNL     1       0.449   3.857   6.106  1.00  0.00     0.207 C 
BRANCH  16  17
HETATM   17  C2  UNL     1       1.592   4.767   5.835  1.00  0.00    -0.011 C 
HETATM   18  C1  UNL     1       1.395   5.796   5.041  1.00  0.00     0.009 C 
ENDBRANCH  16  17
ENDBRANCH  15  16
ENDBRANCH  12  15
ENDBRANCH   1  11
TORSDOF 4
ENDMDL
