MODEL 1
REMARK VINA RESULT: -9.576187850      0.000      0.000
REMARK  7 active torsions:
REMARK  status: ('A' for Active; 'I' for Inactive)
REMARK    1  A    between atoms: C4_4  and  N1_5 
REMARK    2  A    between atoms: N2_8  and  C6_9 
REMARK    3  A    between atoms: C6_9  and  C7_10 
REMARK    4  A    between atoms: C7_10  and  C8_11 
REMARK    5  A    between atoms: C8_11  and  C9_12 
REMARK       I    between atoms: C9_12  and  N3_14 
REMARK    6  A    between atoms: C10_16  and  C11_17 
REMARK    7  A    between atoms: C11_17  and  N4_18 
ROOT
HETATM    1  C6  UNL     1      59.960  49.130 137.866  1.00  0.00     0.134 C 
ENDROOT
BRANCH   1   2
HETATM    2  N2  UNL     1      60.080  50.037 139.006  1.00  0.00    -0.297 N 
HETATM    3  C5  UNL     1      60.585  49.455 140.239  1.00  0.00     0.343 C 
HETATM    4  N1  UNL     1      60.804  50.102 141.442  1.00  0.00    -0.197 N 
HETATM    5  O1  UNL     1      60.845  48.195 140.191  1.00  0.00    -0.245 OA
HETATM    6  S2  UNL     1      59.915  51.622 141.613  1.00  0.00     0.274 S 
HETATM    7  C18 UNL     1      59.792  52.276 139.999  1.00  0.00     0.107 A 
HETATM    8  O6  UNL     1      58.523  51.211 142.059  1.00  0.00    -0.199 OA
HETATM    9  O7  UNL     1      60.574  52.521 142.570  1.00  0.00    -0.199 OA
HETATM   10  C13 UNL     1      59.728  51.398 138.946  1.00  0.00     0.062 A 
HETATM   11  C17 UNL     1      59.603  53.633 139.814  1.00  0.00     0.028 A 
HETATM   12  C14 UNL     1      59.453  51.972 137.701  1.00  0.00     0.031 A 
HETATM   13  C15 UNL     1      59.265  53.313 137.530  1.00  0.00     0.002 A 
HETATM   14  C16 UNL     1      59.336  54.192 138.587  1.00  0.00     0.002 A 
BRANCH   4  15
HETATM   15  C4  UNL     1      61.677  49.723 142.454  1.00  0.00     0.116 C 
HETATM   16  C2  UNL     1      62.803  50.061 142.976  1.00  0.00    -0.071 C 
HETATM   17  C1  UNL     1      63.760  51.139 142.680  1.00  0.00     0.044 C 
HETATM   18  C3  UNL     1      63.331  49.193 144.165  1.00  0.00     0.044 C 
ENDBRANCH   4  15
ENDBRANCH   1   2
BRANCH   1  19
HETATM   19  C7  UNL     1      61.150  49.402 136.998  1.00  0.00     0.029 C 
BRANCH  19  20
HETATM   20  C8  UNL     1      60.912  49.538 135.547  1.00  0.00     0.105 C 
BRANCH  20  21
HETATM   21  C9  UNL     1      61.798  48.717 134.730  1.00  0.00     0.221 C 
HETATM   22  O2  UNL     1      62.529  47.847 135.212  1.00  0.00    -0.273 OA
HETATM   23  N3  UNL     1      61.823  48.922 133.327  1.00  0.00    -0.339 N 
HETATM   24  C10 UNL     1      62.667  49.755 132.839  1.00  0.00     0.083 C 
ATOM     25  H3  UNL     1      61.181  48.416 132.718  1.00  0.00     0.167 HD
BRANCH  24  26
HETATM   26  C11 UNL     1      62.688  49.967 131.356  1.00  0.00     0.167 C 
BRANCH  26  27
HETATM   27  N4  UNL     1      62.809  48.676 130.721  1.00  0.00    -0.350 N 
HETATM   28  C12 UNL     1      63.350  48.633 129.537  1.00  0.00     0.248 C 
HETATM   29  N5  UNL     1      63.639  47.591 128.611  1.00  0.00    -0.225 N 
HETATM   30  O5  UNL     1      63.888  49.530 128.629  1.00  0.00    -0.181 OA
HETATM   31  S1  UNL     1      63.349  48.647 127.305  1.00  0.00     0.372 S 
ATOM     32  H5  UNL     1      63.910  46.611 128.696  1.00  0.00     0.184 HD
HETATM   33  O3  UNL     1      64.312  48.550 126.160  1.00  0.00    -0.175 OA
HETATM   34  O4  UNL     1      61.926  48.843 126.913  1.00  0.00    -0.175 OA
ATOM     35  H4  UNL     1      62.483  47.829 131.184  1.00  0.00     0.163 HD
ENDBRANCH  26  27
ENDBRANCH  24  26
ENDBRANCH  20  21
ENDBRANCH  19  20
ENDBRANCH   1  19
TORSDOF 7
ENDMDL
MODEL 2
REMARK VINA RESULT: -9.543559341      2.042      3.622
REMARK  7 active torsions:
REMARK  status: ('A' for Active; 'I' for Inactive)
REMARK    1  A    between atoms: C4_4  and  N1_5 
REMARK    2  A    between atoms: N2_8  and  C6_9 
REMARK    3  A    between atoms: C6_9  and  C7_10 
REMARK    4  A    between atoms: C7_10  and  C8_11 
REMARK    5  A    between atoms: C8_11  and  C9_12 
REMARK       I    between atoms: C9_12  and  N3_14 
REMARK    6  A    between atoms: C10_16  and  C11_17 
REMARK    7  A    between atoms: C11_17  and  N4_18 
ROOT
HETATM    1  C6  UNL     1      60.301  51.548 136.850  1.00  0.00     0.134 C 
ENDROOT
BRANCH   1   2
HETATM    2  N2  UNL     1      59.962  51.598 138.271  1.00  0.00    -0.297 N 
HETATM    3  C5  UNL     1      59.681  52.915 138.819  1.00  0.00     0.343 C 
HETATM    4  N1  UNL     1      59.324  53.224 140.119  1.00  0.00    -0.197 N 
HETATM    5  O1  UNL     1      59.790  53.894 137.990  1.00  0.00    -0.245 OA
HETATM    6  S2  UNL     1      59.747  51.972 141.296  1.00  0.00     0.274 S 
HETATM    7  C18 UNL     1      59.629  50.458 140.434  1.00  0.00     0.107 A 
HETATM    8  O6  UNL     1      61.212  52.217 141.615  1.00  0.00    -0.199 OA
HETATM    9  O7  UNL     1      58.888  52.046 142.486  1.00  0.00    -0.199 OA
HETATM   10  C13 UNL     1      59.909  50.455 139.090  1.00  0.00     0.062 A 
HETATM   11  C17 UNL     1      59.418  49.282 141.126  1.00  0.00     0.028 A 
HETATM   12  C14 UNL     1      59.971  49.192 138.494  1.00  0.00     0.031 A 
HETATM   13  C15 UNL     1      59.764  48.035 139.188  1.00  0.00     0.002 A 
HETATM   14  C16 UNL     1      59.478  48.043 140.534  1.00  0.00     0.002 A 
BRANCH   4  15
HETATM   15  C4  UNL     1      58.626  54.342 140.557  1.00  0.00     0.116 C 
HETATM   16  C2  UNL     1      58.586  55.167 141.543  1.00  0.00    -0.071 C 
HETATM   17  C1  UNL     1      59.373  55.288 142.780  1.00  0.00     0.044 C 
HETATM   18  C3  UNL     1      57.502  56.294 141.491  1.00  0.00     0.044 C 
ENDBRANCH   4  15
ENDBRANCH   1   2
BRANCH   1  19
HETATM   19  C7  UNL     1      61.755  51.195 136.788  1.00  0.00     0.029 C 
BRANCH  19  20
HETATM   20  C8  UNL     1      62.437  51.366 135.490  1.00  0.00     0.105 C 
BRANCH  20  21
HETATM   21  C9  UNL     1      62.578  50.125 134.735  1.00  0.00     0.221 C 
HETATM   22  O2  UNL     1      62.982  49.078 135.249  1.00  0.00    -0.273 OA
HETATM   23  N3  UNL     1      62.239  50.118 133.359  1.00  0.00    -0.339 N 
HETATM   24  C10 UNL     1      63.152  50.374 132.495  1.00  0.00     0.083 C 
ATOM     25  H3  UNL     1      61.286  49.913 133.061  1.00  0.00     0.167 HD
BRANCH  24  26
HETATM   26  C11 UNL     1      62.787  50.365 131.042  1.00  0.00     0.167 C 
BRANCH  26  27
HETATM   27  N4  UNL     1      62.890  49.007 130.564  1.00  0.00    -0.350 N 
HETATM   28  C12 UNL     1      63.417  48.817 129.388  1.00  0.00     0.248 C 
HETATM   29  N5  UNL     1      63.687  47.670 128.590  1.00  0.00    -0.225 N 
HETATM   30  O5  UNL     1      63.953  49.596 128.375  1.00  0.00    -0.181 OA
HETATM   31  S1  UNL     1      63.392  48.567 127.170  1.00  0.00     0.372 S 
ATOM     32  H5  UNL     1      63.950  46.705 128.787  1.00  0.00     0.184 HD
HETATM   33  O3  UNL     1      64.341  48.326 126.035  1.00  0.00    -0.175 OA
HETATM   34  O4  UNL     1      61.967  48.730 126.772  1.00  0.00    -0.175 OA
ATOM     35  H4  UNL     1      62.561  48.223 131.127  1.00  0.00     0.163 HD
ENDBRANCH  26  27
ENDBRANCH  24  26
ENDBRANCH  20  21
ENDBRANCH  19  20
ENDBRANCH   1  19
TORSDOF 7
ENDMDL
MODEL 3
REMARK VINA RESULT: -9.374403514      2.303      2.689
REMARK  7 active torsions:
REMARK  status: ('A' for Active; 'I' for Inactive)
REMARK    1  A    between atoms: C4_4  and  N1_5 
REMARK    2  A    between atoms: N2_8  and  C6_9 
REMARK    3  A    between atoms: C6_9  and  C7_10 
REMARK    4  A    between atoms: C7_10  and  C8_11 
REMARK    5  A    between atoms: C8_11  and  C9_12 
REMARK       I    between atoms: C9_12  and  N3_14 
REMARK    6  A    between atoms: C10_16  and  C11_17 
REMARK    7  A    between atoms: C11_17  and  N4_18 
ROOT
HETATM    1  C6  UNL     1      59.913  48.917 138.078  1.00  0.00     0.134 C 
ENDROOT
BRANCH   1   2
HETATM    2  N2  UNL     1      60.060  49.877 139.170  1.00  0.00    -0.297 N 
HETATM    3  C5  UNL     1      60.566  49.348 140.426  1.00  0.00     0.343 C 
HETATM    4  N1  UNL     1      60.809  50.049 141.594  1.00  0.00    -0.197 N 
HETATM    5  O1  UNL     1      60.803  48.083 140.439  1.00  0.00    -0.245 OA
HETATM    6  S2  UNL     1      59.950  51.593 141.696  1.00  0.00     0.274 S 
HETATM    7  C18 UNL     1      59.824  52.168 140.053  1.00  0.00     0.107 A 
HETATM    8  O6  UNL     1      58.555  51.231 142.174  1.00  0.00    -0.199 OA
HETATM    9  O7  UNL     1      60.635  52.526 142.601  1.00  0.00    -0.199 OA
HETATM   10  C13 UNL     1      59.734  51.240 139.046  1.00  0.00     0.062 A 
HETATM   11  C17 UNL     1      59.658  53.517 139.802  1.00  0.00     0.028 A 
HETATM   12  C14 UNL     1      59.456  51.757 137.776  1.00  0.00     0.031 A 
HETATM   13  C15 UNL     1      59.291  53.091 137.540  1.00  0.00     0.002 A 
HETATM   14  C16 UNL     1      59.389  54.019 138.551  1.00  0.00     0.002 A 
BRANCH   4  15
HETATM   15  C4  UNL     1      61.684  49.705 142.615  1.00  0.00     0.116 C 
HETATM   16  C2  UNL     1      62.825  50.043 143.105  1.00  0.00    -0.071 C 
HETATM   17  C1  UNL     1      63.805  51.077 142.740  1.00  0.00     0.044 C 
HETATM   18  C3  UNL     1      63.346  49.229 144.335  1.00  0.00     0.044 C 
ENDBRANCH   4  15
ENDBRANCH   1   2
BRANCH   1  19
HETATM   19  C7  UNL     1      61.147  49.055 137.241  1.00  0.00     0.029 C 
BRANCH  19  20
HETATM   20  C8  UNL     1      60.962  49.249 135.789  1.00  0.00     0.105 C 
BRANCH  20  21
HETATM   21  C9  UNL     1      61.787  48.366 134.971  1.00  0.00     0.221 C 
HETATM   22  O2  UNL     1      62.403  47.407 135.444  1.00  0.00    -0.273 OA
HETATM   23  N3  UNL     1      61.888  48.617 133.580  1.00  0.00    -0.339 N 
HETATM   24  C10 UNL     1      62.835  49.372 133.154  1.00  0.00     0.083 C 
ATOM     25  H3  UNL     1      61.221  48.205 132.928  1.00  0.00     0.167 HD
BRANCH  24  26
HETATM   26  C11 UNL     1      62.935  49.632 131.682  1.00  0.00     0.167 C 
BRANCH  26  27
HETATM   27  N4  UNL     1      64.284  50.059 131.395  1.00  0.00    -0.350 N 
HETATM   28  C12 UNL     1      64.617  51.275 131.726  1.00  0.00     0.248 C 
HETATM   29  N5  UNL     1      65.808  52.047 131.616  1.00  0.00    -0.225 N 
HETATM   30  O5  UNL     1      64.013  52.371 132.319  1.00  0.00    -0.181 OA
HETATM   31  S1  UNL     1      64.889  53.465 131.392  1.00  0.00     0.372 S 
ATOM     32  H5  UNL     1      66.806  51.836 131.655  1.00  0.00     0.184 HD
HETATM   33  O3  UNL     1      65.377  54.681 132.121  1.00  0.00    -0.175 OA
HETATM   34  O4  UNL     1      64.384  53.719 130.015  1.00  0.00    -0.175 OA
ATOM     35  H4  UNL     1      64.953  49.432 130.950  1.00  0.00     0.163 HD
ENDBRANCH  26  27
ENDBRANCH  24  26
ENDBRANCH  20  21
ENDBRANCH  19  20
ENDBRANCH   1  19
TORSDOF 7
ENDMDL
MODEL 4
REMARK VINA RESULT: -9.307252869      1.236      1.409
REMARK  7 active torsions:
REMARK  status: ('A' for Active; 'I' for Inactive)
REMARK    1  A    between atoms: C4_4  and  N1_5 
REMARK    2  A    between atoms: N2_8  and  C6_9 
REMARK    3  A    between atoms: C6_9  and  C7_10 
REMARK    4  A    between atoms: C7_10  and  C8_11 
REMARK    5  A    between atoms: C8_11  and  C9_12 
REMARK       I    between atoms: C9_12  and  N3_14 
REMARK    6  A    between atoms: C10_16  and  C11_17 
REMARK    7  A    between atoms: C11_17  and  N4_18 
ROOT
HETATM    1  C6  UNL     1      59.816  48.957 138.078  1.00  0.00     0.134 C 
ENDROOT
BRANCH   1   2
HETATM    2  N2  UNL     1      59.988  49.897 139.184  1.00  0.00    -0.297 N 
HETATM    3  C5  UNL     1      60.482  49.338 140.432  1.00  0.00     0.343 C 
HETATM    4  N1  UNL     1      60.742  50.016 141.609  1.00  0.00    -0.197 N 
HETATM    5  O1  UNL     1      60.687  48.067 140.426  1.00  0.00    -0.245 OA
HETATM    6  S2  UNL     1      59.921  51.578 141.735  1.00  0.00     0.274 S 
HETATM    7  C18 UNL     1      59.807  52.181 140.100  1.00  0.00     0.107 A 
HETATM    8  O6  UNL     1      58.517  51.243 142.209  1.00  0.00    -0.199 OA
HETATM    9  O7  UNL     1      60.629  52.481 142.653  1.00  0.00    -0.199 OA
HETATM   10  C13 UNL     1      59.694  51.269 139.080  1.00  0.00     0.062 A 
HETATM   11  C17 UNL     1      59.674  53.536 139.870  1.00  0.00     0.028 A 
HETATM   12  C14 UNL     1      59.428  51.811 137.819  1.00  0.00     0.031 A 
HETATM   13  C15 UNL     1      59.295  53.152 137.602  1.00  0.00     0.002 A 
HETATM   14  C16 UNL     1      59.416  54.063 138.626  1.00  0.00     0.002 A 
BRANCH   4  15
HETATM   15  C4  UNL     1      61.610  49.636 142.625  1.00  0.00     0.116 C 
HETATM   16  C2  UNL     1      62.759  49.938 143.118  1.00  0.00    -0.071 C 
HETATM   17  C1  UNL     1      63.764  50.953 142.766  1.00  0.00     0.044 C 
HETATM   18  C3  UNL     1      63.261  49.094 144.335  1.00  0.00     0.044 C 
ENDBRANCH   4  15
ENDBRANCH   1   2
BRANCH   1  19
HETATM   19  C7  UNL     1      61.179  48.765 137.488  1.00  0.00     0.029 C 
BRANCH  19  20
HETATM   20  C8  UNL     1      61.451  49.414 136.190  1.00  0.00     0.105 C 
BRANCH  20  21
HETATM   21  C9  UNL     1      61.827  48.478 135.136  1.00  0.00     0.221 C 
HETATM   22  O2  UNL     1      62.370  47.395 135.372  1.00  0.00    -0.273 OA
HETATM   23  N3  UNL     1      61.560  48.822 133.786  1.00  0.00    -0.339 N 
HETATM   24  C10 UNL     1      62.461  49.444 133.117  1.00  0.00     0.083 C 
ATOM     25  H3  UNL     1      60.668  48.580 133.356  1.00  0.00     0.167 HD
BRANCH  24  26
HETATM   26  C11 UNL     1      62.172  49.805 131.691  1.00  0.00     0.167 C 
BRANCH  26  27
HETATM   27  N4  UNL     1      62.913  48.902 130.843  1.00  0.00    -0.350 N 
HETATM   28  C12 UNL     1      64.129  49.238 130.517  1.00  0.00     0.248 C 
HETATM   29  N5  UNL     1      65.150  48.640 129.727  1.00  0.00    -0.225 N 
HETATM   30  O5  UNL     1      64.995  50.292 130.763  1.00  0.00    -0.181 OA
HETATM   31  S1  UNL     1      65.700  50.179 129.241  1.00  0.00     0.372 S 
ATOM     32  H5  UNL     1      65.437  47.680 129.532  1.00  0.00     0.184 HD
HETATM   33  O3  UNL     1      67.188  50.360 129.206  1.00  0.00    -0.175 OA
HETATM   34  O4  UNL     1      64.963  50.824 128.120  1.00  0.00    -0.175 OA
ATOM     35  H4  UNL     1      62.499  48.031 130.511  1.00  0.00     0.163 HD
ENDBRANCH  26  27
ENDBRANCH  24  26
ENDBRANCH  20  21
ENDBRANCH  19  20
ENDBRANCH   1  19
TORSDOF 7
ENDMDL
MODEL 5
REMARK VINA RESULT: -9.190904898      1.964      2.185
REMARK  7 active torsions:
REMARK  status: ('A' for Active; 'I' for Inactive)
REMARK    1  A    between atoms: C4_4  and  N1_5 
REMARK    2  A    between atoms: N2_8  and  C6_9 
REMARK    3  A    between atoms: C6_9  and  C7_10 
REMARK    4  A    between atoms: C7_10  and  C8_11 
REMARK    5  A    between atoms: C8_11  and  C9_12 
REMARK       I    between atoms: C9_12  and  N3_14 
REMARK    6  A    between atoms: C10_16  and  C11_17 
REMARK    7  A    between atoms: C11_17  and  N4_18 
ROOT
HETATM    1  C6  UNL     1      59.997  48.963 137.972  1.00  0.00     0.134 C 
ENDROOT
BRANCH   1   2
HETATM    2  N2  UNL     1      60.109  49.908 139.081  1.00  0.00    -0.297 N 
HETATM    3  C5  UNL     1      60.621  49.373 140.332  1.00  0.00     0.343 C 
HETATM    4  N1  UNL     1      60.835  50.061 141.513  1.00  0.00    -0.197 N 
HETATM    5  O1  UNL     1      60.894  48.115 140.326  1.00  0.00    -0.245 OA
HETATM    6  S2  UNL     1      59.931  51.578 141.634  1.00  0.00     0.274 S 
HETATM    7  C18 UNL     1      59.800  52.177 139.999  1.00  0.00     0.107 A 
HETATM    8  O6  UNL     1      58.543  51.167 142.095  1.00  0.00    -0.199 OA
HETATM    9  O7  UNL     1      60.582  52.515 142.560  1.00  0.00    -0.199 OA
HETATM   10  C13 UNL     1      59.744  51.263 138.976  1.00  0.00     0.062 A 
HETATM   11  C17 UNL     1      59.597  53.524 139.770  1.00  0.00     0.028 A 
HETATM   12  C14 UNL     1      59.461  51.792 137.714  1.00  0.00     0.031 A 
HETATM   13  C15 UNL     1      59.259  53.125 137.499  1.00  0.00     0.002 A 
HETATM   14  C16 UNL     1      59.323  54.039 138.525  1.00  0.00     0.002 A 
BRANCH   4  15
HETATM   15  C4  UNL     1      61.712  49.725 142.536  1.00  0.00     0.116 C 
HETATM   16  C2  UNL     1      62.834  50.095 143.046  1.00  0.00    -0.071 C 
HETATM   17  C1  UNL     1      63.777  51.175 142.717  1.00  0.00     0.044 C 
HETATM   18  C3  UNL     1      63.373  49.271 144.262  1.00  0.00     0.044 C 
ENDBRANCH   4  15
ENDBRANCH   1   2
BRANCH   1  19
HETATM   19  C7  UNL     1      61.181  49.222 137.091  1.00  0.00     0.029 C 
BRANCH  19  20
HETATM   20  C8  UNL     1      61.042  48.894 135.658  1.00  0.00     0.105 C 
BRANCH  20  21
HETATM   21  C9  UNL     1      62.216  49.240 134.863  1.00  0.00     0.221 C 
HETATM   22  O2  UNL     1      63.368  49.081 135.275  1.00  0.00    -0.273 OA
HETATM   23  N3  UNL     1      62.029  49.782 133.566  1.00  0.00    -0.339 N 
HETATM   24  C10 UNL     1      61.956  51.056 133.432  1.00  0.00     0.083 C 
ATOM     25  H3  UNL     1      61.954  49.169 132.754  1.00  0.00     0.167 HD
BRANCH  24  26
HETATM   26  C11 UNL     1      61.758  51.621 132.058  1.00  0.00     0.167 C 
BRANCH  26  27
HETATM   27  N4  UNL     1      62.888  52.466 131.756  1.00  0.00    -0.350 N 
HETATM   28  C12 UNL     1      63.774  52.014 130.914  1.00  0.00     0.248 C 
HETATM   29  N5  UNL     1      64.988  52.526 130.374  1.00  0.00    -0.225 N 
HETATM   30  O5  UNL     1      63.971  50.869 130.160  1.00  0.00    -0.181 OA
HETATM   31  S1  UNL     1      65.643  50.953 130.311  1.00  0.00     0.372 S 
ATOM     32  H5  UNL     1      65.327  53.456 130.126  1.00  0.00     0.184 HD
HETATM   33  O3  UNL     1      66.419  50.618 129.073  1.00  0.00    -0.175 OA
HETATM   34  O4  UNL     1      66.220  50.423 131.576  1.00  0.00    -0.175 OA
ATOM     35  H4  UNL     1      62.990  53.385 132.187  1.00  0.00     0.163 HD
ENDBRANCH  26  27
ENDBRANCH  24  26
ENDBRANCH  20  21
ENDBRANCH  19  20
ENDBRANCH   1  19
TORSDOF 7
ENDMDL
