MODEL 1
REMARK VINA RESULT: -8.131404703      0.000      0.000
REMARK  13 active torsions:
REMARK  status: ('A' for Active; 'I' for Inactive)
REMARK    1  A    between atoms: C2_2  and  N1_3 
REMARK    2  A    between atoms: C2_2  and  C27_58 
REMARK       I    between atoms: N1_3  and  C3_5 
REMARK    3  A    between atoms: C3_5  and  C4_7 
REMARK    4  A    between atoms: C7_12  and  N3_13 
REMARK    5  A    between atoms: C8_18  and  C9_19 
REMARK    6  A    between atoms: C9_19  and  C10_20 
REMARK    7  A    between atoms: C9_19  and  N7_32 
REMARK    8  A    between atoms: C10_20  and  C11_21 
REMARK       I    between atoms: N7_32  and  C18_34 
REMARK    9  A    between atoms: C18_34  and  C19_36 
REMARK   10  A    between atoms: C19_36  and  N8_37 
REMARK       I    between atoms: N8_37  and  C20_39 
REMARK   11  A    between atoms: C20_39  and  C21_41 
REMARK   12  A    between atoms: C21_41  and  N9_42 
REMARK   13  A    between atoms: C23_47  and  C24_48 
REMARK       I    between atoms: C27_58  and  N13_60 
REMARK       I    between atoms: N13_60  and  C28_62 
ROOT
HETATM    1  C4  UNL     1     -32.440  18.718 -17.020  1.00  0.00     0.059 A 
HETATM    2  C5  UNL     1     -33.639  18.386 -16.493  1.00  0.00     0.050 A 
HETATM    3  C6  UNL     1     -33.807  17.288 -15.641  1.00  0.00     0.063 A 
HETATM    4  N2  UNL     1     -35.031  16.987 -15.192  1.00  0.00    -0.191 N 
ATOM      5  H2  UNL     1     -35.828  17.570 -15.445  1.00  0.00     0.184 HD
HETATM    6  C7  UNL     1     -35.198  15.939 -14.425  1.00  0.00     0.676 A 
HETATM    7  N4  UNL     1     -34.184  15.192 -14.093  1.00  0.00    -0.192 N 
ATOM      8  H4  UNL     1     -34.370  14.389 -13.493  1.00  0.00     0.184 HD
HETATM    9  C8  UNL     1     -32.860  15.403 -14.494  1.00  0.00     0.066 A 
HETATM   10  C22 UNL     1     -32.693  16.477 -15.299  1.00  0.00     0.033 A 
HETATM   11  C23 UNL     1     -31.483  16.803 -15.833  1.00  0.00     0.050 A 
HETATM   12  C26 UNL     1     -31.363  17.927 -16.687  1.00  0.00     0.077 A 
HETATM   13  N12 UNL     1     -30.079  18.213 -17.199  1.00  0.00    -0.100 NA
ENDROOT
BRANCH   9  14
HETATM   14  C9  UNL     1     -31.806  14.705 -13.767  1.00  0.00     0.160 C 
BRANCH  14  15
HETATM   15  C10 UNL     1     -32.070  13.255 -13.491  1.00  0.00     0.018 C 
BRANCH  15  16
HETATM   16  C11 UNL     1     -31.262  12.167 -14.007  1.00  0.00    -0.008 A 
HETATM   17  C12 UNL     1     -31.621  11.497 -15.228  1.00  0.00     0.101 A 
HETATM   18  N5  UNL     1     -30.712  10.564 -15.418  1.00  0.00    -0.351 N 
HETATM   19  C13 UNL     1     -29.799  10.553 -14.460  1.00  0.00     0.116 A 
ATOM     20  H5  UNL     1     -30.711   9.924 -16.213  1.00  0.00     0.166 HD
HETATM   21  N6  UNL     1     -28.675   9.814 -14.255  1.00  0.00    -0.352 N 
HETATM   22  C17 UNL     1     -30.131  11.555 -13.566  1.00  0.00     0.019 A 
HETATM   23  C14 UNL     1     -27.886  10.038 -13.215  1.00  0.00     0.090 A 
ATOM     24  H6  UNL     1     -28.436   9.073 -14.915  1.00  0.00     0.166 HD
HETATM   25  C15 UNL     1     -28.194  11.050 -12.292  1.00  0.00     0.018 A 
HETATM   26  C16 UNL     1     -29.320  11.810 -12.474  1.00  0.00     0.017 A 
ENDBRANCH  15  16
ENDBRANCH  14  15
BRANCH  14  27
HETATM   27  N7  UNL     1     -32.052  15.308 -12.399  1.00  0.00    -0.346 N 
HETATM   28  C18 UNL     1     -31.170  16.264 -11.855  1.00  0.00     0.236 C 
HETATM   29  O2  UNL     1     -30.154  16.643 -12.486  1.00  0.00    -0.272 OA
ATOM     30  H7  UNL     1     -32.870  15.018 -11.863  1.00  0.00     0.163 HD
BRANCH  28  31
HETATM   31  C19 UNL     1     -31.425  16.832 -10.520  1.00  0.00     0.225 C 
BRANCH  31  32
HETATM   32  N8  UNL     1     -32.008  15.867  -9.628  1.00  0.00    -0.351 N 
HETATM   33  C20 UNL     1     -31.278  14.709  -9.304  1.00  0.00     0.243 C 
HETATM   34  O3  UNL     1     -30.120  14.556  -9.832  1.00  0.00    -0.272 OA
ATOM     35  H8  UNL     1     -32.938  16.019  -9.238  1.00  0.00     0.163 HD
BRANCH  33  36
HETATM   36  C21 UNL     1     -31.794  13.673  -8.380  1.00  0.00     0.332 C 
BRANCH  36  37
HETATM   37  N9  UNL     1     -32.151  12.483  -9.072  1.00  0.00    -0.071 N 
ATOM     38  H93 UNL     1     -32.586  12.692  -9.971  1.00  0.00     0.274 HD
ATOM     39  H92 UNL     1     -31.325  11.985  -9.406  1.00  0.00     0.274 HD
ATOM     40  H91 UNL     1     -32.744  11.879  -8.502  1.00  0.00     0.274 HD
ENDBRANCH  36  37
ENDBRANCH  33  36
ENDBRANCH  31  32
ENDBRANCH  28  31
ENDBRANCH  14  27
ENDBRANCH   9  14
BRANCH   6  41
HETATM   41  N3  UNL     1     -36.396  15.604 -13.973  1.00  0.00    -0.234 N 
ATOM     42  H32 UNL     1     -37.132  16.311 -13.990  1.00  0.00     0.174 HD
ATOM     43  H31 UNL     1     -36.582  14.669 -13.612  1.00  0.00     0.174 HD
ENDBRANCH   6  41
BRANCH  11  44
HETATM   44  C24 UNL     1     -30.375  15.881 -15.871  1.00  0.00     0.143 A 
HETATM   45  N10 UNL     1     -29.367  15.729 -15.040  1.00  0.00    -0.285 N 
HETATM   46  C25 UNL     1     -28.702  14.585 -15.283  1.00  0.00     0.388 A 
ATOM     47  H10 UNL     1     -29.122  16.392 -14.305  1.00  0.00     0.172 HD
HETATM   48  O4  UNL     1     -27.699  14.083 -14.725  1.00  0.00    -0.236 OA
HETATM   49  O5  UNL     1     -29.339  14.043 -16.296  1.00  0.00    -0.179 OA
HETATM   50  N11 UNL     1     -30.331  14.800 -16.653  1.00  0.00    -0.239 N 
ATOM     51  H11 UNL     1     -30.979  14.600 -17.415  1.00  0.00     0.196 HD
ENDBRANCH  11  44
BRANCH   1  52
HETATM   52  C3  UNL     1     -32.254  19.787 -18.022  1.00  0.00     0.254 C 
HETATM   53  N1  UNL     1     -31.644  19.489 -19.280  1.00  0.00    -0.344 N 
ATOM     54  H1  UNL     1     -31.382  18.519 -19.456  1.00  0.00     0.163 HD
HETATM   55  O1  UNL     1     -32.625  20.944 -17.758  1.00  0.00    -0.268 OA
BRANCH  53  56
HETATM   56  C2  UNL     1     -31.372  20.443 -20.312  1.00  0.00     0.173 C 
HETATM   57  C1  UNL     1     -31.683  19.936 -21.707  1.00  0.00     0.042 C 
BRANCH  56  58
HETATM   58  C27 UNL     1     -29.969  20.922 -20.305  1.00  0.00     0.246 C 
HETATM   59  O6  UNL     1     -29.592  21.909 -20.956  1.00  0.00    -0.271 OA
HETATM   60  N13 UNL     1     -29.011  20.187 -19.488  1.00  0.00    -0.300 N 
HETATM   61  C28 UNL     1     -27.668  20.637 -19.463  1.00  0.00     0.188 C 
ATOM     62  H13 UNL     1     -29.300  19.370 -18.950  1.00  0.00     0.171 HD
HETATM   63  N14 UNL     1     -26.811  19.971 -18.726  1.00  0.00    -0.373 N 
HETATM   64  N15 UNL     1     -27.212  21.766 -20.183  1.00  0.00    -0.064 NA
ATOM     65 2H14 UNL     1     -27.141  19.157 -18.208  1.00  0.00     0.158 HD
ATOM     66 1H14 UNL     1     -25.845  20.295 -18.708  1.00  0.00     0.158 HD
ENDBRANCH  56  58
ENDBRANCH  53  56
ENDBRANCH   1  52
TORSDOF 13
ENDMDL
MODEL 2
REMARK VINA RESULT: -7.987805261      4.250     10.351
REMARK  13 active torsions:
REMARK  status: ('A' for Active; 'I' for Inactive)
REMARK    1  A    between atoms: C2_2  and  N1_3 
REMARK    2  A    between atoms: C2_2  and  C27_58 
REMARK       I    between atoms: N1_3  and  C3_5 
REMARK    3  A    between atoms: C3_5  and  C4_7 
REMARK    4  A    between atoms: C7_12  and  N3_13 
REMARK    5  A    between atoms: C8_18  and  C9_19 
REMARK    6  A    between atoms: C9_19  and  C10_20 
REMARK    7  A    between atoms: C9_19  and  N7_32 
REMARK    8  A    between atoms: C10_20  and  C11_21 
REMARK       I    between atoms: N7_32  and  C18_34 
REMARK    9  A    between atoms: C18_34  and  C19_36 
REMARK   10  A    between atoms: C19_36  and  N8_37 
REMARK       I    between atoms: N8_37  and  C20_39 
REMARK   11  A    between atoms: C20_39  and  C21_41 
REMARK   12  A    between atoms: C21_41  and  N9_42 
REMARK   13  A    between atoms: C23_47  and  C24_48 
REMARK       I    between atoms: C27_58  and  N13_60 
REMARK       I    between atoms: N13_60  and  C28_62 
ROOT
HETATM    1  C4  UNL     1     -32.174  15.516 -16.293  1.00  0.00     0.059 A 
HETATM    2  C5  UNL     1     -32.306  14.973 -17.524  1.00  0.00     0.050 A 
HETATM    3  C6  UNL     1     -33.199  15.479 -18.475  1.00  0.00     0.063 A 
HETATM    4  N2  UNL     1     -33.314  14.865 -19.659  1.00  0.00    -0.191 N 
ATOM      5  H2  UNL     1     -32.736  14.053 -19.874  1.00  0.00     0.184 HD
HETATM    6  C7  UNL     1     -34.175  15.313 -20.537  1.00  0.00     0.676 A 
HETATM    7  N4  UNL     1     -34.914  16.352 -20.272  1.00  0.00    -0.192 N 
ATOM      8  H4  UNL     1     -35.566  16.660 -20.993  1.00  0.00     0.184 HD
HETATM    9  C8  UNL     1     -34.884  17.080 -19.078  1.00  0.00     0.066 A 
HETATM   10  C22 UNL     1     -34.005  16.605 -18.165  1.00  0.00     0.033 A 
HETATM   11  C23 UNL     1     -33.881  17.152 -16.924  1.00  0.00     0.050 A 
HETATM   12  C26 UNL     1     -32.960  16.606 -15.996  1.00  0.00     0.077 A 
HETATM   13  N12 UNL     1     -32.876  17.227 -14.731  1.00  0.00    -0.100 NA
ENDROOT
BRANCH   9  14
HETATM   14  C9  UNL     1     -35.500  18.402 -19.067  1.00  0.00     0.160 C 
BRANCH  14  15
HETATM   15  C10 UNL     1     -36.662  18.575 -19.999  1.00  0.00     0.018 C 
BRANCH  15  16
HETATM   16  C11 UNL     1     -38.034  18.251 -19.661  1.00  0.00    -0.008 A 
HETATM   17  C12 UNL     1     -38.343  17.498 -18.475  1.00  0.00     0.101 A 
HETATM   18  N5  UNL     1     -39.651  17.360 -18.457  1.00  0.00    -0.351 N 
HETATM   19  C13 UNL     1     -40.231  17.941 -19.495  1.00  0.00     0.116 A 
ATOM     20  H5  UNL     1     -40.160  16.862 -17.726  1.00  0.00     0.166 HD
HETATM   21  N6  UNL     1     -41.530  18.092 -19.871  1.00  0.00    -0.352 N 
HETATM   22  C17 UNL     1     -39.226  18.506 -20.261  1.00  0.00     0.019 A 
HETATM   23  C14 UNL     1     -41.855  18.775 -20.958  1.00  0.00     0.090 A 
ATOM     24  H6  UNL     1     -42.266  17.670 -19.305  1.00  0.00     0.166 HD
HETATM   25  C15 UNL     1     -40.859  19.364 -21.755  1.00  0.00     0.018 A 
HETATM   26  C16 UNL     1     -39.543  19.227 -21.399  1.00  0.00     0.017 A 
ENDBRANCH  15  16
ENDBRANCH  14  15
BRANCH  14  27
HETATM   27  N7  UNL     1     -34.415  19.151 -19.814  1.00  0.00    -0.346 N 
HETATM   28  C18 UNL     1     -33.989  20.427 -19.393  1.00  0.00     0.236 C 
HETATM   29  O2  UNL     1     -34.495  20.981 -18.387  1.00  0.00    -0.272 OA
ATOM     30  H7  UNL     1     -33.987  18.725 -20.636  1.00  0.00     0.163 HD
BRANCH  28  31
HETATM   31  C19 UNL     1     -32.937  21.140 -20.138  1.00  0.00     0.225 C 
BRANCH  31  32
HETATM   32  N8  UNL     1     -33.485  22.137 -21.018  1.00  0.00    -0.351 N 
HETATM   33  C20 UNL     1     -33.541  23.474 -20.584  1.00  0.00     0.243 C 
HETATM   34  O3  UNL     1     -33.111  23.746 -19.408  1.00  0.00    -0.272 OA
ATOM     35  H8  UNL     1     -33.828  21.878 -21.943  1.00  0.00     0.163 HD
BRANCH  33  36
HETATM   36  C21 UNL     1     -34.072  24.566 -21.431  1.00  0.00     0.332 C 
BRANCH  36  37
HETATM   37  N9  UNL     1     -35.245  24.167 -22.130  1.00  0.00    -0.071 N 
ATOM     38  H93 UNL     1     -36.088  24.412 -21.610  1.00  0.00     0.274 HD
ATOM     39  H92 UNL     1     -35.396  24.740 -22.960  1.00  0.00     0.274 HD
ATOM     40  H91 UNL     1     -35.225  23.174 -22.362  1.00  0.00     0.274 HD
ENDBRANCH  36  37
ENDBRANCH  33  36
ENDBRANCH  31  32
ENDBRANCH  28  31
ENDBRANCH  14  27
ENDBRANCH   9  14
BRANCH   6  41
HETATM   41  N3  UNL     1     -34.325  14.722 -21.713  1.00  0.00    -0.234 N 
ATOM     42  H32 UNL     1     -34.579  13.734 -21.726  1.00  0.00     0.174 HD
ATOM     43  H31 UNL     1     -34.186  15.235 -22.583  1.00  0.00     0.174 HD
ENDBRANCH   6  41
BRANCH  11  44
HETATM   44  C24 UNL     1     -34.871  18.035 -16.360  1.00  0.00     0.143 A 
HETATM   45  N10 UNL     1     -35.999  17.763 -15.739  1.00  0.00    -0.285 N 
HETATM   46  C25 UNL     1     -36.497  18.854 -15.129  1.00  0.00     0.388 A 
ATOM     47  H10 UNL     1     -36.439  16.844 -15.722  1.00  0.00     0.172 HD
HETATM   48  O4  UNL     1     -37.535  19.013 -14.448  1.00  0.00    -0.236 OA
HETATM   49  O5  UNL     1     -35.632  19.806 -15.400  1.00  0.00    -0.179 OA
HETATM   50  N11 UNL     1     -34.666  19.334 -16.127  1.00  0.00    -0.239 N 
ATOM     51  H11 UNL     1     -33.870  19.873 -16.469  1.00  0.00     0.196 HD
ENDBRANCH  11  44
BRANCH   1  52
HETATM   52  C3  UNL     1     -31.341  14.928 -15.225  1.00  0.00     0.254 C 
HETATM   53  N1  UNL     1     -31.959  14.313 -14.093  1.00  0.00    -0.344 N 
ATOM     54  H1  UNL     1     -32.979  14.274 -14.079  1.00  0.00     0.163 HD
HETATM   55  O1  UNL     1     -30.102  14.980 -15.317  1.00  0.00    -0.268 OA
BRANCH  53  56
HETATM   56  C2  UNL     1     -31.263  13.748 -12.976  1.00  0.00     0.173 C 
HETATM   57  C1  UNL     1     -32.071  12.716 -12.215  1.00  0.00     0.042 C 
BRANCH  56  58
HETATM   58  C27 UNL     1     -30.798  14.767 -12.006  1.00  0.00     0.246 C 
HETATM   59  O6  UNL     1     -29.620  14.840 -11.619  1.00  0.00    -0.271 OA
HETATM   60  N13 UNL     1     -31.784  15.716 -11.501  1.00  0.00    -0.300 N 
HETATM   61  C28 UNL     1     -31.353  16.701 -10.579  1.00  0.00     0.188 C 
ATOM     62  H13 UNL     1     -32.756  15.670 -11.802  1.00  0.00     0.171 HD
HETATM   63  N14 UNL     1     -32.244  17.552 -10.129  1.00  0.00    -0.373 N 
HETATM   64  N15 UNL     1     -30.016  16.817 -10.131  1.00  0.00    -0.064 NA
ATOM     65 2H14 UNL     1     -33.208  17.467 -10.452  1.00  0.00     0.158 HD
ATOM     66 1H14 UNL     1     -31.935  18.262  -9.466  1.00  0.00     0.158 HD
ENDBRANCH  56  58
ENDBRANCH  53  56
ENDBRANCH   1  52
TORSDOF 13
ENDMDL
MODEL 3
REMARK VINA RESULT: -7.923243311      3.690      9.858
REMARK  13 active torsions:
REMARK  status: ('A' for Active; 'I' for Inactive)
REMARK    1  A    between atoms: C2_2  and  N1_3 
REMARK    2  A    between atoms: C2_2  and  C27_58 
REMARK       I    between atoms: N1_3  and  C3_5 
REMARK    3  A    between atoms: C3_5  and  C4_7 
REMARK    4  A    between atoms: C7_12  and  N3_13 
REMARK    5  A    between atoms: C8_18  and  C9_19 
REMARK    6  A    between atoms: C9_19  and  C10_20 
REMARK    7  A    between atoms: C9_19  and  N7_32 
REMARK    8  A    between atoms: C10_20  and  C11_21 
REMARK       I    between atoms: N7_32  and  C18_34 
REMARK    9  A    between atoms: C18_34  and  C19_36 
REMARK   10  A    between atoms: C19_36  and  N8_37 
REMARK       I    between atoms: N8_37  and  C20_39 
REMARK   11  A    between atoms: C20_39  and  C21_41 
REMARK   12  A    between atoms: C21_41  and  N9_42 
REMARK   13  A    between atoms: C23_47  and  C24_48 
REMARK       I    between atoms: C27_58  and  N13_60 
REMARK       I    between atoms: N13_60  and  C28_62 
ROOT
HETATM    1  C4  UNL     1     -31.825  14.760 -16.090  1.00  0.00     0.059 A 
HETATM    2  C5  UNL     1     -31.887  14.201 -17.319  1.00  0.00     0.050 A 
HETATM    3  C6  UNL     1     -32.608  14.779 -18.370  1.00  0.00     0.063 A 
HETATM    4  N2  UNL     1     -32.667  14.149 -19.549  1.00  0.00    -0.191 N 
ATOM      5  H2  UNL     1     -32.167  13.271 -19.687  1.00  0.00     0.184 HD
HETATM    6  C7  UNL     1     -33.371  14.667 -20.524  1.00  0.00     0.676 A 
HETATM    7  N4  UNL     1     -34.008  15.790 -20.357  1.00  0.00    -0.192 N 
ATOM      8  H4  UNL     1     -34.540  16.150 -21.150  1.00  0.00     0.184 HD
HETATM    9  C8  UNL     1     -34.021  16.543 -19.178  1.00  0.00     0.066 A 
HETATM   10  C22 UNL     1     -33.307  15.997 -18.168  1.00  0.00     0.033 A 
HETATM   11  C23 UNL     1     -33.254  16.561 -16.929  1.00  0.00     0.050 A 
HETATM   12  C26 UNL     1     -32.506  15.940 -15.898  1.00  0.00     0.077 A 
HETATM   13  N12 UNL     1     -32.487  16.583 -14.641  1.00  0.00    -0.100 NA
ENDROOT
BRANCH   9  14
HETATM   14  C9  UNL     1     -34.478  17.926 -19.256  1.00  0.00     0.160 C 
BRANCH  14  15
HETATM   15  C10 UNL     1     -35.523  18.199 -20.296  1.00  0.00     0.018 C 
BRANCH  15  16
HETATM   16  C11 UNL     1     -36.949  18.221 -20.032  1.00  0.00    -0.008 A 
HETATM   17  C12 UNL     1     -37.482  17.674 -18.814  1.00  0.00     0.101 A 
HETATM   18  N5  UNL     1     -38.787  17.831 -18.879  1.00  0.00    -0.351 N 
HETATM   19  C13 UNL     1     -39.164  18.422 -20.002  1.00  0.00     0.116 A 
ATOM     20  H5  UNL     1     -39.433  17.532 -18.148  1.00  0.00     0.166 HD
HETATM   21  N6  UNL     1     -40.374  18.818 -20.482  1.00  0.00    -0.352 N 
HETATM   22  C17 UNL     1     -38.019  18.673 -20.737  1.00  0.00     0.019 A 
HETATM   23  C14 UNL     1     -40.479  19.447 -21.643  1.00  0.00     0.090 A 
ATOM     24  H6  UNL     1     -41.215  18.627 -19.938  1.00  0.00     0.166 HD
HETATM   25  C15 UNL     1     -39.335  19.721 -22.411  1.00  0.00     0.018 A 
HETATM   26  C16 UNL     1     -38.104  19.332 -21.951  1.00  0.00     0.017 A 
ENDBRANCH  15  16
ENDBRANCH  14  15
BRANCH  14  27
HETATM   27  N7  UNL     1     -33.251  18.521 -19.916  1.00  0.00    -0.346 N 
HETATM   28  C18 UNL     1     -32.692  19.731 -19.459  1.00  0.00     0.236 C 
HETATM   29  O2  UNL     1     -33.194  20.354 -18.492  1.00  0.00    -0.272 OA
ATOM     30  H7  UNL     1     -32.822  18.037 -20.706  1.00  0.00     0.163 HD
BRANCH  28  31
HETATM   31  C19 UNL     1     -31.502  20.295 -20.120  1.00  0.00     0.225 C 
BRANCH  31  32
HETATM   32  N8  UNL     1     -30.344  20.253 -19.268  1.00  0.00    -0.351 N 
HETATM   33  C20 UNL     1     -29.068  20.161 -19.853  1.00  0.00     0.243 C 
HETATM   34  O3  UNL     1     -28.993  20.105 -21.132  1.00  0.00    -0.272 OA
ATOM     35  H8  UNL     1     -30.447  20.289 -18.254  1.00  0.00     0.163 HD
BRANCH  33  36
HETATM   36  C21 UNL     1     -27.823  20.132 -19.053  1.00  0.00     0.332 C 
BRANCH  36  37
HETATM   37  N9  UNL     1     -27.743  18.962 -18.249  1.00  0.00    -0.071 N 
ATOM     38  H93 UNL     1     -28.514  18.916 -17.582  1.00  0.00     0.274 HD
ATOM     39  H92 UNL     1     -27.949  18.123 -18.791  1.00  0.00     0.274 HD
ATOM     40  H91 UNL     1     -26.840  18.888 -17.780  1.00  0.00     0.274 HD
ENDBRANCH  36  37
ENDBRANCH  33  36
ENDBRANCH  31  32
ENDBRANCH  28  31
ENDBRANCH  14  27
ENDBRANCH   9  14
BRANCH   6  41
HETATM   41  N3  UNL     1     -33.462  14.064 -21.699  1.00  0.00    -0.234 N 
ATOM     42  H32 UNL     1     -32.686  13.474 -22.000  1.00  0.00     0.174 HD
ATOM     43  H31 UNL     1     -34.281  14.188 -22.294  1.00  0.00     0.174 HD
ENDBRANCH   6  41
BRANCH  11  44
HETATM   44  C24 UNL     1     -34.189  17.567 -16.490  1.00  0.00     0.143 A 
HETATM   45  N10 UNL     1     -35.428  17.448 -16.065  1.00  0.00    -0.285 N 
HETATM   46  C25 UNL     1     -35.861  18.588 -15.496  1.00  0.00     0.388 A 
ATOM     47  H10 UNL     1     -35.988  16.601 -16.154  1.00  0.00     0.172 HD
HETATM   48  O4  UNL     1     -36.963  18.881 -14.979  1.00  0.00    -0.236 OA
HETATM   49  O5  UNL     1     -34.841  19.410 -15.590  1.00  0.00    -0.179 OA
HETATM   50  N11 UNL     1     -33.846  18.818 -16.176  1.00  0.00    -0.239 N 
ATOM     51  H11 UNL     1     -32.939  19.243 -16.367  1.00  0.00     0.196 HD
ENDBRANCH  11  44
BRANCH   1  52
HETATM   52  C3  UNL     1     -31.185  14.111 -14.927  1.00  0.00     0.254 C 
HETATM   53  N1  UNL     1     -31.985  13.648 -13.838  1.00  0.00    -0.344 N 
ATOM     54  H1  UNL     1     -32.996  13.756 -13.918  1.00  0.00     0.163 HD
HETATM   55  O1  UNL     1     -29.949  13.980 -14.904  1.00  0.00    -0.268 OA
BRANCH  53  56
HETATM   56  C2  UNL     1     -31.481  13.043 -12.641  1.00  0.00     0.173 C 
HETATM   57  C1  UNL     1     -32.505  12.200 -11.907  1.00  0.00     0.042 C 
BRANCH  56  58
HETATM   58  C27 UNL     1     -30.930  14.029 -11.681  1.00  0.00     0.246 C 
HETATM   59  O6  UNL     1     -29.756  13.993 -11.279  1.00  0.00    -0.271 OA
HETATM   60  N13 UNL     1     -31.825  15.077 -11.204  1.00  0.00    -0.300 N 
HETATM   61  C28 UNL     1     -31.311  16.032 -10.293  1.00  0.00     0.188 C 
ATOM     62  H13 UNL     1     -32.794  15.121 -11.518  1.00  0.00     0.171 HD
HETATM   63  N14 UNL     1     -32.121  16.972  -9.868  1.00  0.00    -0.373 N 
HETATM   64  N15 UNL     1     -29.975  16.025  -9.827  1.00  0.00    -0.064 NA
ATOM     65 2H14 UNL     1     -33.084  16.976 -10.203  1.00  0.00     0.158 HD
ATOM     66 1H14 UNL     1     -31.752  17.660  -9.212  1.00  0.00     0.158 HD
ENDBRANCH  56  58
ENDBRANCH  53  56
ENDBRANCH   1  52
TORSDOF 13
ENDMDL
MODEL 4
REMARK VINA RESULT: -7.869374413      1.589      2.416
REMARK  13 active torsions:
REMARK  status: ('A' for Active; 'I' for Inactive)
REMARK    1  A    between atoms: C2_2  and  N1_3 
REMARK    2  A    between atoms: C2_2  and  C27_58 
REMARK       I    between atoms: N1_3  and  C3_5 
REMARK    3  A    between atoms: C3_5  and  C4_7 
REMARK    4  A    between atoms: C7_12  and  N3_13 
REMARK    5  A    between atoms: C8_18  and  C9_19 
REMARK    6  A    between atoms: C9_19  and  C10_20 
REMARK    7  A    between atoms: C9_19  and  N7_32 
REMARK    8  A    between atoms: C10_20  and  C11_21 
REMARK       I    between atoms: N7_32  and  C18_34 
REMARK    9  A    between atoms: C18_34  and  C19_36 
REMARK   10  A    between atoms: C19_36  and  N8_37 
REMARK       I    between atoms: N8_37  and  C20_39 
REMARK   11  A    between atoms: C20_39  and  C21_41 
REMARK   12  A    between atoms: C21_41  and  N9_42 
REMARK   13  A    between atoms: C23_47  and  C24_48 
REMARK       I    between atoms: C27_58  and  N13_60 
REMARK       I    between atoms: N13_60  and  C28_62 
ROOT
HETATM    1  C4  UNL     1     -32.983  18.457 -16.405  1.00  0.00     0.059 A 
HETATM    2  C5  UNL     1     -34.153  17.932 -15.978  1.00  0.00     0.050 A 
HETATM    3  C6  UNL     1     -34.225  16.704 -15.311  1.00  0.00     0.063 A 
HETATM    4  N2  UNL     1     -35.422  16.219 -14.956  1.00  0.00    -0.191 N 
ATOM      5  H2  UNL     1     -36.268  16.755 -15.145  1.00  0.00     0.184 HD
HETATM    6  C7  UNL     1     -35.497  15.053 -14.366  1.00  0.00     0.676 A 
HETATM    7  N4  UNL     1     -34.419  14.365 -14.117  1.00  0.00    -0.192 N 
ATOM      8  H4  UNL     1     -34.535  13.464 -13.654  1.00  0.00     0.184 HD
HETATM    9  C8  UNL     1     -33.116  14.763 -14.434  1.00  0.00     0.066 A 
HETATM   10  C22 UNL     1     -33.043  15.961 -15.059  1.00  0.00     0.033 A 
HETATM   11  C23 UNL     1     -31.861  16.482 -15.494  1.00  0.00     0.050 A 
HETATM   12  C26 UNL     1     -31.839  17.732 -16.160  1.00  0.00     0.077 A 
HETATM   13  N12 UNL     1     -30.580  18.216 -16.576  1.00  0.00    -0.100 NA
ENDROOT
BRANCH   9  14
HETATM   14  C9  UNL     1     -32.012  14.065 -13.787  1.00  0.00     0.160 C 
BRANCH  14  15
HETATM   15  C10 UNL     1     -32.154  12.574 -13.708  1.00  0.00     0.018 C 
BRANCH  15  16
HETATM   16  C11 UNL     1     -31.592  11.650 -14.673  1.00  0.00    -0.008 A 
HETATM   17  C12 UNL     1     -30.588  10.696 -14.282  1.00  0.00     0.101 A 
HETATM   18  N5  UNL     1     -30.278  10.022 -15.369  1.00  0.00    -0.351 N 
HETATM   19  C13 UNL     1     -30.968  10.426 -16.423  1.00  0.00     0.116 A 
ATOM     20  H5  UNL     1     -29.585   9.273 -15.395  1.00  0.00     0.166 HD
HETATM   21  N6  UNL     1     -31.017  10.010 -17.718  1.00  0.00    -0.352 N 
HETATM   22  C17 UNL     1     -31.799  11.449 -16.001  1.00  0.00     0.019 A 
HETATM   23  C14 UNL     1     -31.850  10.564 -18.586  1.00  0.00     0.090 A 
ATOM     24  H6  UNL     1     -30.400   9.259 -18.025  1.00  0.00     0.166 HD
HETATM   25  C15 UNL     1     -32.709  11.602 -18.187  1.00  0.00     0.018 A 
HETATM   26  C16 UNL     1     -32.680  12.040 -16.889  1.00  0.00     0.017 A 
ENDBRANCH  15  16
ENDBRANCH  14  15
BRANCH  14  27
HETATM   27  N7  UNL     1     -32.317  14.461 -12.356  1.00  0.00    -0.346 N 
HETATM   28  C18 UNL     1     -31.295  14.897 -11.488  1.00  0.00     0.236 C 
HETATM   29  O2  UNL     1     -30.103  14.969 -11.872  1.00  0.00    -0.272 OA
ATOM     30  H7  UNL     1     -33.277  14.410 -12.016  1.00  0.00     0.163 HD
BRANCH  28  31
HETATM   31  C19 UNL     1     -31.614  15.270 -10.099  1.00  0.00     0.225 C 
BRANCH  31  32
HETATM   32  N8  UNL     1     -31.315  14.208  -9.176  1.00  0.00    -0.351 N 
HETATM   33  C20 UNL     1     -32.133  13.064  -9.164  1.00  0.00     0.243 C 
HETATM   34  O3  UNL     1     -33.126  13.022  -9.974  1.00  0.00    -0.272 OA
ATOM     35  H8  UNL     1     -30.522  14.284  -8.539  1.00  0.00     0.163 HD
BRANCH  33  36
HETATM   36  C21 UNL     1     -31.888  11.916  -8.261  1.00  0.00     0.332 C 
BRANCH  36  37
HETATM   37  N9  UNL     1     -31.646  12.341  -6.926  1.00  0.00    -0.071 N 
ATOM     38  H93 UNL     1     -30.943  13.080  -6.892  1.00  0.00     0.274 HD
ATOM     39  H92 UNL     1     -32.441  12.859  -6.550  1.00  0.00     0.274 HD
ATOM     40  H91 UNL     1     -31.393  11.559  -6.321  1.00  0.00     0.274 HD
ENDBRANCH  36  37
ENDBRANCH  33  36
ENDBRANCH  31  32
ENDBRANCH  28  31
ENDBRANCH  14  27
ENDBRANCH   9  14
BRANCH   6  41
HETATM   41  N3  UNL     1     -36.664  14.538 -14.014  1.00  0.00    -0.234 N 
ATOM     42  H32 UNL     1     -37.512  14.959 -14.394  1.00  0.00     0.174 HD
ATOM     43  H31 UNL     1     -36.720  13.744 -13.375  1.00  0.00     0.174 HD
ENDBRANCH   6  41
BRANCH  11  44
HETATM   44  C24 UNL     1     -30.666  15.689 -15.634  1.00  0.00     0.143 A 
HETATM   45  N10 UNL     1     -29.678  15.483 -14.790  1.00  0.00    -0.285 N 
HETATM   46  C25 UNL     1     -28.892  14.469 -15.194  1.00  0.00     0.388 A 
ATOM     47  H10 UNL     1     -29.527  16.024 -13.938  1.00  0.00     0.172 HD
HETATM   48  O4  UNL     1     -27.865  13.970 -14.681  1.00  0.00    -0.236 OA
HETATM   49  O5  UNL     1     -29.435  14.060 -16.319  1.00  0.00    -0.179 OA
HETATM   50  N11 UNL     1     -30.485  14.774 -16.589  1.00  0.00    -0.239 N 
ATOM     51  H11 UNL     1     -31.082  14.655 -17.408  1.00  0.00     0.196 HD
ENDBRANCH  11  44
BRANCH   1  52
HETATM   52  C3  UNL     1     -32.886  19.682 -17.224  1.00  0.00     0.254 C 
HETATM   53  N1  UNL     1     -32.259  19.636 -18.507  1.00  0.00    -0.344 N 
ATOM     54  H1  UNL     1     -31.920  18.730 -18.832  1.00  0.00     0.163 HD
HETATM   55  O1  UNL     1     -33.348  20.749 -16.784  1.00  0.00    -0.268 OA
BRANCH  53  56
HETATM   56  C2  UNL     1     -32.067  20.760 -19.374  1.00  0.00     0.173 C 
HETATM   57  C1  UNL     1     -33.221  20.997 -20.327  1.00  0.00     0.042 C 
BRANCH  56  58
HETATM   58  C27 UNL     1     -30.824  20.669 -20.176  1.00  0.00     0.246 C 
HETATM   59  O6  UNL     1     -29.698  20.878 -19.699  1.00  0.00    -0.271 OA
HETATM   60  N13 UNL     1     -30.957  20.314 -21.585  1.00  0.00    -0.300 N 
HETATM   61  C28 UNL     1     -29.779  20.214 -22.363  1.00  0.00     0.188 C 
ATOM     62  H13 UNL     1     -31.874  20.143 -21.997  1.00  0.00     0.171 HD
HETATM   63  N14 UNL     1     -29.905  19.894 -23.629  1.00  0.00    -0.373 N 
HETATM   64  N15 UNL     1     -28.481  20.434 -21.845  1.00  0.00    -0.064 NA
ATOM     65 2H14 UNL     1     -30.840  19.737 -24.003  1.00  0.00     0.158 HD
ATOM     66 1H14 UNL     1     -29.056  19.822 -24.191  1.00  0.00     0.158 HD
ENDBRANCH  56  58
ENDBRANCH  53  56
ENDBRANCH   1  52
TORSDOF 13
ENDMDL
MODEL 5
REMARK VINA RESULT: -7.829411047      3.641     10.207
REMARK  13 active torsions:
REMARK  status: ('A' for Active; 'I' for Inactive)
REMARK    1  A    between atoms: C2_2  and  N1_3 
REMARK    2  A    between atoms: C2_2  and  C27_58 
REMARK       I    between atoms: N1_3  and  C3_5 
REMARK    3  A    between atoms: C3_5  and  C4_7 
REMARK    4  A    between atoms: C7_12  and  N3_13 
REMARK    5  A    between atoms: C8_18  and  C9_19 
REMARK    6  A    between atoms: C9_19  and  C10_20 
REMARK    7  A    between atoms: C9_19  and  N7_32 
REMARK    8  A    between atoms: C10_20  and  C11_21 
REMARK       I    between atoms: N7_32  and  C18_34 
REMARK    9  A    between atoms: C18_34  and  C19_36 
REMARK   10  A    between atoms: C19_36  and  N8_37 
REMARK       I    between atoms: N8_37  and  C20_39 
REMARK   11  A    between atoms: C20_39  and  C21_41 
REMARK   12  A    between atoms: C21_41  and  N9_42 
REMARK   13  A    between atoms: C23_47  and  C24_48 
REMARK       I    between atoms: C27_58  and  N13_60 
REMARK       I    between atoms: N13_60  and  C28_62 
ROOT
HETATM    1  C4  UNL     1     -31.596  15.586 -15.395  1.00  0.00     0.059 A 
HETATM    2  C5  UNL     1     -31.587  14.790 -16.487  1.00  0.00     0.050 A 
HETATM    3  C6  UNL     1     -32.382  15.047 -17.609  1.00  0.00     0.063 A 
HETATM    4  N2  UNL     1     -32.360  14.193 -18.639  1.00  0.00    -0.191 N 
ATOM      5  H2  UNL     1     -31.747  13.378 -18.616  1.00  0.00     0.184 HD
HETATM    6  C7  UNL     1     -33.130  14.410 -19.675  1.00  0.00     0.676 A 
HETATM    7  N4  UNL     1     -33.912  15.451 -19.714  1.00  0.00    -0.192 N 
ATOM      8  H4  UNL     1     -34.489  15.573 -20.545  1.00  0.00     0.184 HD
HETATM    9  C8  UNL     1     -34.022  16.416 -18.706  1.00  0.00     0.066 A 
HETATM   10  C22 UNL     1     -33.237  16.180 -17.630  1.00  0.00     0.033 A 
HETATM   11  C23 UNL     1     -33.256  16.981 -16.528  1.00  0.00     0.050 A 
HETATM   12  C26 UNL     1     -32.429  16.681 -15.418  1.00  0.00     0.077 A 
HETATM   13  N12 UNL     1     -32.492  17.558 -14.314  1.00  0.00    -0.100 NA
ENDROOT
BRANCH   9  14
HETATM   14  C9  UNL     1     -34.660  17.683 -19.041  1.00  0.00     0.160 C 
BRANCH  14  15
HETATM   15  C10 UNL     1     -35.710  17.611 -20.109  1.00  0.00     0.018 C 
BRANCH  15  16
HETATM   16  C11 UNL     1     -37.127  17.809 -19.873  1.00  0.00    -0.008 A 
HETATM   17  C12 UNL     1     -37.734  17.395 -18.637  1.00  0.00     0.101 A 
HETATM   18  N5  UNL     1     -39.011  17.696 -18.734  1.00  0.00    -0.351 N 
HETATM   19  C13 UNL     1     -39.305  18.263 -19.893  1.00  0.00     0.116 A 
ATOM     20  H5  UNL     1     -39.696  17.513 -18.000  1.00  0.00     0.166 HD
HETATM   21  N6  UNL     1     -40.456  18.767 -20.416  1.00  0.00    -0.352 N 
HETATM   22  C17 UNL     1     -38.130  18.341 -20.620  1.00  0.00     0.019 A 
HETATM   23  C14 UNL     1     -40.474  19.339 -21.611  1.00  0.00     0.090 A 
ATOM     24  H6  UNL     1     -41.320  18.704 -19.878  1.00  0.00     0.166 HD
HETATM   25  C15 UNL     1     -39.297  19.438 -22.372  1.00  0.00     0.018 A 
HETATM   26  C16 UNL     1     -38.124  18.937 -21.869  1.00  0.00     0.017 A 
ENDBRANCH  15  16
ENDBRANCH  14  15
BRANCH  14  27
HETATM   27  N7  UNL     1     -33.511  18.306 -19.808  1.00  0.00    -0.346 N 
HETATM   28  C18 UNL     1     -33.171  19.664 -19.636  1.00  0.00     0.236 C 
HETATM   29  O2  UNL     1     -33.811  20.398 -18.845  1.00  0.00    -0.272 OA
ATOM     30  H7  UNL     1     -32.975  17.734 -20.460  1.00  0.00     0.163 HD
BRANCH  28  31
HETATM   31  C19 UNL     1     -32.054  20.250 -20.397  1.00  0.00     0.225 C 
BRANCH  31  32
HETATM   32  N8  UNL     1     -30.875  20.399 -19.588  1.00  0.00    -0.351 N 
HETATM   33  C20 UNL     1     -29.611  20.299 -20.199  1.00  0.00     0.243 C 
HETATM   34  O3  UNL     1     -29.565  20.063 -21.458  1.00  0.00    -0.272 OA
ATOM     35  H8  UNL     1     -30.953  20.575 -18.587  1.00  0.00     0.163 HD
BRANCH  33  36
HETATM   36  C21 UNL     1     -28.346  20.458 -19.446  1.00  0.00     0.332 C 
BRANCH  36  37
HETATM   37  N9  UNL     1     -28.031  19.293 -18.694  1.00  0.00    -0.071 N 
ATOM     38  H93 UNL     1     -28.157  18.447 -19.251  1.00  0.00     0.274 HD
ATOM     39  H92 UNL     1     -27.029  19.222 -18.520  1.00  0.00     0.274 HD
ATOM     40  H91 UNL     1     -28.564  19.250 -17.826  1.00  0.00     0.274 HD
ENDBRANCH  36  37
ENDBRANCH  33  36
ENDBRANCH  31  32
ENDBRANCH  28  31
ENDBRANCH  14  27
ENDBRANCH   9  14
BRANCH   6  41
HETATM   41  N3  UNL     1     -33.144  13.578 -20.705  1.00  0.00    -0.234 N 
ATOM     42  H32 UNL     1     -33.425  12.612 -20.541  1.00  0.00     0.174 HD
ATOM     43  H31 UNL     1     -32.876  13.890 -21.639  1.00  0.00     0.174 HD
ENDBRANCH   6  41
BRANCH  11  44
HETATM   44  C24 UNL     1     -34.316  17.923 -16.269  1.00  0.00     0.143 A 
HETATM   45  N10 UNL     1     -35.529  17.729 -15.799  1.00  0.00    -0.285 N 
HETATM   46  C25 UNL     1     -36.109  18.892 -15.450  1.00  0.00     0.388 A 
ATOM     47  H10 UNL     1     -35.973  16.816 -15.711  1.00  0.00     0.172 HD
HETATM   48  O4  UNL     1     -37.241  19.135 -14.972  1.00  0.00    -0.236 OA
HETATM   49  O5  UNL     1     -35.206  19.806 -15.724  1.00  0.00    -0.179 OA
HETATM   50  N11 UNL     1     -34.141  19.245 -16.209  1.00  0.00    -0.239 N 
ATOM     51  H11 UNL     1     -33.297  19.739 -16.500  1.00  0.00     0.196 HD
ENDBRANCH  11  44
BRANCH   1  52
HETATM   52  C3  UNL     1     -30.871  15.271 -14.147  1.00  0.00     0.254 C 
HETATM   53  N1  UNL     1     -31.462  14.405 -13.176  1.00  0.00    -0.344 N 
ATOM     54  H1  UNL     1     -32.372  14.001 -13.399  1.00  0.00     0.163 HD
HETATM   55  O1  UNL     1     -29.750  15.771 -13.949  1.00  0.00    -0.268 OA
BRANCH  53  56
HETATM   56  C2  UNL     1     -30.880  14.060 -11.914  1.00  0.00     0.173 C 
HETATM   57  C1  UNL     1     -29.702  13.112 -12.027  1.00  0.00     0.042 C 
BRANCH  56  58
HETATM   58  C27 UNL     1     -31.854  13.464 -10.968  1.00  0.00     0.246 C 
HETATM   59  O6  UNL     1     -33.028  13.213 -11.281  1.00  0.00    -0.271 OA
HETATM   60  N13 UNL     1     -31.387  13.167  -9.619  1.00  0.00    -0.300 N 
HETATM   61  C28 UNL     1     -32.303  12.590  -8.706  1.00  0.00     0.188 C 
ATOM     62  H13 UNL     1     -30.427  13.370  -9.340  1.00  0.00     0.171 HD
HETATM   63  N14 UNL     1     -31.877  12.325  -7.494  1.00  0.00    -0.373 N 
HETATM   64  N15 UNL     1     -33.643  12.281  -9.037  1.00  0.00    -0.064 NA
ATOM     65 2H14 UNL     1     -30.911  12.549  -7.255  1.00  0.00     0.158 HD
ATOM     66 1H14 UNL     1     -32.536  11.910  -6.836  1.00  0.00     0.158 HD
ENDBRANCH  56  58
ENDBRANCH  53  56
ENDBRANCH   1  52
TORSDOF 13
ENDMDL
