MODEL 1
REMARK VINA RESULT: -8.376838692      0.000      0.000
REMARK  13 active torsions:
REMARK  status: ('A' for Active; 'I' for Inactive)
REMARK    1  A    between atoms: C3_5  and  N2_6 
REMARK    2  A    between atoms: C5_11  and  N4_12 
REMARK    3  A    between atoms: C6_17  and  C7_18 
REMARK    4  A    between atoms: C7_18  and  N6_19 
REMARK    5  A    between atoms: C8_22  and  C9_23 
REMARK       I    between atoms: C9_23  and  N7_25 
REMARK    6  A    between atoms: N7_25  and  N8_27 
REMARK    7  A    between atoms: N8_27  and  N9_29 
REMARK    8  A    between atoms: N9_29  and  N10_31 
REMARK    9  A    between atoms: N10_31  and  C10_33 
REMARK   10  A    between atoms: C10_33  and  C13_40 
REMARK   11  A    between atoms: C11_34  and  O3_35 
REMARK   12  A    between atoms: C11_34  and  C12_37 
REMARK   13  A    between atoms: C20_47  and  O6_48 
ROOT
HETATM    1  N6  UNL     1     -31.144   3.154 -25.442  1.00  0.00    -0.294 NA
HETATM    2  O1  UNL     1     -31.923   2.418 -24.753  1.00  0.00    -0.219 OA
ATOM      3  H1  UNL     1     -32.581   1.842 -24.381  1.00  0.00     0.261 HD
ENDROOT
BRANCH   1   4
HETATM    4  C7  UNL     1     -30.321   3.874 -25.908  1.00  0.00     0.249 C 
BRANCH   4   5
HETATM    5  C6  UNL     1     -30.442   4.969 -26.853  1.00  0.00     0.100 A 
HETATM    6  N5  UNL     1     -30.291   4.628 -28.187  1.00  0.00    -0.188 N 
HETATM    7  C5  UNL     1     -30.586   5.517 -29.144  1.00  0.00     0.678 A 
ATOM      8  H5  UNL     1     -29.954   3.700 -28.440  1.00  0.00     0.184 HD
HETATM    9  N3  UNL     1     -31.026   6.732 -28.850  1.00  0.00    -0.176 N 
HETATM   10  C4  UNL     1     -31.203   7.155 -27.562  1.00  0.00     0.140 A 
ATOM     11  H3  UNL     1     -31.241   7.375 -29.612  1.00  0.00     0.186 HD
HETATM   12  N2  UNL     1     -31.574   8.218 -27.235  1.00  0.00    -0.327 N 
HETATM   13  C8  UNL     1     -30.876   6.186 -26.545  1.00  0.00     0.108 A 
ATOM     14  H2  UNL     1     -31.575   8.145 -26.218  1.00  0.00     0.169 HD
BRANCH   7  15
HETATM   15  N4  UNL     1     -30.439   5.164 -30.359  1.00  0.00    -0.234 N 
ATOM     16  H42 UNL     1     -29.533   4.794 -30.647  1.00  0.00     0.174 HD
ATOM     17  H41 UNL     1     -31.213   5.249 -31.016  1.00  0.00     0.174 HD
ENDBRANCH   7  15
BRANCH  12  18
HETATM   18  C3  UNL     1     -32.004   9.496 -27.436  1.00  0.00     0.106 A 
HETATM   19  N1  UNL     1     -32.390   9.978 -28.659  1.00  0.00    -0.344 N 
HETATM   20  C2  UNL     1     -32.788  11.237 -28.818  1.00  0.00     0.040 A 
ATOM     21  H1  UNL     1     -32.371   9.356 -29.468  1.00  0.00     0.167 HD
HETATM   22  C1  UNL     1     -33.206  11.782 -30.153  1.00  0.00     0.071 C 
HETATM   23  C20 UNL     1     -32.818  12.083 -27.735  1.00  0.00     0.087 A 
HETATM   24  C19 UNL     1     -32.441  11.655 -26.472  1.00  0.00     0.042 A 
HETATM   25  C18 UNL     1     -32.034  10.357 -26.322  1.00  0.00     0.051 A 
BRANCH  23  26
HETATM   26  O6  UNL     1     -33.235  13.384 -27.935  1.00  0.00    -0.359 OA
ATOM     27  H6  UNL     1     -33.527  13.883 -27.181  1.00  0.00     0.217 HD
ENDBRANCH  23  26
ENDBRANCH  12  18
BRANCH  13  28
HETATM   28  C9  UNL     1     -30.971   6.745 -25.225  1.00  0.00     0.277 C 
HETATM   29  O2  UNL     1     -30.221   7.679 -24.818  1.00  0.00    -0.266 OA
HETATM   30  N7  UNL     1     -31.940   6.216 -24.297  1.00  0.00    -0.250 N 
ATOM     31  H7  UNL     1     -32.590   5.480 -24.575  1.00  0.00     0.192 HD
BRANCH  30  32
HETATM   32  N8  UNL     1     -31.957   6.728 -23.044  1.00  0.00    -0.225 N 
ATOM     33  H8  UNL     1     -31.685   6.012 -22.370  1.00  0.00     0.210 HD
BRANCH  32  34
HETATM   34  N9  UNL     1     -32.186   7.734 -22.486  1.00  0.00    -0.228 N 
ATOM     35  H9  UNL     1     -31.614   8.509 -22.825  1.00  0.00     0.210 HD
BRANCH  34  36
HETATM   36  N10 UNL     1     -33.016   8.099 -21.517  1.00  0.00    -0.286 N 
ATOM     37  H10 UNL     1     -32.867   7.651 -20.612  1.00  0.00     0.188 HD
BRANCH  36  38
HETATM   38  C10 UNL     1     -34.018   8.974 -21.576  1.00  0.00     0.071 C 
HETATM   39  C11 UNL     1     -34.396   9.527 -20.329  1.00  0.00     0.167 C 
BRANCH  39  40
HETATM   40  O3  UNL     1     -33.704   9.093 -19.284  1.00  0.00    -0.353 OA
ATOM     41  H3  UNL     1     -34.090   9.280 -18.436  1.00  0.00     0.218 HD
ENDBRANCH  39  40
BRANCH  39  42
HETATM   42  C12 UNL     1     -35.395  10.482 -19.961  1.00  0.00     0.235 C 
HETATM   43  O4  UNL     1     -35.353  11.719 -19.924  1.00  0.00    -0.642 OA
HETATM   44  O5  UNL     1     -36.664   9.913 -19.563  1.00  0.00    -0.642 OA
ENDBRANCH  39  42
BRANCH  38  45
HETATM   45  C13 UNL     1     -34.545   9.203 -22.902  1.00  0.00     0.040 C 
HETATM   46  C14 UNL     1     -35.953   8.716 -23.037  1.00  0.00     0.011 C 
HETATM   47  C15 UNL     1     -36.510   9.539 -24.149  1.00  0.00     0.001 C 
HETATM   48  C16 UNL     1     -35.810  10.845 -24.094  1.00  0.00     0.001 C 
HETATM   49  C17 UNL     1     -34.507  10.606 -23.420  1.00  0.00     0.011 C 
ENDBRANCH  38  45
ENDBRANCH  36  38
ENDBRANCH  34  36
ENDBRANCH  32  34
ENDBRANCH  30  32
ENDBRANCH  13  28
ENDBRANCH   4   5
ENDBRANCH   1   4
TORSDOF 13
ENDMDL
MODEL 2
REMARK VINA RESULT: -8.299599557      2.703      7.040
REMARK  13 active torsions:
REMARK  status: ('A' for Active; 'I' for Inactive)
REMARK    1  A    between atoms: C3_5  and  N2_6 
REMARK    2  A    between atoms: C5_11  and  N4_12 
REMARK    3  A    between atoms: C6_17  and  C7_18 
REMARK    4  A    between atoms: C7_18  and  N6_19 
REMARK    5  A    between atoms: C8_22  and  C9_23 
REMARK       I    between atoms: C9_23  and  N7_25 
REMARK    6  A    between atoms: N7_25  and  N8_27 
REMARK    7  A    between atoms: N8_27  and  N9_29 
REMARK    8  A    between atoms: N9_29  and  N10_31 
REMARK    9  A    between atoms: N10_31  and  C10_33 
REMARK   10  A    between atoms: C10_33  and  C13_40 
REMARK   11  A    between atoms: C11_34  and  O3_35 
REMARK   12  A    between atoms: C11_34  and  C12_37 
REMARK   13  A    between atoms: C20_47  and  O6_48 
ROOT
HETATM    1  N6  UNL     1     -28.934   4.743 -27.437  1.00  0.00    -0.294 NA
HETATM    2  O1  UNL     1     -28.549   5.473 -28.409  1.00  0.00    -0.219 OA
ATOM      3  H1  UNL     1     -28.328   5.900 -29.227  1.00  0.00     0.261 HD
ENDROOT
BRANCH   1   4
HETATM    4  C7  UNL     1     -29.210   4.208 -26.412  1.00  0.00     0.249 C 
BRANCH   4   5
HETATM    5  C6  UNL     1     -30.233   4.512 -25.428  1.00  0.00     0.100 A 
HETATM    6  N5  UNL     1     -30.458   3.532 -24.476  1.00  0.00    -0.188 N 
HETATM    7  C5  UNL     1     -31.226   3.794 -23.411  1.00  0.00     0.678 A 
ATOM      8  H5  UNL     1     -30.038   2.609 -24.587  1.00  0.00     0.184 HD
HETATM    9  N3  UNL     1     -31.786   4.982 -23.236  1.00  0.00    -0.176 N 
HETATM   10  C4  UNL     1     -31.620   6.007 -24.125  1.00  0.00     0.140 A 
ATOM     11  H3  UNL     1     -32.361   5.137 -22.408  1.00  0.00     0.186 HD
HETATM   12  N2  UNL     1     -32.099   7.074 -24.036  1.00  0.00    -0.327 N 
HETATM   13  C8  UNL     1     -30.794   5.705 -25.268  1.00  0.00     0.108 A 
ATOM     14  H2  UNL     1     -31.746   7.541 -24.872  1.00  0.00     0.169 HD
BRANCH   7  15
HETATM   15  N4  UNL     1     -31.404   2.868 -22.555  1.00  0.00    -0.234 N 
ATOM     16  H42 UNL     1     -31.182   3.064 -21.580  1.00  0.00     0.174 HD
ATOM     17  H41 UNL     1     -31.765   1.960 -22.848  1.00  0.00     0.174 HD
ENDBRANCH   7  15
BRANCH  12  18
HETATM   18  C3  UNL     1     -32.856   8.049 -23.456  1.00  0.00     0.106 A 
HETATM   19  N1  UNL     1     -33.062   8.138 -22.104  1.00  0.00    -0.344 N 
HETATM   20  C2  UNL     1     -33.822   9.094 -21.578  1.00  0.00     0.040 A 
ATOM     21  H1  UNL     1     -32.622   7.455 -21.487  1.00  0.00     0.167 HD
HETATM   22  C1  UNL     1     -34.063   9.201 -20.100  1.00  0.00     0.071 C 
HETATM   23  C20 UNL     1     -34.419  10.019 -22.400  1.00  0.00     0.087 A 
HETATM   24  C19 UNL     1     -34.249   9.982 -23.774  1.00  0.00     0.042 A 
HETATM   25  C18 UNL     1     -33.464   8.994 -24.304  1.00  0.00     0.051 A 
BRANCH  23  26
HETATM   26  O6  UNL     1     -35.204  10.997 -21.820  1.00  0.00    -0.359 OA
ATOM     27  H6  UNL     1     -35.261  11.841 -22.253  1.00  0.00     0.217 HD
ENDBRANCH  23  26
ENDBRANCH  12  18
BRANCH  13  28
HETATM   28  C9  UNL     1     -30.770   6.789 -26.210  1.00  0.00     0.277 C 
HETATM   29  O2  UNL     1     -31.805   7.204 -26.808  1.00  0.00    -0.266 OA
HETATM   30  N7  UNL     1     -29.517   7.430 -26.524  1.00  0.00    -0.250 N 
ATOM     31  H7  UNL     1     -28.653   7.157 -26.056  1.00  0.00     0.192 HD
BRANCH  30  32
HETATM   32  N8  UNL     1     -29.526   8.407 -27.462  1.00  0.00    -0.225 N 
ATOM     33  H8  UNL     1     -29.381   9.315 -27.021  1.00  0.00     0.210 HD
BRANCH  32  34
HETATM   34  N9  UNL     1     -29.648   8.540 -28.621  1.00  0.00    -0.228 N 
ATOM     35  H9  UNL     1     -29.282   9.432 -28.954  1.00  0.00     0.210 HD
BRANCH  34  36
HETATM   36  N10 UNL     1     -30.153   7.799 -29.600  1.00  0.00    -0.286 N 
ATOM     37  H10 UNL     1     -29.477   7.263 -30.145  1.00  0.00     0.188 HD
BRANCH  36  38
HETATM   38  C10 UNL     1     -31.428   7.666 -29.960  1.00  0.00     0.071 C 
HETATM   39  C11 UNL     1     -31.968   6.373 -29.766  1.00  0.00     0.167 C 
BRANCH  39  40
HETATM   40  O3  UNL     1     -31.129   5.479 -29.257  1.00  0.00    -0.353 OA
ATOM     41  H3  UNL     1     -30.244   5.514 -29.600  1.00  0.00     0.218 HD
ENDBRANCH  39  40
BRANCH  39  42
HETATM   42  C12 UNL     1     -33.265   5.822 -30.010  1.00  0.00     0.235 C 
HETATM   43  O4  UNL     1     -34.177   5.530 -29.225  1.00  0.00    -0.642 OA
HETATM   44  O5  UNL     1     -33.563   5.559 -31.401  1.00  0.00    -0.642 OA
ENDBRANCH  39  42
BRANCH  38  45
HETATM   45  C13 UNL     1     -32.036   8.866 -30.490  1.00  0.00     0.040 C 
HETATM   46  C14 UNL     1     -32.284   8.766 -31.962  1.00  0.00     0.011 C 
HETATM   47  C15 UNL     1     -33.399   9.726 -32.201  1.00  0.00     0.001 C 
HETATM   48  C16 UNL     1     -34.209   9.745 -30.960  1.00  0.00     0.001 C 
HETATM   49  C17 UNL     1     -33.309   9.326 -29.853  1.00  0.00     0.011 C 
ENDBRANCH  38  45
ENDBRANCH  36  38
ENDBRANCH  34  36
ENDBRANCH  32  34
ENDBRANCH  30  32
ENDBRANCH  13  28
ENDBRANCH   4   5
ENDBRANCH   1   4
TORSDOF 13
ENDMDL
MODEL 3
REMARK VINA RESULT: -8.268885669      2.703      7.365
REMARK  13 active torsions:
REMARK  status: ('A' for Active; 'I' for Inactive)
REMARK    1  A    between atoms: C3_5  and  N2_6 
REMARK    2  A    between atoms: C5_11  and  N4_12 
REMARK    3  A    between atoms: C6_17  and  C7_18 
REMARK    4  A    between atoms: C7_18  and  N6_19 
REMARK    5  A    between atoms: C8_22  and  C9_23 
REMARK       I    between atoms: C9_23  and  N7_25 
REMARK    6  A    between atoms: N7_25  and  N8_27 
REMARK    7  A    between atoms: N8_27  and  N9_29 
REMARK    8  A    between atoms: N9_29  and  N10_31 
REMARK    9  A    between atoms: N10_31  and  C10_33 
REMARK   10  A    between atoms: C10_33  and  C13_40 
REMARK   11  A    between atoms: C11_34  and  O3_35 
REMARK   12  A    between atoms: C11_34  and  C12_37 
REMARK   13  A    between atoms: C20_47  and  O6_48 
ROOT
HETATM    1  N6  UNL     1     -28.891   4.719 -27.459  1.00  0.00    -0.294 NA
HETATM    2  O1  UNL     1     -28.469   5.451 -28.414  1.00  0.00    -0.219 OA
ATOM      3  H1  UNL     1     -28.220   5.883 -29.222  1.00  0.00     0.261 HD
ENDROOT
BRANCH   1   4
HETATM    4  C7  UNL     1     -29.202   4.179 -26.447  1.00  0.00     0.249 C 
BRANCH   4   5
HETATM    5  C6  UNL     1     -30.234   4.499 -25.478  1.00  0.00     0.100 A 
HETATM    6  N5  UNL     1     -30.474   3.531 -24.517  1.00  0.00    -0.188 N 
HETATM    7  C5  UNL     1     -31.253   3.809 -23.464  1.00  0.00     0.678 A 
ATOM      8  H5  UNL     1     -30.057   2.605 -24.613  1.00  0.00     0.184 HD
HETATM    9  N3  UNL     1     -31.809   5.002 -23.309  1.00  0.00    -0.176 N 
HETATM   10  C4  UNL     1     -31.629   6.016 -24.208  1.00  0.00     0.140 A 
ATOM     11  H3  UNL     1     -32.393   5.170 -22.490  1.00  0.00     0.186 HD
HETATM   12  N2  UNL     1     -32.103   7.086 -24.137  1.00  0.00    -0.327 N 
HETATM   13  C8  UNL     1     -30.791   5.697 -25.338  1.00  0.00     0.108 A 
ATOM     14  H2  UNL     1     -31.739   7.541 -24.974  1.00  0.00     0.169 HD
BRANCH   7  15
HETATM   15  N4  UNL     1     -31.445   2.894 -22.599  1.00  0.00    -0.234 N 
ATOM     16  H42 UNL     1     -31.117   3.054 -21.647  1.00  0.00     0.174 HD
ATOM     17  H41 UNL     1     -31.920   2.030 -22.862  1.00  0.00     0.174 HD
ENDBRANCH   7  15
BRANCH  12  18
HETATM   18  C3  UNL     1     -32.862   8.070 -23.577  1.00  0.00     0.106 A 
HETATM   19  N1  UNL     1     -33.107   8.160 -22.231  1.00  0.00    -0.344 N 
HETATM   20  C2  UNL     1     -33.867   9.126 -21.725  1.00  0.00     0.040 A 
ATOM     21  H1  UNL     1     -32.695   7.469 -21.603  1.00  0.00     0.167 HD
HETATM   22  C1  UNL     1     -34.150   9.234 -20.254  1.00  0.00     0.071 C 
HETATM   23  C20 UNL     1     -34.426  10.062 -22.562  1.00  0.00     0.087 A 
HETATM   24  C19 UNL     1     -34.216  10.026 -23.931  1.00  0.00     0.042 A 
HETATM   25  C18 UNL     1     -33.431   9.027 -24.440  1.00  0.00     0.051 A 
BRANCH  23  26
HETATM   26  O6  UNL     1     -35.212  11.051 -22.003  1.00  0.00    -0.359 OA
ATOM     27  H6  UNL     1     -34.834  11.916 -21.894  1.00  0.00     0.217 HD
ENDBRANCH  23  26
ENDBRANCH  12  18
BRANCH  13  28
HETATM   28  C9  UNL     1     -30.752   6.769 -26.292  1.00  0.00     0.277 C 
HETATM   29  O2  UNL     1     -31.773   7.162 -26.929  1.00  0.00    -0.266 OA
HETATM   30  N7  UNL     1     -29.498   7.424 -26.574  1.00  0.00    -0.250 N 
ATOM     31  H7  UNL     1     -28.646   7.169 -26.075  1.00  0.00     0.192 HD
BRANCH  30  32
HETATM   32  N8  UNL     1     -29.491   8.389 -27.524  1.00  0.00    -0.225 N 
ATOM     33  H8  UNL     1     -29.210   9.280 -27.114  1.00  0.00     0.210 HD
BRANCH  32  34
HETATM   34  N9  UNL     1     -29.704   8.526 -28.669  1.00  0.00    -0.228 N 
ATOM     35  H9  UNL     1     -29.897   9.496 -28.918  1.00  0.00     0.210 HD
BRANCH  34  36
HETATM   36  N10 UNL     1     -29.754   7.711 -29.715  1.00  0.00    -0.286 N 
ATOM     37  H10 UNL     1     -28.855   7.466 -30.132  1.00  0.00     0.188 HD
BRANCH  36  38
HETATM   38  C10 UNL     1     -30.828   7.172 -30.290  1.00  0.00     0.071 C 
HETATM   39  C11 UNL     1     -32.036   7.874 -30.066  1.00  0.00     0.167 C 
BRANCH  39  40
HETATM   40  O3  UNL     1     -31.927   8.962 -29.314  1.00  0.00    -0.353 OA
ATOM     41  H3  UNL     1     -32.415   8.942 -28.499  1.00  0.00     0.218 HD
ENDBRANCH  39  40
BRANCH  39  42
HETATM   42  C12 UNL     1     -33.380   7.643 -30.496  1.00  0.00     0.235 C 
HETATM   43  O4  UNL     1     -33.924   7.855 -31.588  1.00  0.00    -0.642 OA
HETATM   44  O5  UNL     1     -34.251   7.071 -29.493  1.00  0.00    -0.642 OA
ENDBRANCH  39  42
BRANCH  38  45
HETATM   45  C13 UNL     1     -30.571   5.963 -31.040  1.00  0.00     0.040 C 
HETATM   46  C14 UNL     1     -31.223   4.769 -30.418  1.00  0.00     0.011 C 
HETATM   47  C15 UNL     1     -31.390   3.821 -31.556  1.00  0.00     0.001 C 
HETATM   48  C16 UNL     1     -31.575   4.653 -32.769  1.00  0.00     0.001 C 
HETATM   49  C17 UNL     1     -30.939   5.967 -32.490  1.00  0.00     0.011 C 
ENDBRANCH  38  45
ENDBRANCH  36  38
ENDBRANCH  34  36
ENDBRANCH  32  34
ENDBRANCH  30  32
ENDBRANCH  13  28
ENDBRANCH   4   5
ENDBRANCH   1   4
TORSDOF 13
ENDMDL
MODEL 4
REMARK VINA RESULT: -8.247483510      4.402      7.321
REMARK  13 active torsions:
REMARK  status: ('A' for Active; 'I' for Inactive)
REMARK    1  A    between atoms: C3_5  and  N2_6 
REMARK    2  A    between atoms: C5_11  and  N4_12 
REMARK    3  A    between atoms: C6_17  and  C7_18 
REMARK    4  A    between atoms: C7_18  and  N6_19 
REMARK    5  A    between atoms: C8_22  and  C9_23 
REMARK       I    between atoms: C9_23  and  N7_25 
REMARK    6  A    between atoms: N7_25  and  N8_27 
REMARK    7  A    between atoms: N8_27  and  N9_29 
REMARK    8  A    between atoms: N9_29  and  N10_31 
REMARK    9  A    between atoms: N10_31  and  C10_33 
REMARK   10  A    between atoms: C10_33  and  C13_40 
REMARK   11  A    between atoms: C11_34  and  O3_35 
REMARK   12  A    between atoms: C11_34  and  C12_37 
REMARK   13  A    between atoms: C20_47  and  O6_48 
ROOT
HETATM    1  N6  UNL     1     -34.826   5.566 -29.262  1.00  0.00    -0.294 NA
HETATM    2  O1  UNL     1     -36.013   5.179 -29.008  1.00  0.00    -0.219 OA
ATOM      3  H1  UNL     1     -36.926   5.046 -28.782  1.00  0.00     0.261 HD
ENDROOT
BRANCH   1   4
HETATM    4  C7  UNL     1     -33.683   5.732 -29.544  1.00  0.00     0.249 C 
BRANCH   4   5
HETATM    5  C6  UNL     1     -32.903   5.249 -30.668  1.00  0.00     0.100 A 
HETATM    6  N5  UNL     1     -33.632   4.865 -31.782  1.00  0.00    -0.188 N 
HETATM    7  C5  UNL     1     -33.006   4.602 -32.936  1.00  0.00     0.678 A 
ATOM      8  H5  UNL     1     -34.646   4.782 -31.722  1.00  0.00     0.184 HD
HETATM    9  N3  UNL     1     -31.689   4.701 -33.048  1.00  0.00    -0.176 N 
HETATM   10  C4  UNL     1     -30.891   5.071 -32.002  1.00  0.00     0.140 A 
ATOM     11  H3  UNL     1     -31.255   4.494 -33.948  1.00  0.00     0.186 HD
HETATM   12  N2  UNL     1     -29.722   5.162 -32.031  1.00  0.00    -0.327 N 
HETATM   13  C8  UNL     1     -31.582   5.345 -30.766  1.00  0.00     0.108 A 
ATOM     14  H2  UNL     1     -29.503   5.456 -31.079  1.00  0.00     0.169 HD
BRANCH   7  15
HETATM   15  N4  UNL     1     -33.711   4.257 -33.938  1.00  0.00    -0.234 N 
ATOM     16  H42 UNL     1     -33.236   3.857 -34.747  1.00  0.00     0.174 HD
ATOM     17  H41 UNL     1     -34.724   4.377 -33.920  1.00  0.00     0.174 HD
ENDBRANCH   7  15
BRANCH  12  18
HETATM   18  C3  UNL     1     -28.488   5.102 -32.608  1.00  0.00     0.106 A 
HETATM   19  N1  UNL     1     -28.289   5.119 -33.964  1.00  0.00    -0.344 N 
HETATM   20  C2  UNL     1     -27.070   5.040 -34.490  1.00  0.00     0.040 A 
ATOM     21  H1  UNL     1     -29.095   5.193 -34.585  1.00  0.00     0.167 HD
HETATM   22  C1  UNL     1     -26.837   5.050 -35.973  1.00  0.00     0.071 C 
HETATM   23  C20 UNL     1     -25.977   4.940 -33.663  1.00  0.00     0.087 A 
HETATM   24  C19 UNL     1     -26.113   4.919 -32.284  1.00  0.00     0.042 A 
HETATM   25  C18 UNL     1     -27.372   5.001 -31.755  1.00  0.00     0.051 A 
BRANCH  23  26
HETATM   26  O6  UNL     1     -24.726   4.859 -34.242  1.00  0.00    -0.359 OA
ATOM     27  H6  UNL     1     -23.966   5.007 -33.691  1.00  0.00     0.217 HD
ENDBRANCH  23  26
ENDBRANCH  12  18
BRANCH  13  28
HETATM   28  C9  UNL     1     -30.667   5.606 -29.690  1.00  0.00     0.277 C 
HETATM   29  O2  UNL     1     -30.237   4.701 -28.917  1.00  0.00    -0.266 OA
HETATM   30  N7  UNL     1     -30.227   6.957 -29.444  1.00  0.00    -0.250 N 
ATOM     31  H7  UNL     1     -30.518   7.726 -30.048  1.00  0.00     0.192 HD
BRANCH  30  32
HETATM   32  N8  UNL     1     -29.412   7.171 -28.382  1.00  0.00    -0.225 N 
ATOM     33  H8  UNL     1     -28.555   7.631 -28.689  1.00  0.00     0.210 HD
BRANCH  32  34
HETATM   34  N9  UNL     1     -29.381   6.996 -27.224  1.00  0.00    -0.228 N 
ATOM     35  H9  UNL     1     -29.309   7.867 -26.697  1.00  0.00     0.210 HD
BRANCH  34  36
HETATM   36  N10 UNL     1     -29.416   5.927 -26.438  1.00  0.00    -0.286 N 
ATOM     37  H10 UNL     1     -28.753   5.185 -26.665  1.00  0.00     0.188 HD
BRANCH  36  38
HETATM   38  C10 UNL     1     -30.207   5.700 -25.391  1.00  0.00     0.071 C 
HETATM   39  C11 UNL     1     -30.475   4.335 -25.135  1.00  0.00     0.167 C 
BRANCH  39  40
HETATM   40  O3  UNL     1     -29.905   3.479 -25.973  1.00  0.00    -0.353 OA
ATOM     41  H3  UNL     1     -30.072   2.561 -25.792  1.00  0.00     0.218 HD
ENDBRANCH  39  40
BRANCH  39  42
HETATM   42  C12 UNL     1     -31.252   3.675 -24.131  1.00  0.00     0.235 C 
HETATM   43  O4  UNL     1     -31.382   3.918 -22.924  1.00  0.00    -0.642 OA
HETATM   44  O5  UNL     1     -32.012   2.536 -24.599  1.00  0.00    -0.642 OA
ENDBRANCH  39  42
BRANCH  38  45
HETATM   45  C13 UNL     1     -30.657   6.889 -24.702  1.00  0.00     0.040 C 
HETATM   46  C14 UNL     1     -31.893   7.462 -25.320  1.00  0.00     0.011 C 
HETATM   47  C15 UNL     1     -32.529   8.222 -24.205  1.00  0.00     0.001 C 
HETATM   48  C16 UNL     1     -32.164   7.514 -22.955  1.00  0.00     0.001 C 
HETATM   49  C17 UNL     1     -30.905   6.774 -23.231  1.00  0.00     0.011 C 
ENDBRANCH  38  45
ENDBRANCH  36  38
ENDBRANCH  34  36
ENDBRANCH  32  34
ENDBRANCH  30  32
ENDBRANCH  13  28
ENDBRANCH   4   5
ENDBRANCH   1   4
TORSDOF 13
ENDMDL
MODEL 5
REMARK VINA RESULT: -8.154963984      1.336      1.926
REMARK  13 active torsions:
REMARK  status: ('A' for Active; 'I' for Inactive)
REMARK    1  A    between atoms: C3_5  and  N2_6 
REMARK    2  A    between atoms: C5_11  and  N4_12 
REMARK    3  A    between atoms: C6_17  and  C7_18 
REMARK    4  A    between atoms: C7_18  and  N6_19 
REMARK    5  A    between atoms: C8_22  and  C9_23 
REMARK       I    between atoms: C9_23  and  N7_25 
REMARK    6  A    between atoms: N7_25  and  N8_27 
REMARK    7  A    between atoms: N8_27  and  N9_29 
REMARK    8  A    between atoms: N9_29  and  N10_31 
REMARK    9  A    between atoms: N10_31  and  C10_33 
REMARK   10  A    between atoms: C10_33  and  C13_40 
REMARK   11  A    between atoms: C11_34  and  O3_35 
REMARK   12  A    between atoms: C11_34  and  C12_37 
REMARK   13  A    between atoms: C20_47  and  O6_48 
ROOT
HETATM    1  N6  UNL     1     -31.521   3.210 -24.516  1.00  0.00    -0.294 NA
HETATM    2  O1  UNL     1     -31.988   2.036 -24.683  1.00  0.00    -0.219 OA
ATOM      3  H1  UNL     1     -32.482   1.233 -24.799  1.00  0.00     0.261 HD
ENDROOT
BRANCH   1   4
HETATM    4  C7  UNL     1     -30.903   4.215 -24.372  1.00  0.00     0.249 C 
BRANCH   4   5
HETATM    5  C6  UNL     1     -30.592   5.281 -25.305  1.00  0.00     0.100 A 
HETATM    6  N5  UNL     1     -29.723   4.945 -26.330  1.00  0.00    -0.188 N 
HETATM    7  C5  UNL     1     -29.534   5.788 -27.353  1.00  0.00     0.678 A 
ATOM      8  H5  UNL     1     -29.227   4.055 -26.305  1.00  0.00     0.184 HD
HETATM    9  N3  UNL     1     -30.163   6.952 -27.417  1.00  0.00    -0.176 N 
HETATM   10  C4  UNL     1     -31.036   7.367 -26.451  1.00  0.00     0.140 A 
ATOM     11  H3  UNL     1     -29.991   7.561 -28.217  1.00  0.00     0.186 HD
HETATM   12  N2  UNL     1     -31.611   8.389 -26.441  1.00  0.00    -0.327 N 
HETATM   13  C8  UNL     1     -31.223   6.449 -25.354  1.00  0.00     0.108 A 
ATOM     14  H2  UNL     1     -32.151   8.326 -25.577  1.00  0.00     0.169 HD
BRANCH   7  15
HETATM   15  N4  UNL     1     -28.731   5.440 -28.279  1.00  0.00    -0.234 N 
ATOM     16  H42 UNL     1     -28.999   5.629 -29.245  1.00  0.00     0.174 HD
ATOM     17  H41 UNL     1     -27.846   4.989 -28.049  1.00  0.00     0.174 HD
ENDBRANCH   7  15
BRANCH  12  18
HETATM   18  C3  UNL     1     -31.974   9.612 -26.922  1.00  0.00     0.106 A 
HETATM   19  N1  UNL     1     -31.839  10.773 -26.205  1.00  0.00    -0.344 N 
HETATM   20  C2  UNL     1     -32.221  11.946 -26.703  1.00  0.00     0.040 A 
ATOM     21  H1  UNL     1     -31.437  10.736 -25.268  1.00  0.00     0.167 HD
HETATM   22  C1  UNL     1     -32.086  13.225 -25.928  1.00  0.00     0.071 C 
HETATM   23  C20 UNL     1     -32.763  12.006 -27.964  1.00  0.00     0.087 A 
HETATM   24  C19 UNL     1     -32.924  10.869 -28.738  1.00  0.00     0.042 A 
HETATM   25  C18 UNL     1     -32.527   9.668 -28.215  1.00  0.00     0.051 A 
BRANCH  23  26
HETATM   26  O6  UNL     1     -33.150  13.240 -28.449  1.00  0.00    -0.359 OA
ATOM     27  H6  UNL     1     -33.866  13.273 -29.073  1.00  0.00     0.217 HD
ENDBRANCH  23  26
ENDBRANCH  12  18
BRANCH  13  28
HETATM   28  C9  UNL     1     -32.056   7.008 -24.326  1.00  0.00     0.277 C 
HETATM   29  O2  UNL     1     -33.201   7.496 -24.557  1.00  0.00    -0.266 OA
HETATM   30  N7  UNL     1     -31.574   7.052 -22.967  1.00  0.00    -0.250 N 
ATOM     31  H7  UNL     1     -30.671   6.652 -22.714  1.00  0.00     0.192 HD
BRANCH  30  32
HETATM   32  N8  UNL     1     -32.363   7.642 -22.038  1.00  0.00    -0.225 N 
ATOM     33  H8  UNL     1     -32.283   7.149 -21.148  1.00  0.00     0.210 HD
BRANCH  32  34
HETATM   34  N9  UNL     1     -33.109   8.540 -21.931  1.00  0.00    -0.228 N 
ATOM     35  H9  UNL     1     -32.634   9.441 -21.879  1.00  0.00     0.210 HD
BRANCH  34  36
HETATM   36  N10 UNL     1     -34.430   8.656 -21.861  1.00  0.00    -0.286 N 
ATOM     37  H10 UNL     1     -34.959   7.789 -21.963  1.00  0.00     0.188 HD
BRANCH  36  38
HETATM   38  C10 UNL     1     -35.152   9.760 -21.674  1.00  0.00     0.071 C 
HETATM   39  C11 UNL     1     -35.235  10.194 -20.330  1.00  0.00     0.167 C 
BRANCH  39  40
HETATM   40  O3  UNL     1     -34.586   9.441 -19.451  1.00  0.00    -0.353 OA
ATOM     41  H3  UNL     1     -34.245   9.904 -18.695  1.00  0.00     0.218 HD
ENDBRANCH  39  40
BRANCH  39  42
HETATM   42  C12 UNL     1     -35.888  11.307 -19.714  1.00  0.00     0.235 C 
HETATM   43  O4  UNL     1     -36.862  11.347 -18.951  1.00  0.00    -0.642 OA
HETATM   44  O5  UNL     1     -35.323  12.600 -20.035  1.00  0.00    -0.642 OA
ENDBRANCH  39  42
BRANCH  38  45
HETATM   45  C13 UNL     1     -35.728  10.318 -22.877  1.00  0.00     0.040 C 
HETATM   46  C14 UNL     1     -34.904  11.441 -23.423  1.00  0.00     0.011 C 
HETATM   47  C15 UNL     1     -35.251  11.464 -24.873  1.00  0.00     0.001 C 
HETATM   48  C16 UNL     1     -35.571  10.067 -25.249  1.00  0.00     0.001 C 
HETATM   49  C17 UNL     1     -35.999   9.374 -24.006  1.00  0.00     0.011 C 
ENDBRANCH  38  45
ENDBRANCH  36  38
ENDBRANCH  34  36
ENDBRANCH  32  34
ENDBRANCH  30  32
ENDBRANCH  13  28
ENDBRANCH   4   5
ENDBRANCH   1   4
TORSDOF 13
ENDMDL
