MODEL 1
REMARK VINA RESULT: -7.389918099      0.000      0.000
REMARK  13 active torsions:
REMARK  status: ('A' for Active; 'I' for Inactive)
REMARK    1  A    between atoms: C2_2  and  O1_4 
REMARK    2  A    between atoms: O1_4  and  C4_5 
REMARK    3  A    between atoms: C4_5  and  N1_6 
REMARK    4  A    between atoms: C5_7  and  N2_8 
REMARK    5  A    between atoms: N2_8  and  C6_10 
REMARK    6  A    between atoms: C6_10  and  C7_11 
REMARK    7  A    between atoms: C6_10  and  C8_16 
REMARK    8  A    between atoms: C7_11  and  O2_12 
REMARK    9  A    between atoms: O2_12  and  N3_13 
REMARK   10  A    between atoms: C10_18  and  O5_19 
REMARK   11  A    between atoms: C11_21  and  O6_22 
REMARK   12  A    between atoms: C12_24  and  O7_25 
REMARK   13  A    between atoms: C16_33  and  N5_34 
ROOT
HETATM    1  N1  UNL     1     -31.538   9.013 -28.025  1.00  0.00    -0.239 N 
HETATM    2  C5  UNL     1     -31.340   8.121 -26.935  1.00  0.00     0.132 A 
HETATM    3  C14 UNL     1     -32.026   8.430 -25.773  1.00  0.00     0.110 A 
HETATM    4  C15 UNL     1     -31.976   7.622 -24.660  1.00  0.00     0.264 A 
HETATM    5  O8  UNL     1     -31.261   6.596 -24.721  1.00  0.00    -0.267 OA
HETATM    6  N4  UNL     1     -32.628   7.794 -23.487  1.00  0.00    -0.303 N 
ATOM      7  H4  UNL     1     -32.459   7.082 -22.777  1.00  0.00     0.171 HD
HETATM    8  C16 UNL     1     -33.453   8.763 -23.143  1.00  0.00     0.147 A 
HETATM    9  S1  UNL     1     -33.705   9.920 -24.359  1.00  0.00    -0.035 SA
HETATM   10  C17 UNL     1     -32.825   9.574 -25.774  1.00  0.00     0.101 A 
HETATM   11  N6  UNL     1     -32.940  10.353 -26.856  1.00  0.00    -0.301 N 
ATOM     12  H6  UNL     1     -33.535  11.180 -26.810  1.00  0.00     0.171 HD
HETATM   13  C18 UNL     1     -32.296  10.078 -27.993  1.00  0.00     0.334 A 
HETATM   14  O9  UNL     1     -32.421  10.836 -29.007  1.00  0.00    -0.246 OA
ENDROOT
BRANCH   2  15
HETATM   15  N2  UNL     1     -30.491   7.066 -27.242  1.00  0.00    -0.364 N 
ATOM     16  H2  UNL     1     -29.564   7.434 -27.453  1.00  0.00     0.162 HD
BRANCH  15  17
HETATM   17  C6  UNL     1     -30.469   5.672 -27.362  1.00  0.00     0.143 C 
BRANCH  17  18
HETATM   18  C7  UNL     1     -29.401   4.964 -26.514  1.00  0.00     0.238 C 
BRANCH  18  19
HETATM   19  O2  UNL     1     -29.889   3.666 -26.250  1.00  0.00    -0.219 OA
BRANCH  19  20
HETATM   20  N3  UNL     1     -30.815   3.533 -25.237  1.00  0.00     0.005 N 
HETATM   21  O3  UNL     1     -31.981   3.188 -25.413  1.00  0.00    -0.511 OA
HETATM   22  O4  UNL     1     -30.390   3.806 -23.962  1.00  0.00    -0.511 OA
ENDBRANCH  19  20
ENDBRANCH  18  19
ENDBRANCH  17  18
BRANCH  17  23
HETATM   23  C8  UNL     1     -30.063   5.323 -28.823  1.00  0.00    -0.028 A 
HETATM   24  C9  UNL     1     -28.781   5.659 -29.206  1.00  0.00     0.049 A 
HETATM   25  C10 UNL     1     -28.325   5.358 -30.486  1.00  0.00     0.102 A 
HETATM   26  C11 UNL     1     -29.171   4.722 -31.362  1.00  0.00     0.132 A 
HETATM   27  C12 UNL     1     -30.452   4.377 -31.004  1.00  0.00     0.102 A 
HETATM   28  C13 UNL     1     -30.872   4.698 -29.703  1.00  0.00     0.049 A 
BRANCH  25  29
HETATM   29  O5  UNL     1     -27.054   5.689 -30.873  1.00  0.00    -0.358 OA
ATOM     30  H5  UNL     1     -26.711   5.401 -31.711  1.00  0.00     0.217 HD
ENDBRANCH  25  29
BRANCH  26  31
HETATM   31  O6  UNL     1     -28.753   4.401 -32.661  1.00  0.00    -0.356 OA
ATOM     32  H6  UNL     1     -28.372   5.062 -33.228  1.00  0.00     0.218 HD
ENDBRANCH  26  31
BRANCH  27  33
HETATM   33  O7  UNL     1     -31.315   3.736 -31.877  1.00  0.00    -0.358 OA
ATOM     34  H7  UNL     1     -31.991   3.140 -31.575  1.00  0.00     0.217 HD
ENDBRANCH  27  33
ENDBRANCH  17  23
ENDBRANCH  15  17
ENDBRANCH   2  15
BRANCH   1  35
HETATM   35  C4  UNL     1     -30.787   8.708 -29.237  1.00  0.00     0.240 C 
BRANCH  35  36
HETATM   36  O1  UNL     1     -31.317   7.882 -30.123  1.00  0.00    -0.341 OA
BRANCH  36  37
HETATM   37  C2  UNL     1     -32.299   8.105 -30.981  1.00  0.00     0.121 C 
HETATM   38  C1  UNL     1     -31.954   7.438 -32.319  1.00  0.00     0.040 C 
HETATM   39  C3  UNL     1     -33.523   7.287 -30.479  1.00  0.00     0.040 C 
ENDBRANCH  36  37
ENDBRANCH  35  36
ENDBRANCH   1  35
BRANCH   8  40
HETATM   40  N5  UNL     1     -34.005   8.808 -21.989  1.00  0.00    -0.380 N 
ATOM     41  H52 UNL     1     -34.498   8.023 -21.563  1.00  0.00     0.158 HD
ATOM     42  H51 UNL     1     -33.988   9.649 -21.412  1.00  0.00     0.158 HD
ENDBRANCH   8  40
TORSDOF 13
ENDMDL
MODEL 2
REMARK VINA RESULT: -7.310924080      1.970      4.763
REMARK  13 active torsions:
REMARK  status: ('A' for Active; 'I' for Inactive)
REMARK    1  A    between atoms: C2_2  and  O1_4 
REMARK    2  A    between atoms: O1_4  and  C4_5 
REMARK    3  A    between atoms: C4_5  and  N1_6 
REMARK    4  A    between atoms: C5_7  and  N2_8 
REMARK    5  A    between atoms: N2_8  and  C6_10 
REMARK    6  A    between atoms: C6_10  and  C7_11 
REMARK    7  A    between atoms: C6_10  and  C8_16 
REMARK    8  A    between atoms: C7_11  and  O2_12 
REMARK    9  A    between atoms: O2_12  and  N3_13 
REMARK   10  A    between atoms: C10_18  and  O5_19 
REMARK   11  A    between atoms: C11_21  and  O6_22 
REMARK   12  A    between atoms: C12_24  and  O7_25 
REMARK   13  A    between atoms: C16_33  and  N5_34 
ROOT
HETATM    1  N1  UNL     1     -31.471   7.090 -24.434  1.00  0.00    -0.239 N 
HETATM    2  C5  UNL     1     -32.423   7.972 -25.017  1.00  0.00     0.132 A 
HETATM    3  C14 UNL     1     -33.268   8.616 -24.129  1.00  0.00     0.110 A 
HETATM    4  C15 UNL     1     -34.195   9.542 -24.548  1.00  0.00     0.264 A 
HETATM    5  O8  UNL     1     -34.274   9.769 -25.777  1.00  0.00    -0.267 OA
HETATM    6  N4  UNL     1     -35.045  10.264 -23.780  1.00  0.00    -0.303 N 
ATOM      7  H4  UNL     1     -35.663  10.902 -24.281  1.00  0.00     0.171 HD
HETATM    8  C16 UNL     1     -35.176  10.249 -22.469  1.00  0.00     0.147 A 
HETATM    9  S1  UNL     1     -34.124   9.174 -21.681  1.00  0.00    -0.035 SA
HETATM   10  C17 UNL     1     -33.117   8.339 -22.770  1.00  0.00     0.101 A 
HETATM   11  N6  UNL     1     -32.189   7.486 -22.323  1.00  0.00    -0.301 N 
ATOM     12  H6  UNL     1     -32.116   7.314 -21.321  1.00  0.00     0.171 HD
HETATM   13  C18 UNL     1     -31.356   6.853 -23.153  1.00  0.00     0.334 A 
HETATM   14  O9  UNL     1     -30.483   6.045 -22.703  1.00  0.00    -0.246 OA
ENDROOT
BRANCH   2  15
HETATM   15  N2  UNL     1     -32.323   8.044 -26.400  1.00  0.00    -0.364 N 
ATOM     16  H2  UNL     1     -32.995   7.401 -26.818  1.00  0.00     0.162 HD
BRANCH  15  17
HETATM   17  C6  UNL     1     -31.617   8.695 -27.419  1.00  0.00     0.143 C 
BRANCH  17  18
HETATM   18  C7  UNL     1     -32.424   9.745 -28.198  1.00  0.00     0.238 C 
BRANCH  18  19
HETATM   19  O2  UNL     1     -31.654  10.928 -28.197  1.00  0.00    -0.219 OA
BRANCH  19  20
HETATM   20  N3  UNL     1     -31.462  11.557 -26.986  1.00  0.00     0.005 N 
HETATM   21  O3  UNL     1     -32.329  12.200 -26.401  1.00  0.00    -0.511 OA
HETATM   22  O4  UNL     1     -30.220  11.447 -26.415  1.00  0.00    -0.511 OA
ENDBRANCH  19  20
ENDBRANCH  18  19
ENDBRANCH  17  18
BRANCH  17  23
HETATM   23  C8  UNL     1     -31.254   7.638 -28.501  1.00  0.00    -0.028 A 
HETATM   24  C9  UNL     1     -29.910   7.443 -28.749  1.00  0.00     0.049 A 
HETATM   25  C10 UNL     1     -29.496   6.496 -29.680  1.00  0.00     0.102 A 
HETATM   26  C11 UNL     1     -30.442   5.760 -30.350  1.00  0.00     0.132 A 
HETATM   27  C12 UNL     1     -31.786   5.936 -30.121  1.00  0.00     0.102 A 
HETATM   28  C13 UNL     1     -32.162   6.900 -29.172  1.00  0.00     0.049 A 
BRANCH  25  29
HETATM   29  O5  UNL     1     -28.164   6.297 -29.931  1.00  0.00    -0.358 OA
ATOM     30  H5  UNL     1     -27.881   5.655 -30.572  1.00  0.00     0.217 HD
ENDBRANCH  25  29
BRANCH  26  31
HETATM   31  O6  UNL     1     -30.068   4.797 -31.298  1.00  0.00    -0.356 OA
ATOM     32  H6  UNL     1     -29.456   5.009 -31.993  1.00  0.00     0.218 HD
ENDBRANCH  26  31
BRANCH  27  33
HETATM   33  O7  UNL     1     -32.751   5.201 -30.788  1.00  0.00    -0.358 OA
ATOM     34  H7  UNL     1     -33.439   4.733 -30.329  1.00  0.00     0.217 HD
ENDBRANCH  27  33
ENDBRANCH  17  23
ENDBRANCH  15  17
ENDBRANCH   2  15
BRANCH   1  35
HETATM   35  C4  UNL     1     -30.607   6.383 -25.371  1.00  0.00     0.240 C 
BRANCH  35  36
HETATM   36  O1  UNL     1     -31.130   5.433 -26.127  1.00  0.00    -0.341 OA
BRANCH  36  37
HETATM   37  C2  UNL     1     -30.533   4.387 -26.676  1.00  0.00     0.121 C 
HETATM   38  C1  UNL     1     -29.014   4.540 -26.519  1.00  0.00     0.040 C 
HETATM   39  C3  UNL     1     -30.863   3.162 -25.775  1.00  0.00     0.040 C 
ENDBRANCH  36  37
ENDBRANCH  35  36
ENDBRANCH   1  35
BRANCH   8  40
HETATM   40  N5  UNL     1     -36.028  10.986 -21.862  1.00  0.00    -0.380 N 
ATOM     41  H52 UNL     1     -36.953  10.668 -21.574  1.00  0.00     0.158 HD
ATOM     42  H51 UNL     1     -35.831  11.959 -21.624  1.00  0.00     0.158 HD
ENDBRANCH   8  40
TORSDOF 13
ENDMDL
MODEL 3
REMARK VINA RESULT: -7.297961461      2.264      4.383
REMARK  13 active torsions:
REMARK  status: ('A' for Active; 'I' for Inactive)
REMARK    1  A    between atoms: C2_2  and  O1_4 
REMARK    2  A    between atoms: O1_4  and  C4_5 
REMARK    3  A    between atoms: C4_5  and  N1_6 
REMARK    4  A    between atoms: C5_7  and  N2_8 
REMARK    5  A    between atoms: N2_8  and  C6_10 
REMARK    6  A    between atoms: C6_10  and  C7_11 
REMARK    7  A    between atoms: C6_10  and  C8_16 
REMARK    8  A    between atoms: C7_11  and  O2_12 
REMARK    9  A    between atoms: O2_12  and  N3_13 
REMARK   10  A    between atoms: C10_18  and  O5_19 
REMARK   11  A    between atoms: C11_21  and  O6_22 
REMARK   12  A    between atoms: C12_24  and  O7_25 
REMARK   13  A    between atoms: C16_33  and  N5_34 
ROOT
HETATM    1  N1  UNL     1     -30.494   8.137 -26.860  1.00  0.00    -0.239 N 
HETATM    2  C5  UNL     1     -30.041   6.792 -26.956  1.00  0.00     0.132 A 
HETATM    3  C14 UNL     1     -30.346   5.976 -25.880  1.00  0.00     0.110 A 
HETATM    4  C15 UNL     1     -30.023   4.639 -25.865  1.00  0.00     0.264 A 
HETATM    5  O8  UNL     1     -29.413   4.179 -26.857  1.00  0.00    -0.267 OA
HETATM    6  N4  UNL     1     -30.299   3.735 -24.896  1.00  0.00    -0.303 N 
ATOM      7  H4  UNL     1     -29.972   2.785 -25.070  1.00  0.00     0.171 HD
HETATM    8  C16 UNL     1     -30.935   3.924 -23.757  1.00  0.00     0.147 A 
HETATM    9  S1  UNL     1     -31.461   5.521 -23.517  1.00  0.00    -0.035 SA
HETATM   10  C17 UNL     1     -31.046   6.541 -24.814  1.00  0.00     0.101 A 
HETATM   11  N6  UNL     1     -31.424   7.825 -24.819  1.00  0.00    -0.301 N 
ATOM     12  H6  UNL     1     -31.934   8.194 -24.017  1.00  0.00     0.171 HD
HETATM   13  C18 UNL     1     -31.151   8.634 -25.844  1.00  0.00     0.334 A 
HETATM   14  O9  UNL     1     -31.519   9.852 -25.824  1.00  0.00    -0.246 OA
ENDROOT
BRANCH   2  15
HETATM   15  N2  UNL     1     -29.376   6.525 -28.146  1.00  0.00    -0.364 N 
ATOM     16  H2  UNL     1     -28.676   7.249 -28.306  1.00  0.00     0.162 HD
BRANCH  15  17
HETATM   17  C6  UNL     1     -29.336   5.607 -29.201  1.00  0.00     0.143 C 
BRANCH  17  18
HETATM   18  C7  UNL     1     -28.360   5.961 -30.333  1.00  0.00     0.238 C 
BRANCH  18  19
HETATM   19  O2  UNL     1     -27.644   4.782 -30.634  1.00  0.00    -0.219 OA
BRANCH  19  20
HETATM   20  N3  UNL     1     -27.175   4.637 -31.922  1.00  0.00     0.005 N 
HETATM   21  O3  UNL     1     -27.604   3.810 -32.721  1.00  0.00    -0.511 OA
HETATM   22  O4  UNL     1     -26.166   5.479 -32.317  1.00  0.00    -0.511 OA
ENDBRANCH  19  20
ENDBRANCH  18  19
ENDBRANCH  17  18
BRANCH  17  23
HETATM   23  C8  UNL     1     -30.725   5.619 -29.901  1.00  0.00    -0.028 A 
HETATM   24  C9  UNL     1     -30.723   5.732 -31.277  1.00  0.00     0.049 A 
HETATM   25  C10 UNL     1     -31.920   5.722 -31.986  1.00  0.00     0.102 A 
HETATM   26  C11 UNL     1     -33.102   5.599 -31.298  1.00  0.00     0.132 A 
HETATM   27  C12 UNL     1     -33.130   5.485 -29.929  1.00  0.00     0.102 A 
HETATM   28  C13 UNL     1     -31.900   5.498 -29.251  1.00  0.00     0.049 A 
BRANCH  25  29
HETATM   29  O5  UNL     1     -31.926   5.834 -33.351  1.00  0.00    -0.358 OA
ATOM     30  H5  UNL     1     -32.439   5.238 -33.886  1.00  0.00     0.217 HD
ENDBRANCH  25  29
BRANCH  26  31
HETATM   31  O6  UNL     1     -34.331   5.586 -31.973  1.00  0.00    -0.356 OA
ATOM     32  H6  UNL     1     -34.689   6.382 -32.349  1.00  0.00     0.218 HD
ENDBRANCH  26  31
BRANCH  27  33
HETATM   33  O7  UNL     1     -34.314   5.360 -29.222  1.00  0.00    -0.358 OA
ATOM     34  H7  UNL     1     -34.948   6.065 -29.168  1.00  0.00     0.217 HD
ENDBRANCH  27  33
ENDBRANCH  17  23
ENDBRANCH  15  17
ENDBRANCH   2  15
BRANCH   1  35
HETATM   35  C4  UNL     1     -30.142   9.005 -27.977  1.00  0.00     0.240 C 
BRANCH  35  36
HETATM   36  O1  UNL     1     -30.840   8.917 -29.096  1.00  0.00    -0.341 OA
BRANCH  36  37
HETATM   37  C2  UNL     1     -32.137   9.109 -29.281  1.00  0.00     0.121 C 
HETATM   38  C1  UNL     1     -32.499  10.534 -28.841  1.00  0.00     0.040 C 
HETATM   39  C3  UNL     1     -32.366   9.141 -30.819  1.00  0.00     0.040 C 
ENDBRANCH  36  37
ENDBRANCH  35  36
ENDBRANCH   1  35
BRANCH   8  40
HETATM   40  N5  UNL     1     -31.129   2.975 -22.920  1.00  0.00    -0.380 N 
ATOM     41  H52 UNL     1     -30.465   2.219 -22.755  1.00  0.00     0.158 HD
ATOM     42  H51 UNL     1     -31.976   2.915 -22.356  1.00  0.00     0.158 HD
ENDBRANCH   8  40
TORSDOF 13
ENDMDL
MODEL 4
REMARK VINA RESULT: -7.131430225      2.154      5.168
REMARK  13 active torsions:
REMARK  status: ('A' for Active; 'I' for Inactive)
REMARK    1  A    between atoms: C2_2  and  O1_4 
REMARK    2  A    between atoms: O1_4  and  C4_5 
REMARK    3  A    between atoms: C4_5  and  N1_6 
REMARK    4  A    between atoms: C5_7  and  N2_8 
REMARK    5  A    between atoms: N2_8  and  C6_10 
REMARK    6  A    between atoms: C6_10  and  C7_11 
REMARK    7  A    between atoms: C6_10  and  C8_16 
REMARK    8  A    between atoms: C7_11  and  O2_12 
REMARK    9  A    between atoms: O2_12  and  N3_13 
REMARK   10  A    between atoms: C10_18  and  O5_19 
REMARK   11  A    between atoms: C11_21  and  O6_22 
REMARK   12  A    between atoms: C12_24  and  O7_25 
REMARK   13  A    between atoms: C16_33  and  N5_34 
ROOT
HETATM    1  N1  UNL     1     -31.971   7.557 -24.159  1.00  0.00    -0.239 N 
HETATM    2  C5  UNL     1     -32.894   8.257 -24.985  1.00  0.00     0.132 A 
HETATM    3  C14 UNL     1     -33.915   8.915 -24.320  1.00  0.00     0.110 A 
HETATM    4  C15 UNL     1     -34.843   9.682 -24.988  1.00  0.00     0.264 A 
HETATM    5  O8  UNL     1     -34.751   9.747 -26.235  1.00  0.00    -0.267 OA
HETATM    6  N4  UNL     1     -35.857  10.400 -24.452  1.00  0.00    -0.303 N 
ATOM      7  H4  UNL     1     -36.443  10.905 -25.117  1.00  0.00     0.171 HD
HETATM    8  C16 UNL     1     -36.185  10.532 -23.182  1.00  0.00     0.147 A 
HETATM    9  S1  UNL     1     -35.179   9.676 -22.116  1.00  0.00    -0.035 SA
HETATM   10  C17 UNL     1     -33.951   8.823 -22.929  1.00  0.00     0.101 A 
HETATM   11  N6  UNL     1     -33.033   8.132 -22.244  1.00  0.00    -0.301 N 
ATOM     12  H6  UNL     1     -33.099   8.092 -21.227  1.00  0.00     0.171 HD
HETATM   13  C18 UNL     1     -32.033   7.492 -22.855  1.00  0.00     0.334 A 
HETATM   14  O9  UNL     1     -31.174   6.839 -22.180  1.00  0.00    -0.246 OA
ENDROOT
BRANCH   2  15
HETATM   15  N2  UNL     1     -32.590   8.170 -26.337  1.00  0.00    -0.364 N 
ATOM     16  H2  UNL     1     -33.187   7.465 -26.768  1.00  0.00     0.162 HD
BRANCH  15  17
HETATM   17  C6  UNL     1     -31.747   8.715 -27.312  1.00  0.00     0.143 C 
BRANCH  17  18
HETATM   18  C7  UNL     1     -32.425   9.693 -28.283  1.00  0.00     0.238 C 
BRANCH  18  19
HETATM   19  O2  UNL     1     -31.700  10.902 -28.212  1.00  0.00    -0.219 OA
BRANCH  19  20
HETATM   20  N3  UNL     1     -31.525  11.463 -26.965  1.00  0.00     0.005 N 
HETATM   21  O3  UNL     1     -32.427  11.976 -26.309  1.00  0.00    -0.511 OA
HETATM   22  O4  UNL     1     -30.258  11.436 -26.441  1.00  0.00    -0.511 OA
ENDBRANCH  19  20
ENDBRANCH  18  19
ENDBRANCH  17  18
BRANCH  17  23
HETATM   23  C8  UNL     1     -31.270   7.557 -28.235  1.00  0.00    -0.028 A 
HETATM   24  C9  UNL     1     -32.252   6.862 -28.912  1.00  0.00     0.049 A 
HETATM   25  C10 UNL     1     -31.912   5.830 -29.781  1.00  0.00     0.102 A 
HETATM   26  C11 UNL     1     -30.587   5.513 -29.954  1.00  0.00     0.132 A 
HETATM   27  C12 UNL     1     -29.592   6.191 -29.292  1.00  0.00     0.102 A 
HETATM   28  C13 UNL     1     -29.977   7.226 -28.425  1.00  0.00     0.049 A 
BRANCH  25  29
HETATM   29  O5  UNL     1     -32.880   5.135 -30.456  1.00  0.00    -0.358 OA
ATOM     30  H5  UNL     1     -32.647   4.508 -31.131  1.00  0.00     0.217 HD
ENDBRANCH  25  29
BRANCH  26  31
HETATM   31  O6  UNL     1     -30.201   4.479 -30.819  1.00  0.00    -0.356 OA
ATOM     32  H6  UNL     1     -29.284   4.320 -31.010  1.00  0.00     0.218 HD
ENDBRANCH  26  31
BRANCH  27  33
HETATM   33  O7  UNL     1     -28.252   5.882 -29.457  1.00  0.00    -0.358 OA
ATOM     34  H7  UNL     1     -27.563   6.520 -29.310  1.00  0.00     0.217 HD
ENDBRANCH  27  33
ENDBRANCH  17  23
ENDBRANCH  15  17
ENDBRANCH   2  15
BRANCH   1  35
HETATM   35  C4  UNL     1     -30.917   6.833 -24.861  1.00  0.00     0.240 C 
BRANCH  35  36
HETATM   36  O1  UNL     1     -31.169   5.614 -25.305  1.00  0.00    -0.341 OA
BRANCH  36  37
HETATM   37  C2  UNL     1     -30.473   4.504 -25.119  1.00  0.00     0.121 C 
HETATM   38  C1  UNL     1     -31.264   3.568 -24.195  1.00  0.00     0.040 C 
HETATM   39  C3  UNL     1     -30.472   3.747 -26.478  1.00  0.00     0.040 C 
ENDBRANCH  36  37
ENDBRANCH  35  36
ENDBRANCH   1  35
BRANCH   8  40
HETATM   40  N5  UNL     1     -37.179  11.246 -22.807  1.00  0.00    -0.380 N 
ATOM     41  H52 UNL     1     -37.225  12.259 -22.918  1.00  0.00     0.158 HD
ATOM     42  H51 UNL     1     -38.003  10.839 -22.365  1.00  0.00     0.158 HD
ENDBRANCH   8  40
TORSDOF 13
ENDMDL
MODEL 5
REMARK VINA RESULT: -7.106114404      3.480      6.884
REMARK  13 active torsions:
REMARK  status: ('A' for Active; 'I' for Inactive)
REMARK    1  A    between atoms: C2_2  and  O1_4 
REMARK    2  A    between atoms: O1_4  and  C4_5 
REMARK    3  A    between atoms: C4_5  and  N1_6 
REMARK    4  A    between atoms: C5_7  and  N2_8 
REMARK    5  A    between atoms: N2_8  and  C6_10 
REMARK    6  A    between atoms: C6_10  and  C7_11 
REMARK    7  A    between atoms: C6_10  and  C8_16 
REMARK    8  A    between atoms: C7_11  and  O2_12 
REMARK    9  A    between atoms: O2_12  and  N3_13 
REMARK   10  A    between atoms: C10_18  and  O5_19 
REMARK   11  A    between atoms: C11_21  and  O6_22 
REMARK   12  A    between atoms: C12_24  and  O7_25 
REMARK   13  A    between atoms: C16_33  and  N5_34 
ROOT
HETATM    1  N1  UNL     1     -31.979   5.351 -30.574  1.00  0.00    -0.239 N 
HETATM    2  C5  UNL     1     -30.665   5.247 -30.038  1.00  0.00     0.132 A 
HETATM    3  C14 UNL     1     -29.650   5.084 -30.965  1.00  0.00     0.110 A 
HETATM    4  C15 UNL     1     -28.326   5.029 -30.593  1.00  0.00     0.264 A 
HETATM    5  O8  UNL     1     -28.064   5.107 -29.371  1.00  0.00    -0.267 OA
HETATM    6  N4  UNL     1     -27.247   4.913 -31.402  1.00  0.00    -0.303 N 
ATOM      7  H4  UNL     1     -26.342   4.888 -30.933  1.00  0.00     0.171 HD
HETATM    8  C16 UNL     1     -27.215   4.827 -32.717  1.00  0.00     0.147 A 
HETATM    9  S1  UNL     1     -28.746   4.877 -33.450  1.00  0.00    -0.035 SA
HETATM   10  C17 UNL     1     -30.003   5.027 -32.314  1.00  0.00     0.101 A 
HETATM   11  N6  UNL     1     -31.275   5.131 -32.715  1.00  0.00    -0.301 N 
ATOM     12  H6  UNL     1     -31.486   5.083 -33.711  1.00  0.00     0.171 HD
HETATM   13  C18 UNL     1     -32.276   5.295 -31.846  1.00  0.00     0.334 A 
HETATM   14  O9  UNL     1     -33.478   5.389 -32.253  1.00  0.00    -0.246 OA
ENDROOT
BRANCH   2  15
HETATM   15  N2  UNL     1     -30.632   5.347 -28.654  1.00  0.00    -0.364 N 
ATOM     16  H2  UNL     1     -30.421   4.432 -28.257  1.00  0.00     0.162 HD
BRANCH  15  17
HETATM   17  C6  UNL     1     -30.789   6.271 -27.614  1.00  0.00     0.143 C 
BRANCH  17  18
HETATM   18  C7  UNL     1     -29.581   7.189 -27.373  1.00  0.00     0.238 C 
BRANCH  18  19
HETATM   19  O2  UNL     1     -30.022   8.509 -27.610  1.00  0.00    -0.219 OA
BRANCH  19  20
HETATM   20  N3  UNL     1     -29.663   9.471 -26.691  1.00  0.00     0.005 N 
HETATM   21  O3  UNL     1     -30.257  10.535 -26.541  1.00  0.00    -0.511 OA
HETATM   22  O4  UNL     1     -28.572   9.205 -25.903  1.00  0.00    -0.511 OA
ENDBRANCH  19  20
ENDBRANCH  18  19
ENDBRANCH  17  18
BRANCH  17  23
HETATM   23  C8  UNL     1     -30.914   5.477 -26.282  1.00  0.00    -0.028 A 
HETATM   24  C9  UNL     1     -30.763   6.199 -25.116  1.00  0.00     0.049 A 
HETATM   25  C10 UNL     1     -30.888   5.574 -23.879  1.00  0.00     0.102 A 
HETATM   26  C11 UNL     1     -31.163   4.229 -23.837  1.00  0.00     0.132 A 
HETATM   27  C12 UNL     1     -31.318   3.489 -24.984  1.00  0.00     0.102 A 
HETATM   28  C13 UNL     1     -31.186   4.158 -26.211  1.00  0.00     0.049 A 
BRANCH  25  29
HETATM   29  O5  UNL     1     -30.739   6.283 -22.717  1.00  0.00    -0.358 OA
ATOM     30  H5  UNL     1     -31.477   6.427 -22.136  1.00  0.00     0.217 HD
ENDBRANCH  25  29
BRANCH  26  31
HETATM   31  O6  UNL     1     -31.295   3.559 -22.612  1.00  0.00    -0.356 OA
ATOM     32  H6  UNL     1     -31.091   3.995 -21.793  1.00  0.00     0.218 HD
ENDBRANCH  26  31
BRANCH  27  33
HETATM   33  O7  UNL     1     -31.596   2.132 -24.956  1.00  0.00    -0.358 OA
ATOM     34  H7  UNL     1     -30.922   1.481 -24.803  1.00  0.00     0.217 HD
ENDBRANCH  27  33
ENDBRANCH  17  23
ENDBRANCH  15  17
ENDBRANCH   2  15
BRANCH   1  35
HETATM   35  C4  UNL     1     -33.052   5.486 -29.596  1.00  0.00     0.240 C 
BRANCH  35  36
HETATM   36  O1  UNL     1     -33.632   6.665 -29.446  1.00  0.00    -0.341 OA
BRANCH  36  37
HETATM   37  C2  UNL     1     -33.121   7.871 -29.637  1.00  0.00     0.121 C 
HETATM   38  C1  UNL     1     -33.907   8.576 -30.750  1.00  0.00     0.040 C 
HETATM   39  C3  UNL     1     -33.467   8.706 -28.371  1.00  0.00     0.040 C 
ENDBRANCH  36  37
ENDBRANCH  35  36
ENDBRANCH   1  35
BRANCH   8  40
HETATM   40  N5  UNL     1     -26.116   4.717 -33.364  1.00  0.00    -0.380 N 
ATOM     41  H52 UNL     1     -25.516   5.506 -33.603  1.00  0.00     0.158 HD
ATOM     42  H51 UNL     1     -25.766   3.816 -33.689  1.00  0.00     0.158 HD
ENDBRANCH   8  40
TORSDOF 13
ENDMDL
