MODEL 1
REMARK VINA RESULT: -8.267264875      0.000      0.000
REMARK  16 active torsions:
REMARK  status: ('A' for Active; 'I' for Inactive)
REMARK    1  A    between atoms: O1_2  and  C2_3 
REMARK    2  A    between atoms: C2_3  and  C3_5 
REMARK    3  A    between atoms: C3_5  and  C22_39 
REMARK    4  A    between atoms: C4_6  and  C5_7 
REMARK    5  A    between atoms: C7_9  and  O3_10 
REMARK    6  A    between atoms: C8_12  and  O4_13 
REMARK    7  A    between atoms: O4_13  and  C9_14 
REMARK    8  A    between atoms: C9_14  and  C10_16 
REMARK    9  A    between atoms: C11_17  and  C12_18 
REMARK   10  A    between atoms: C14_20  and  O6_21 
REMARK   11  A    between atoms: C15_23  and  O7_24 
REMARK   12  A    between atoms: C16_26  and  C17_27 
REMARK   13  A    between atoms: C17_27  and  O8_28 
REMARK   14  A    between atoms: C17_27  and  O9_30 
REMARK   15  A    between atoms: C18_32  and  O10_33 
REMARK   16  A    between atoms: C19_35  and  O11_36 
ROOT
HETATM    1  C9  UNL     1     -29.472   5.295 -29.231  1.00  0.00     0.288 C 
HETATM    2  O5  UNL     1     -30.479   4.554 -29.158  1.00  0.00    -0.260 OA
ENDROOT
BRANCH   1   3
HETATM    3  O4  UNL     1     -28.885   5.713 -28.049  1.00  0.00    -0.270 OA
BRANCH   3   4
HETATM    4  C8  UNL     1     -29.674   6.303 -27.043  1.00  0.00     0.145 A 
HETATM    5  C7  UNL     1     -29.997   7.648 -27.098  1.00  0.00     0.103 A 
HETATM    6  C6  UNL     1     -30.768   8.194 -26.102  1.00  0.00     0.051 A 
HETATM    7  C5  UNL     1     -31.232   7.415 -25.030  1.00  0.00    -0.029 A 
HETATM    8  C21 UNL     1     -30.880   6.075 -25.020  1.00  0.00     0.051 A 
HETATM    9  C19 UNL     1     -30.108   5.505 -26.010  1.00  0.00     0.105 A 
BRANCH   5  10
HETATM   10  O3  UNL     1     -29.543   8.416 -28.149  1.00  0.00    -0.358 OA
ATOM     11  H3  UNL     1     -28.716   8.225 -28.574  1.00  0.00     0.217 HD
ENDBRANCH   5  10
BRANCH   7  12
HETATM   12  C4  UNL     1     -31.975   8.037 -23.983  1.00  0.00     0.036 C 
HETATM   13  C3  UNL     1     -33.115   8.640 -24.026  1.00  0.00     0.116 C 
BRANCH  13  14
HETATM   14  C2  UNL     1     -33.649   9.190 -22.744  1.00  0.00     0.299 C 
HETATM   15  O2  UNL     1     -34.414  10.171 -22.830  1.00  0.00    -0.259 OA
BRANCH  14  16
HETATM   16  O1  UNL     1     -33.323   8.653 -21.529  1.00  0.00    -0.322 OA
HETATM   17  C1  UNL     1     -33.817   9.150 -20.299  1.00  0.00     0.213 C 
ENDBRANCH  14  16
ENDBRANCH  13  14
BRANCH  13  18
HETATM   18  C22 UNL     1     -33.857   8.874 -25.243  1.00  0.00     0.215 C 
HETATM   19  O12 UNL     1     -34.691   8.126 -25.783  1.00  0.00    -0.644 OA
HETATM   20  O13 UNL     1     -33.649  10.089 -25.950  1.00  0.00    -0.644 OA
ENDBRANCH  13  18
ENDBRANCH   7  12
BRANCH   9  21
HETATM   21  O11 UNL     1     -29.750   4.171 -26.013  1.00  0.00    -0.353 OA
HETATM   22  C20 UNL     1     -30.762   3.187 -25.919  1.00  0.00     0.210 C 
ENDBRANCH   9  21
ENDBRANCH   3   4
ENDBRANCH   1   3
BRANCH   1  23
HETATM   23  C10 UNL     1     -28.926   5.709 -30.555  1.00  0.00     0.083 C 
HETATM   24  C11 UNL     1     -28.631   4.765 -31.394  1.00  0.00     0.020 C 
BRANCH  24  25
HETATM   25  C12 UNL     1     -28.097   4.847 -32.725  1.00  0.00     0.001 A 
HETATM   26  C13 UNL     1     -28.921   4.637 -33.827  1.00  0.00     0.053 A 
HETATM   27  C14 UNL     1     -28.508   4.693 -35.132  1.00  0.00     0.100 A 
HETATM   28  C15 UNL     1     -27.187   4.977 -35.353  1.00  0.00     0.112 A 
HETATM   29  C16 UNL     1     -26.317   5.197 -34.302  1.00  0.00     0.066 A 
HETATM   30  C18 UNL     1     -26.766   5.132 -32.978  1.00  0.00     0.090 A 
BRANCH  27  31
HETATM   31  O6  UNL     1     -29.395   4.469 -36.195  1.00  0.00    -0.358 OA
ATOM     32  H6  UNL     1     -29.113   4.529 -37.100  1.00  0.00     0.217 HD
ENDBRANCH  27  31
BRANCH  28  33
HETATM   33  O7  UNL     1     -26.709   5.047 -36.650  1.00  0.00    -0.357 OA
ATOM     34  H7  UNL     1     -26.968   5.770 -37.209  1.00  0.00     0.217 HD
ENDBRANCH  28  33
BRANCH  29  35
HETATM   35  C17 UNL     1     -24.902   5.492 -34.616  1.00  0.00     0.294 C 
BRANCH  35  36
HETATM   36  O8  UNL     1     -24.051   4.494 -34.200  1.00  0.00    -0.367 OA
ATOM     37  H8  UNL     1     -24.121   4.320 -33.269  1.00  0.00     0.213 HD
ENDBRANCH  35  36
BRANCH  35  38
HETATM   38  O9  UNL     1     -24.545   6.742 -34.102  1.00  0.00    -0.367 OA
ATOM     39  H9  UNL     1     -24.232   7.306 -34.800  1.00  0.00     0.213 HD
ENDBRANCH  35  38
ENDBRANCH  29  35
BRANCH  30  40
HETATM   40  O10 UNL     1     -25.880   5.348 -31.950  1.00  0.00    -0.359 OA
ATOM     41  H10 UNL     1     -25.756   6.217 -31.586  1.00  0.00     0.217 HD
ENDBRANCH  30  40
ENDBRANCH  24  25
ENDBRANCH   1  23
TORSDOF 16
ENDMDL
MODEL 2
REMARK VINA RESULT: -8.262928202      0.788      2.044
REMARK  16 active torsions:
REMARK  status: ('A' for Active; 'I' for Inactive)
REMARK    1  A    between atoms: O1_2  and  C2_3 
REMARK    2  A    between atoms: C2_3  and  C3_5 
REMARK    3  A    between atoms: C3_5  and  C22_39 
REMARK    4  A    between atoms: C4_6  and  C5_7 
REMARK    5  A    between atoms: C7_9  and  O3_10 
REMARK    6  A    between atoms: C8_12  and  O4_13 
REMARK    7  A    between atoms: O4_13  and  C9_14 
REMARK    8  A    between atoms: C9_14  and  C10_16 
REMARK    9  A    between atoms: C11_17  and  C12_18 
REMARK   10  A    between atoms: C14_20  and  O6_21 
REMARK   11  A    between atoms: C15_23  and  O7_24 
REMARK   12  A    between atoms: C16_26  and  C17_27 
REMARK   13  A    between atoms: C17_27  and  O8_28 
REMARK   14  A    between atoms: C17_27  and  O9_30 
REMARK   15  A    between atoms: C18_32  and  O10_33 
REMARK   16  A    between atoms: C19_35  and  O11_36 
ROOT
HETATM    1  C9  UNL     1     -29.898   4.952 -29.555  1.00  0.00     0.288 C 
HETATM    2  O5  UNL     1     -30.934   4.312 -29.266  1.00  0.00    -0.260 OA
ENDROOT
BRANCH   1   3
HETATM    3  O4  UNL     1     -29.065   5.344 -28.521  1.00  0.00    -0.270 OA
BRANCH   3   4
HETATM    4  C8  UNL     1     -29.616   5.765 -27.297  1.00  0.00     0.145 A 
HETATM    5  C7  UNL     1     -29.846   4.858 -26.276  1.00  0.00     0.103 A 
HETATM    6  C6  UNL     1     -30.385   5.300 -25.093  1.00  0.00     0.051 A 
HETATM    7  C5  UNL     1     -30.707   6.653 -24.901  1.00  0.00    -0.029 A 
HETATM    8  C21 UNL     1     -30.460   7.521 -25.952  1.00  0.00     0.051 A 
HETATM    9  C19 UNL     1     -29.919   7.099 -27.148  1.00  0.00     0.105 A 
BRANCH   5  10
HETATM   10  O3  UNL     1     -29.530   3.529 -26.462  1.00  0.00    -0.358 OA
ATOM     11  H3  UNL     1     -28.627   3.240 -26.495  1.00  0.00     0.217 HD
ENDBRANCH   5  10
BRANCH   7  12
HETATM   12  C4  UNL     1     -31.326   7.058 -23.681  1.00  0.00     0.036 C 
HETATM   13  C3  UNL     1     -32.300   7.883 -23.485  1.00  0.00     0.116 C 
BRANCH  13  14
HETATM   14  C2  UNL     1     -32.740   8.101 -22.075  1.00  0.00     0.299 C 
HETATM   15  O2  UNL     1     -32.180   7.412 -21.198  1.00  0.00    -0.259 OA
BRANCH  14  16
HETATM   16  O1  UNL     1     -33.709   9.010 -21.746  1.00  0.00    -0.322 OA
HETATM   17  C1  UNL     1     -34.139   9.246 -20.418  1.00  0.00     0.213 C 
ENDBRANCH  14  16
ENDBRANCH  13  14
BRANCH  13  18
HETATM   18  C22 UNL     1     -32.928   8.652 -24.534  1.00  0.00     0.215 C 
HETATM   19  O12 UNL     1     -32.693   9.829 -24.861  1.00  0.00    -0.644 OA
HETATM   20  O13 UNL     1     -33.944   8.042 -25.318  1.00  0.00    -0.644 OA
ENDBRANCH  13  18
ENDBRANCH   7  12
BRANCH   9  21
HETATM   21  O11 UNL     1     -29.667   7.954 -28.204  1.00  0.00    -0.353 OA
HETATM   22  C20 UNL     1     -30.751   8.437 -28.973  1.00  0.00     0.210 C 
ENDBRANCH   9  21
ENDBRANCH   3   4
ENDBRANCH   1   3
BRANCH   1  23
HETATM   23  C10 UNL     1     -29.577   5.278 -30.974  1.00  0.00     0.083 C 
HETATM   24  C11 UNL     1     -28.563   4.669 -31.505  1.00  0.00     0.020 C 
BRANCH  24  25
HETATM   25  C12 UNL     1     -28.015   4.771 -32.830  1.00  0.00     0.001 A 
HETATM   26  C13 UNL     1     -28.817   4.529 -33.942  1.00  0.00     0.053 A 
HETATM   27  C14 UNL     1     -28.390   4.600 -35.241  1.00  0.00     0.100 A 
HETATM   28  C15 UNL     1     -27.078   4.935 -35.447  1.00  0.00     0.112 A 
HETATM   29  C16 UNL     1     -26.231   5.189 -34.385  1.00  0.00     0.066 A 
HETATM   30  C18 UNL     1     -26.693   5.107 -33.067  1.00  0.00     0.090 A 
BRANCH  27  31
HETATM   31  O6  UNL     1     -29.254   4.341 -36.315  1.00  0.00    -0.358 OA
ATOM     32  H6  UNL     1     -28.940   3.962 -37.128  1.00  0.00     0.217 HD
ENDBRANCH  27  31
BRANCH  28  33
HETATM   33  O7  UNL     1     -26.587   5.023 -36.737  1.00  0.00    -0.357 OA
ATOM     34  H7  UNL     1     -25.706   5.347 -36.884  1.00  0.00     0.217 HD
ENDBRANCH  28  33
BRANCH  29  35
HETATM   35  C17 UNL     1     -24.825   5.537 -34.681  1.00  0.00     0.294 C 
BRANCH  35  36
HETATM   36  O8  UNL     1     -23.940   4.575 -34.251  1.00  0.00    -0.367 OA
ATOM     37  H8  UNL     1     -24.356   3.913 -33.712  1.00  0.00     0.213 HD
ENDBRANCH  35  36
BRANCH  35  38
HETATM   38  O9  UNL     1     -24.523   6.802 -34.167  1.00  0.00    -0.367 OA
ATOM     39  H9  UNL     1     -23.591   6.870 -33.991  1.00  0.00     0.213 HD
ENDBRANCH  35  38
ENDBRANCH  29  35
BRANCH  30  40
HETATM   40  O10 UNL     1     -25.829   5.358 -32.028  1.00  0.00    -0.359 OA
ATOM     41  H10 UNL     1     -24.894   5.434 -32.177  1.00  0.00     0.217 HD
ENDBRANCH  30  40
ENDBRANCH  24  25
ENDBRANCH   1  23
TORSDOF 16
ENDMDL
MODEL 3
REMARK VINA RESULT: -8.259916892      2.116     11.767
REMARK  16 active torsions:
REMARK  status: ('A' for Active; 'I' for Inactive)
REMARK    1  A    between atoms: O1_2  and  C2_3 
REMARK    2  A    between atoms: C2_3  and  C3_5 
REMARK    3  A    between atoms: C3_5  and  C22_39 
REMARK    4  A    between atoms: C4_6  and  C5_7 
REMARK    5  A    between atoms: C7_9  and  O3_10 
REMARK    6  A    between atoms: C8_12  and  O4_13 
REMARK    7  A    between atoms: O4_13  and  C9_14 
REMARK    8  A    between atoms: C9_14  and  C10_16 
REMARK    9  A    between atoms: C11_17  and  C12_18 
REMARK   10  A    between atoms: C14_20  and  O6_21 
REMARK   11  A    between atoms: C15_23  and  O7_24 
REMARK   12  A    between atoms: C16_26  and  C17_27 
REMARK   13  A    between atoms: C17_27  and  O8_28 
REMARK   14  A    between atoms: C17_27  and  O9_30 
REMARK   15  A    between atoms: C18_32  and  O10_33 
REMARK   16  A    between atoms: C19_35  and  O11_36 
ROOT
HETATM    1  C9  UNL     1     -31.286   7.668 -25.077  1.00  0.00     0.288 C 
HETATM    2  O5  UNL     1     -30.342   8.445 -25.349  1.00  0.00    -0.260 OA
ENDROOT
BRANCH   1   3
HETATM    3  O4  UNL     1     -31.620   6.700 -26.008  1.00  0.00    -0.270 OA
BRANCH   3   4
HETATM    4  C8  UNL     1     -30.749   6.425 -27.079  1.00  0.00     0.145 A 
HETATM    5  C7  UNL     1     -30.731   7.235 -28.201  1.00  0.00     0.103 A 
HETATM    6  C6  UNL     1     -29.870   6.940 -29.229  1.00  0.00     0.051 A 
HETATM    7  C5  UNL     1     -29.010   5.833 -29.163  1.00  0.00    -0.029 A 
HETATM    8  C21 UNL     1     -29.066   5.052 -28.019  1.00  0.00     0.051 A 
HETATM    9  C19 UNL     1     -29.922   5.330 -26.975  1.00  0.00     0.105 A 
BRANCH   5  10
HETATM   10  O3  UNL     1     -31.575   8.323 -28.269  1.00  0.00    -0.358 OA
ATOM     11  H3  UNL     1     -32.513   8.223 -28.164  1.00  0.00     0.217 HD
ENDBRANCH   5  10
BRANCH   7  12
HETATM   12  C4  UNL     1     -28.179   5.524 -30.281  1.00  0.00     0.036 C 
HETATM   13  C3  UNL     1     -28.503   5.112 -31.460  1.00  0.00     0.116 C 
BRANCH  13  14
HETATM   14  C2  UNL     1     -27.395   4.879 -32.434  1.00  0.00     0.299 C 
HETATM   15  O2  UNL     1     -26.266   5.301 -32.112  1.00  0.00    -0.259 OA
BRANCH  14  16
HETATM   16  O1  UNL     1     -27.595   4.235 -33.625  1.00  0.00    -0.322 OA
HETATM   17  C1  UNL     1     -27.563   4.889 -34.880  1.00  0.00     0.213 C 
ENDBRANCH  14  16
ENDBRANCH  13  14
BRANCH  13  18
HETATM   18  C22 UNL     1     -29.855   4.796 -31.860  1.00  0.00     0.215 C 
HETATM   19  O12 UNL     1     -30.544   3.819 -31.514  1.00  0.00    -0.644 OA
HETATM   20  O13 UNL     1     -30.528   5.671 -32.754  1.00  0.00    -0.644 OA
ENDBRANCH  13  18
ENDBRANCH   7  12
BRANCH   9  21
HETATM   21  O11 UNL     1     -29.988   4.561 -25.829  1.00  0.00    -0.353 OA
HETATM   22  C20 UNL     1     -30.787   3.393 -25.829  1.00  0.00     0.210 C 
ENDBRANCH   9  21
ENDBRANCH   3   4
ENDBRANCH   1   3
BRANCH   1  23
HETATM   23  C10 UNL     1     -32.022   7.789 -23.786  1.00  0.00     0.083 C 
HETATM   24  C11 UNL     1     -33.084   8.532 -23.779  1.00  0.00     0.020 C 
BRANCH  24  25
HETATM   25  C12 UNL     1     -33.989   8.838 -22.706  1.00  0.00     0.001 A 
HETATM   26  C13 UNL     1     -33.524   8.919 -21.396  1.00  0.00     0.053 A 
HETATM   27  C14 UNL     1     -34.304   9.203 -20.307  1.00  0.00     0.100 A 
HETATM   28  C15 UNL     1     -35.636   9.423 -20.538  1.00  0.00     0.112 A 
HETATM   29  C16 UNL     1     -36.160   9.359 -21.815  1.00  0.00     0.066 A 
HETATM   30  C18 UNL     1     -35.340   9.064 -22.910  1.00  0.00     0.090 A 
BRANCH  27  31
HETATM   31  O6  UNL     1     -33.768   9.267 -19.013  1.00  0.00    -0.358 OA
ATOM     32  H6  UNL     1     -34.250   8.952 -18.257  1.00  0.00     0.217 HD
ENDBRANCH  27  31
BRANCH  28  33
HETATM   33  O7  UNL     1     -36.477   9.715 -19.479  1.00  0.00    -0.357 OA
ATOM     34  H7  UNL     1     -37.349  10.053 -19.649  1.00  0.00     0.217 HD
ENDBRANCH  28  33
BRANCH  29  35
HETATM   35  C17 UNL     1     -37.609   9.601 -21.990  1.00  0.00     0.294 C 
BRANCH  35  36
HETATM   36  O8  UNL     1     -37.981  10.870 -21.612  1.00  0.00    -0.367 OA
ATOM     37  H8  UNL     1     -38.677  10.869 -20.965  1.00  0.00     0.213 HD
ENDBRANCH  35  36
BRANCH  35  38
HETATM   38  O9  UNL     1     -38.345   8.614 -21.327  1.00  0.00    -0.367 OA
ATOM     39  H9  UNL     1     -39.212   8.541 -21.708  1.00  0.00     0.213 HD
ENDBRANCH  35  38
ENDBRANCH  29  35
BRANCH  30  40
HETATM   40  O10 UNL     1     -35.885   9.000 -24.169  1.00  0.00    -0.359 OA
ATOM     41  H10 UNL     1     -35.484   9.455 -24.900  1.00  0.00     0.217 HD
ENDBRANCH  30  40
ENDBRANCH  24  25
ENDBRANCH   1  23
TORSDOF 16
ENDMDL
MODEL 4
REMARK VINA RESULT: -8.223518507      2.238     11.414
REMARK  16 active torsions:
REMARK  status: ('A' for Active; 'I' for Inactive)
REMARK    1  A    between atoms: O1_2  and  C2_3 
REMARK    2  A    between atoms: C2_3  and  C3_5 
REMARK    3  A    between atoms: C3_5  and  C22_39 
REMARK    4  A    between atoms: C4_6  and  C5_7 
REMARK    5  A    between atoms: C7_9  and  O3_10 
REMARK    6  A    between atoms: C8_12  and  O4_13 
REMARK    7  A    between atoms: O4_13  and  C9_14 
REMARK    8  A    between atoms: C9_14  and  C10_16 
REMARK    9  A    between atoms: C11_17  and  C12_18 
REMARK   10  A    between atoms: C14_20  and  O6_21 
REMARK   11  A    between atoms: C15_23  and  O7_24 
REMARK   12  A    between atoms: C16_26  and  C17_27 
REMARK   13  A    between atoms: C17_27  and  O8_28 
REMARK   14  A    between atoms: C17_27  and  O9_30 
REMARK   15  A    between atoms: C18_32  and  O10_33 
REMARK   16  A    between atoms: C19_35  and  O11_36 
ROOT
HETATM    1  C9  UNL     1     -28.582   5.312 -30.310  1.00  0.00     0.288 C 
HETATM    2  O5  UNL     1     -28.011   6.422 -30.403  1.00  0.00    -0.260 OA
ENDROOT
BRANCH   1   3
HETATM    3  O4  UNL     1     -28.228   4.322 -31.211  1.00  0.00    -0.270 OA
BRANCH   3   4
HETATM    4  C8  UNL     1     -27.675   4.671 -32.457  1.00  0.00     0.145 A 
HETATM    5  C7  UNL     1     -26.345   5.038 -32.562  1.00  0.00     0.103 A 
HETATM    6  C6  UNL     1     -25.835   5.373 -33.792  1.00  0.00     0.051 A 
HETATM    7  C5  UNL     1     -26.637   5.350 -34.943  1.00  0.00    -0.029 A 
HETATM    8  C21 UNL     1     -27.963   4.978 -34.786  1.00  0.00     0.051 A 
HETATM    9  C19 UNL     1     -28.496   4.637 -33.562  1.00  0.00     0.105 A 
BRANCH   5  10
HETATM   10  O3  UNL     1     -25.554   5.060 -31.433  1.00  0.00    -0.358 OA
ATOM     11  H3  UNL     1     -25.812   5.553 -30.663  1.00  0.00     0.217 HD
ENDBRANCH   5  10
BRANCH   7  12
HETATM   12  C4  UNL     1     -26.085   5.769 -36.190  1.00  0.00     0.036 C 
HETATM   13  C3  UNL     1     -24.911   6.237 -36.456  1.00  0.00     0.116 C 
BRANCH  13  14
HETATM   14  C2  UNL     1     -24.618   6.586 -37.878  1.00  0.00     0.299 C 
HETATM   15  O2  UNL     1     -23.571   6.118 -38.367  1.00  0.00    -0.259 OA
BRANCH  14  16
HETATM   16  O1  UNL     1     -25.451   7.378 -38.621  1.00  0.00    -0.322 OA
HETATM   17  C1  UNL     1     -25.607   8.768 -38.401  1.00  0.00     0.213 C 
ENDBRANCH  14  16
ENDBRANCH  13  14
BRANCH  13  18
HETATM   18  C22 UNL     1     -23.907   6.510 -35.455  1.00  0.00     0.215 C 
HETATM   19  O12 UNL     1     -22.975   5.771 -35.088  1.00  0.00    -0.644 OA
HETATM   20  O13 UNL     1     -23.937   7.756 -34.773  1.00  0.00    -0.644 OA
ENDBRANCH  13  18
ENDBRANCH   7  12
BRANCH   9  21
HETATM   21  O11 UNL     1     -29.815   4.263 -33.391  1.00  0.00    -0.353 OA
HETATM   22  C20 UNL     1     -30.823   5.255 -33.434  1.00  0.00     0.210 C 
ENDBRANCH   9  21
ENDBRANCH   3   4
ENDBRANCH   1   3
BRANCH   1  23
HETATM   23  C10 UNL     1     -29.610   5.071 -29.259  1.00  0.00     0.083 C 
HETATM   24  C11 UNL     1     -29.222   5.145 -28.024  1.00  0.00     0.020 C 
BRANCH  24  25
HETATM   25  C12 UNL     1     -29.967   4.966 -26.809  1.00  0.00     0.001 A 
HETATM   26  C13 UNL     1     -30.437   3.704 -26.453  1.00  0.00     0.053 A 
HETATM   27  C14 UNL     1     -31.155   3.431 -25.319  1.00  0.00     0.100 A 
HETATM   28  C15 UNL     1     -31.422   4.483 -24.484  1.00  0.00     0.112 A 
HETATM   29  C16 UNL     1     -30.983   5.759 -24.780  1.00  0.00     0.066 A 
HETATM   30  C18 UNL     1     -30.252   6.011 -25.947  1.00  0.00     0.090 A 
BRANCH  27  31
HETATM   31  O6  UNL     1     -31.599   2.133 -25.024  1.00  0.00    -0.358 OA
ATOM     32  H6  UNL     1     -32.499   1.959 -24.776  1.00  0.00     0.217 HD
ENDBRANCH  27  31
BRANCH  28  33
HETATM   33  O7  UNL     1     -32.144   4.271 -23.323  1.00  0.00    -0.357 OA
ATOM     34  H7  UNL     1     -32.976   4.713 -23.199  1.00  0.00     0.217 HD
ENDBRANCH  28  33
BRANCH  29  35
HETATM   35  C17 UNL     1     -31.315   6.849 -23.837  1.00  0.00     0.294 C 
BRANCH  35  36
HETATM   36  O8  UNL     1     -30.885   6.587 -22.556  1.00  0.00    -0.367 OA
ATOM     37  H8  UNL     1     -31.228   7.207 -21.923  1.00  0.00     0.213 HD
ENDBRANCH  35  36
BRANCH  35  38
HETATM   38  O9  UNL     1     -32.683   7.131 -23.889  1.00  0.00    -0.367 OA
ATOM     39  H9  UNL     1     -32.917   7.747 -23.204  1.00  0.00     0.213 HD
ENDBRANCH  35  38
ENDBRANCH  29  35
BRANCH  30  40
HETATM   40  O10 UNL     1     -29.832   7.290 -26.222  1.00  0.00    -0.359 OA
ATOM     41  H10 UNL     1     -29.038   7.637 -25.835  1.00  0.00     0.217 HD
ENDBRANCH  30  40
ENDBRANCH  24  25
ENDBRANCH   1  23
TORSDOF 16
ENDMDL
MODEL 5
REMARK VINA RESULT: -8.062636452      2.209     11.368
REMARK  16 active torsions:
REMARK  status: ('A' for Active; 'I' for Inactive)
REMARK    1  A    between atoms: O1_2  and  C2_3 
REMARK    2  A    between atoms: C2_3  and  C3_5 
REMARK    3  A    between atoms: C3_5  and  C22_39 
REMARK    4  A    between atoms: C4_6  and  C5_7 
REMARK    5  A    between atoms: C7_9  and  O3_10 
REMARK    6  A    between atoms: C8_12  and  O4_13 
REMARK    7  A    between atoms: O4_13  and  C9_14 
REMARK    8  A    between atoms: C9_14  and  C10_16 
REMARK    9  A    between atoms: C11_17  and  C12_18 
REMARK   10  A    between atoms: C14_20  and  O6_21 
REMARK   11  A    between atoms: C15_23  and  O7_24 
REMARK   12  A    between atoms: C16_26  and  C17_27 
REMARK   13  A    between atoms: C17_27  and  O8_28 
REMARK   14  A    between atoms: C17_27  and  O9_30 
REMARK   15  A    between atoms: C18_32  and  O10_33 
REMARK   16  A    between atoms: C19_35  and  O11_36 
ROOT
HETATM    1  C9  UNL     1     -28.736   5.465 -29.922  1.00  0.00     0.288 C 
HETATM    2  O5  UNL     1     -28.176   6.566 -30.129  1.00  0.00    -0.260 OA
ENDROOT
BRANCH   1   3
HETATM    3  O4  UNL     1     -28.443   4.416 -30.775  1.00  0.00    -0.270 OA
BRANCH   3   4
HETATM    4  C8  UNL     1     -27.924   4.677 -32.058  1.00  0.00     0.145 A 
HETATM    5  C7  UNL     1     -26.585   4.987 -32.228  1.00  0.00     0.103 A 
HETATM    6  C6  UNL     1     -26.109   5.237 -33.492  1.00  0.00     0.051 A 
HETATM    7  C5  UNL     1     -26.954   5.185 -34.611  1.00  0.00    -0.029 A 
HETATM    8  C21 UNL     1     -28.286   4.872 -34.388  1.00  0.00     0.051 A 
HETATM    9  C19 UNL     1     -28.785   4.617 -33.129  1.00  0.00     0.105 A 
BRANCH   5  10
HETATM   10  O3  UNL     1     -25.753   5.039 -31.130  1.00  0.00    -0.358 OA
ATOM     11  H3  UNL     1     -25.308   4.262 -30.815  1.00  0.00     0.217 HD
ENDBRANCH   5  10
BRANCH   7  12
HETATM   12  C4  UNL     1     -26.433   5.516 -35.897  1.00  0.00     0.036 C 
HETATM   13  C3  UNL     1     -25.281   6.000 -36.220  1.00  0.00     0.116 C 
BRANCH  13  14
HETATM   14  C2  UNL     1     -25.019   6.237 -37.671  1.00  0.00     0.299 C 
HETATM   15  O2  UNL     1     -23.825   6.241 -38.033  1.00  0.00    -0.259 OA
BRANCH  14  16
HETATM   16  O1  UNL     1     -26.030   6.440 -38.571  1.00  0.00    -0.322 OA
HETATM   17  C1  UNL     1     -26.477   7.724 -38.966  1.00  0.00     0.213 C 
ENDBRANCH  14  16
ENDBRANCH  13  14
BRANCH  13  18
HETATM   18  C22 UNL     1     -24.274   6.391 -35.262  1.00  0.00     0.215 C 
HETATM   19  O12 UNL     1     -24.175   7.474 -34.657  1.00  0.00    -0.644 OA
HETATM   20  O13 UNL     1     -23.246   5.467 -34.931  1.00  0.00    -0.644 OA
ENDBRANCH  13  18
ENDBRANCH   7  12
BRANCH   9  21
HETATM   21  O11 UNL     1     -30.109   4.303 -32.893  1.00  0.00    -0.353 OA
HETATM   22  C20 UNL     1     -31.089   5.316 -33.015  1.00  0.00     0.210 C 
ENDBRANCH   9  21
ENDBRANCH   3   4
ENDBRANCH   1   3
BRANCH   1  23
HETATM   23  C10 UNL     1     -29.688   5.298 -28.787  1.00  0.00     0.083 C 
HETATM   24  C11 UNL     1     -29.332   5.784 -27.640  1.00  0.00     0.020 C 
BRANCH  24  25
HETATM   25  C12 UNL     1     -30.023   5.780 -26.380  1.00  0.00     0.001 A 
HETATM   26  C13 UNL     1     -30.450   6.976 -25.809  1.00  0.00     0.053 A 
HETATM   27  C14 UNL     1     -31.114   7.077 -24.616  1.00  0.00     0.100 A 
HETATM   28  C15 UNL     1     -31.371   5.909 -23.947  1.00  0.00     0.112 A 
HETATM   29  C16 UNL     1     -30.975   4.690 -24.461  1.00  0.00     0.066 A 
HETATM   30  C18 UNL     1     -30.295   4.615 -25.683  1.00  0.00     0.090 A 
BRANCH  27  31
HETATM   31  O6  UNL     1     -31.515   8.318 -24.099  1.00  0.00    -0.358 OA
ATOM     32  H6  UNL     1     -30.979   9.096 -24.198  1.00  0.00     0.217 HD
ENDBRANCH  27  31
BRANCH  28  33
HETATM   33  O7  UNL     1     -32.039   5.946 -22.736  1.00  0.00    -0.357 OA
ATOM     34  H7  UNL     1     -31.884   5.264 -22.093  1.00  0.00     0.217 HD
ENDBRANCH  28  33
BRANCH  29  35
HETATM   35  C17 UNL     1     -31.279   3.471 -23.681  1.00  0.00     0.294 C 
BRANCH  35  36
HETATM   36  O8  UNL     1     -30.204   3.037 -22.939  1.00  0.00    -0.367 OA
ATOM     37  H8  UNL     1     -29.844   3.720 -22.385  1.00  0.00     0.213 HD
ENDBRANCH  35  36
BRANCH  35  38
HETATM   38  O9  UNL     1     -31.779   2.472 -24.522  1.00  0.00    -0.367 OA
ATOM     39  H9  UNL     1     -32.036   1.713 -24.013  1.00  0.00     0.213 HD
ENDBRANCH  35  38
ENDBRANCH  29  35
BRANCH  30  40
HETATM   40  O10 UNL     1     -29.906   3.391 -26.169  1.00  0.00    -0.359 OA
ATOM     41  H10 UNL     1     -30.433   2.616 -26.021  1.00  0.00     0.217 HD
ENDBRANCH  30  40
ENDBRANCH  24  25
ENDBRANCH   1  23
TORSDOF 16
ENDMDL
