MODEL 1
REMARK VINA RESULT: -7.300824303      0.000      0.000
REMARK  11 active torsions:
REMARK  status: ('A' for Active; 'I' for Inactive)
REMARK    1  A    between atoms: O1_2  and  C2_3 
REMARK    2  A    between atoms: C2_3  and  C3_4 
REMARK    3  A    between atoms: C3_4  and  C4_5 
REMARK    4  A    between atoms: C6_8  and  O2_9 
REMARK    5  A    between atoms: C6_8  and  C7_11 
REMARK    6  A    between atoms: C8_12  and  O3_13 
REMARK    7  A    between atoms: C9_15  and  O4_16 
REMARK    8  A    between atoms: C10_18  and  C11_19 
REMARK    9  A    between atoms: C12_20  and  O5_21 
REMARK   10  A    between atoms: C18_36  and  C19_37 
REMARK   11  A    between atoms: C20_40  and  O12_41 
ROOT
HETATM    1  C4  UNL     1     -26.336   5.607 -35.196  1.00  0.00     0.130 C 
HETATM    2  C5  UNL     1     -24.933   5.275 -35.027  1.00  0.00     0.059 C 
HETATM    3  N1  UNL     1     -23.808   5.039 -34.900  1.00  0.00    -0.197 NA
ENDROOT
BRANCH   1   4
HETATM    4  C3  UNL     1     -27.214   4.559 -35.743  1.00  0.00     0.081 C 
BRANCH   4   5
HETATM    5  C2  UNL     1     -28.623   4.492 -35.106  1.00  0.00     0.080 C 
HETATM    6  C6  UNL     1     -28.563   4.217 -33.698  1.00  0.00     0.110 C 
BRANCH   5   7
HETATM    7  O1  UNL     1     -29.378   5.432 -35.661  1.00  0.00    -0.357 OA
HETATM    8  C1  UNL     1     -30.264   4.937 -36.664  1.00  0.00     0.209 C 
ENDBRANCH   5   7
BRANCH   6   9
HETATM    9  O2  UNL     1     -27.795   3.118 -33.458  1.00  0.00    -0.357 OA
ATOM     10  H2  UNL     1     -28.342   2.357 -33.298  1.00  0.00     0.217 HD
ENDBRANCH   6   9
BRANCH   6  11
HETATM   11  C7  UNL     1     -29.081   4.766 -32.472  1.00  0.00     0.070 A 
HETATM   12  C8  UNL     1     -28.188   5.109 -31.436  1.00  0.00     0.115 A 
HETATM   13  C9  UNL     1     -28.636   5.655 -30.277  1.00  0.00     0.112 A 
HETATM   14  C10 UNL     1     -30.001   5.900 -30.057  1.00  0.00     0.039 A 
HETATM   15  C18 UNL     1     -30.886   5.581 -31.034  1.00  0.00     0.089 A 
HETATM   16  C20 UNL     1     -30.443   5.012 -32.251  1.00  0.00     0.099 A 
BRANCH  12  17
HETATM   17  O3  UNL     1     -26.851   4.866 -31.658  1.00  0.00    -0.357 OA
ATOM     18  H3  UNL     1     -26.305   5.617 -31.854  1.00  0.00     0.217 HD
ENDBRANCH  12  17
BRANCH  13  19
HETATM   19  O4  UNL     1     -27.775   5.993 -29.263  1.00  0.00    -0.357 OA
ATOM     20  H4  UNL     1     -27.004   5.473 -29.072  1.00  0.00     0.217 HD
ENDBRANCH  13  19
BRANCH  14  21
HETATM   21  C11 UNL     1     -30.394   6.487 -28.790  1.00  0.00     0.089 A 
HETATM   22  C12 UNL     1     -30.402   5.678 -27.653  1.00  0.00     0.112 A 
HETATM   23  C13 UNL     1     -30.730   6.194 -26.428  1.00  0.00     0.110 A 
HETATM   24  N2  UNL     1     -30.752   5.451 -25.302  1.00  0.00    -0.303 N 
HETATM   25  C16 UNL     1     -31.053   7.556 -26.380  1.00  0.00     0.177 A 
HETATM   26  C14 UNL     1     -31.078   5.988 -24.120  1.00  0.00     0.327 A 
ATOM     27  H2  UNL     1     -30.515   4.461 -25.353  1.00  0.00     0.171 HD
HETATM   28  O6  UNL     1     -31.093   5.268 -23.060  1.00  0.00    -0.247 OA
HETATM   29  N3  UNL     1     -31.387   7.292 -24.076  1.00  0.00    -0.273 N 
HETATM   30  C15 UNL     1     -31.383   8.083 -25.157  1.00  0.00     0.285 A 
ATOM     31  H3  UNL     1     -31.636   7.702 -23.175  1.00  0.00     0.173 HD
HETATM   32  O7  UNL     1     -31.674   9.310 -25.117  1.00  0.00    -0.265 OA
HETATM   33  O8  UNL     1     -31.035   8.281 -27.464  1.00  0.00    -0.267 OA
HETATM   34  C17 UNL     1     -30.726   7.821 -28.649  1.00  0.00     0.302 A 
HETATM   35  O9  UNL     1     -30.722   8.570 -29.682  1.00  0.00    -0.259 OA
BRANCH  22  36
HETATM   36  O5  UNL     1     -30.076   4.346 -27.763  1.00  0.00    -0.357 OA
ATOM     37  H5  UNL     1     -29.811   3.993 -28.604  1.00  0.00     0.217 HD
ENDBRANCH  22  36
ENDBRANCH  14  21
BRANCH  15  38
HETATM   38  C19 UNL     1     -32.296   5.834 -30.817  1.00  0.00     0.213 C 
HETATM   39  O10 UNL     1     -32.884   6.765 -31.421  1.00  0.00    -0.644 OA
HETATM   40  O11 UNL     1     -33.102   5.095 -29.946  1.00  0.00    -0.644 OA
ENDBRANCH  15  38
BRANCH  16  41
HETATM   41  O12 UNL     1     -31.340   4.715 -33.190  1.00  0.00    -0.358 OA
ATOM     42  H12 UNL     1     -31.620   5.376 -33.811  1.00  0.00     0.217 HD
ENDBRANCH  16  41
ENDBRANCH   6  11
ENDBRANCH   4   5
ENDBRANCH   1   4
TORSDOF 11
ENDMDL
MODEL 2
REMARK VINA RESULT: -7.055466687      4.830      8.026
REMARK  11 active torsions:
REMARK  status: ('A' for Active; 'I' for Inactive)
REMARK    1  A    between atoms: O1_2  and  C2_3 
REMARK    2  A    between atoms: C2_3  and  C3_4 
REMARK    3  A    between atoms: C3_4  and  C4_5 
REMARK    4  A    between atoms: C6_8  and  O2_9 
REMARK    5  A    between atoms: C6_8  and  C7_11 
REMARK    6  A    between atoms: C8_12  and  O3_13 
REMARK    7  A    between atoms: C9_15  and  O4_16 
REMARK    8  A    between atoms: C10_18  and  C11_19 
REMARK    9  A    between atoms: C12_20  and  O5_21 
REMARK   10  A    between atoms: C18_36  and  C19_37 
REMARK   11  A    between atoms: C20_40  and  O12_41 
ROOT
HETATM    1  C4  UNL     1     -29.148   5.049 -29.050  1.00  0.00     0.130 C 
HETATM    2  C5  UNL     1     -28.149   5.469 -30.017  1.00  0.00     0.059 C 
HETATM    3  N1  UNL     1     -27.334   5.784 -30.774  1.00  0.00    -0.197 NA
ENDROOT
BRANCH   1   4
HETATM    4  C3  UNL     1     -30.095   6.071 -28.574  1.00  0.00     0.081 C 
BRANCH   4   5
HETATM    5  C2  UNL     1     -30.402   6.018 -27.058  1.00  0.00     0.080 C 
HETATM    6  C6  UNL     1     -30.851   7.287 -26.558  1.00  0.00     0.110 C 
BRANCH   5   7
HETATM    7  O1  UNL     1     -30.977   4.853 -26.788  1.00  0.00    -0.357 OA
HETATM    8  C1  UNL     1     -30.408   4.180 -25.666  1.00  0.00     0.209 C 
ENDBRANCH   5   7
BRANCH   6   9
HETATM    9  O2  UNL     1     -29.983   8.275 -26.911  1.00  0.00    -0.357 OA
ATOM     10  H2  UNL     1     -29.634   8.118 -27.781  1.00  0.00     0.217 HD
ENDBRANCH   6   9
BRANCH   6  11
HETATM   11  C7  UNL     1     -31.949   7.812 -25.789  1.00  0.00     0.070 A 
HETATM   12  C8  UNL     1     -31.913   7.727 -24.382  1.00  0.00     0.115 A 
HETATM   13  C9  UNL     1     -32.915   8.236 -23.622  1.00  0.00     0.112 A 
HETATM   14  C10 UNL     1     -34.029   8.866 -24.199  1.00  0.00     0.039 A 
HETATM   15  C18 UNL     1     -34.095   8.965 -25.550  1.00  0.00     0.089 A 
HETATM   16  C20 UNL     1     -33.061   8.443 -26.363  1.00  0.00     0.099 A 
BRANCH  12  17
HETATM   17  O3  UNL     1     -30.818   7.107 -23.822  1.00  0.00    -0.357 OA
ATOM     18  H3  UNL     1     -30.364   7.576 -23.133  1.00  0.00     0.217 HD
ENDBRANCH  12  17
BRANCH  13  19
HETATM   19  O4  UNL     1     -32.889   8.158 -22.252  1.00  0.00    -0.357 OA
ATOM     20  H4  UNL     1     -33.678   7.995 -21.749  1.00  0.00     0.217 HD
ENDBRANCH  13  19
BRANCH  14  21
HETATM   21  C11 UNL     1     -35.056   9.383 -23.314  1.00  0.00     0.089 A 
HETATM   22  C12 UNL     1     -36.037   8.508 -22.846  1.00  0.00     0.112 A 
HETATM   23  C13 UNL     1     -37.005   8.940 -21.980  1.00  0.00     0.110 A 
HETATM   24  N2  UNL     1     -37.974   8.132 -21.502  1.00  0.00    -0.303 N 
HETATM   25  C16 UNL     1     -36.959  10.286 -21.597  1.00  0.00     0.177 A 
HETATM   26  C14 UNL     1     -38.907   8.587 -20.656  1.00  0.00     0.327 A 
ATOM     27  H2  UNL     1     -37.996   7.154 -21.791  1.00  0.00     0.171 HD
HETATM   28  O6  UNL     1     -39.819   7.805 -20.211  1.00  0.00    -0.247 OA
HETATM   29  N3  UNL     1     -38.860   9.876 -20.290  1.00  0.00    -0.273 N 
HETATM   30  C15 UNL     1     -37.924  10.729 -20.729  1.00  0.00     0.285 A 
ATOM     31  H3  UNL     1     -39.570  10.224 -19.645  1.00  0.00     0.173 HD
HETATM   32  O7  UNL     1     -37.879  11.942 -20.385  1.00  0.00    -0.265 OA
HETATM   33  O8  UNL     1     -36.026  11.075 -22.055  1.00  0.00    -0.267 OA
HETATM   34  C17 UNL     1     -35.086  10.695 -22.882  1.00  0.00     0.302 A 
HETATM   35  O9  UNL     1     -34.194  11.504 -23.303  1.00  0.00    -0.259 OA
BRANCH  22  36
HETATM   36  O5  UNL     1     -36.033   7.196 -23.259  1.00  0.00    -0.357 OA
ATOM     37  H5  UNL     1     -36.688   6.895 -23.878  1.00  0.00     0.217 HD
ENDBRANCH  22  36
ENDBRANCH  14  21
BRANCH  15  38
HETATM   38  C19 UNL     1     -35.240   9.617 -26.153  1.00  0.00     0.213 C 
HETATM   39  O10 UNL     1     -35.165  10.803 -26.559  1.00  0.00    -0.644 OA
HETATM   40  O11 UNL     1     -36.486   9.010 -26.332  1.00  0.00    -0.644 OA
ENDBRANCH  15  38
BRANCH  16  41
HETATM   41  O12 UNL     1     -33.158   8.561 -27.686  1.00  0.00    -0.358 OA
ATOM     42  H12 UNL     1     -33.761   9.187 -28.068  1.00  0.00     0.217 HD
ENDBRANCH  16  41
ENDBRANCH   6  11
ENDBRANCH   4   5
ENDBRANCH   1   4
TORSDOF 11
ENDMDL
MODEL 3
REMARK VINA RESULT: -6.956315688      5.343      8.980
REMARK  11 active torsions:
REMARK  status: ('A' for Active; 'I' for Inactive)
REMARK    1  A    between atoms: O1_2  and  C2_3 
REMARK    2  A    between atoms: C2_3  and  C3_4 
REMARK    3  A    between atoms: C3_4  and  C4_5 
REMARK    4  A    between atoms: C6_8  and  O2_9 
REMARK    5  A    between atoms: C6_8  and  C7_11 
REMARK    6  A    between atoms: C8_12  and  O3_13 
REMARK    7  A    between atoms: C9_15  and  O4_16 
REMARK    8  A    between atoms: C10_18  and  C11_19 
REMARK    9  A    between atoms: C12_20  and  O5_21 
REMARK   10  A    between atoms: C18_36  and  C19_37 
REMARK   11  A    between atoms: C20_40  and  O12_41 
ROOT
HETATM    1  C4  UNL     1     -30.631   5.102 -28.078  1.00  0.00     0.130 C 
HETATM    2  C5  UNL     1     -31.553   5.963 -28.797  1.00  0.00     0.059 C 
HETATM    3  N1  UNL     1     -32.283   6.632 -29.395  1.00  0.00    -0.197 NA
ENDROOT
BRANCH   1   4
HETATM    4  C3  UNL     1     -29.789   5.732 -27.047  1.00  0.00     0.081 C 
BRANCH   4   5
HETATM    5  C2  UNL     1     -30.403   5.751 -25.627  1.00  0.00     0.080 C 
HETATM    6  C6  UNL     1     -30.783   7.076 -25.225  1.00  0.00     0.110 C 
BRANCH   5   7
HETATM    7  O1  UNL     1     -31.162   4.671 -25.484  1.00  0.00    -0.357 OA
HETATM    8  C1  UNL     1     -30.987   4.011 -24.231  1.00  0.00     0.209 C 
ENDBRANCH   5   7
BRANCH   6   9
HETATM    9  O2  UNL     1     -29.745   7.942 -25.390  1.00  0.00    -0.357 OA
ATOM     10  H2  UNL     1     -29.659   8.509 -24.631  1.00  0.00     0.217 HD
ENDBRANCH   6   9
BRANCH   6  11
HETATM   11  C7  UNL     1     -31.941   7.749 -24.697  1.00  0.00     0.070 A 
HETATM   12  C8  UNL     1     -32.156   7.767 -23.303  1.00  0.00     0.115 A 
HETATM   13  C9  UNL     1     -33.219   8.415 -22.766  1.00  0.00     0.112 A 
HETATM   14  C10 UNL     1     -34.151   9.093 -23.568  1.00  0.00     0.039 A 
HETATM   15  C18 UNL     1     -33.973   9.096 -24.912  1.00  0.00     0.089 A 
HETATM   16  C20 UNL     1     -32.871   8.428 -25.495  1.00  0.00     0.099 A 
BRANCH  12  17
HETATM   17  O3  UNL     1     -31.239   7.100 -22.522  1.00  0.00    -0.357 OA
ATOM     18  H3  UNL     1     -31.120   7.414 -21.634  1.00  0.00     0.217 HD
ENDBRANCH  12  17
BRANCH  13  19
HETATM   19  O4  UNL     1     -33.437   8.438 -21.411  1.00  0.00    -0.357 OA
ATOM     20  H4  UNL     1     -34.285   8.665 -21.048  1.00  0.00     0.217 HD
ENDBRANCH  13  19
BRANCH  14  21
HETATM   21  C11 UNL     1     -35.259   9.760 -22.912  1.00  0.00     0.089 A 
HETATM   22  C12 UNL     1     -36.323   8.988 -22.445  1.00  0.00     0.112 A 
HETATM   23  C13 UNL     1     -37.375   9.566 -21.787  1.00  0.00     0.110 A 
HETATM   24  N2  UNL     1     -38.425   8.861 -21.319  1.00  0.00    -0.303 N 
HETATM   25  C16 UNL     1     -37.326  10.956 -21.612  1.00  0.00     0.177 A 
HETATM   26  C14 UNL     1     -39.437   9.459 -20.680  1.00  0.00     0.327 A 
ATOM     27  H2  UNL     1     -38.447   7.850 -21.454  1.00  0.00     0.171 HD
HETATM   28  O6  UNL     1     -40.427   8.774 -20.241  1.00  0.00    -0.247 OA
HETATM   29  N3  UNL     1     -39.388  10.789 -20.513  1.00  0.00    -0.273 N 
HETATM   30  C15 UNL     1     -38.375  11.546 -20.954  1.00  0.00     0.285 A 
ATOM     31  H3  UNL     1     -40.160  11.247 -20.026  1.00  0.00     0.173 HD
HETATM   32  O7  UNL     1     -38.327  12.797 -20.798  1.00  0.00    -0.265 OA
HETATM   33  O8  UNL     1     -36.315  11.646 -22.062  1.00  0.00    -0.267 OA
HETATM   34  C17 UNL     1     -35.294  11.125 -22.694  1.00  0.00     0.302 A 
HETATM   35  O9  UNL     1     -34.327  11.842 -23.117  1.00  0.00    -0.259 OA
BRANCH  22  36
HETATM   36  O5  UNL     1     -36.317   7.627 -22.647  1.00  0.00    -0.357 OA
ATOM     37  H5  UNL     1     -36.125   7.044 -21.922  1.00  0.00     0.217 HD
ENDBRANCH  22  36
ENDBRANCH  14  21
BRANCH  15  38
HETATM   38  C19 UNL     1     -34.928   9.796 -25.747  1.00  0.00     0.213 C 
HETATM   39  O10 UNL     1     -34.631  10.890 -26.287  1.00  0.00    -0.644 OA
HETATM   40  O11 UNL     1     -36.221   9.338 -26.018  1.00  0.00    -0.644 OA
ENDBRANCH  15  38
BRANCH  16  41
HETATM   41  O12 UNL     1     -32.726   8.455 -26.820  1.00  0.00    -0.358 OA
ATOM     42  H12 UNL     1     -33.457   8.697 -27.376  1.00  0.00     0.217 HD
ENDBRANCH  16  41
ENDBRANCH   6  11
ENDBRANCH   4   5
ENDBRANCH   1   4
TORSDOF 11
ENDMDL
MODEL 4
REMARK VINA RESULT: -6.934013008      2.796      5.271
REMARK  11 active torsions:
REMARK  status: ('A' for Active; 'I' for Inactive)
REMARK    1  A    between atoms: O1_2  and  C2_3 
REMARK    2  A    between atoms: C2_3  and  C3_4 
REMARK    3  A    between atoms: C3_4  and  C4_5 
REMARK    4  A    between atoms: C6_8  and  O2_9 
REMARK    5  A    between atoms: C6_8  and  C7_11 
REMARK    6  A    between atoms: C8_12  and  O3_13 
REMARK    7  A    between atoms: C9_15  and  O4_16 
REMARK    8  A    between atoms: C10_18  and  C11_19 
REMARK    9  A    between atoms: C12_20  and  O5_21 
REMARK   10  A    between atoms: C18_36  and  C19_37 
REMARK   11  A    between atoms: C20_40  and  O12_41 
ROOT
HETATM    1  C4  UNL     1     -30.343   4.701 -33.458  1.00  0.00     0.130 C 
HETATM    2  C5  UNL     1     -28.936   4.837 -33.788  1.00  0.00     0.059 C 
HETATM    3  N1  UNL     1     -27.820   4.929 -34.076  1.00  0.00    -0.197 NA
ENDROOT
BRANCH   1   4
HETATM    4  C3  UNL     1     -30.690   4.570 -32.033  1.00  0.00     0.081 C 
BRANCH   4   5
HETATM    5  C2  UNL     1     -30.074   5.650 -31.112  1.00  0.00     0.080 C 
HETATM    6  C6  UNL     1     -31.033   6.656 -30.750  1.00  0.00     0.110 C 
BRANCH   5   7
HETATM    7  O1  UNL     1     -29.247   5.054 -30.262  1.00  0.00    -0.357 OA
HETATM    8  C1  UNL     1     -27.891   5.480 -30.388  1.00  0.00     0.209 C 
ENDBRANCH   5   7
BRANCH   6   9
HETATM    9  O2  UNL     1     -31.642   7.159 -31.861  1.00  0.00    -0.357 OA
ATOM     10  H2  UNL     1     -30.997   7.389 -32.519  1.00  0.00     0.217 HD
ENDBRANCH   6   9
BRANCH   6  11
HETATM   11  C7  UNL     1     -31.532   7.286 -29.556  1.00  0.00     0.070 A 
HETATM   12  C8  UNL     1     -32.883   7.108 -29.191  1.00  0.00     0.115 A 
HETATM   13  C9  UNL     1     -33.383   7.662 -28.059  1.00  0.00     0.112 A 
HETATM   14  C10 UNL     1     -32.583   8.435 -27.202  1.00  0.00     0.039 A 
HETATM   15  C18 UNL     1     -31.280   8.626 -27.523  1.00  0.00     0.089 A 
HETATM   16  C20 UNL     1     -30.736   8.058 -28.699  1.00  0.00     0.099 A 
BRANCH  12  17
HETATM   17  O3  UNL     1     -33.662   6.348 -30.036  1.00  0.00    -0.357 OA
ATOM     18  H3  UNL     1     -34.489   6.034 -29.692  1.00  0.00     0.217 HD
ENDBRANCH  12  17
BRANCH  13  19
HETATM   19  O4  UNL     1     -34.696   7.493 -27.695  1.00  0.00    -0.357 OA
ATOM     20  H4  UNL     1     -35.208   8.210 -27.340  1.00  0.00     0.217 HD
ENDBRANCH  13  19
BRANCH  14  21
HETATM   21  C11 UNL     1     -33.197   8.991 -26.011  1.00  0.00     0.089 A 
HETATM   22  C12 UNL     1     -32.901   8.415 -24.775  1.00  0.00     0.112 A 
HETATM   23  C13 UNL     1     -33.427   8.926 -23.620  1.00  0.00     0.110 A 
HETATM   24  N2  UNL     1     -33.169   8.403 -22.403  1.00  0.00    -0.303 N 
HETATM   25  C16 UNL     1     -34.268  10.039 -23.744  1.00  0.00     0.177 A 
HETATM   26  C14 UNL     1     -33.701   8.928 -21.292  1.00  0.00     0.327 A 
ATOM     27  H2  UNL     1     -32.556   7.592 -22.328  1.00  0.00     0.171 HD
HETATM   28  O6  UNL     1     -33.446   8.419 -20.144  1.00  0.00    -0.247 OA
HETATM   29  N3  UNL     1     -34.506   9.994 -21.413  1.00  0.00    -0.273 N 
HETATM   30  C15 UNL     1     -34.801  10.559 -22.591  1.00  0.00     0.285 A 
ATOM     31  H3  UNL     1     -34.912  10.395 -20.567  1.00  0.00     0.173 HD
HETATM   32  O7  UNL     1     -35.557  11.562 -22.707  1.00  0.00    -0.265 OA
HETATM   33  O8  UNL     1     -34.523  10.551 -24.916  1.00  0.00    -0.267 OA
HETATM   34  C17 UNL     1     -34.037  10.088 -26.040  1.00  0.00     0.302 A 
HETATM   35  O9  UNL     1     -34.316  10.623 -27.164  1.00  0.00    -0.259 OA
BRANCH  22  36
HETATM   36  O5  UNL     1     -32.069   7.321 -24.716  1.00  0.00    -0.357 OA
ATOM     37  H5  UNL     1     -32.171   6.690 -24.013  1.00  0.00     0.217 HD
ENDBRANCH  22  36
ENDBRANCH  14  21
BRANCH  15  38
HETATM   38  C19 UNL     1     -30.447   9.421 -26.643  1.00  0.00     0.213 C 
HETATM   39  O10 UNL     1     -29.602   8.876 -25.891  1.00  0.00    -0.644 OA
HETATM   40  O11 UNL     1     -30.506  10.815 -26.551  1.00  0.00    -0.644 OA
ENDBRANCH  15  38
BRANCH  16  41
HETATM   41  O12 UNL     1     -29.450   8.264 -28.981  1.00  0.00    -0.358 OA
ATOM     42  H12 UNL     1     -29.113   8.069 -29.847  1.00  0.00     0.217 HD
ENDBRANCH  16  41
ENDBRANCH   6  11
ENDBRANCH   4   5
ENDBRANCH   1   4
TORSDOF 11
ENDMDL
MODEL 5
REMARK VINA RESULT: -6.909485497      5.360      8.953
REMARK  11 active torsions:
REMARK  status: ('A' for Active; 'I' for Inactive)
REMARK    1  A    between atoms: O1_2  and  C2_3 
REMARK    2  A    between atoms: C2_3  and  C3_4 
REMARK    3  A    between atoms: C3_4  and  C4_5 
REMARK    4  A    between atoms: C6_8  and  O2_9 
REMARK    5  A    between atoms: C6_8  and  C7_11 
REMARK    6  A    between atoms: C8_12  and  O3_13 
REMARK    7  A    between atoms: C9_15  and  O4_16 
REMARK    8  A    between atoms: C10_18  and  C11_19 
REMARK    9  A    between atoms: C12_20  and  O5_21 
REMARK   10  A    between atoms: C18_36  and  C19_37 
REMARK   11  A    between atoms: C20_40  and  O12_41 
ROOT
HETATM    1  C4  UNL     1     -31.234   7.074 -28.752  1.00  0.00     0.130 C 
HETATM    2  C5  UNL     1     -31.405   8.252 -29.584  1.00  0.00     0.059 C 
HETATM    3  N1  UNL     1     -31.552   9.172 -30.268  1.00  0.00    -0.197 NA
ENDROOT
BRANCH   1   4
HETATM    4  C3  UNL     1     -30.070   7.049 -27.852  1.00  0.00     0.081 C 
BRANCH   4   5
HETATM    5  C2  UNL     1     -30.411   6.871 -26.353  1.00  0.00     0.080 C 
HETATM    6  C6  UNL     1     -31.059   8.030 -25.808  1.00  0.00     0.110 C 
BRANCH   5   7
HETATM    7  O1  UNL     1     -30.812   5.620 -26.161  1.00  0.00    -0.357 OA
HETATM    8  C1  UNL     1     -29.764   4.658 -26.274  1.00  0.00     0.209 C 
ENDBRANCH   5   7
BRANCH   6   9
HETATM    9  O2  UNL     1     -30.339   9.153 -26.081  1.00  0.00    -0.357 OA
ATOM     10  H2  UNL     1     -29.429   8.935 -26.244  1.00  0.00     0.217 HD
ENDBRANCH   6   9
BRANCH   6  11
HETATM   11  C7  UNL     1     -32.246   8.345 -25.056  1.00  0.00     0.070 A 
HETATM   12  C8  UNL     1     -32.291   8.052 -23.677  1.00  0.00     0.115 A 
HETATM   13  C9  UNL     1     -33.380   8.359 -22.930  1.00  0.00     0.112 A 
HETATM   14  C10 UNL     1     -34.508   8.980 -23.491  1.00  0.00     0.039 A 
HETATM   15  C18 UNL     1     -34.497   9.276 -24.815  1.00  0.00     0.089 A 
HETATM   16  C20 UNL     1     -33.372   8.965 -25.614  1.00  0.00     0.099 A 
BRANCH  12  17
HETATM   17  O3  UNL     1     -31.182   7.443 -23.133  1.00  0.00    -0.357 OA
ATOM     18  H3  UNL     1     -31.219   7.229 -22.209  1.00  0.00     0.217 HD
ENDBRANCH  12  17
BRANCH  13  19
HETATM   19  O4  UNL     1     -33.433   8.078 -21.587  1.00  0.00    -0.357 OA
ATOM     20  H4  UNL     1     -34.084   8.476 -21.022  1.00  0.00     0.217 HD
ENDBRANCH  13  19
BRANCH  14  21
HETATM   21  C11 UNL     1     -35.629   9.274 -22.620  1.00  0.00     0.089 A 
HETATM   22  C12 UNL     1     -36.578   8.277 -22.392  1.00  0.00     0.112 A 
HETATM   23  C13 UNL     1     -37.635   8.494 -21.549  1.00  0.00     0.110 A 
HETATM   24  N2  UNL     1     -38.576   7.561 -21.298  1.00  0.00    -0.303 N 
HETATM   25  C16 UNL     1     -37.711   9.753 -20.940  1.00  0.00     0.177 A 
HETATM   26  C14 UNL     1     -39.597   7.807 -20.468  1.00  0.00     0.327 A 
ATOM     27  H2  UNL     1     -38.508   6.649 -21.749  1.00  0.00     0.171 HD
HETATM   28  O6  UNL     1     -40.482   6.909 -20.240  1.00  0.00    -0.247 OA
HETATM   29  N3  UNL     1     -39.668   9.013 -19.886  1.00  0.00    -0.273 N 
HETATM   30  C15 UNL     1     -38.766   9.981 -20.094  1.00  0.00     0.285 A 
ATOM     31  H3  UNL     1     -40.447   9.202 -19.253  1.00  0.00     0.173 HD
HETATM   32  O7  UNL     1     -38.832  11.117 -19.547  1.00  0.00    -0.265 OA
HETATM   33  O8  UNL     1     -36.806  10.662 -21.178  1.00  0.00    -0.267 OA
HETATM   34  C17 UNL     1     -35.784  10.487 -21.976  1.00  0.00     0.302 A 
HETATM   35  O9  UNL     1     -34.923  11.407 -22.178  1.00  0.00    -0.259 OA
BRANCH  22  36
HETATM   36  O5  UNL     1     -36.451   7.059 -23.019  1.00  0.00    -0.357 OA
ATOM     37  H5  UNL     1     -35.589   6.744 -23.266  1.00  0.00     0.217 HD
ENDBRANCH  22  36
ENDBRANCH  14  21
BRANCH  15  38
HETATM   38  C19 UNL     1     -35.655   9.918 -25.402  1.00  0.00     0.213 C 
HETATM   39  O10 UNL     1     -35.668  11.157 -25.609  1.00  0.00    -0.644 OA
HETATM   40  O11 UNL     1     -36.822   9.246 -25.776  1.00  0.00    -0.644 OA
ENDBRANCH  15  38
BRANCH  16  41
HETATM   41  O12 UNL     1     -33.396   9.274 -26.911  1.00  0.00    -0.358 OA
ATOM     42  H12 UNL     1     -33.922  10.001 -27.220  1.00  0.00     0.217 HD
ENDBRANCH  16  41
ENDBRANCH   6  11
ENDBRANCH   4   5
ENDBRANCH   1   4
TORSDOF 11
ENDMDL
