MODEL 1
REMARK VINA RESULT: -7.753477890      0.000      0.000
REMARK  12 active torsions:
REMARK  status: ('A' for Active; 'I' for Inactive)
REMARK    1  A    between atoms: O1_2  and  C2_3 
REMARK    2  A    between atoms: C2_3  and  C3_5 
REMARK    3  A    between atoms: C4_6  and  C5_7 
REMARK    4  A    between atoms: C6_11  and  C7_12 
REMARK    5  A    between atoms: C7_12  and  S1_13 
REMARK    6  A    between atoms: S1_13  and  C8_14 
REMARK    7  A    between atoms: C10_21  and  O5_22 
REMARK    8  A    between atoms: C11_24  and  C12_25 
REMARK    9  A    between atoms: C14_29  and  O8_30 
REMARK   10  A    between atoms: C14_29  and  C15_32 
REMARK   11  A    between atoms: C15_32  and  O9_33 
REMARK   12  A    between atoms: O9_33  and  C16_34 
ROOT
HETATM    1  C3  UNL     1     -30.870   7.994 -27.654  1.00  0.00     0.093 A 
HETATM    2  C4  UNL     1     -31.834   8.799 -27.240  1.00  0.00     0.133 A 
HETATM    3  N1  UNL     1     -32.083   8.554 -25.834  1.00  0.00    -0.303 N 
HETATM    4  C6  UNL     1     -32.603   8.623 -24.485  1.00  0.00     0.066 A 
HETATM    5  C11 UNL     1     -31.675   7.571 -24.116  1.00  0.00     0.095 A 
HETATM    6  C13 UNL     1     -31.242   7.558 -25.381  1.00  0.00     0.078 A 
HETATM    7  C14 UNL     1     -30.415   7.083 -26.558  1.00  0.00     0.159 A 
ENDROOT
BRANCH   4   8
HETATM    8  C7  UNL     1     -33.530   9.366 -23.937  1.00  0.00     0.083 C 
BRANCH   8   9
HETATM    9  S1  UNL     1     -34.925   8.666 -23.111  1.00  0.00    -0.077 SA
BRANCH   9  10
HETATM   10  C8  UNL     1     -35.295   9.488 -21.570  1.00  0.00     0.127 A 
HETATM   11  N2  UNL     1     -36.370  10.275 -21.318  1.00  0.00    -0.324 N 
HETATM   12  C9  UNL     1     -36.272  10.695 -20.044  1.00  0.00     0.178 A 
ATOM     13  H2  UNL     1     -37.116  10.505 -21.974  1.00  0.00     0.169 HD
HETATM   14  S2  UNL     1     -37.316  11.673 -19.236  1.00  0.00    -0.040 SA
HETATM   15  N3  UNL     1     -35.162  10.199 -19.475  1.00  0.00    -0.311 N 
HETATM   16  C10 UNL     1     -34.548   9.450 -20.410  1.00  0.00     0.177 A 
ATOM     17  H3  UNL     1     -34.845  10.359 -18.518  1.00  0.00     0.170 HD
BRANCH  16  18
HETATM   18  O5  UNL     1     -33.368   8.739 -20.287  1.00  0.00    -0.344 OA
ATOM     19  H5  UNL     1     -33.333   7.824 -20.034  1.00  0.00     0.219 HD
ENDBRANCH  16  18
ENDBRANCH   9  10
ENDBRANCH   8   9
ENDBRANCH   4   8
BRANCH   5  20
HETATM   20  C12 UNL     1     -31.321   6.834 -22.929  1.00  0.00     0.213 C 
HETATM   21  O6  UNL     1     -31.765   7.150 -21.778  1.00  0.00    -0.644 OA
HETATM   22  O7  UNL     1     -30.489   5.756 -22.968  1.00  0.00    -0.644 OA
ENDBRANCH   5  20
BRANCH   2  23
HETATM   23  C5  UNL     1     -32.594   9.832 -27.928  1.00  0.00     0.228 C 
HETATM   24  O3  UNL     1     -33.614   9.655 -28.588  1.00  0.00    -0.643 OA
HETATM   25  O4  UNL     1     -32.178  11.188 -27.873  1.00  0.00    -0.643 OA
ENDBRANCH   2  23
BRANCH   1  26
HETATM   26  C2  UNL     1     -30.323   7.979 -29.014  1.00  0.00     0.295 C 
HETATM   27  O2  UNL     1     -30.618   8.776 -29.899  1.00  0.00    -0.259 OA
BRANCH  26  28
HETATM   28  O1  UNL     1     -29.378   6.993 -29.376  1.00  0.00    -0.323 OA
HETATM   29  C1  UNL     1     -29.735   5.965 -30.272  1.00  0.00     0.213 C 
ENDBRANCH  26  28
ENDBRANCH   1  26
BRANCH   7  30
HETATM   30  O8  UNL     1     -29.081   7.301 -26.212  1.00  0.00    -0.376 OA
ATOM     31  H8  UNL     1     -28.985   8.008 -25.585  1.00  0.00     0.211 HD
ENDBRANCH   7  30
BRANCH   7  32
HETATM   32  C15 UNL     1     -30.808   5.661 -26.729  1.00  0.00     0.231 C 
BRANCH  32  33
HETATM   33  O9  UNL     1     -31.146   4.861 -25.677  1.00  0.00    -0.292 OA
BRANCH  33  34
HETATM   34  C16 UNL     1     -31.104   3.479 -25.580  1.00  0.00     0.332 C 
HETATM   35  O10 UNL     1     -30.285   2.876 -26.310  1.00  0.00    -0.624 OA
HETATM   36  O11 UNL     1     -31.919   2.752 -24.722  1.00  0.00    -0.624 OA
ENDBRANCH  33  34
ENDBRANCH  32  33
ENDBRANCH   7  32
TORSDOF 12
ENDMDL
MODEL 2
REMARK VINA RESULT: -7.630396623      1.901      2.632
REMARK  12 active torsions:
REMARK  status: ('A' for Active; 'I' for Inactive)
REMARK    1  A    between atoms: O1_2  and  C2_3 
REMARK    2  A    between atoms: C2_3  and  C3_5 
REMARK    3  A    between atoms: C4_6  and  C5_7 
REMARK    4  A    between atoms: C6_11  and  C7_12 
REMARK    5  A    between atoms: C7_12  and  S1_13 
REMARK    6  A    between atoms: S1_13  and  C8_14 
REMARK    7  A    between atoms: C10_21  and  O5_22 
REMARK    8  A    between atoms: C11_24  and  C12_25 
REMARK    9  A    between atoms: C14_29  and  O8_30 
REMARK   10  A    between atoms: C14_29  and  C15_32 
REMARK   11  A    between atoms: C15_32  and  O9_33 
REMARK   12  A    between atoms: O9_33  and  C16_34 
ROOT
HETATM    1  C3  UNL     1     -30.072   6.010 -28.174  1.00  0.00     0.093 A 
HETATM    2  C4  UNL     1     -30.917   7.019 -28.308  1.00  0.00     0.133 A 
HETATM    3  N1  UNL     1     -31.368   7.435 -26.995  1.00  0.00    -0.303 N 
HETATM    4  C6  UNL     1     -32.020   8.137 -25.911  1.00  0.00     0.066 A 
HETATM    5  C11 UNL     1     -31.345   7.250 -24.982  1.00  0.00     0.095 A 
HETATM    6  C13 UNL     1     -30.778   6.644 -26.030  1.00  0.00     0.078 A 
HETATM    7  C14 UNL     1     -29.919   5.617 -26.738  1.00  0.00     0.159 A 
ENDROOT
BRANCH   4   8
HETATM    8  C7  UNL     1     -32.856   9.145 -25.892  1.00  0.00     0.083 C 
BRANCH   8   9
HETATM    9  S1  UNL     1     -34.594   8.914 -25.686  1.00  0.00    -0.077 SA
BRANCH   9  10
HETATM   10  C8  UNL     1     -35.079   8.850 -23.969  1.00  0.00     0.127 A 
HETATM   11  N2  UNL     1     -34.445   9.453 -22.933  1.00  0.00    -0.324 N 
HETATM   12  C9  UNL     1     -35.129   9.155 -21.813  1.00  0.00     0.178 A 
ATOM     13  H2  UNL     1     -33.605  10.027 -22.992  1.00  0.00     0.169 HD
HETATM   14  S2  UNL     1     -34.785   9.636 -20.280  1.00  0.00    -0.040 SA
HETATM   15  N3  UNL     1     -36.183   8.377 -22.106  1.00  0.00    -0.311 N 
HETATM   16  C10 UNL     1     -36.163   8.180 -23.437  1.00  0.00     0.177 A 
ATOM     17  H3  UNL     1     -36.867   8.006 -21.446  1.00  0.00     0.170 HD
BRANCH  16  18
HETATM   18  O5  UNL     1     -37.051   7.443 -24.200  1.00  0.00    -0.344 OA
ATOM     19  H5  UNL     1     -37.094   6.494 -24.180  1.00  0.00     0.219 HD
ENDBRANCH  16  18
ENDBRANCH   9  10
ENDBRANCH   8   9
ENDBRANCH   4   8
BRANCH   5  20
HETATM   20  C12 UNL     1     -31.270   7.063 -23.556  1.00  0.00     0.213 C 
HETATM   21  O6  UNL     1     -30.427   6.272 -23.020  1.00  0.00    -0.644 OA
HETATM   22  O7  UNL     1     -32.096   7.720 -22.694  1.00  0.00    -0.644 OA
ENDBRANCH   5  20
BRANCH   2  23
HETATM   23  C5  UNL     1     -31.394   7.733 -29.483  1.00  0.00     0.228 C 
HETATM   24  O3  UNL     1     -30.901   8.756 -29.952  1.00  0.00    -0.643 OA
HETATM   25  O4  UNL     1     -32.523   7.262 -30.202  1.00  0.00    -0.643 OA
ENDBRANCH   2  23
BRANCH   1  26
HETATM   26  C2  UNL     1     -29.382   5.348 -29.285  1.00  0.00     0.295 C 
HETATM   27  O2  UNL     1     -28.182   5.441 -29.523  1.00  0.00    -0.259 OA
BRANCH  26  28
HETATM   28  O1  UNL     1     -30.115   4.528 -30.173  1.00  0.00    -0.323 OA
HETATM   29  C1  UNL     1     -30.110   4.801 -31.556  1.00  0.00     0.213 C 
ENDBRANCH  26  28
ENDBRANCH   1  26
BRANCH   7  30
HETATM   30  O8  UNL     1     -28.617   5.810 -26.277  1.00  0.00    -0.376 OA
ATOM     31  H8  UNL     1     -28.330   5.105 -25.708  1.00  0.00     0.211 HD
ENDBRANCH   7  30
BRANCH   7  32
HETATM   32  C15 UNL     1     -30.538   4.315 -26.383  1.00  0.00     0.231 C 
BRANCH  32  33
HETATM   33  O9  UNL     1     -30.451   3.778 -25.131  1.00  0.00    -0.292 OA
BRANCH  33  34
HETATM   34  C16 UNL     1     -31.445   3.204 -24.354  1.00  0.00     0.332 C 
HETATM   35  O10 UNL     1     -31.910   2.105 -24.735  1.00  0.00    -0.624 OA
HETATM   36  O11 UNL     1     -31.936   3.789 -23.194  1.00  0.00    -0.624 OA
ENDBRANCH  33  34
ENDBRANCH  32  33
ENDBRANCH   7  32
TORSDOF 12
ENDMDL
MODEL 3
REMARK VINA RESULT: -7.582500046      2.441      3.665
REMARK  12 active torsions:
REMARK  status: ('A' for Active; 'I' for Inactive)
REMARK    1  A    between atoms: O1_2  and  C2_3 
REMARK    2  A    between atoms: C2_3  and  C3_5 
REMARK    3  A    between atoms: C4_6  and  C5_7 
REMARK    4  A    between atoms: C6_11  and  C7_12 
REMARK    5  A    between atoms: C7_12  and  S1_13 
REMARK    6  A    between atoms: S1_13  and  C8_14 
REMARK    7  A    between atoms: C10_21  and  O5_22 
REMARK    8  A    between atoms: C11_24  and  C12_25 
REMARK    9  A    between atoms: C14_29  and  O8_30 
REMARK   10  A    between atoms: C14_29  and  C15_32 
REMARK   11  A    between atoms: C15_32  and  O9_33 
REMARK   12  A    between atoms: O9_33  and  C16_34 
ROOT
HETATM    1  C3  UNL     1     -30.851   5.598 -30.005  1.00  0.00     0.093 A 
HETATM    2  C4  UNL     1     -32.021   6.055 -29.589  1.00  0.00     0.133 A 
HETATM    3  N1  UNL     1     -31.806   6.959 -28.476  1.00  0.00    -0.303 N 
HETATM    4  C6  UNL     1     -32.006   7.900 -27.396  1.00  0.00     0.066 A 
HETATM    5  C11 UNL     1     -30.570   7.920 -27.198  1.00  0.00     0.095 A 
HETATM    6  C13 UNL     1     -30.456   7.047 -28.205  1.00  0.00     0.078 A 
HETATM    7  C14 UNL     1     -29.732   6.121 -29.160  1.00  0.00     0.159 A 
ENDROOT
BRANCH   4   8
HETATM    8  C7  UNL     1     -33.086   8.442 -26.890  1.00  0.00     0.083 C 
BRANCH   8   9
HETATM    9  S1  UNL     1     -33.013   9.807 -25.773  1.00  0.00    -0.077 SA
BRANCH   9  10
HETATM   10  C8  UNL     1     -33.324   9.328 -24.082  1.00  0.00     0.127 A 
HETATM   11  N2  UNL     1     -34.248   9.871 -23.251  1.00  0.00    -0.324 N 
HETATM   12  C9  UNL     1     -34.158   9.228 -22.073  1.00  0.00     0.178 A 
ATOM     13  H2  UNL     1     -34.892  10.628 -23.477  1.00  0.00     0.169 HD
HETATM   14  S2  UNL     1     -35.053   9.498 -20.721  1.00  0.00    -0.040 SA
HETATM   15  N3  UNL     1     -33.201   8.289 -22.128  1.00  0.00    -0.311 N 
HETATM   16  C10 UNL     1     -32.677   8.341 -23.367  1.00  0.00     0.177 A 
ATOM     17  H3  UNL     1     -32.924   7.657 -21.376  1.00  0.00     0.170 HD
BRANCH  16  18
HETATM   18  O5  UNL     1     -31.661   7.562 -23.892  1.00  0.00    -0.344 OA
ATOM     19  H5  UNL     1     -31.745   6.629 -24.048  1.00  0.00     0.219 HD
ENDBRANCH  16  18
ENDBRANCH   9  10
ENDBRANCH   8   9
ENDBRANCH   4   8
BRANCH   5  20
HETATM   20  C12 UNL     1     -29.625   8.575 -26.330  1.00  0.00     0.213 C 
HETATM   21  O6  UNL     1     -28.996   7.947 -25.417  1.00  0.00    -0.644 OA
HETATM   22  O7  UNL     1     -29.348   9.905 -26.433  1.00  0.00    -0.644 OA
ENDBRANCH   5  20
BRANCH   2  23
HETATM   23  C5  UNL     1     -33.375   5.826 -30.068  1.00  0.00     0.228 C 
HETATM   24  O3  UNL     1     -33.812   6.145 -31.171  1.00  0.00    -0.643 OA
HETATM   25  O4  UNL     1     -34.332   5.181 -29.241  1.00  0.00    -0.643 OA
ENDBRANCH   2  23
BRANCH   1  26
HETATM   26  C2  UNL     1     -30.669   4.685 -31.138  1.00  0.00     0.295 C 
HETATM   27  O2  UNL     1     -31.199   3.584 -31.246  1.00  0.00    -0.259 OA
BRANCH  26  28
HETATM   28  O1  UNL     1     -29.831   5.063 -32.210  1.00  0.00    -0.323 OA
HETATM   29  C1  UNL     1     -28.626   4.369 -32.447  1.00  0.00     0.213 C 
ENDBRANCH  26  28
ENDBRANCH   1  26
BRANCH   7  30
HETATM   30  O8  UNL     1     -28.853   6.921 -29.891  1.00  0.00    -0.376 OA
ATOM     31  H8  UNL     1     -28.892   7.832 -29.624  1.00  0.00     0.211 HD
ENDBRANCH   7  30
BRANCH   7  32
HETATM   32  C15 UNL     1     -29.097   5.110 -28.278  1.00  0.00     0.231 C 
BRANCH  32  33
HETATM   33  O9  UNL     1     -29.263   5.110 -26.923  1.00  0.00    -0.292 OA
BRANCH  33  34
HETATM   34  C16 UNL     1     -30.159   4.387 -26.152  1.00  0.00     0.332 C 
HETATM   35  O10 UNL     1     -30.182   3.145 -26.308  1.00  0.00    -0.624 OA
HETATM   36  O11 UNL     1     -31.016   4.976 -25.232  1.00  0.00    -0.624 OA
ENDBRANCH  33  34
ENDBRANCH  32  33
ENDBRANCH   7  32
TORSDOF 12
ENDMDL
MODEL 4
REMARK VINA RESULT: -7.577884685      3.406      7.796
REMARK  12 active torsions:
REMARK  status: ('A' for Active; 'I' for Inactive)
REMARK    1  A    between atoms: O1_2  and  C2_3 
REMARK    2  A    between atoms: C2_3  and  C3_5 
REMARK    3  A    between atoms: C4_6  and  C5_7 
REMARK    4  A    between atoms: C6_11  and  C7_12 
REMARK    5  A    between atoms: C7_12  and  S1_13 
REMARK    6  A    between atoms: S1_13  and  C8_14 
REMARK    7  A    between atoms: C10_21  and  O5_22 
REMARK    8  A    between atoms: C11_24  and  C12_25 
REMARK    9  A    between atoms: C14_29  and  O8_30 
REMARK   10  A    between atoms: C14_29  and  C15_32 
REMARK   11  A    between atoms: C15_32  and  O9_33 
REMARK   12  A    between atoms: O9_33  and  C16_34 
ROOT
HETATM    1  C3  UNL     1     -34.122   9.867 -24.596  1.00  0.00     0.093 A 
HETATM    2  C4  UNL     1     -33.098  10.006 -25.422  1.00  0.00     0.133 A 
HETATM    3  N1  UNL     1     -32.194   8.888 -25.245  1.00  0.00    -0.303 N 
HETATM    4  C6  UNL     1     -31.088   7.964 -25.379  1.00  0.00     0.066 A 
HETATM    5  C11 UNL     1     -31.694   7.149 -24.344  1.00  0.00     0.095 A 
HETATM    6  C13 UNL     1     -32.685   8.044 -24.270  1.00  0.00     0.078 A 
HETATM    7  C14 UNL     1     -33.966   8.652 -23.737  1.00  0.00     0.159 A 
ENDROOT
BRANCH   4   8
HETATM    8  C7  UNL     1     -30.030   7.965 -26.150  1.00  0.00     0.083 C 
BRANCH   8   9
HETATM    9  S1  UNL     1     -30.141   8.235 -27.892  1.00  0.00    -0.077 SA
BRANCH   9  10
HETATM   10  C8  UNL     1     -29.715   6.782 -28.840  1.00  0.00     0.127 A 
HETATM   11  N2  UNL     1     -28.661   6.655 -29.682  1.00  0.00    -0.324 N 
HETATM   12  C9  UNL     1     -28.701   5.411 -30.193  1.00  0.00     0.178 A 
ATOM     13  H2  UNL     1     -27.965   7.370 -29.891  1.00  0.00     0.169 HD
HETATM   14  S2  UNL     1     -27.652   4.741 -31.266  1.00  0.00    -0.040 SA
HETATM   15  N3  UNL     1     -29.754   4.740 -29.700  1.00  0.00    -0.311 N 
HETATM   16  C10 UNL     1     -30.390   5.578 -28.861  1.00  0.00     0.177 A 
ATOM     17  H3  UNL     1     -30.020   3.780 -29.918  1.00  0.00     0.170 HD
BRANCH  16  18
HETATM   18  O5  UNL     1     -31.531   5.332 -28.118  1.00  0.00    -0.344 OA
ATOM     19  H5  UNL     1     -32.201   4.711 -28.379  1.00  0.00     0.219 HD
ENDBRANCH  16  18
ENDBRANCH   9  10
ENDBRANCH   8   9
ENDBRANCH   4   8
BRANCH   5  20
HETATM   20  C12 UNL     1     -31.411   5.911 -23.664  1.00  0.00     0.213 C 
HETATM   21  O6  UNL     1     -30.530   5.828 -22.748  1.00  0.00    -0.644 OA
HETATM   22  O7  UNL     1     -32.069   4.755 -23.960  1.00  0.00    -0.644 OA
ENDBRANCH   5  20
BRANCH   2  23
HETATM   23  C5  UNL     1     -32.793  11.017 -26.423  1.00  0.00     0.228 C 
HETATM   24  O3  UNL     1     -32.327  12.131 -26.200  1.00  0.00    -0.643 OA
HETATM   25  O4  UNL     1     -33.027  10.761 -27.800  1.00  0.00    -0.643 OA
ENDBRANCH   2  23
BRANCH   1  26
HETATM   26  C2  UNL     1     -35.258  10.790 -24.515  1.00  0.00     0.295 C 
HETATM   27  O2  UNL     1     -36.417  10.504 -24.800  1.00  0.00    -0.259 OA
BRANCH  26  28
HETATM   28  O1  UNL     1     -35.051  12.117 -24.077  1.00  0.00    -0.323 OA
HETATM   29  C1  UNL     1     -35.317  12.471 -22.738  1.00  0.00     0.213 C 
ENDBRANCH  26  28
ENDBRANCH   1  26
BRANCH   7  30
HETATM   30  O8  UNL     1     -34.971   7.712 -23.969  1.00  0.00    -0.376 OA
ATOM     31  H8  UNL     1     -34.618   6.862 -24.203  1.00  0.00     0.211 HD
ENDBRANCH   7  30
BRANCH   7  32
HETATM   32  C15 UNL     1     -33.670   8.934 -22.310  1.00  0.00     0.231 C 
BRANCH  32  33
HETATM   33  O9  UNL     1     -34.649   9.180 -21.391  1.00  0.00    -0.292 OA
BRANCH  33  34
HETATM   34  C16 UNL     1     -34.533   9.659 -20.096  1.00  0.00     0.332 C 
HETATM   35  O10 UNL     1     -33.640   9.159 -19.375  1.00  0.00    -0.624 OA
HETATM   36  O11 UNL     1     -35.354  10.652 -19.578  1.00  0.00    -0.624 OA
ENDBRANCH  33  34
ENDBRANCH  32  33
ENDBRANCH   7  32
TORSDOF 12
ENDMDL
MODEL 5
REMARK VINA RESULT: -7.535527808      3.633      7.552
REMARK  12 active torsions:
REMARK  status: ('A' for Active; 'I' for Inactive)
REMARK    1  A    between atoms: O1_2  and  C2_3 
REMARK    2  A    between atoms: C2_3  and  C3_5 
REMARK    3  A    between atoms: C4_6  and  C5_7 
REMARK    4  A    between atoms: C6_11  and  C7_12 
REMARK    5  A    between atoms: C7_12  and  S1_13 
REMARK    6  A    between atoms: S1_13  and  C8_14 
REMARK    7  A    between atoms: C10_21  and  O5_22 
REMARK    8  A    between atoms: C11_24  and  C12_25 
REMARK    9  A    between atoms: C14_29  and  O8_30 
REMARK   10  A    between atoms: C14_29  and  C15_32 
REMARK   11  A    between atoms: C15_32  and  O9_33 
REMARK   12  A    between atoms: O9_33  and  C16_34 
ROOT
HETATM    1  C3  UNL     1     -33.420   9.640 -24.898  1.00  0.00     0.093 A 
HETATM    2  C4  UNL     1     -32.347   9.578 -25.670  1.00  0.00     0.133 A 
HETATM    3  N1  UNL     1     -31.644   8.340 -25.403  1.00  0.00    -0.303 N 
HETATM    4  C6  UNL     1     -30.695   7.247 -25.442  1.00  0.00     0.066 A 
HETATM    5  C11 UNL     1     -31.476   6.585 -24.414  1.00  0.00     0.095 A 
HETATM    6  C13 UNL     1     -32.312   7.628 -24.428  1.00  0.00     0.078 A 
HETATM    7  C14 UNL     1     -33.504   8.453 -23.989  1.00  0.00     0.159 A 
ENDROOT
BRANCH   4   8
HETATM    8  C7  UNL     1     -29.613   7.047 -26.151  1.00  0.00     0.083 C 
BRANCH   8   9
HETATM    9  S1  UNL     1     -29.203   5.458 -26.804  1.00  0.00    -0.077 SA
BRANCH   9  10
HETATM   10  C8  UNL     1     -29.628   5.295 -28.530  1.00  0.00     0.127 A 
HETATM   11  N2  UNL     1     -28.766   5.054 -29.549  1.00  0.00    -0.324 N 
HETATM   12  C9  UNL     1     -29.488   5.005 -30.684  1.00  0.00     0.178 A 
ATOM     13  H2  UNL     1     -27.757   4.933 -29.470  1.00  0.00     0.169 HD
HETATM   14  S2  UNL     1     -28.930   4.740 -32.207  1.00  0.00    -0.040 SA
HETATM   15  N3  UNL     1     -30.787   5.208 -30.417  1.00  0.00    -0.311 N 
HETATM   16  C10 UNL     1     -30.887   5.390 -29.087  1.00  0.00     0.177 A 
ATOM     17  H3  UNL     1     -31.552   5.223 -31.092  1.00  0.00     0.170 HD
BRANCH  16  18
HETATM   18  O5  UNL     1     -32.030   5.633 -28.347  1.00  0.00    -0.344 OA
ATOM     19  H5  UNL     1     -32.744   6.179 -28.653  1.00  0.00     0.219 HD
ENDBRANCH  16  18
ENDBRANCH   9  10
ENDBRANCH   8   9
ENDBRANCH   4   8
BRANCH   5  20
HETATM   20  C12 UNL     1     -31.429   5.348 -23.676  1.00  0.00     0.213 C 
HETATM   21  O6  UNL     1     -30.644   5.179 -22.688  1.00  0.00    -0.644 OA
HETATM   22  O7  UNL     1     -32.223   4.286 -23.992  1.00  0.00    -0.644 OA
ENDBRANCH   5  20
BRANCH   2  23
HETATM   23  C5  UNL     1     -31.834  10.483 -26.686  1.00  0.00     0.228 C 
HETATM   24  O3  UNL     1     -32.281  10.617 -27.822  1.00  0.00    -0.643 OA
HETATM   25  O4  UNL     1     -30.718  11.317 -26.411  1.00  0.00    -0.643 OA
ENDBRANCH   2  23
BRANCH   1  26
HETATM   26  C2  UNL     1     -34.396  10.733 -24.914  1.00  0.00     0.295 C 
HETATM   27  O2  UNL     1     -34.175  11.879 -24.534  1.00  0.00    -0.259 OA
BRANCH  26  28
HETATM   28  O1  UNL     1     -35.702  10.496 -25.399  1.00  0.00    -0.323 OA
HETATM   29  C1  UNL     1     -35.891   9.980 -26.698  1.00  0.00     0.213 C 
ENDBRANCH  26  28
ENDBRANCH   1  26
BRANCH   7  30
HETATM   30  O8  UNL     1     -34.634   7.676 -24.244  1.00  0.00    -0.376 OA
ATOM     31  H8  UNL     1     -34.955   7.244 -23.461  1.00  0.00     0.211 HD
ENDBRANCH   7  30
BRANCH   7  32
HETATM   32  C15 UNL     1     -33.238   8.748 -22.559  1.00  0.00     0.231 C 
BRANCH  32  33
HETATM   33  O9  UNL     1     -34.238   8.986 -21.660  1.00  0.00    -0.292 OA
BRANCH  33  34
HETATM   34  C16 UNL     1     -34.155   9.497 -20.375  1.00  0.00     0.332 C 
HETATM   35  O10 UNL     1     -33.402   8.906 -19.568  1.00  0.00    -0.624 OA
HETATM   36  O11 UNL     1     -34.861  10.617 -19.956  1.00  0.00    -0.624 OA
ENDBRANCH  33  34
ENDBRANCH  32  33
ENDBRANCH   7  32
TORSDOF 12
ENDMDL
