MODEL 1
REMARK VINA RESULT: -5.656512623      0.000      0.000
REMARK  7 active torsions:
REMARK  status: ('A' for Active; 'I' for Inactive)
REMARK    1  A    between atoms: O1_2  and  C2_3 
REMARK    2  A    between atoms: C2_3  and  O2_4 
REMARK    3  A    between atoms: C2_3  and  C3_6 
REMARK    4  A    between atoms: C6_9  and  N1_10 
REMARK    5  A    between atoms: N1_10  and  C7_12 
REMARK    6  A    between atoms: C9_19  and  N4_20 
REMARK    7  A    between atoms: C10_25  and  N6_26 
ROOT
HETATM    1  C3  UNL     1     -12.292  -1.813   1.896  1.00  0.00     0.142 A 
HETATM    2  C4  UNL     1     -13.628  -1.962   2.325  1.00  0.00     0.016 A 
HETATM    3  C5  UNL     1     -14.650  -1.008   1.848  1.00  0.00     0.055 C 
HETATM    4  C6  UNL     1     -14.028  -3.020   3.083  1.00  0.00     0.131 A 
HETATM    5  N2  UNL     1     -13.168  -3.979   3.456  1.00  0.00    -0.174 N 
ATOM      6  H2  UNL     1     -13.473  -4.770   4.022  1.00  0.00     0.186 HD
HETATM    7  C8  UNL     1     -11.895  -3.862   3.058  1.00  0.00     0.720 A 
HETATM    8  N3  UNL     1     -11.013  -4.819   3.431  1.00  0.00    -0.021 N 
ATOM      9  H3  UNL     1     -11.353  -5.596   3.997  1.00  0.00     0.203 HD
HETATM   10  C9  UNL     1      -9.719  -4.796   3.096  1.00  0.00     0.705 A 
HETATM   11  N5  UNL     1      -9.302  -3.779   2.363  1.00  0.00    -0.021 N 
ATOM     12  H5  UNL     1      -8.322  -3.724   2.087  1.00  0.00     0.203 HD
HETATM   13  C10 UNL     1     -10.172  -2.797   1.971  1.00  0.00     0.712 A 
HETATM   14  N7  UNL     1     -11.455  -2.824   2.305  1.00  0.00     0.029 N 
ENDROOT
BRANCH   1  15
HETATM   15  C2  UNL     1     -11.919  -0.625   1.207  1.00  0.00     0.207 C 
BRANCH  15  16
HETATM   16  O1  UNL     1     -11.871  -0.146  -0.061  1.00  0.00    -0.334 OA
HETATM   17  C1  UNL     1     -12.977   0.552  -0.688  1.00  0.00     0.212 C 
ENDBRANCH  15  16
BRANCH  15  18
HETATM   18  O2  UNL     1     -11.488   0.333   1.999  1.00  0.00    -0.339 OA
ATOM     19  H2  UNL     1     -10.562   0.450   1.820  1.00  0.00     0.220 HD
ENDBRANCH  15  18
ENDBRANCH   1  15
BRANCH   4  20
HETATM   20  N1  UNL     1     -15.372  -3.129   3.575  1.00  0.00    -0.320 N 
ATOM     21  H1  UNL     1     -15.679  -2.555   4.359  1.00  0.00     0.169 HD
BRANCH  20  22
HETATM   22  C7  UNL     1     -16.281  -4.048   2.959  1.00  0.00     0.354 C 
HETATM   23  O3  UNL     1     -15.962  -4.520   1.842  1.00  0.00    -0.283 OA
ENDBRANCH  20  22
ENDBRANCH   4  20
BRANCH  13  24
HETATM   24  N6  UNL     1      -9.645  -1.880   1.281  1.00  0.00    -0.233 N 
ATOM     25  H62 UNL     1      -8.984  -2.050   0.524  1.00  0.00     0.174 HD
ATOM     26  H61 UNL     1      -9.941  -0.939   1.540  1.00  0.00     0.174 HD
ENDBRANCH  13  24
BRANCH  10  27
HETATM   27  N4  UNL     1      -8.932  -5.734   3.481  1.00  0.00    -0.234 N 
ATOM     28  H42 UNL     1      -9.166  -6.720   3.375  1.00  0.00     0.174 HD
ATOM     29  H41 UNL     1      -8.034  -5.510   3.911  1.00  0.00     0.174 HD
ENDBRANCH  10  27
TORSDOF 7
ENDMDL
MODEL 2
REMARK VINA RESULT: -5.483624823      2.398      4.193
REMARK  7 active torsions:
REMARK  status: ('A' for Active; 'I' for Inactive)
REMARK    1  A    between atoms: O1_2  and  C2_3 
REMARK    2  A    between atoms: C2_3  and  O2_4 
REMARK    3  A    between atoms: C2_3  and  C3_6 
REMARK    4  A    between atoms: C6_9  and  N1_10 
REMARK    5  A    between atoms: N1_10  and  C7_12 
REMARK    6  A    between atoms: C9_19  and  N4_20 
REMARK    7  A    between atoms: C10_25  and  N6_26 
ROOT
HETATM    1  C3  UNL     1     -11.882  -2.885   3.118  1.00  0.00     0.142 A 
HETATM    2  C4  UNL     1     -13.001  -3.435   3.776  1.00  0.00     0.016 A 
HETATM    3  C5  UNL     1     -12.790  -4.395   4.878  1.00  0.00     0.055 C 
HETATM    4  C6  UNL     1     -14.271  -3.032   3.499  1.00  0.00     0.131 A 
HETATM    5  N2  UNL     1     -14.521  -2.082   2.586  1.00  0.00    -0.174 N 
ATOM      6  H2  UNL     1     -15.474  -1.783   2.383  1.00  0.00     0.186 HD
HETATM    7  C8  UNL     1     -13.474  -1.541   1.949  1.00  0.00     0.720 A 
HETATM    8  N3  UNL     1     -13.710  -0.586   1.020  1.00  0.00    -0.021 N 
ATOM      9  H3  UNL     1     -14.676  -0.310   0.843  1.00  0.00     0.203 HD
HETATM   10  C9  UNL     1     -12.741   0.014   0.321  1.00  0.00     0.705 A 
HETATM   11  N5  UNL     1     -11.497  -0.361   0.567  1.00  0.00    -0.021 N 
ATOM     12  H5  UNL     1     -10.729   0.072   0.054  1.00  0.00     0.203 HD
HETATM   13  C10 UNL     1     -11.230  -1.324   1.502  1.00  0.00     0.712 A 
HETATM   14  N7  UNL     1     -12.194  -1.916   2.193  1.00  0.00     0.029 N 
ENDROOT
BRANCH   1  15
HETATM   15  C2  UNL     1     -10.594  -3.435   3.371  1.00  0.00     0.207 C 
BRANCH  15  16
HETATM   16  O1  UNL     1      -9.523  -3.214   4.173  1.00  0.00    -0.334 OA
HETATM   17  C1  UNL     1      -9.612  -2.516   5.441  1.00  0.00     0.212 C 
ENDBRANCH  15  16
BRANCH  15  18
HETATM   18  O2  UNL     1     -10.312  -4.486   2.630  1.00  0.00    -0.339 OA
ATOM     19  H2  UNL     1     -10.556  -5.255   3.132  1.00  0.00     0.220 HD
ENDBRANCH  15  18
ENDBRANCH   1  15
BRANCH   4  20
HETATM   20  N1  UNL     1     -15.410  -3.645   4.122  1.00  0.00    -0.320 N 
ATOM     21  H1  UNL     1     -15.419  -3.805   5.129  1.00  0.00     0.169 HD
BRANCH  20  22
HETATM   22  C7  UNL     1     -16.534  -4.032   3.325  1.00  0.00     0.354 C 
HETATM   23  O3  UNL     1     -16.308  -4.434   2.159  1.00  0.00    -0.283 OA
ENDBRANCH  20  22
ENDBRANCH   4  20
BRANCH  13  24
HETATM   24  N6  UNL     1     -10.004  -1.595   1.635  1.00  0.00    -0.233 N 
ATOM     25  H62 UNL     1      -9.431  -2.006   0.898  1.00  0.00     0.174 HD
ATOM     26  H61 UNL     1      -9.620  -1.361   2.550  1.00  0.00     0.174 HD
ENDBRANCH  13  24
BRANCH  10  27
HETATM   27  N4  UNL     1     -13.028   0.913  -0.548  1.00  0.00    -0.234 N 
ATOM     28  H42 UNL     1     -13.974   1.274  -0.668  1.00  0.00     0.174 HD
ATOM     29  H41 UNL     1     -12.302   1.298  -1.152  1.00  0.00     0.174 HD
ENDBRANCH  10  27
TORSDOF 7
ENDMDL
MODEL 3
REMARK VINA RESULT: -5.475609316      3.212      5.233
REMARK  7 active torsions:
REMARK  status: ('A' for Active; 'I' for Inactive)
REMARK    1  A    between atoms: O1_2  and  C2_3 
REMARK    2  A    between atoms: C2_3  and  O2_4 
REMARK    3  A    between atoms: C2_3  and  C3_6 
REMARK    4  A    between atoms: C6_9  and  N1_10 
REMARK    5  A    between atoms: N1_10  and  C7_12 
REMARK    6  A    between atoms: C9_19  and  N4_20 
REMARK    7  A    between atoms: C10_25  and  N6_26 
ROOT
HETATM    1  C3  UNL     1      -9.491  -3.491   4.954  1.00  0.00     0.142 A 
HETATM    2  C4  UNL     1     -10.331  -2.987   3.939  1.00  0.00     0.016 A 
HETATM    3  C5  UNL     1     -11.101  -1.752   4.188  1.00  0.00     0.055 C 
HETATM    4  C6  UNL     1     -10.377  -3.544   2.698  1.00  0.00     0.131 A 
HETATM    5  N2  UNL     1      -9.617  -4.601   2.376  1.00  0.00    -0.174 N 
ATOM      6  H2  UNL     1      -9.654  -5.014   1.444  1.00  0.00     0.186 HD
HETATM    7  C8  UNL     1      -8.807  -5.096   3.322  1.00  0.00     0.720 A 
HETATM    8  N3  UNL     1      -8.039  -6.167   3.015  1.00  0.00    -0.021 N 
ATOM      9  H3  UNL     1      -8.101  -6.554   2.073  1.00  0.00     0.203 HD
HETATM   10  C9  UNL     1      -7.203  -6.744   3.883  1.00  0.00     0.705 A 
HETATM   11  N5  UNL     1      -7.140  -6.226   5.098  1.00  0.00    -0.021 N 
ATOM     12  H5  UNL     1      -6.515  -6.638   5.790  1.00  0.00     0.203 HD
HETATM   13  C10 UNL     1      -7.906  -5.143   5.435  1.00  0.00     0.712 A 
HETATM   14  N7  UNL     1      -8.734  -4.573   4.570  1.00  0.00     0.029 N 
ENDROOT
BRANCH   1  15
HETATM   15  C2  UNL     1      -9.579  -2.935   6.261  1.00  0.00     0.207 C 
BRANCH  15  16
HETATM   16  O1  UNL     1      -9.003  -1.956   7.001  1.00  0.00    -0.334 OA
HETATM   17  C1  UNL     1      -9.750  -0.859   7.585  1.00  0.00     0.212 C 
ENDBRANCH  15  16
BRANCH  15  18
HETATM   18  O2  UNL     1     -10.489  -3.509   7.019  1.00  0.00    -0.339 OA
ATOM     19  H2  UNL     1     -10.275  -4.434   7.061  1.00  0.00     0.220 HD
ENDBRANCH  15  18
ENDBRANCH   1  15
BRANCH   4  20
HETATM   20  N1  UNL     1     -11.285  -3.070   1.692  1.00  0.00    -0.320 N 
ATOM     21  H1  UNL     1     -12.266  -3.349   1.714  1.00  0.00     0.169 HD
BRANCH  20  22
HETATM   22  C7  UNL     1     -10.809  -2.204   0.657  1.00  0.00     0.354 C 
HETATM   23  O3  UNL     1      -9.633  -1.781   0.749  1.00  0.00    -0.283 OA
ENDBRANCH  20  22
ENDBRANCH   4  20
BRANCH  13  24
HETATM   24  N6  UNL     1      -7.758  -4.751   6.626  1.00  0.00    -0.233 N 
ATOM     25  H62 UNL     1      -6.851  -4.544   7.045  1.00  0.00     0.174 HD
ATOM     26  H61 UNL     1      -8.629  -4.650   7.147  1.00  0.00     0.174 HD
ENDBRANCH  13  24
BRANCH  10  27
HETATM   27  N4  UNL     1      -6.500  -7.759   3.532  1.00  0.00    -0.234 N 
ATOM     28  H42 UNL     1      -5.509  -7.840   3.759  1.00  0.00     0.174 HD
ATOM     29  H41 UNL     1      -6.923  -8.525   3.009  1.00  0.00     0.174 HD
ENDBRANCH  10  27
TORSDOF 7
ENDMDL
MODEL 4
REMARK VINA RESULT: -5.284437037      2.384      5.044
REMARK  7 active torsions:
REMARK  status: ('A' for Active; 'I' for Inactive)
REMARK    1  A    between atoms: O1_2  and  C2_3 
REMARK    2  A    between atoms: C2_3  and  O2_4 
REMARK    3  A    between atoms: C2_3  and  C3_6 
REMARK    4  A    between atoms: C6_9  and  N1_10 
REMARK    5  A    between atoms: N1_10  and  C7_12 
REMARK    6  A    between atoms: C9_19  and  N4_20 
REMARK    7  A    between atoms: C10_25  and  N6_26 
ROOT
HETATM    1  C3  UNL     1     -11.105  -2.922   3.010  1.00  0.00     0.142 A 
HETATM    2  C4  UNL     1     -11.000  -1.880   2.064  1.00  0.00     0.016 A 
HETATM    3  C5  UNL     1      -9.799  -1.801   1.208  1.00  0.00     0.055 C 
HETATM    4  C6  UNL     1     -12.017  -1.004   1.842  1.00  0.00     0.131 A 
HETATM    5  N2  UNL     1     -13.176  -1.092   2.510  1.00  0.00    -0.174 N 
ATOM      6  H2  UNL     1     -13.936  -0.433   2.338  1.00  0.00     0.186 HD
HETATM    7  C8  UNL     1     -13.302  -2.075   3.411  1.00  0.00     0.720 A 
HETATM    8  N3  UNL     1     -14.464  -2.173   4.098  1.00  0.00    -0.021 N 
ATOM      9  H3  UNL     1     -15.202  -1.498   3.900  1.00  0.00     0.203 HD
HETATM   10  C9  UNL     1     -14.692  -3.110   5.024  1.00  0.00     0.705 A 
HETATM   11  N5  UNL     1     -13.720  -3.973   5.264  1.00  0.00    -0.021 N 
ATOM     12  H5  UNL     1     -13.855  -4.703   5.964  1.00  0.00     0.203 HD
HETATM   13  C10 UNL     1     -12.535  -3.897   4.583  1.00  0.00     0.712 A 
HETATM   14  N7  UNL     1     -12.313  -2.966   3.665  1.00  0.00     0.029 N 
ENDROOT
BRANCH   1  15
HETATM   15  C2  UNL     1      -9.962  -3.728   3.276  1.00  0.00     0.207 C 
BRANCH  15  16
HETATM   16  O1  UNL     1      -8.873  -3.729   4.084  1.00  0.00    -0.334 OA
HETATM   17  C1  UNL     1      -8.679  -2.772   5.156  1.00  0.00     0.212 C 
ENDBRANCH  15  16
BRANCH  15  18
HETATM   18  O2  UNL     1      -9.904  -4.821   2.545  1.00  0.00    -0.339 OA
ATOM     19  H2  UNL     1      -8.986  -5.055   2.466  1.00  0.00     0.220 HD
ENDBRANCH  15  18
ENDBRANCH   1  15
BRANCH   4  20
HETATM   20  N1  UNL     1     -11.878   0.096   0.929  1.00  0.00    -0.320 N 
ATOM     21  H1  UNL     1     -11.121   0.768   1.048  1.00  0.00     0.169 HD
BRANCH  20  22
HETATM   22  C7  UNL     1     -12.807   0.244  -0.150  1.00  0.00     0.354 C 
HETATM   23  O3  UNL     1     -12.401   0.812  -1.192  1.00  0.00    -0.283 OA
ENDBRANCH  20  22
ENDBRANCH   4  20
BRANCH  13  24
HETATM   24  N6  UNL     1     -11.689  -4.775   4.911  1.00  0.00    -0.233 N 
ATOM     25  H62 UNL     1     -10.779  -4.880   4.463  1.00  0.00     0.174 HD
ATOM     26  H61 UNL     1     -11.987  -5.380   5.676  1.00  0.00     0.174 HD
ENDBRANCH  13  24
BRANCH  10  27
HETATM   27  N4  UNL     1     -15.816  -3.151   5.643  1.00  0.00    -0.234 N 
ATOM     28  H42 UNL     1     -16.655  -2.700   5.281  1.00  0.00     0.174 HD
ATOM     29  H41 UNL     1     -15.898  -3.647   6.530  1.00  0.00     0.174 HD
ENDBRANCH  10  27
TORSDOF 7
ENDMDL
MODEL 5
REMARK VINA RESULT: -5.271384862      3.016      4.511
REMARK  7 active torsions:
REMARK  status: ('A' for Active; 'I' for Inactive)
REMARK    1  A    between atoms: O1_2  and  C2_3 
REMARK    2  A    between atoms: C2_3  and  O2_4 
REMARK    3  A    between atoms: C2_3  and  C3_6 
REMARK    4  A    between atoms: C6_9  and  N1_10 
REMARK    5  A    between atoms: N1_10  and  C7_12 
REMARK    6  A    between atoms: C9_19  and  N4_20 
REMARK    7  A    between atoms: C10_25  and  N6_26 
ROOT
HETATM    1  C3  UNL     1      -9.810  -3.063   4.732  1.00  0.00     0.142 A 
HETATM    2  C4  UNL     1     -10.702  -2.524   3.782  1.00  0.00     0.016 A 
HETATM    3  C5  UNL     1     -11.405  -1.262   4.086  1.00  0.00     0.055 C 
HETATM    4  C6  UNL     1     -10.859  -3.076   2.548  1.00  0.00     0.131 A 
HETATM    5  N2  UNL     1     -10.165  -4.160   2.171  1.00  0.00    -0.174 N 
ATOM      6  H2  UNL     1     -10.286  -4.568   1.244  1.00  0.00     0.186 HD
HETATM    7  C8  UNL     1      -9.308  -4.688   3.055  1.00  0.00     0.720 A 
HETATM    8  N3  UNL     1      -8.605  -5.786   2.692  1.00  0.00    -0.021 N 
ATOM      9  H3  UNL     1      -8.750  -6.167   1.758  1.00  0.00     0.203 HD
HETATM   10  C9  UNL     1      -7.731  -6.397   3.498  1.00  0.00     0.705 A 
HETATM   11  N5  UNL     1      -7.560  -5.885   4.705  1.00  0.00    -0.021 N 
ATOM     12  H5  UNL     1      -6.903  -6.322   5.350  1.00  0.00     0.203 HD
HETATM   13  C10 UNL     1      -8.258  -4.775   5.097  1.00  0.00     0.712 A 
HETATM   14  N7  UNL     1      -9.124  -4.172   4.295  1.00  0.00     0.029 N 
ENDROOT
BRANCH   1  15
HETATM   15  C2  UNL     1      -9.782  -2.508   6.043  1.00  0.00     0.207 C 
BRANCH  15  16
HETATM   16  O1  UNL     1      -9.106  -1.564   6.743  1.00  0.00    -0.334 OA
HETATM   17  C1  UNL     1      -9.759  -0.583   7.588  1.00  0.00     0.212 C 
ENDBRANCH  15  16
BRANCH  15  18
HETATM   18  O2  UNL     1     -10.670  -3.034   6.859  1.00  0.00    -0.339 OA
ATOM     19  H2  UNL     1     -10.374  -3.913   7.066  1.00  0.00     0.220 HD
ENDBRANCH  15  18
ENDBRANCH   1  15
BRANCH   4  20
HETATM   20  N1  UNL     1     -11.820  -2.565   1.610  1.00  0.00    -0.320 N 
ATOM     21  H1  UNL     1     -11.630  -1.702   1.101  1.00  0.00     0.169 HD
BRANCH  20  22
HETATM   22  C7  UNL     1     -13.045  -3.271   1.393  1.00  0.00     0.354 C 
HETATM   23  O3  UNL     1     -13.396  -4.106   2.260  1.00  0.00    -0.283 OA
ENDBRANCH  20  22
ENDBRANCH   4  20
BRANCH  13  24
HETATM   24  N6  UNL     1      -8.009  -4.392   6.274  1.00  0.00    -0.233 N 
ATOM     25  H62 UNL     1      -8.433  -3.571   6.705  1.00  0.00     0.174 HD
ATOM     26  H61 UNL     1      -7.343  -4.981   6.775  1.00  0.00     0.174 HD
ENDBRANCH  13  24
BRANCH  10  27
HETATM   27  N4  UNL     1      -7.094  -7.436   3.097  1.00  0.00    -0.234 N 
ATOM     28  H42 UNL     1      -6.789  -7.550   2.130  1.00  0.00     0.174 HD
ATOM     29  H41 UNL     1      -6.871  -8.188   3.748  1.00  0.00     0.174 HD
ENDBRANCH  10  27
TORSDOF 7
ENDMDL
