MODEL 1
REMARK VINA RESULT: -6.474253877      0.000      0.000
REMARK  5 active torsions:
REMARK  status: ('A' for Active; 'I' for Inactive)
REMARK    1  A    between atoms: C2_2  and  O1_3 
REMARK    2  A    between atoms: O1_3  and  C3_4 
REMARK       I    between atoms: C3_4  and  N1_6 
REMARK    3  A    between atoms: C6_11  and  C7_12 
REMARK    4  A    between atoms: N5_19  and  N6_20 
REMARK    5  A    between atoms: C9_23  and  N7_24 
ROOT
HETATM    1  C3  UNL     1      -9.962  -3.421   3.305  1.00  0.00     0.388 C 
HETATM    2  O2  UNL     1      -9.160  -2.525   3.627  1.00  0.00    -0.236 OA
HETATM    3  N1  UNL     1     -11.216  -3.177   2.666  1.00  0.00    -0.182 N 
HETATM    4  N2  UNL     1     -12.097  -4.127   2.309  1.00  0.00    -0.291 N 
ATOM      5  H2  UNL     1     -11.955  -5.126   2.461  1.00  0.00     0.187 HD
HETATM    6  C4  UNL     1     -13.169  -3.610   1.738  1.00  0.00     0.040 A 
HETATM    7  C5  UNL     1     -14.369  -4.331   1.205  1.00  0.00     0.071 C 
HETATM    8  C6  UNL     1     -13.011  -2.250   1.706  1.00  0.00     0.080 A 
HETATM    9  C9  UNL     1     -11.758  -2.005   2.304  1.00  0.00     0.142 A 
ENDROOT
BRANCH   8  10
HETATM   10  C7  UNL     1     -13.904  -1.236   1.182  1.00  0.00     0.162 A 
HETATM   11  N3  UNL     1     -13.722  -0.599   0.017  1.00  0.00    -0.279 N 
HETATM   12  N4  UNL     1     -14.699   0.269  -0.194  1.00  0.00    -0.248 N 
ATOM     13  H3  UNL     1     -12.941  -0.761  -0.618  1.00  0.00     0.189 HD
HETATM   14  C8  UNL     1     -15.527   0.187   0.862  1.00  0.00     0.361 A 
ATOM     15  H4  UNL     1     -14.803   0.883  -1.002  1.00  0.00     0.192 HD
HETATM   16  O3  UNL     1     -16.587   0.837   1.075  1.00  0.00    -0.243 OA
HETATM   17  N5  UNL     1     -15.043  -0.750   1.730  1.00  0.00    -0.192 N 
BRANCH  17  18
HETATM   18  N6  UNL     1     -15.622  -1.120   2.940  1.00  0.00    -0.333 N 
ATOM     19  H62 UNL     1     -15.735  -2.074   3.285  1.00  0.00     0.177 HD
ATOM     20  H61 UNL     1     -16.014  -0.503   3.652  1.00  0.00     0.177 HD
ENDBRANCH  17  18
ENDBRANCH   8  10
BRANCH   9  21
HETATM   21  N7  UNL     1     -11.289  -0.813   2.438  1.00  0.00    -0.383 N 
ATOM     22  H72 UNL     1     -10.672  -0.395   1.741  1.00  0.00     0.157 HD
ATOM     23  H71 UNL     1     -11.436  -0.141   3.191  1.00  0.00     0.157 HD
ENDBRANCH   9  21
BRANCH   1  24
HETATM   24  O1  UNL     1      -9.574  -4.723   3.602  1.00  0.00    -0.303 OA
BRANCH  24  25
HETATM   25  C2  UNL     1      -8.741  -5.483   2.751  1.00  0.00     0.176 C 
HETATM   26  C1  UNL     1      -7.615  -6.154   3.493  1.00  0.00     0.034 C 
ENDBRANCH  24  25
ENDBRANCH   1  24
TORSDOF 5
ENDMDL
MODEL 2
REMARK VINA RESULT: -6.207726301      2.228      6.731
REMARK  5 active torsions:
REMARK  status: ('A' for Active; 'I' for Inactive)
REMARK    1  A    between atoms: C2_2  and  O1_3 
REMARK    2  A    between atoms: O1_3  and  C3_4 
REMARK       I    between atoms: C3_4  and  N1_6 
REMARK    3  A    between atoms: C6_11  and  C7_12 
REMARK    4  A    between atoms: N5_19  and  N6_20 
REMARK    5  A    between atoms: C9_23  and  N7_24 
ROOT
HETATM    1  C3  UNL     1     -14.316  -2.234   1.591  1.00  0.00     0.388 C 
HETATM    2  O2  UNL     1     -15.175  -3.011   2.045  1.00  0.00    -0.236 OA
HETATM    3  N1  UNL     1     -12.909  -2.411   1.764  1.00  0.00    -0.182 N 
HETATM    4  N2  UNL     1     -11.963  -1.586   1.285  1.00  0.00    -0.291 N 
ATOM      5  H2  UNL     1     -12.158  -0.743   0.744  1.00  0.00     0.187 HD
HETATM    6  C4  UNL     1     -10.749  -1.999   1.599  1.00  0.00     0.040 A 
HETATM    7  C5  UNL     1      -9.439  -1.361   1.253  1.00  0.00     0.071 C 
HETATM    8  C6  UNL     1     -10.875  -3.154   2.324  1.00  0.00     0.080 A 
HETATM    9  C9  UNL     1     -12.262  -3.391   2.413  1.00  0.00     0.142 A 
ENDROOT
BRANCH   8  10
HETATM   10  C7  UNL     1      -9.841  -3.991   2.899  1.00  0.00     0.162 A 
HETATM   11  N3  UNL     1      -9.439  -5.158   2.378  1.00  0.00    -0.279 N 
HETATM   12  N4  UNL     1      -8.483  -5.694   3.121  1.00  0.00    -0.248 N 
ATOM     13  H3  UNL     1      -9.817  -5.576   1.527  1.00  0.00     0.189 HD
HETATM   14  C8  UNL     1      -8.268  -4.849   4.144  1.00  0.00     0.361 A 
ATOM     15  H4  UNL     1      -8.003  -6.577   2.950  1.00  0.00     0.192 HD
HETATM   16  O3  UNL     1      -7.443  -4.965   5.092  1.00  0.00    -0.243 OA
HETATM   17  N5  UNL     1      -9.109  -3.780   4.018  1.00  0.00    -0.192 N 
BRANCH  17  18
HETATM   18  N6  UNL     1      -9.186  -2.693   4.884  1.00  0.00    -0.333 N 
ATOM     19  H62 UNL     1      -8.691  -1.808   4.781  1.00  0.00     0.177 HD
ATOM     20  H61 UNL     1      -9.739  -2.622   5.738  1.00  0.00     0.177 HD
ENDBRANCH  17  18
ENDBRANCH   8  10
BRANCH   9  21
HETATM   21  N7  UNL     1     -12.739  -4.410   3.037  1.00  0.00    -0.383 N 
ATOM     22  H72 UNL     1     -12.246  -5.303   3.069  1.00  0.00     0.157 HD
ATOM     23  H71 UNL     1     -13.611  -4.499   3.559  1.00  0.00     0.157 HD
ENDBRANCH   9  21
BRANCH   1  24
HETATM   24  O1  UNL     1     -14.796  -1.141   0.878  1.00  0.00    -0.303 OA
BRANCH  24  25
HETATM   25  C2  UNL     1     -14.998   0.126   1.470  1.00  0.00     0.176 C 
HETATM   26  C1  UNL     1     -16.457   0.465   1.628  1.00  0.00     0.034 C 
ENDBRANCH  24  25
ENDBRANCH   1  24
TORSDOF 5
ENDMDL
MODEL 3
REMARK VINA RESULT: -6.175143591      1.595      1.785
REMARK  5 active torsions:
REMARK  status: ('A' for Active; 'I' for Inactive)
REMARK    1  A    between atoms: C2_2  and  O1_3 
REMARK    2  A    between atoms: O1_3  and  C3_4 
REMARK       I    between atoms: C3_4  and  N1_6 
REMARK    3  A    between atoms: C6_11  and  C7_12 
REMARK    4  A    between atoms: N5_19  and  N6_20 
REMARK    5  A    between atoms: C9_23  and  N7_24 
ROOT
HETATM    1  C3  UNL     1     -10.291  -2.273   1.409  1.00  0.00     0.388 C 
HETATM    2  O2  UNL     1      -9.496  -1.391   1.033  1.00  0.00    -0.236 OA
HETATM    3  N1  UNL     1     -11.696  -2.068   1.563  1.00  0.00    -0.182 N 
HETATM    4  N2  UNL     1     -12.572  -3.003   1.968  1.00  0.00    -0.291 N 
ATOM      5  H2  UNL     1     -12.317  -3.961   2.207  1.00  0.00     0.187 HD
HETATM    6  C4  UNL     1     -13.804  -2.530   2.017  1.00  0.00     0.040 A 
HETATM    7  C5  UNL     1     -15.053  -3.252   2.417  1.00  0.00     0.071 C 
HETATM    8  C6  UNL     1     -13.763  -1.216   1.631  1.00  0.00     0.080 A 
HETATM    9  C9  UNL     1     -12.408  -0.951   1.348  1.00  0.00     0.142 A 
ENDROOT
BRANCH   8  10
HETATM   10  C7  UNL     1     -14.847  -0.261   1.518  1.00  0.00     0.162 A 
HETATM   11  N3  UNL     1     -15.340   0.187   0.356  1.00  0.00    -0.279 N 
HETATM   12  N4  UNL     1     -16.322   1.049   0.569  1.00  0.00    -0.248 N 
ATOM     13  H3  UNL     1     -15.005  -0.095  -0.565  1.00  0.00     0.189 HD
HETATM   14  C8  UNL     1     -16.462   1.154   1.902  1.00  0.00     0.361 A 
ATOM     15  H4  UNL     1     -16.867   1.538  -0.140  1.00  0.00     0.192 HD
HETATM   16  O3  UNL     1     -17.281   1.867   2.547  1.00  0.00    -0.243 OA
HETATM   17  N5  UNL     1     -15.548   0.341   2.508  1.00  0.00    -0.192 N 
BRANCH  17  18
HETATM   18  N6  UNL     1     -15.381   0.177   3.880  1.00  0.00    -0.333 N 
ATOM     19  H62 UNL     1     -15.841   0.720   4.610  1.00  0.00     0.177 HD
ATOM     20  H61 UNL     1     -14.781  -0.500   4.353  1.00  0.00     0.177 HD
ENDBRANCH  17  18
ENDBRANCH   8  10
BRANCH   9  21
HETATM   21  N7  UNL     1     -12.009   0.207   0.952  1.00  0.00    -0.383 N 
ATOM     22  H72 UNL     1     -11.415   0.801   1.531  1.00  0.00     0.157 HD
ATOM     23  H71 UNL     1     -12.199   0.690   0.073  1.00  0.00     0.157 HD
ENDBRANCH   9  21
BRANCH   1  24
HETATM   24  O1  UNL     1      -9.735  -3.518   1.685  1.00  0.00    -0.303 OA
BRANCH  24  25
HETATM   25  C2  UNL     1      -9.243  -3.866   2.963  1.00  0.00     0.176 C 
HETATM   26  C1  UNL     1      -8.539  -5.197   2.969  1.00  0.00     0.034 C 
ENDBRANCH  24  25
ENDBRANCH   1  24
TORSDOF 5
ENDMDL
MODEL 4
REMARK VINA RESULT: -6.098895296      2.443      6.637
REMARK  5 active torsions:
REMARK  status: ('A' for Active; 'I' for Inactive)
REMARK    1  A    between atoms: C2_2  and  O1_3 
REMARK    2  A    between atoms: O1_3  and  C3_4 
REMARK       I    between atoms: C3_4  and  N1_6 
REMARK    3  A    between atoms: C6_11  and  C7_12 
REMARK    4  A    between atoms: N5_19  and  N6_20 
REMARK    5  A    between atoms: C9_23  and  N7_24 
ROOT
HETATM    1  C3  UNL     1     -12.404  -0.440   0.878  1.00  0.00     0.388 C 
HETATM    2  O2  UNL     1     -11.793  -0.092  -0.149  1.00  0.00    -0.236 OA
HETATM    3  N1  UNL     1     -11.940  -1.447   1.779  1.00  0.00    -0.182 N 
HETATM    4  N2  UNL     1     -12.582  -1.840   2.893  1.00  0.00    -0.291 N 
ATOM      5  H2  UNL     1     -13.472  -1.454   3.207  1.00  0.00     0.187 HD
HETATM    6  C4  UNL     1     -11.918  -2.787   3.530  1.00  0.00     0.040 A 
HETATM    7  C5  UNL     1     -12.298  -3.483   4.801  1.00  0.00     0.071 C 
HETATM    8  C6  UNL     1     -10.777  -3.050   2.820  1.00  0.00     0.080 A 
HETATM    9  C9  UNL     1     -10.819  -2.181   1.710  1.00  0.00     0.142 A 
ENDROOT
BRANCH   8  10
HETATM   10  C7  UNL     1      -9.722  -4.002   3.101  1.00  0.00     0.162 A 
HETATM   11  N3  UNL     1      -9.521  -5.132   2.409  1.00  0.00    -0.279 N 
HETATM   12  N4  UNL     1      -8.485  -5.797   2.897  1.00  0.00    -0.248 N 
ATOM     13  H3  UNL     1     -10.086  -5.436   1.616  1.00  0.00     0.189 HD
HETATM   14  C8  UNL     1      -8.012  -5.076   3.928  1.00  0.00     0.361 A 
ATOM     15  H4  UNL     1      -8.118  -6.685   2.557  1.00  0.00     0.192 HD
HETATM   16  O3  UNL     1      -7.032  -5.338   4.680  1.00  0.00    -0.243 OA
HETATM   17  N5  UNL     1      -8.775  -3.951   4.068  1.00  0.00    -0.192 N 
BRANCH  17  18
HETATM   18  N6  UNL     1      -8.598  -2.956   5.024  1.00  0.00    -0.333 N 
ATOM     19  H62 UNL     1      -8.518  -1.956   4.842  1.00  0.00     0.177 HD
ATOM     20  H61 UNL     1      -8.524  -3.077   6.035  1.00  0.00     0.177 HD
ENDBRANCH  17  18
ENDBRANCH   8  10
BRANCH   9  21
HETATM   21  N7  UNL     1      -9.886  -2.164   0.823  1.00  0.00    -0.383 N 
ATOM     22  H72 UNL     1      -9.395  -1.305   0.573  1.00  0.00     0.157 HD
ATOM     23  H71 UNL     1      -9.508  -2.931   0.267  1.00  0.00     0.157 HD
ENDBRANCH   9  21
BRANCH   1  24
HETATM   24  O1  UNL     1     -13.605   0.215   1.126  1.00  0.00    -0.303 OA
BRANCH  24  25
HETATM   25  C2  UNL     1     -14.839  -0.233   0.602  1.00  0.00     0.176 C 
HETATM   26  C1  UNL     1     -16.020   0.445   1.245  1.00  0.00     0.034 C 
ENDBRANCH  24  25
ENDBRANCH   1  24
TORSDOF 5
ENDMDL
MODEL 5
REMARK VINA RESULT: -6.035472885      0.890      1.639
REMARK  5 active torsions:
REMARK  status: ('A' for Active; 'I' for Inactive)
REMARK    1  A    between atoms: C2_2  and  O1_3 
REMARK    2  A    between atoms: O1_3  and  C3_4 
REMARK       I    between atoms: C3_4  and  N1_6 
REMARK    3  A    between atoms: C6_11  and  C7_12 
REMARK    4  A    between atoms: N5_19  and  N6_20 
REMARK    5  A    between atoms: C9_23  and  N7_24 
ROOT
HETATM    1  C3  UNL     1     -10.033  -2.812   2.280  1.00  0.00     0.388 C 
HETATM    2  O2  UNL     1      -9.306  -1.834   2.538  1.00  0.00    -0.236 OA
HETATM    3  N1  UNL     1     -11.452  -2.735   2.140  1.00  0.00    -0.182 N 
HETATM    4  N2  UNL     1     -12.257  -3.776   1.862  1.00  0.00    -0.291 N 
ATOM      5  H2  UNL     1     -11.929  -4.732   1.723  1.00  0.00     0.187 HD
HETATM    6  C4  UNL     1     -13.523  -3.409   1.792  1.00  0.00     0.040 A 
HETATM    7  C5  UNL     1     -14.717  -4.267   1.506  1.00  0.00     0.071 C 
HETATM    8  C6  UNL     1     -13.582  -2.062   2.034  1.00  0.00     0.080 A 
HETATM    9  C9  UNL     1     -12.248  -1.662   2.252  1.00  0.00     0.142 A 
ENDROOT
BRANCH   8  10
HETATM   10  C7  UNL     1     -14.738  -1.188   2.069  1.00  0.00     0.162 A 
HETATM   11  N3  UNL     1     -15.621  -1.146   3.075  1.00  0.00    -0.279 N 
HETATM   12  N4  UNL     1     -16.567  -0.254   2.826  1.00  0.00    -0.248 N 
ATOM     13  H3  UNL     1     -15.572  -1.721   3.916  1.00  0.00     0.189 HD
HETATM   14  C8  UNL     1     -16.282   0.289   1.630  1.00  0.00     0.361 A 
ATOM     15  H4  UNL     1     -17.359  -0.023   3.426  1.00  0.00     0.192 HD
HETATM   16  O3  UNL     1     -16.920   1.182   1.006  1.00  0.00    -0.243 OA
HETATM   17  N5  UNL     1     -15.142  -0.285   1.145  1.00  0.00    -0.192 N 
BRANCH  17  18
HETATM   18  N6  UNL     1     -14.528   0.013  -0.068  1.00  0.00    -0.333 N 
ATOM     19  H62 UNL     1     -13.578   0.365  -0.190  1.00  0.00     0.177 HD
ATOM     20  H61 UNL     1     -14.929  -0.075  -1.002  1.00  0.00     0.177 HD
ENDBRANCH  17  18
ENDBRANCH   8  10
BRANCH   9  21
HETATM   21  N7  UNL     1     -11.938  -0.439   2.510  1.00  0.00    -0.383 N 
ATOM     22  H72 UNL     1     -12.445   0.111   3.204  1.00  0.00     0.157 HD
ATOM     23  H71 UNL     1     -11.203   0.141   2.106  1.00  0.00     0.157 HD
ENDBRANCH   9  21
BRANCH   1  24
HETATM   24  O1  UNL     1      -9.383  -4.032   2.126  1.00  0.00    -0.303 OA
BRANCH  24  25
HETATM   25  C2  UNL     1      -9.038  -4.855   3.221  1.00  0.00     0.176 C 
HETATM   26  C1  UNL     1      -8.155  -6.008   2.823  1.00  0.00     0.034 C 
ENDBRANCH  24  25
ENDBRANCH   1  24
TORSDOF 5
ENDMDL
