MODEL 1
REMARK VINA RESULT: -6.976655268      0.000      0.000
REMARK  4 active torsions:
REMARK  status: ('A' for Active; 'I' for Inactive)
REMARK    1  A    between atoms: C2_5  and  C3_6 
REMARK    2  A    between atoms: N3_8  and  N4_9 
REMARK    3  A    between atoms: C5_12  and  N5_13 
REMARK    4  A    between atoms: C7_23  and  N9_24 
ROOT
HETATM    1  C1  UNL     1     -11.019   0.136   1.487  1.00  0.00     0.179 C 
HETATM    2  N1  UNL     1     -10.956  -1.267   1.835  1.00  0.00    -0.276 N 
HETATM    3  N2  UNL     1      -9.937  -1.890   2.340  1.00  0.00    -0.279 N 
ATOM      4  H2  UNL     1      -9.036  -1.467   2.562  1.00  0.00     0.189 HD
HETATM    5  C2  UNL     1     -10.261  -3.188   2.526  1.00  0.00     0.173 A 
HETATM    6  N7  UNL     1     -11.536  -3.315   2.103  1.00  0.00    -0.213 N 
HETATM    7  N8  UNL     1     -12.507  -4.186   1.962  1.00  0.00    -0.254 N 
ATOM      8  H8  UNL     1     -12.452  -5.174   2.211  1.00  0.00     0.191 HD
HETATM    9  C6  UNL     1     -13.578  -3.581   1.442  1.00  0.00     0.297 A 
HETATM   10  O1  UNL     1     -14.706  -4.104   1.164  1.00  0.00    -0.264 OA
HETATM   11  C7  UNL     1     -13.263  -2.243   1.245  1.00  0.00     0.219 A 
HETATM   12  C8  UNL     1     -11.960  -2.120   1.677  1.00  0.00     0.184 A 
ENDROOT
BRANCH   5  13
HETATM   13  C3  UNL     1      -9.355  -4.201   3.082  1.00  0.00     0.114 A 
HETATM   14  C4  UNL     1      -8.705  -4.242   4.289  1.00  0.00     0.168 A 
HETATM   15  N3  UNL     1      -7.961  -5.380   4.383  1.00  0.00    -0.102 N 
HETATM   16  C5  UNL     1      -8.149  -6.046   3.233  1.00  0.00     0.697 A 
HETATM   17  N6  UNL     1      -8.983  -5.345   2.450  1.00  0.00    -0.185 N 
ATOM     18  H6  UNL     1      -9.291  -5.628   1.520  1.00  0.00     0.184 HD
BRANCH  15  19
HETATM   19  N4  UNL     1      -7.196  -5.698   5.487  1.00  0.00    -0.325 N 
ATOM     20  H42 UNL     1      -7.340  -5.490   6.475  1.00  0.00     0.178 HD
ATOM     21  H41 UNL     1      -6.323  -6.224   5.432  1.00  0.00     0.178 HD
ENDBRANCH  15  19
BRANCH  16  22
HETATM   22  N5  UNL     1      -7.571  -7.184   3.004  1.00  0.00    -0.233 N 
ATOM     23  H52 UNL     1      -6.726  -7.382   2.469  1.00  0.00     0.174 HD
ATOM     24  H51 UNL     1      -7.946  -8.057   3.375  1.00  0.00     0.174 HD
ENDBRANCH  16  22
ENDBRANCH   5  13
BRANCH  11  25
HETATM   25  N9  UNL     1     -14.114  -1.243   0.711  1.00  0.00    -0.106 N 
HETATM   26  O2  UNL     1     -15.175  -0.957   1.267  1.00  0.00    -0.531 OA
HETATM   27  O3  UNL     1     -13.742  -0.601  -0.427  1.00  0.00    -0.531 OA
ENDBRANCH  11  25
TORSDOF 4
ENDMDL
MODEL 2
REMARK VINA RESULT: -6.825083561      0.584      1.232
REMARK  4 active torsions:
REMARK  status: ('A' for Active; 'I' for Inactive)
REMARK    1  A    between atoms: C2_5  and  C3_6 
REMARK    2  A    between atoms: N3_8  and  N4_9 
REMARK    3  A    between atoms: C5_12  and  N5_13 
REMARK    4  A    between atoms: C7_23  and  N9_24 
ROOT
HETATM    1  C1  UNL     1     -11.019   0.127   1.620  1.00  0.00     0.179 C 
HETATM    2  N1  UNL     1     -10.944  -1.280   1.951  1.00  0.00    -0.276 N 
HETATM    3  N2  UNL     1      -9.928  -1.895   2.468  1.00  0.00    -0.279 N 
ATOM      4  H2  UNL     1      -9.036  -1.464   2.713  1.00  0.00     0.189 HD
HETATM    5  C2  UNL     1     -10.238  -3.200   2.631  1.00  0.00     0.173 A 
HETATM    6  N7  UNL     1     -11.502  -3.338   2.182  1.00  0.00    -0.213 N 
HETATM    7  N8  UNL     1     -12.458  -4.220   2.011  1.00  0.00    -0.254 N 
ATOM      8  H8  UNL     1     -12.395  -5.210   2.249  1.00  0.00     0.191 HD
HETATM    9  C6  UNL     1     -13.527  -3.623   1.478  1.00  0.00     0.297 A 
HETATM   10  O1  UNL     1     -14.642  -4.157   1.171  1.00  0.00    -0.264 OA
HETATM   11  C7  UNL     1     -13.226  -2.279   1.304  1.00  0.00     0.219 A 
HETATM   12  C8  UNL     1     -11.934  -2.144   1.762  1.00  0.00     0.184 A 
ENDROOT
BRANCH   5  13
HETATM   13  C3  UNL     1      -9.329  -4.208   3.192  1.00  0.00     0.114 A 
HETATM   14  C4  UNL     1      -8.834  -5.361   2.639  1.00  0.00     0.168 A 
HETATM   15  N3  UNL     1      -8.019  -5.996   3.528  1.00  0.00    -0.102 N 
HETATM   16  C5  UNL     1      -8.008  -5.236   4.634  1.00  0.00     0.697 A 
HETATM   17  N6  UNL     1      -8.790  -4.164   4.439  1.00  0.00    -0.185 N 
ATOM     18  H6  UNL     1      -8.956  -3.427   5.123  1.00  0.00     0.184 HD
BRANCH  15  19
HETATM   19  N4  UNL     1      -7.374  -7.185   3.252  1.00  0.00    -0.325 N 
ATOM     20  H42 UNL     1      -7.287  -8.035   3.809  1.00  0.00     0.178 HD
ATOM     21  H41 UNL     1      -6.869  -7.362   2.383  1.00  0.00     0.178 HD
ENDBRANCH  15  19
BRANCH  16  22
HETATM   22  N5  UNL     1      -7.317  -5.568   5.680  1.00  0.00    -0.233 N 
ATOM     23  H52 UNL     1      -6.310  -5.515   5.832  1.00  0.00     0.174 HD
ATOM     24  H51 UNL     1      -7.763  -5.946   6.516  1.00  0.00     0.174 HD
ENDBRANCH  16  22
ENDBRANCH   5  13
BRANCH  11  25
HETATM   25  N9  UNL     1     -14.080  -1.283   0.766  1.00  0.00    -0.106 N 
HETATM   26  O2  UNL     1     -15.149  -1.010   1.312  1.00  0.00    -0.531 OA
HETATM   27  O3  UNL     1     -13.701  -0.631  -0.365  1.00  0.00    -0.531 OA
ENDBRANCH  11  25
TORSDOF 4
ENDMDL
MODEL 3
REMARK VINA RESULT: -6.546400572      1.257      2.484
REMARK  4 active torsions:
REMARK  status: ('A' for Active; 'I' for Inactive)
REMARK    1  A    between atoms: C2_5  and  C3_6 
REMARK    2  A    between atoms: N3_8  and  N4_9 
REMARK    3  A    between atoms: C5_12  and  N5_13 
REMARK    4  A    between atoms: C7_23  and  N9_24 
ROOT
HETATM    1  C1  UNL     1     -14.124  -3.635   1.997  1.00  0.00     0.179 C 
HETATM    2  N1  UNL     1     -12.704  -3.513   2.253  1.00  0.00    -0.276 N 
HETATM    3  N2  UNL     1     -11.930  -4.431   2.742  1.00  0.00    -0.279 N 
ATOM      4  H2  UNL     1     -12.223  -5.370   3.013  1.00  0.00     0.189 HD
HETATM    5  C2  UNL     1     -10.674  -3.943   2.835  1.00  0.00     0.173 A 
HETATM    6  N7  UNL     1     -10.733  -2.677   2.374  1.00  0.00    -0.213 N 
HETATM    7  N8  UNL     1      -9.999  -1.612   2.151  1.00  0.00    -0.254 N 
ATOM      8  H8  UNL     1      -8.999  -1.537   2.335  1.00  0.00     0.191 HD
HETATM    9  C6  UNL     1     -10.764  -0.642   1.645  1.00  0.00     0.297 A 
HETATM   10  O1  UNL     1     -10.404   0.532   1.304  1.00  0.00    -0.264 OA
HETATM   11  C7  UNL     1     -12.061  -1.125   1.541  1.00  0.00     0.219 A 
HETATM   12  C8  UNL     1     -11.995  -2.418   2.015  1.00  0.00     0.184 A 
ENDROOT
BRANCH   5  13
HETATM   13  C3  UNL     1      -9.523  -4.699   3.346  1.00  0.00     0.114 A 
HETATM   14  C4  UNL     1      -8.757  -4.499   4.466  1.00  0.00     0.168 A 
HETATM   15  N3  UNL     1      -7.786  -5.452   4.548  1.00  0.00    -0.102 N 
HETATM   16  C5  UNL     1      -7.950  -6.245   3.477  1.00  0.00     0.697 A 
HETATM   17  N6  UNL     1      -8.988  -5.799   2.754  1.00  0.00    -0.185 N 
ATOM     18  H6  UNL     1      -9.325  -6.222   1.890  1.00  0.00     0.184 HD
BRANCH  15  19
HETATM   19  N4  UNL     1      -6.861  -5.508   5.571  1.00  0.00    -0.325 N 
ATOM     20  H42 UNL     1      -6.963  -5.314   6.567  1.00  0.00     0.178 HD
ATOM     21  H41 UNL     1      -5.885  -5.773   5.431  1.00  0.00     0.178 HD
ENDBRANCH  15  19
BRANCH  16  22
HETATM   22  N5  UNL     1      -7.174  -7.260   3.259  1.00  0.00    -0.233 N 
ATOM     23  H52 UNL     1      -6.475  -7.393   2.529  1.00  0.00     0.174 HD
ATOM     24  H51 UNL     1      -7.198  -8.089   3.854  1.00  0.00     0.174 HD
ENDBRANCH  16  22
ENDBRANCH   5  13
BRANCH  11  25
HETATM   25  N9  UNL     1     -13.191  -0.421   1.053  1.00  0.00    -0.106 N 
HETATM   26  O2  UNL     1     -14.023   0.049   1.829  1.00  0.00    -0.531 OA
HETATM   27  O3  UNL     1     -13.343  -0.271  -0.289  1.00  0.00    -0.531 OA
ENDBRANCH  11  25
TORSDOF 4
ENDMDL
MODEL 4
REMARK VINA RESULT: -6.416623958      1.400      2.786
REMARK  4 active torsions:
REMARK  status: ('A' for Active; 'I' for Inactive)
REMARK    1  A    between atoms: C2_5  and  C3_6 
REMARK    2  A    between atoms: N3_8  and  N4_9 
REMARK    3  A    between atoms: C5_12  and  N5_13 
REMARK    4  A    between atoms: C7_23  and  N9_24 
ROOT
HETATM    1  C1  UNL     1     -14.004  -3.693   2.096  1.00  0.00     0.179 C 
HETATM    2  N1  UNL     1     -12.581  -3.568   2.334  1.00  0.00    -0.276 N 
HETATM    3  N2  UNL     1     -11.801  -4.479   2.826  1.00  0.00    -0.279 N 
ATOM      4  H2  UNL     1     -12.090  -5.415   3.112  1.00  0.00     0.189 HD
HETATM    5  C2  UNL     1     -10.544  -3.991   2.898  1.00  0.00     0.173 A 
HETATM    6  N7  UNL     1     -10.608  -2.730   2.421  1.00  0.00    -0.213 N 
HETATM    7  N8  UNL     1      -9.878  -1.668   2.176  1.00  0.00    -0.254 N 
ATOM      8  H8  UNL     1      -8.875  -1.591   2.347  1.00  0.00     0.191 HD
HETATM    9  C6  UNL     1     -10.649  -0.704   1.667  1.00  0.00     0.297 A 
HETATM   10  O1  UNL     1     -10.293   0.466   1.308  1.00  0.00    -0.264 OA
HETATM   11  C7  UNL     1     -11.947  -1.189   1.585  1.00  0.00     0.219 A 
HETATM   12  C8  UNL     1     -11.875  -2.475   2.074  1.00  0.00     0.184 A 
ENDROOT
BRANCH   5  13
HETATM   13  C3  UNL     1      -9.387  -4.740   3.404  1.00  0.00     0.114 A 
HETATM   14  C4  UNL     1      -8.779  -5.869   2.917  1.00  0.00     0.168 A 
HETATM   15  N3  UNL     1      -7.731  -6.220   3.714  1.00  0.00    -0.102 N 
HETATM   16  C5  UNL     1      -7.688  -5.308   4.698  1.00  0.00     0.697 A 
HETATM   17  N6  UNL     1      -8.677  -4.420   4.518  1.00  0.00    -0.185 N 
ATOM     18  H6  UNL     1      -8.868  -3.623   5.125  1.00  0.00     0.184 HD
BRANCH  15  19
HETATM   19  N4  UNL     1      -6.928  -7.317   3.474  1.00  0.00    -0.325 N 
ATOM     20  H42 UNL     1      -7.167  -8.254   3.150  1.00  0.00     0.178 HD
ATOM     21  H41 UNL     1      -5.916  -7.312   3.605  1.00  0.00     0.178 HD
ENDBRANCH  15  19
BRANCH  16  22
HETATM   22  N5  UNL     1      -6.793  -5.361   5.634  1.00  0.00    -0.233 N 
ATOM     23  H52 UNL     1      -5.835  -5.010   5.632  1.00  0.00     0.174 HD
ATOM     24  H51 UNL     1      -6.988  -5.796   6.536  1.00  0.00     0.174 HD
ENDBRANCH  16  22
ENDBRANCH   5  13
BRANCH  11  25
HETATM   25  N9  UNL     1     -13.083  -0.491   1.102  1.00  0.00    -0.106 N 
HETATM   26  O2  UNL     1     -13.947  -0.081   1.877  1.00  0.00    -0.531 OA
HETATM   27  O3  UNL     1     -13.205  -0.280  -0.236  1.00  0.00    -0.531 OA
ENDBRANCH  11  25
TORSDOF 4
ENDMDL
MODEL 5
REMARK VINA RESULT: -6.286187028      1.412      2.406
REMARK  4 active torsions:
REMARK  status: ('A' for Active; 'I' for Inactive)
REMARK    1  A    between atoms: C2_5  and  C3_6 
REMARK    2  A    between atoms: N3_8  and  N4_9 
REMARK    3  A    between atoms: C5_12  and  N5_13 
REMARK    4  A    between atoms: C7_23  and  N9_24 
ROOT
HETATM    1  C1  UNL     1     -14.739  -2.614   3.763  1.00  0.00     0.179 C 
HETATM    2  N1  UNL     1     -13.364  -2.740   3.329  1.00  0.00    -0.276 N 
HETATM    3  N2  UNL     1     -12.478  -3.557   3.807  1.00  0.00    -0.279 N 
ATOM      4  H2  UNL     1     -12.636  -4.226   4.560  1.00  0.00     0.189 HD
HETATM    5  C2  UNL     1     -11.313  -3.378   3.147  1.00  0.00     0.173 A 
HETATM    6  N7  UNL     1     -11.545  -2.406   2.242  1.00  0.00    -0.213 N 
HETATM    7  N8  UNL     1     -10.973  -1.708   1.289  1.00  0.00    -0.254 N 
ATOM      8  H8  UNL     1     -10.003  -1.805   0.990  1.00  0.00     0.191 HD
HETATM    9  C6  UNL     1     -11.857  -0.852   0.770  1.00  0.00     0.297 A 
HETATM   10  O1  UNL     1     -11.666  -0.015  -0.171  1.00  0.00    -0.264 OA
HETATM   11  C7  UNL     1     -13.063  -1.022   1.437  1.00  0.00     0.219 A 
HETATM   12  C8  UNL     1     -12.819  -2.015   2.360  1.00  0.00     0.184 A 
ENDROOT
BRANCH   5  13
HETATM   13  C3  UNL     1     -10.081  -4.130   3.416  1.00  0.00     0.114 A 
HETATM   14  C4  UNL     1      -9.172  -4.008   4.437  1.00  0.00     0.168 A 
HETATM   15  N3  UNL     1      -8.172  -4.921   4.287  1.00  0.00    -0.102 N 
HETATM   16  C5  UNL     1      -8.460  -5.611   3.172  1.00  0.00     0.697 A 
HETATM   17  N6  UNL     1      -9.601  -5.142   2.647  1.00  0.00    -0.185 N 
ATOM     18  H6  UNL     1     -10.043  -5.493   1.798  1.00  0.00     0.184 HD
BRANCH  15  19
HETATM   19  N4  UNL     1      -7.111  -5.037   5.163  1.00  0.00    -0.325 N 
ATOM     20  H42 UNL     1      -7.004  -4.704   6.121  1.00  0.00     0.178 HD
ATOM     21  H41 UNL     1      -6.238  -5.511   4.928  1.00  0.00     0.178 HD
ENDBRANCH  15  19
BRANCH  16  22
HETATM   22  N5  UNL     1      -7.692  -6.566   2.747  1.00  0.00    -0.233 N 
ATOM     23  H52 UNL     1      -6.757  -6.511   2.343  1.00  0.00     0.174 HD
ATOM     24  H51 UNL     1      -7.984  -7.542   2.783  1.00  0.00     0.174 HD
ENDBRANCH  16  22
ENDBRANCH   5  13
BRANCH  11  25
HETATM   25  N9  UNL     1     -14.267  -0.313   1.200  1.00  0.00    -0.106 N 
HETATM   26  O2  UNL     1     -14.848  -0.401   0.118  1.00  0.00    -0.531 OA
HETATM   27  O3  UNL     1     -14.776   0.470   2.189  1.00  0.00    -0.531 OA
ENDBRANCH  11  25
TORSDOF 4
ENDMDL
