MODEL 1
REMARK VINA RESULT: -8.062714838      0.000      0.000
REMARK  12 active torsions:
REMARK  status: ('A' for Active; 'I' for Inactive)
REMARK    1  A    between atoms: N1_1  and  C1_5 
REMARK    2  A    between atoms: C1_5  and  N2_6 
REMARK    3  A    between atoms: C1_5  and  C11_23 
REMARK    4  A    between atoms: C1_5  and  C12_28 
REMARK       I    between atoms: N2_6  and  C2_8 
REMARK    5  A    between atoms: C2_8  and  C3_10 
REMARK    6  A    between atoms: C7_14  and  N3_15 
REMARK    7  A    between atoms: C11_23  and  O2_24 
REMARK    8  A    between atoms: C11_23  and  O3_26 
REMARK    9  A    between atoms: C12_28  and  C13_29 
REMARK   10  A    between atoms: C12_28  and  N6_34 
REMARK   11  A    between atoms: C13_29  and  O4_30 
REMARK   12  A    between atoms: C13_29  and  O5_32 
ROOT
HETATM    1  C1  UNL     1     -30.252   5.936 -27.139  1.00  0.00     0.293 C 
ENDROOT
BRANCH   1   2
HETATM    2  N1  UNL     1     -31.533   5.836 -27.715  1.00  0.00    -0.042 N 
ATOM      3  H13 UNL     1     -31.729   6.546 -28.421  1.00  0.00     0.278 HD
ATOM      4  H12 UNL     1     -31.653   5.031 -28.330  1.00  0.00     0.278 HD
ATOM      5  H11 UNL     1     -32.171   5.852 -26.919  1.00  0.00     0.278 HD
ENDBRANCH   1   2
BRANCH   1   6
HETATM    6  N2  UNL     1     -29.319   5.795 -28.287  1.00  0.00    -0.315 N 
HETATM    7  C2  UNL     1     -29.657   5.107 -29.469  1.00  0.00     0.254 C 
HETATM    8  O1  UNL     1     -30.761   4.536 -29.622  1.00  0.00    -0.268 OA
ATOM      9  H2  UNL     1     -28.392   6.216 -28.216  1.00  0.00     0.165 HD
BRANCH   7  10
HETATM   10  C3  UNL     1     -28.705   5.042 -30.567  1.00  0.00     0.034 A 
HETATM   11  C4  UNL     1     -27.342   5.009 -30.382  1.00  0.00     0.017 A 
HETATM   12  C5  UNL     1     -26.474   4.943 -31.474  1.00  0.00     0.003 A 
HETATM   13  C6  UNL     1     -26.966   4.909 -32.770  1.00  0.00     0.031 A 
HETATM   14  C7  UNL     1     -28.331   4.940 -32.985  1.00  0.00     0.058 A 
HETATM   15  C10 UNL     1     -29.137   5.005 -31.883  1.00  0.00     0.048 A 
BRANCH  14  16
HETATM   16  N3  UNL     1     -28.876   4.905 -34.312  1.00  0.00    -0.252 N 
HETATM   17  C8  UNL     1     -30.127   5.266 -34.682  1.00  0.00     0.136 A 
HETATM   18  C9  UNL     1     -30.264   5.093 -36.021  1.00  0.00     0.128 A 
HETATM   19  N4  UNL     1     -29.087   4.624 -36.466  1.00  0.00    -0.296 N 
HETATM   20  N5  UNL     1     -28.279   4.523 -35.424  1.00  0.00    -0.236 N 
ATOM     21  H4  UNL     1     -28.857   4.389 -37.432  1.00  0.00     0.187 HD
ATOM     22  H5  UNL     1     -27.315   4.190 -35.473  1.00  0.00     0.209 HD
ENDBRANCH  14  16
ENDBRANCH   7  10
ENDBRANCH   1   6
BRANCH   1  23
HETATM   23  C11 UNL     1     -29.984   4.630 -26.349  1.00  0.00     0.317 C 
BRANCH  23  24
HETATM   24  O2  UNL     1     -28.731   4.131 -26.538  1.00  0.00    -0.367 OA
ATOM     25  H2  UNL     1     -28.557   3.344 -26.034  1.00  0.00     0.212 HD
ENDBRANCH  23  24
BRANCH  23  26
HETATM   26  O3  UNL     1     -31.004   3.717 -26.557  1.00  0.00    -0.367 OA
ATOM     27  H3  UNL     1     -31.532   3.621 -25.772  1.00  0.00     0.212 HD
ENDBRANCH  23  26
ENDBRANCH   1  23
BRANCH   1  28
HETATM   28  C12 UNL     1     -29.914   7.090 -26.290  1.00  0.00     0.126 C 
BRANCH  28  29
HETATM   29  C13 UNL     1     -29.622   8.434 -26.777  1.00  0.00     0.307 C 
BRANCH  29  30
HETATM   30  O4  UNL     1     -28.533   9.087 -26.218  1.00  0.00    -0.366 OA
ATOM     31  H4  UNL     1     -27.708   9.031 -26.685  1.00  0.00     0.213 HD
ENDBRANCH  29  30
BRANCH  29  32
HETATM   32  O5  UNL     1     -29.634   8.582 -28.166  1.00  0.00    -0.366 OA
ATOM     33  H5  UNL     1     -28.794   8.789 -28.560  1.00  0.00     0.213 HD
ENDBRANCH  29  32
ENDBRANCH  28  29
BRANCH  28  34
HETATM   34  N6  UNL     1     -30.837   7.223 -25.140  1.00  0.00    -0.267 N 
HETATM   35  C14 UNL     1     -30.847   6.607 -23.956  1.00  0.00     0.117 A 
HETATM   36  C15 UNL     1     -31.896   7.088 -23.185  1.00  0.00     0.038 A 
HETATM   37  C16 UNL     1     -32.513   8.028 -23.977  1.00  0.00     0.109 A 
HETATM   38  N7  UNL     1     -31.841   8.070 -25.138  1.00  0.00    -0.306 N 
ATOM     39  H7  UNL     1     -32.079   8.682 -25.919  1.00  0.00     0.186 HD
ENDBRANCH  28  34
ENDBRANCH   1  28
TORSDOF 12
ENDMDL
MODEL 2
REMARK VINA RESULT: -7.742423640      4.926      9.939
REMARK  12 active torsions:
REMARK  status: ('A' for Active; 'I' for Inactive)
REMARK    1  A    between atoms: N1_1  and  C1_5 
REMARK    2  A    between atoms: C1_5  and  N2_6 
REMARK    3  A    between atoms: C1_5  and  C11_23 
REMARK    4  A    between atoms: C1_5  and  C12_28 
REMARK       I    between atoms: N2_6  and  C2_8 
REMARK    5  A    between atoms: C2_8  and  C3_10 
REMARK    6  A    between atoms: C7_14  and  N3_15 
REMARK    7  A    between atoms: C11_23  and  O2_24 
REMARK    8  A    between atoms: C11_23  and  O3_26 
REMARK    9  A    between atoms: C12_28  and  C13_29 
REMARK   10  A    between atoms: C12_28  and  N6_34 
REMARK   11  A    between atoms: C13_29  and  O4_30 
REMARK   12  A    between atoms: C13_29  and  O5_32 
ROOT
HETATM    1  C1  UNL     1     -31.182   7.858 -26.143  1.00  0.00     0.293 C 
ENDROOT
BRANCH   1   2
HETATM    2  N1  UNL     1     -31.990   7.422 -27.211  1.00  0.00    -0.042 N 
ATOM      3  H13 UNL     1     -32.881   7.912 -27.287  1.00  0.00     0.278 HD
ATOM      4  H12 UNL     1     -31.640   7.682 -28.133  1.00  0.00     0.278 HD
ATOM      5  H11 UNL     1     -32.079   6.416 -27.066  1.00  0.00     0.278 HD
ENDBRANCH   1   2
BRANCH   1   6
HETATM    6  N2  UNL     1     -31.945   8.981 -25.538  1.00  0.00    -0.315 N 
HETATM    7  C2  UNL     1     -33.349   8.974 -25.412  1.00  0.00     0.254 C 
HETATM    8  O1  UNL     1     -34.056   8.030 -25.833  1.00  0.00    -0.268 OA
ATOM      9  H2  UNL     1     -31.430   9.793 -25.198  1.00  0.00     0.165 HD
BRANCH   7  10
HETATM   10  C3  UNL     1     -34.025  10.093 -24.775  1.00  0.00     0.034 A 
HETATM   11  C4  UNL     1     -34.227  11.304 -25.396  1.00  0.00     0.017 A 
HETATM   12  C5  UNL     1     -34.887  12.344 -24.737  1.00  0.00     0.003 A 
HETATM   13  C6  UNL     1     -35.352  12.179 -23.441  1.00  0.00     0.031 A 
HETATM   14  C7  UNL     1     -35.163  10.973 -22.793  1.00  0.00     0.058 A 
HETATM   15  C10 UNL     1     -34.512   9.989 -23.482  1.00  0.00     0.048 A 
BRANCH  14  16
HETATM   16  N3  UNL     1     -35.632  10.766 -21.453  1.00  0.00    -0.252 N 
HETATM   17  C8  UNL     1     -36.602  11.466 -20.819  1.00  0.00     0.136 A 
HETATM   18  C9  UNL     1     -36.760  10.973 -19.565  1.00  0.00     0.128 A 
HETATM   19  N4  UNL     1     -35.878   9.968 -19.437  1.00  0.00    -0.296 N 
HETATM   20  N5  UNL     1     -35.220   9.869 -20.579  1.00  0.00    -0.236 N 
ATOM     21  H4  UNL     1     -35.742   9.387 -18.609  1.00  0.00     0.187 HD
ATOM     22  H5  UNL     1     -34.486   9.184 -20.762  1.00  0.00     0.209 HD
ENDBRANCH  14  16
ENDBRANCH   7  10
ENDBRANCH   1   6
BRANCH   1  23
HETATM   23  C11 UNL     1     -29.957   8.593 -26.744  1.00  0.00     0.317 C 
BRANCH  23  24
HETATM   24  O2  UNL     1     -29.689   8.236 -28.030  1.00  0.00    -0.367 OA
ATOM     25  H2  UNL     1     -28.961   7.631 -28.110  1.00  0.00     0.212 HD
ENDBRANCH  23  24
BRANCH  23  26
HETATM   26  O3  UNL     1     -28.872   8.511 -25.886  1.00  0.00    -0.367 OA
ATOM     27  H3  UNL     1     -29.136   8.708 -24.995  1.00  0.00     0.212 HD
ENDBRANCH  23  26
ENDBRANCH   1  23
BRANCH   1  28
HETATM   28  C12 UNL     1     -30.718   6.897 -25.130  1.00  0.00     0.126 C 
BRANCH  28  29
HETATM   29  C13 UNL     1     -31.339   6.684 -23.827  1.00  0.00     0.307 C 
BRANCH  29  30
HETATM   30  O4  UNL     1     -32.685   6.350 -23.813  1.00  0.00    -0.366 OA
ATOM     31  H4  UNL     1     -33.163   6.509 -23.007  1.00  0.00     0.213 HD
ENDBRANCH  29  30
BRANCH  29  32
HETATM   32  O5  UNL     1     -30.615   5.874 -22.947  1.00  0.00    -0.366 OA
ATOM     33  H5  UNL     1     -30.657   6.130 -22.033  1.00  0.00     0.213 HD
ENDBRANCH  29  32
ENDBRANCH  28  29
BRANCH  28  34
HETATM   34  N6  UNL     1     -30.441   5.565 -25.714  1.00  0.00    -0.267 N 
HETATM   35  C14 UNL     1     -29.471   5.159 -26.537  1.00  0.00     0.117 A 
HETATM   36  C15 UNL     1     -29.605   3.801 -26.787  1.00  0.00     0.038 A 
HETATM   37  C16 UNL     1     -30.712   3.416 -26.067  1.00  0.00     0.109 A 
HETATM   38  N7  UNL     1     -31.177   4.510 -25.443  1.00  0.00    -0.306 N 
ATOM     39  H7  UNL     1     -31.996   4.522 -24.835  1.00  0.00     0.186 HD
ENDBRANCH  28  34
ENDBRANCH   1  28
TORSDOF 12
ENDMDL
MODEL 3
REMARK VINA RESULT: -7.727274433      1.983      3.382
REMARK  12 active torsions:
REMARK  status: ('A' for Active; 'I' for Inactive)
REMARK    1  A    between atoms: N1_1  and  C1_5 
REMARK    2  A    between atoms: C1_5  and  N2_6 
REMARK    3  A    between atoms: C1_5  and  C11_23 
REMARK    4  A    between atoms: C1_5  and  C12_28 
REMARK       I    between atoms: N2_6  and  C2_8 
REMARK    5  A    between atoms: C2_8  and  C3_10 
REMARK    6  A    between atoms: C7_14  and  N3_15 
REMARK    7  A    between atoms: C11_23  and  O2_24 
REMARK    8  A    between atoms: C11_23  and  O3_26 
REMARK    9  A    between atoms: C12_28  and  C13_29 
REMARK   10  A    between atoms: C12_28  and  N6_34 
REMARK   11  A    between atoms: C13_29  and  O4_30 
REMARK   12  A    between atoms: C13_29  and  O5_32 
ROOT
HETATM    1  C1  UNL     1     -29.948   7.856 -26.560  1.00  0.00     0.293 C 
ENDROOT
BRANCH   1   2
HETATM    2  N1  UNL     1     -28.853   7.224 -25.939  1.00  0.00    -0.042 N 
ATOM      3  H13 UNL     1     -28.070   7.036 -26.565  1.00  0.00     0.278 HD
ATOM      4  H12 UNL     1     -28.339   7.823 -25.293  1.00  0.00     0.278 HD
ATOM      5  H11 UNL     1     -29.252   6.390 -25.509  1.00  0.00     0.278 HD
ENDBRANCH   1   2
BRANCH   1   6
HETATM    6  N2  UNL     1     -29.984   7.271 -27.927  1.00  0.00    -0.315 N 
HETATM    7  C2  UNL     1     -29.796   5.897 -28.177  1.00  0.00     0.254 C 
HETATM    8  O1  UNL     1     -29.553   5.075 -27.265  1.00  0.00    -0.268 OA
ATOM      9  H2  UNL     1     -30.153   7.892 -28.718  1.00  0.00     0.165 HD
BRANCH   7  10
HETATM   10  C3  UNL     1     -29.882   5.391 -29.539  1.00  0.00     0.034 A 
HETATM   11  C4  UNL     1     -31.046   4.905 -30.090  1.00  0.00     0.017 A 
HETATM   12  C5  UNL     1     -31.071   4.435 -31.405  1.00  0.00     0.003 A 
HETATM   13  C6  UNL     1     -29.925   4.447 -32.185  1.00  0.00     0.031 A 
HETATM   14  C7  UNL     1     -28.742   4.931 -31.656  1.00  0.00     0.058 A 
HETATM   15  C10 UNL     1     -28.771   5.378 -30.366  1.00  0.00     0.048 A 
BRANCH  14  16
HETATM   16  N3  UNL     1     -27.537   4.959 -32.434  1.00  0.00    -0.252 N 
HETATM   17  C8  UNL     1     -27.435   4.794 -33.774  1.00  0.00     0.136 A 
HETATM   18  C9  UNL     1     -26.131   4.888 -34.137  1.00  0.00     0.128 A 
HETATM   19  N4  UNL     1     -25.437   5.112 -33.009  1.00  0.00    -0.296 N 
HETATM   20  N5  UNL     1     -26.303   5.149 -32.010  1.00  0.00    -0.236 N 
ATOM     21  H4  UNL     1     -24.427   5.231 -32.936  1.00  0.00     0.187 HD
ATOM     22  H5  UNL     1     -26.048   5.305 -31.034  1.00  0.00     0.209 HD
ENDBRANCH  14  16
ENDBRANCH   7  10
ENDBRANCH   1   6
BRANCH   1  23
HETATM   23  C11 UNL     1     -29.548   9.324 -26.853  1.00  0.00     0.317 C 
BRANCH  23  24
HETATM   24  O2  UNL     1     -28.375   9.692 -26.267  1.00  0.00    -0.367 OA
ATOM     25  H2  UNL     1     -28.117  10.585 -26.465  1.00  0.00     0.212 HD
ENDBRANCH  23  24
BRANCH  23  26
HETATM   26  O3  UNL     1     -30.609  10.177 -26.601  1.00  0.00    -0.367 OA
ATOM     27  H3  UNL     1     -30.300  11.066 -26.472  1.00  0.00     0.212 HD
ENDBRANCH  23  26
ENDBRANCH   1  23
BRANCH   1  28
HETATM   28  C12 UNL     1     -31.271   7.836 -25.917  1.00  0.00     0.126 C 
BRANCH  28  29
HETATM   29  C13 UNL     1     -32.549   7.805 -26.621  1.00  0.00     0.307 C 
BRANCH  29  30
HETATM   30  O4  UNL     1     -33.680   8.149 -25.896  1.00  0.00    -0.366 OA
ATOM     31  H4  UNL     1     -34.442   7.590 -25.991  1.00  0.00     0.213 HD
ENDBRANCH  29  30
BRANCH  29  32
HETATM   32  O5  UNL     1     -32.553   8.422 -27.876  1.00  0.00    -0.366 OA
ATOM     33  H5  UNL     1     -33.320   8.950 -28.065  1.00  0.00     0.213 HD
ENDBRANCH  29  32
ENDBRANCH  28  29
BRANCH  28  34
HETATM   34  N6  UNL     1     -31.342   6.840 -24.824  1.00  0.00    -0.267 N 
HETATM   35  C14 UNL     1     -31.455   7.003 -23.503  1.00  0.00     0.117 A 
HETATM   36  C15 UNL     1     -31.515   5.764 -22.881  1.00  0.00     0.038 A 
HETATM   37  C16 UNL     1     -31.432   4.850 -23.905  1.00  0.00     0.109 A 
HETATM   38  N7  UNL     1     -31.329   5.546 -25.049  1.00  0.00    -0.306 N 
ATOM     39  H7  UNL     1     -31.250   5.124 -25.974  1.00  0.00     0.186 HD
ENDBRANCH  28  34
ENDBRANCH   1  28
TORSDOF 12
ENDMDL
MODEL 4
REMARK VINA RESULT: -7.637952948      1.653      3.256
REMARK  12 active torsions:
REMARK  status: ('A' for Active; 'I' for Inactive)
REMARK    1  A    between atoms: N1_1  and  C1_5 
REMARK    2  A    between atoms: C1_5  and  N2_6 
REMARK    3  A    between atoms: C1_5  and  C11_23 
REMARK    4  A    between atoms: C1_5  and  C12_28 
REMARK       I    between atoms: N2_6  and  C2_8 
REMARK    5  A    between atoms: C2_8  and  C3_10 
REMARK    6  A    between atoms: C7_14  and  N3_15 
REMARK    7  A    between atoms: C11_23  and  O2_24 
REMARK    8  A    between atoms: C11_23  and  O3_26 
REMARK    9  A    between atoms: C12_28  and  C13_29 
REMARK   10  A    between atoms: C12_28  and  N6_34 
REMARK   11  A    between atoms: C13_29  and  O4_30 
REMARK   12  A    between atoms: C13_29  and  O5_32 
ROOT
HETATM    1  C1  UNL     1     -29.867   6.400 -26.472  1.00  0.00     0.293 C 
ENDROOT
BRANCH   1   2
HETATM    2  N1  UNL     1     -28.518   6.134 -26.166  1.00  0.00    -0.042 N 
ATOM      3  H13 UNL     1     -28.012   5.643 -26.902  1.00  0.00     0.278 HD
ATOM      4  H12 UNL     1     -27.922   6.962 -26.152  1.00  0.00     0.278 HD
ATOM      5  H11 UNL     1     -28.555   5.631 -25.279  1.00  0.00     0.278 HD
ENDBRANCH   1   2
BRANCH   1   6
HETATM    6  N2  UNL     1     -29.965   6.169 -27.938  1.00  0.00    -0.315 N 
HETATM    7  C2  UNL     1     -29.371   5.063 -28.580  1.00  0.00     0.254 C 
HETATM    8  O1  UNL     1     -28.691   4.213 -27.962  1.00  0.00    -0.268 OA
ATOM      9  H2  UNL     1     -30.484   6.840 -28.504  1.00  0.00     0.165 HD
BRANCH   7  10
HETATM   10  C3  UNL     1     -29.541   4.882 -30.013  1.00  0.00     0.034 A 
HETATM   11  C4  UNL     1     -30.760   4.637 -30.603  1.00  0.00     0.017 A 
HETATM   12  C5  UNL     1     -30.864   4.475 -31.986  1.00  0.00     0.003 A 
HETATM   13  C6  UNL     1     -29.742   4.557 -32.797  1.00  0.00     0.031 A 
HETATM   14  C7  UNL     1     -28.504   4.803 -32.231  1.00  0.00     0.058 A 
HETATM   15  C10 UNL     1     -28.457   4.953 -30.873  1.00  0.00     0.048 A 
BRANCH  14  16
HETATM   16  N3  UNL     1     -27.322   4.895 -33.038  1.00  0.00    -0.252 N 
HETATM   17  C8  UNL     1     -27.257   4.815 -34.388  1.00  0.00     0.136 A 
HETATM   18  C9  UNL     1     -25.964   4.948 -34.780  1.00  0.00     0.128 A 
HETATM   19  N4  UNL     1     -25.241   5.108 -33.660  1.00  0.00    -0.296 N 
HETATM   20  N5  UNL     1     -26.078   5.072 -32.637  1.00  0.00    -0.236 N 
ATOM     21  H4  UNL     1     -24.230   5.235 -33.608  1.00  0.00     0.187 HD
ATOM     22  H5  UNL     1     -25.798   5.170 -31.661  1.00  0.00     0.209 HD
ENDBRANCH  14  16
ENDBRANCH   7  10
ENDBRANCH   1   6
BRANCH   1  23
HETATM   23  C11 UNL     1     -30.083   7.932 -26.377  1.00  0.00     0.317 C 
BRANCH  23  24
HETATM   24  O2  UNL     1     -30.753   8.451 -27.443  1.00  0.00    -0.367 OA
ATOM     25  H2  UNL     1     -30.185   8.683 -28.169  1.00  0.00     0.212 HD
ENDBRANCH  23  24
BRANCH  23  26
HETATM   26  O3  UNL     1     -28.893   8.573 -26.077  1.00  0.00    -0.367 OA
ATOM     27  H3  UNL     1     -28.782   8.648 -25.136  1.00  0.00     0.212 HD
ENDBRANCH  23  26
ENDBRANCH   1  23
BRANCH   1  28
HETATM   28  C12 UNL     1     -30.939   5.715 -25.733  1.00  0.00     0.126 C 
BRANCH  28  29
HETATM   29  C13 UNL     1     -30.812   4.420 -25.075  1.00  0.00     0.307 C 
BRANCH  29  30
HETATM   30  O4  UNL     1     -31.929   3.598 -25.073  1.00  0.00    -0.366 OA
ATOM     31  H4  UNL     1     -32.307   3.382 -24.228  1.00  0.00     0.213 HD
ENDBRANCH  29  30
BRANCH  29  32
HETATM   32  O5  UNL     1     -29.661   3.696 -25.398  1.00  0.00    -0.366 OA
ATOM     33  H5  UNL     1     -29.094   3.486 -24.665  1.00  0.00     0.213 HD
ENDBRANCH  29  32
ENDBRANCH  28  29
BRANCH  28  34
HETATM   34  N6  UNL     1     -31.635   6.625 -24.795  1.00  0.00    -0.267 N 
HETATM   35  C14 UNL     1     -31.466   6.821 -23.485  1.00  0.00     0.117 A 
HETATM   36  C15 UNL     1     -32.335   7.807 -23.041  1.00  0.00     0.038 A 
HETATM   37  C16 UNL     1     -33.035   8.190 -24.161  1.00  0.00     0.109 A 
HETATM   38  N7  UNL     1     -32.579   7.451 -25.185  1.00  0.00    -0.306 N 
ATOM     39  H7  UNL     1     -32.921   7.522 -26.144  1.00  0.00     0.186 HD
ENDBRANCH  28  34
ENDBRANCH   1  28
TORSDOF 12
ENDMDL
MODEL 5
REMARK VINA RESULT: -7.494895457      1.997      3.601
REMARK  12 active torsions:
REMARK  status: ('A' for Active; 'I' for Inactive)
REMARK    1  A    between atoms: N1_1  and  C1_5 
REMARK    2  A    between atoms: C1_5  and  N2_6 
REMARK    3  A    between atoms: C1_5  and  C11_23 
REMARK    4  A    between atoms: C1_5  and  C12_28 
REMARK       I    between atoms: N2_6  and  C2_8 
REMARK    5  A    between atoms: C2_8  and  C3_10 
REMARK    6  A    between atoms: C7_14  and  N3_15 
REMARK    7  A    between atoms: C11_23  and  O2_24 
REMARK    8  A    between atoms: C11_23  and  O3_26 
REMARK    9  A    between atoms: C12_28  and  C13_29 
REMARK   10  A    between atoms: C12_28  and  N6_34 
REMARK   11  A    between atoms: C13_29  and  O4_30 
REMARK   12  A    between atoms: C13_29  and  O5_32 
ROOT
HETATM    1  C1  UNL     1     -30.336   7.756 -26.748  1.00  0.00     0.293 C 
ENDROOT
BRANCH   1   2
HETATM    2  N1  UNL     1     -29.002   7.670 -26.304  1.00  0.00    -0.042 N 
ATOM      3  H13 UNL     1     -28.806   6.853 -25.727  1.00  0.00     0.278 HD
ATOM      4  H12 UNL     1     -28.331   7.452 -27.040  1.00  0.00     0.278 HD
ATOM      5  H11 UNL     1     -28.833   8.561 -25.836  1.00  0.00     0.278 HD
ENDBRANCH   1   2
BRANCH   1   6
HETATM    6  N2  UNL     1     -30.315   7.139 -28.100  1.00  0.00    -0.315 N 
HETATM    7  C2  UNL     1     -29.818   5.842 -28.342  1.00  0.00     0.254 C 
HETATM    8  O1  UNL     1     -29.328   5.130 -27.436  1.00  0.00    -0.268 OA
ATOM      9  H2  UNL     1     -30.677   7.677 -28.887  1.00  0.00     0.165 HD
BRANCH   7  10
HETATM   10  C3  UNL     1     -29.864   5.289 -29.687  1.00  0.00     0.034 A 
HETATM   11  C4  UNL     1     -30.989   4.707 -30.224  1.00  0.00     0.017 A 
HETATM   12  C5  UNL     1     -30.977   4.196 -31.524  1.00  0.00     0.003 A 
HETATM   13  C6  UNL     1     -29.831   4.262 -32.302  1.00  0.00     0.031 A 
HETATM   14  C7  UNL     1     -28.686   4.842 -31.787  1.00  0.00     0.058 A 
HETATM   15  C10 UNL     1     -28.751   5.327 -30.511  1.00  0.00     0.048 A 
BRANCH  14  16
HETATM   16  N3  UNL     1     -27.483   4.928 -32.563  1.00  0.00    -0.252 N 
HETATM   17  C8  UNL     1     -27.381   4.837 -33.910  1.00  0.00     0.136 A 
HETATM   18  C9  UNL     1     -26.079   4.968 -34.268  1.00  0.00     0.128 A 
HETATM   19  N4  UNL     1     -25.386   5.140 -33.130  1.00  0.00    -0.296 N 
HETATM   20  N5  UNL     1     -26.251   5.112 -32.130  1.00  0.00    -0.236 N 
ATOM     21  H4  UNL     1     -24.377   5.269 -33.052  1.00  0.00     0.187 HD
ATOM     22  H5  UNL     1     -25.997   5.219 -31.148  1.00  0.00     0.209 HD
ENDBRANCH  14  16
ENDBRANCH   7  10
ENDBRANCH   1   6
BRANCH   1  23
HETATM   23  C11 UNL     1     -30.632   9.240 -27.080  1.00  0.00     0.317 C 
BRANCH  23  24
HETATM   24  O2  UNL     1     -30.887   9.459 -28.400  1.00  0.00    -0.367 OA
ATOM     25  H2  UNL     1     -31.619  10.045 -28.551  1.00  0.00     0.212 HD
ENDBRANCH  23  24
BRANCH  23  26
HETATM   26  O3  UNL     1     -29.659  10.064 -26.538  1.00  0.00    -0.367 OA
ATOM     27  H3  UNL     1     -29.941  10.971 -26.557  1.00  0.00     0.212 HD
ENDBRANCH  23  26
ENDBRANCH   1  23
BRANCH   1  28
HETATM   28  C12 UNL     1     -31.425   7.222 -25.914  1.00  0.00     0.126 C 
BRANCH  28  29
HETATM   29  C13 UNL     1     -31.250   6.530 -24.643  1.00  0.00     0.307 C 
BRANCH  29  30
HETATM   30  O4  UNL     1     -32.396   6.229 -23.922  1.00  0.00    -0.366 OA
ATOM     31  H4  UNL     1     -32.957   6.955 -23.677  1.00  0.00     0.213 HD
ENDBRANCH  29  30
BRANCH  29  32
HETATM   32  O5  UNL     1     -30.378   5.437 -24.673  1.00  0.00    -0.366 OA
ATOM     33  H5  UNL     1     -30.041   5.212 -25.533  1.00  0.00     0.213 HD
ENDBRANCH  29  32
ENDBRANCH  28  29
BRANCH  28  34
HETATM   34  N6  UNL     1     -32.522   8.202 -25.740  1.00  0.00    -0.267 N 
HETATM   35  C14 UNL     1     -33.537   8.526 -26.544  1.00  0.00     0.117 A 
HETATM   36  C15 UNL     1     -34.334   9.483 -25.933  1.00  0.00     0.038 A 
HETATM   37  C16 UNL     1     -33.737   9.715 -24.716  1.00  0.00     0.109 A 
HETATM   38  N7  UNL     1     -32.654   8.923 -24.649  1.00  0.00    -0.306 N 
ATOM     39  H7  UNL     1     -32.016   8.886 -23.854  1.00  0.00     0.186 HD
ENDBRANCH  28  34
ENDBRANCH   1  28
TORSDOF 12
ENDMDL
