MODEL 1
REMARK VINA RESULT: -7.589191144      0.000      0.000
REMARK  10 active torsions:
REMARK  status: ('A' for Active; 'I' for Inactive)
REMARK       I    between atoms: C1_4  and  N2_5 
REMARK       I    between atoms: C1_4  and  N5_31 
REMARK    1  A    between atoms: N2_5  and  N3_7 
REMARK    2  A    between atoms: C2_9  and  C3_10 
REMARK    3  A    between atoms: C2_9  and  C4_13 
REMARK    4  A    between atoms: C4_13  and  O2_14 
REMARK    5  A    between atoms: C4_13  and  S1_16 
REMARK    6  A    between atoms: S1_16  and  C5_19 
REMARK    7  A    between atoms: C7_21  and  O5_22 
REMARK    8  A    between atoms: C8_24  and  O6_25 
REMARK    9  A    between atoms: C9_27  and  O7_28 
REMARK   10  A    between atoms: N5_31  and  N6_33 
ROOT
HETATM    1  C4  UNL     1     -30.913   8.485 -26.822  1.00  0.00     0.301 C 
ENDROOT
BRANCH   1   2
HETATM    2  C2  UNL     1     -31.382   7.656 -25.692  1.00  0.00     0.135 C 
HETATM    3  N3  UNL     1     -31.057   6.422 -25.545  1.00  0.00    -0.282 N 
ATOM      4  H3  UNL     1     -31.437   5.965 -24.717  1.00  0.00     0.187 HD
BRANCH   3   5
HETATM    5  N2  UNL     1     -30.273   5.635 -26.342  1.00  0.00    -0.131 N 
HETATM    6  C1  UNL     1     -30.106   4.261 -26.048  1.00  0.00     0.709 C 
HETATM    7  N1  UNL     1     -28.988   3.630 -26.142  1.00  0.00    -0.232 N 
HETATM    8  N5  UNL     1     -31.247   3.512 -25.616  1.00  0.00    -0.071 N 
ATOM      9  H12 UNL     1     -28.175   4.163 -26.449  1.00  0.00     0.174 HD
ATOM     10  H11 UNL     1     -28.868   2.639 -25.930  1.00  0.00     0.174 HD
ATOM     11  H5  UNL     1     -31.966   3.250 -26.291  1.00  0.00     0.212 HD
ATOM     12  H2  UNL     1     -29.805   6.041 -27.153  1.00  0.00     0.205 HD
BRANCH   8  13
HETATM   13  N6  UNL     1     -31.382   3.138 -24.277  1.00  0.00    -0.024 N 
HETATM   14  O8  UNL     1     -32.028   2.111 -23.979  1.00  0.00    -0.516 OA
HETATM   15  O9  UNL     1     -30.799   3.909 -23.309  1.00  0.00    -0.516 OA
ENDBRANCH   8  13
ENDBRANCH   3   5
BRANCH   2  16
HETATM   16  C3  UNL     1     -32.255   8.193 -24.627  1.00  0.00     0.282 C 
HETATM   17  N4  UNL     1     -33.247   9.161 -24.814  1.00  0.00    -0.056 NA
HETATM   18  O1  UNL     1     -32.096   7.741 -23.450  1.00  0.00    -0.270 OA
ENDBRANCH   2  16
ENDBRANCH   1   2
BRANCH   1  19
HETATM   19  O2  UNL     1     -31.063   9.834 -26.445  1.00  0.00    -0.374 OA
ATOM     20  H2  UNL     1     -30.440  10.341 -26.951  1.00  0.00     0.211 HD
ENDBRANCH   1  19
BRANCH   1  21
HETATM   21  S1  UNL     1     -31.911   8.164 -28.254  1.00  0.00     0.208 S 
HETATM   22  O3  UNL     1     -32.201   9.379 -29.066  1.00  0.00    -0.220 OA
HETATM   23  O4  UNL     1     -33.162   7.457 -27.832  1.00  0.00    -0.220 OA
BRANCH  21  24
HETATM   24  C5  UNL     1     -31.054   7.031 -29.317  1.00  0.00     0.067 A 
HETATM   25  C6  UNL     1     -29.680   6.964 -29.331  1.00  0.00     0.063 A 
HETATM   26  C7  UNL     1     -29.031   6.067 -30.172  1.00  0.00     0.103 A 
HETATM   27  C8  UNL     1     -29.755   5.218 -31.020  1.00  0.00     0.132 A 
HETATM   28  C9  UNL     1     -31.127   5.294 -30.996  1.00  0.00     0.103 A 
HETATM   29  C10 UNL     1     -31.748   6.206 -30.140  1.00  0.00     0.063 A 
BRANCH  26  30
HETATM   30  O5  UNL     1     -27.643   5.987 -30.200  1.00  0.00    -0.358 OA
ATOM     31  H5  UNL     1     -27.174   5.417 -29.601  1.00  0.00     0.217 HD
ENDBRANCH  26  30
BRANCH  27  32
HETATM   32  O6  UNL     1     -29.033   4.353 -31.828  1.00  0.00    -0.356 OA
ATOM     33  H6  UNL     1     -28.812   3.501 -31.470  1.00  0.00     0.218 HD
ENDBRANCH  27  32
BRANCH  28  34
HETATM   34  O7  UNL     1     -31.859   4.468 -31.821  1.00  0.00    -0.358 OA
ATOM     35  H7  UNL     1     -32.489   4.852 -32.419  1.00  0.00     0.217 HD
ENDBRANCH  28  34
ENDBRANCH  21  24
ENDBRANCH   1  21
TORSDOF 10
ENDMDL
MODEL 2
REMARK VINA RESULT: -7.568410911      0.160      1.622
REMARK  10 active torsions:
REMARK  status: ('A' for Active; 'I' for Inactive)
REMARK       I    between atoms: C1_4  and  N2_5 
REMARK       I    between atoms: C1_4  and  N5_31 
REMARK    1  A    between atoms: N2_5  and  N3_7 
REMARK    2  A    between atoms: C2_9  and  C3_10 
REMARK    3  A    between atoms: C2_9  and  C4_13 
REMARK    4  A    between atoms: C4_13  and  O2_14 
REMARK    5  A    between atoms: C4_13  and  S1_16 
REMARK    6  A    between atoms: S1_16  and  C5_19 
REMARK    7  A    between atoms: C7_21  and  O5_22 
REMARK    8  A    between atoms: C8_24  and  O6_25 
REMARK    9  A    between atoms: C9_27  and  O7_28 
REMARK   10  A    between atoms: N5_31  and  N6_33 
ROOT
HETATM    1  C4  UNL     1     -30.780   8.511 -26.936  1.00  0.00     0.301 C 
ENDROOT
BRANCH   1   2
HETATM    2  C2  UNL     1     -31.319   7.695 -25.827  1.00  0.00     0.135 C 
HETATM    3  N3  UNL     1     -31.041   6.451 -25.672  1.00  0.00    -0.282 N 
ATOM      4  H3  UNL     1     -31.468   6.006 -24.860  1.00  0.00     0.187 HD
BRANCH   3   5
HETATM    5  N2  UNL     1     -30.254   5.640 -26.440  1.00  0.00    -0.131 N 
HETATM    6  C1  UNL     1     -30.094   4.273 -26.107  1.00  0.00     0.709 C 
HETATM    7  N1  UNL     1     -28.977   3.638 -26.175  1.00  0.00    -0.232 N 
HETATM    8  N5  UNL     1     -31.241   3.541 -25.664  1.00  0.00    -0.071 N 
ATOM      9  H12 UNL     1     -28.160   4.159 -26.491  1.00  0.00     0.174 HD
ATOM     10  H11 UNL     1     -28.862   2.652 -25.935  1.00  0.00     0.174 HD
ATOM     11  H5  UNL     1     -31.955   3.262 -26.336  1.00  0.00     0.212 HD
ATOM     12  H2  UNL     1     -29.779   6.021 -27.259  1.00  0.00     0.205 HD
BRANCH   8  13
HETATM   13  N6  UNL     1     -31.387   3.204 -24.316  1.00  0.00    -0.024 N 
HETATM   14  O8  UNL     1     -32.014   2.173 -23.995  1.00  0.00    -0.516 OA
HETATM   15  O9  UNL     1     -30.834   4.017 -23.364  1.00  0.00    -0.516 OA
ENDBRANCH   8  13
ENDBRANCH   3   5
BRANCH   2  16
HETATM   16  C3  UNL     1     -32.214   8.260 -24.795  1.00  0.00     0.282 C 
HETATM   17  N4  UNL     1     -33.151   9.275 -25.012  1.00  0.00    -0.056 NA
HETATM   18  O1  UNL     1     -32.130   7.785 -23.619  1.00  0.00    -0.270 OA
ENDBRANCH   2  16
ENDBRANCH   1   2
BRANCH   1  19
HETATM   19  O2  UNL     1     -30.865   9.861 -26.545  1.00  0.00    -0.374 OA
ATOM     20  H2  UNL     1     -30.275  10.355 -27.101  1.00  0.00     0.211 HD
ENDBRANCH   1  19
BRANCH   1  21
HETATM   21  S1  UNL     1     -31.760   8.261 -28.394  1.00  0.00     0.208 S 
HETATM   22  O3  UNL     1     -31.935   9.491 -29.216  1.00  0.00    -0.220 OA
HETATM   23  O4  UNL     1     -33.071   7.652 -28.005  1.00  0.00    -0.220 OA
BRANCH  21  24
HETATM   24  C5  UNL     1     -30.962   7.063 -29.432  1.00  0.00     0.067 A 
HETATM   25  C6  UNL     1     -31.689   6.229 -30.250  1.00  0.00     0.063 A 
HETATM   26  C7  UNL     1     -31.040   5.299 -31.055  1.00  0.00     0.103 A 
HETATM   27  C8  UNL     1     -29.643   5.188 -31.052  1.00  0.00     0.132 A 
HETATM   28  C9  UNL     1     -28.929   6.027 -30.230  1.00  0.00     0.103 A 
HETATM   29  C10 UNL     1     -29.610   6.951 -29.434  1.00  0.00     0.063 A 
BRANCH  26  30
HETATM   30  O5  UNL     1     -31.759   4.448 -31.888  1.00  0.00    -0.358 OA
ATOM     31  H5  UNL     1     -31.768   3.509 -31.739  1.00  0.00     0.217 HD
ENDBRANCH  26  30
BRANCH  27  32
HETATM   32  O6  UNL     1     -29.074   4.236 -31.883  1.00  0.00    -0.356 OA
ATOM     33  H6  UNL     1     -28.296   4.485 -32.368  1.00  0.00     0.218 HD
ENDBRANCH  27  32
BRANCH  28  34
HETATM   34  O7  UNL     1     -27.554   5.937 -30.211  1.00  0.00    -0.358 OA
ATOM     35  H7  UNL     1     -27.063   6.183 -30.987  1.00  0.00     0.217 HD
ENDBRANCH  28  34
ENDBRANCH  21  24
ENDBRANCH   1  21
TORSDOF 10
ENDMDL
MODEL 3
REMARK VINA RESULT: -7.489474078      1.423      2.335
REMARK  10 active torsions:
REMARK  status: ('A' for Active; 'I' for Inactive)
REMARK       I    between atoms: C1_4  and  N2_5 
REMARK       I    between atoms: C1_4  and  N5_31 
REMARK    1  A    between atoms: N2_5  and  N3_7 
REMARK    2  A    between atoms: C2_9  and  C3_10 
REMARK    3  A    between atoms: C2_9  and  C4_13 
REMARK    4  A    between atoms: C4_13  and  O2_14 
REMARK    5  A    between atoms: C4_13  and  S1_16 
REMARK    6  A    between atoms: S1_16  and  C5_19 
REMARK    7  A    between atoms: C7_21  and  O5_22 
REMARK    8  A    between atoms: C8_24  and  O6_25 
REMARK    9  A    between atoms: C9_27  and  O7_28 
REMARK   10  A    between atoms: N5_31  and  N6_33 
ROOT
HETATM    1  C4  UNL     1     -30.812   7.752 -28.516  1.00  0.00     0.301 C 
ENDROOT
BRANCH   1   2
HETATM    2  C2  UNL     1     -30.919   7.504 -27.063  1.00  0.00     0.135 C 
HETATM    3  N3  UNL     1     -30.286   6.562 -26.464  1.00  0.00    -0.282 N 
ATOM      4  H3  UNL     1     -30.438   6.504 -25.457  1.00  0.00     0.187 HD
BRANCH   3   5
HETATM    5  N2  UNL     1     -29.438   5.624 -26.984  1.00  0.00    -0.131 N 
HETATM    6  C1  UNL     1     -29.476   4.288 -26.518  1.00  0.00     0.709 C 
HETATM    7  N1  UNL     1     -28.432   3.568 -26.301  1.00  0.00    -0.232 N 
HETATM    8  N5  UNL     1     -30.751   3.688 -26.269  1.00  0.00    -0.071 N 
ATOM      9  H12 UNL     1     -27.523   3.995 -26.479  1.00  0.00     0.174 HD
ATOM     10  H11 UNL     1     -28.459   2.604 -25.966  1.00  0.00     0.174 HD
ATOM     11  H5  UNL     1     -31.338   3.401 -27.051  1.00  0.00     0.212 HD
ATOM     12  H2  UNL     1     -28.775   5.889 -27.713  1.00  0.00     0.205 HD
BRANCH   8  13
HETATM   13  N6  UNL     1     -31.197   3.494 -24.959  1.00  0.00    -0.024 N 
HETATM   14  O8  UNL     1     -31.946   2.532 -24.692  1.00  0.00    -0.516 OA
HETATM   15  O9  UNL     1     -30.800   4.369 -23.985  1.00  0.00    -0.516 OA
ENDBRANCH   8  13
ENDBRANCH   3   5
BRANCH   2  16
HETATM   16  C3  UNL     1     -31.759   8.341 -26.179  1.00  0.00     0.282 C 
HETATM   17  N4  UNL     1     -32.913   7.906 -25.518  1.00  0.00    -0.056 NA
HETATM   18  O1  UNL     1     -31.406   9.549 -26.002  1.00  0.00    -0.270 OA
ENDBRANCH   2  16
ENDBRANCH   1   2
BRANCH   1  19
HETATM   19  O2  UNL     1     -31.302   9.050 -28.759  1.00  0.00    -0.374 OA
ATOM     20  H2  UNL     1     -30.869   9.635 -28.148  1.00  0.00     0.211 HD
ENDBRANCH   1  19
BRANCH   1  21
HETATM   21  S1  UNL     1     -31.807   6.577 -29.399  1.00  0.00     0.208 S 
HETATM   22  O3  UNL     1     -33.005   7.177 -30.051  1.00  0.00    -0.220 OA
HETATM   23  O4  UNL     1     -32.171   5.454 -28.478  1.00  0.00    -0.220 OA
BRANCH  21  24
HETATM   24  C5  UNL     1     -30.834   5.845 -30.690  1.00  0.00     0.067 A 
HETATM   25  C6  UNL     1     -31.339   5.683 -31.960  1.00  0.00     0.063 A 
HETATM   26  C7  UNL     1     -30.556   5.107 -32.954  1.00  0.00     0.103 A 
HETATM   27  C8  UNL     1     -29.247   4.682 -32.690  1.00  0.00     0.132 A 
HETATM   28  C9  UNL     1     -28.756   4.851 -31.418  1.00  0.00     0.103 A 
HETATM   29  C10 UNL     1     -29.567   5.432 -30.441  1.00  0.00     0.063 A 
BRANCH  26  30
HETATM   30  O5  UNL     1     -31.049   4.935 -34.243  1.00  0.00    -0.358 OA
ATOM     31  H5  UNL     1     -30.483   5.027 -35.001  1.00  0.00     0.217 HD
ENDBRANCH  26  30
BRANCH  27  32
HETATM   32  O6  UNL     1     -28.533   4.119 -33.736  1.00  0.00    -0.356 OA
ATOM     33  H6  UNL     1     -27.914   3.430 -33.525  1.00  0.00     0.218 HD
ENDBRANCH  27  32
BRANCH  28  34
HETATM   34  O7  UNL     1     -27.471   4.441 -31.135  1.00  0.00    -0.358 OA
ATOM     35  H7  UNL     1     -27.225   3.539 -31.307  1.00  0.00     0.217 HD
ENDBRANCH  28  34
ENDBRANCH  21  24
ENDBRANCH   1  21
TORSDOF 10
ENDMDL
MODEL 4
REMARK VINA RESULT: -7.479929240      1.407      1.758
REMARK  10 active torsions:
REMARK  status: ('A' for Active; 'I' for Inactive)
REMARK       I    between atoms: C1_4  and  N2_5 
REMARK       I    between atoms: C1_4  and  N5_31 
REMARK    1  A    between atoms: N2_5  and  N3_7 
REMARK    2  A    between atoms: C2_9  and  C3_10 
REMARK    3  A    between atoms: C2_9  and  C4_13 
REMARK    4  A    between atoms: C4_13  and  O2_14 
REMARK    5  A    between atoms: C4_13  and  S1_16 
REMARK    6  A    between atoms: S1_16  and  C5_19 
REMARK    7  A    between atoms: C7_21  and  O5_22 
REMARK    8  A    between atoms: C8_24  and  O6_25 
REMARK    9  A    between atoms: C9_27  and  O7_28 
REMARK   10  A    between atoms: N5_31  and  N6_33 
ROOT
HETATM    1  C4  UNL     1     -30.818   7.783 -28.484  1.00  0.00     0.301 C 
ENDROOT
BRANCH   1   2
HETATM    2  C2  UNL     1     -30.929   7.529 -27.031  1.00  0.00     0.135 C 
HETATM    3  N3  UNL     1     -30.293   6.588 -26.433  1.00  0.00    -0.282 N 
ATOM      4  H3  UNL     1     -30.448   6.526 -25.428  1.00  0.00     0.187 HD
BRANCH   3   5
HETATM    5  N2  UNL     1     -29.438   5.657 -26.954  1.00  0.00    -0.131 N 
HETATM    6  C1  UNL     1     -29.474   4.317 -26.499  1.00  0.00     0.709 C 
HETATM    7  N1  UNL     1     -28.429   3.599 -26.279  1.00  0.00    -0.232 N 
HETATM    8  N5  UNL     1     -30.749   3.711 -26.264  1.00  0.00    -0.071 N 
ATOM      9  H12 UNL     1     -27.521   4.030 -26.447  1.00  0.00     0.174 HD
ATOM     10  H11 UNL     1     -28.456   2.633 -25.951  1.00  0.00     0.174 HD
ATOM     11  H5  UNL     1     -31.329   3.428 -27.053  1.00  0.00     0.212 HD
ATOM     12  H2  UNL     1     -28.769   5.930 -27.676  1.00  0.00     0.205 HD
BRANCH   8  13
HETATM   13  N6  UNL     1     -31.205   3.506 -24.959  1.00  0.00    -0.024 N 
HETATM   14  O8  UNL     1     -31.973   2.554 -24.710  1.00  0.00    -0.516 OA
HETATM   15  O9  UNL     1     -30.796   4.359 -23.970  1.00  0.00    -0.516 OA
ENDBRANCH   8  13
ENDBRANCH   3   5
BRANCH   2  16
HETATM   16  C3  UNL     1     -31.776   8.357 -26.148  1.00  0.00     0.282 C 
HETATM   17  N4  UNL     1     -32.978   7.941 -25.565  1.00  0.00    -0.056 NA
HETATM   18  O1  UNL     1     -31.384   9.539 -25.894  1.00  0.00    -0.270 OA
ENDBRANCH   2  16
ENDBRANCH   1   2
BRANCH   1  19
HETATM   19  O2  UNL     1     -31.306   9.083 -28.722  1.00  0.00    -0.374 OA
ATOM     20  H2  UNL     1     -32.251   9.021 -28.798  1.00  0.00     0.211 HD
ENDBRANCH   1  19
BRANCH   1  21
HETATM   21  S1  UNL     1     -31.810   6.612 -29.374  1.00  0.00     0.208 S 
HETATM   22  O3  UNL     1     -32.991   7.220 -30.050  1.00  0.00    -0.220 OA
HETATM   23  O4  UNL     1     -32.201   5.499 -28.451  1.00  0.00    -0.220 OA
BRANCH  21  24
HETATM   24  C5  UNL     1     -30.825   5.861 -30.644  1.00  0.00     0.067 A 
HETATM   25  C6  UNL     1     -29.532   5.458 -30.400  1.00  0.00     0.063 A 
HETATM   26  C7  UNL     1     -28.780   4.871 -31.412  1.00  0.00     0.103 A 
HETATM   27  C8  UNL     1     -29.315   4.679 -32.693  1.00  0.00     0.132 A 
HETATM   28  C9  UNL     1     -30.608   5.086 -32.922  1.00  0.00     0.103 A 
HETATM   29  C10 UNL     1     -31.337   5.672 -31.885  1.00  0.00     0.063 A 
BRANCH  26  30
HETATM   30  O5  UNL     1     -27.471   4.458 -31.184  1.00  0.00    -0.358 OA
ATOM     31  H5  UNL     1     -27.238   3.537 -31.209  1.00  0.00     0.217 HD
ENDBRANCH  26  30
BRANCH  27  32
HETATM   32  O6  UNL     1     -28.500   4.087 -33.645  1.00  0.00    -0.356 OA
ATOM     33  H6  UNL     1     -28.678   4.282 -34.558  1.00  0.00     0.218 HD
ENDBRANCH  27  32
BRANCH  28  34
HETATM   34  O7  UNL     1     -31.155   4.906 -34.174  1.00  0.00    -0.358 OA
ATOM     35  H7  UNL     1     -31.236   5.653 -34.755  1.00  0.00     0.217 HD
ENDBRANCH  28  34
ENDBRANCH  21  24
ENDBRANCH   1  21
TORSDOF 10
ENDMDL
MODEL 5
REMARK VINA RESULT: -7.248580698      2.825      4.265
REMARK  10 active torsions:
REMARK  status: ('A' for Active; 'I' for Inactive)
REMARK       I    between atoms: C1_4  and  N2_5 
REMARK       I    between atoms: C1_4  and  N5_31 
REMARK    1  A    between atoms: N2_5  and  N3_7 
REMARK    2  A    between atoms: C2_9  and  C3_10 
REMARK    3  A    between atoms: C2_9  and  C4_13 
REMARK    4  A    between atoms: C4_13  and  O2_14 
REMARK    5  A    between atoms: C4_13  and  S1_16 
REMARK    6  A    between atoms: S1_16  and  C5_19 
REMARK    7  A    between atoms: C7_21  and  O5_22 
REMARK    8  A    between atoms: C8_24  and  O6_25 
REMARK    9  A    between atoms: C9_27  and  O7_28 
REMARK   10  A    between atoms: N5_31  and  N6_33 
ROOT
HETATM    1  C4  UNL     1     -31.222   6.235 -30.908  1.00  0.00     0.301 C 
ENDROOT
BRANCH   1   2
HETATM    2  C2  UNL     1     -31.939   5.891 -29.662  1.00  0.00     0.135 C 
HETATM    3  N3  UNL     1     -31.349   5.444 -28.613  1.00  0.00    -0.282 N 
ATOM      4  H3  UNL     1     -31.957   5.256 -27.816  1.00  0.00     0.187 HD
BRANCH   3   5
HETATM    5  N2  UNL     1     -30.022   5.186 -28.413  1.00  0.00    -0.131 N 
HETATM    6  C1  UNL     1     -29.583   4.584 -27.209  1.00  0.00     0.709 C 
HETATM    7  N1  UNL     1     -28.520   4.932 -26.572  1.00  0.00    -0.232 N 
HETATM    8  N5  UNL     1     -30.363   3.520 -26.654  1.00  0.00    -0.071 N 
ATOM      9  H12 UNL     1     -27.965   5.690 -26.967  1.00  0.00     0.174 HD
ATOM     10  H11 UNL     1     -28.204   4.499 -25.704  1.00  0.00     0.174 HD
ATOM     11  H5  UNL     1     -30.342   2.597 -27.088  1.00  0.00     0.212 HD
ATOM     12  H2  UNL     1     -29.344   5.427 -29.136  1.00  0.00     0.205 HD
BRANCH   8  13
HETATM   13  N6  UNL     1     -31.152   3.738 -25.523  1.00  0.00    -0.024 N 
HETATM   14  O8  UNL     1     -31.171   4.864 -24.983  1.00  0.00    -0.516 OA
HETATM   15  O9  UNL     1     -31.897   2.705 -25.022  1.00  0.00    -0.516 OA
ENDBRANCH   8  13
ENDBRANCH   3   5
BRANCH   2  16
HETATM   16  C3  UNL     1     -33.402   6.052 -29.524  1.00  0.00     0.282 C 
HETATM   17  N4  UNL     1     -34.361   5.368 -30.278  1.00  0.00    -0.056 NA
HETATM   18  O1  UNL     1     -33.825   6.872 -28.650  1.00  0.00    -0.270 OA
ENDBRANCH   2  16
ENDBRANCH   1   2
BRANCH   1  19
HETATM   19  O2  UNL     1     -32.064   7.078 -31.658  1.00  0.00    -0.374 OA
ATOM     20  H2  UNL     1     -31.579   7.875 -31.839  1.00  0.00     0.211 HD
ENDBRANCH   1  19
BRANCH   1  21
HETATM   21  S1  UNL     1     -30.892   4.759 -31.836  1.00  0.00     0.208 S 
HETATM   22  O3  UNL     1     -31.769   4.594 -33.029  1.00  0.00    -0.220 OA
HETATM   23  O4  UNL     1     -30.962   3.578 -30.919  1.00  0.00    -0.220 OA
BRANCH  21  24
HETATM   24  C5  UNL     1     -29.222   4.808 -32.432  1.00  0.00     0.067 A 
HETATM   25  C6  UNL     1     -28.158   4.932 -31.568  1.00  0.00     0.063 A 
HETATM   26  C7  UNL     1     -26.858   4.967 -32.059  1.00  0.00     0.103 A 
HETATM   27  C8  UNL     1     -26.602   4.879 -33.434  1.00  0.00     0.132 A 
HETATM   28  C9  UNL     1     -27.673   4.755 -34.286  1.00  0.00     0.103 A 
HETATM   29  C10 UNL     1     -28.967   4.723 -33.761  1.00  0.00     0.063 A 
BRANCH  26  30
HETATM   30  O5  UNL     1     -25.771   5.093 -31.201  1.00  0.00    -0.358 OA
ATOM     31  H5  UNL     1     -25.884   5.045 -30.258  1.00  0.00     0.217 HD
ENDBRANCH  26  30
BRANCH  27  32
HETATM   32  O6  UNL     1     -25.278   4.922 -33.843  1.00  0.00    -0.356 OA
ATOM     33  H6  UNL     1     -24.822   4.094 -33.940  1.00  0.00     0.218 HD
ENDBRANCH  27  32
BRANCH  28  34
HETATM   34  O7  UNL     1     -27.444   4.666 -35.642  1.00  0.00    -0.358 OA
ATOM     35  H7  UNL     1     -28.003   5.151 -36.239  1.00  0.00     0.217 HD
ENDBRANCH  28  34
ENDBRANCH  21  24
ENDBRANCH   1  21
TORSDOF 10
ENDMDL
