MODEL 1
REMARK VINA RESULT: -6.770515709      0.000      0.000
REMARK  13 active torsions:
REMARK  status: ('A' for Active; 'I' for Inactive)
REMARK    1  A    between atoms: C1_2  and  C2_4 
REMARK    2  A    between atoms: C2_4  and  O3_5 
REMARK    3  A    between atoms: C2_4  and  C3_7 
REMARK    4  A    between atoms: C3_7  and  C4_8 
REMARK    5  A    between atoms: C4_8  and  N1_9 
REMARK    6  A    between atoms: C6_11  and  S1_12 
REMARK    7  A    between atoms: S1_12  and  C7_14 
REMARK    8  A    between atoms: C7_14  and  C8_15 
REMARK    9  A    between atoms: C8_15  and  O5_16 
REMARK   10  A    between atoms: N2_18  and  O6_19 
REMARK   11  A    between atoms: C11_24  and  O7_25 
REMARK   12  A    between atoms: C11_24  and  C12_27 
REMARK   13  A    between atoms: C12_27  and  O8_28 
ROOT
HETATM    1  S1  UNL     1     -31.518   7.103 -24.206  1.00  0.00     0.141 S 
HETATM    2  O4  UNL     1     -31.347   6.302 -22.871  1.00  0.00    -0.238 OA
ENDROOT
BRANCH   1   3
HETATM    3  C6  UNL     1     -32.677   7.915 -23.213  1.00  0.00     0.142 A 
HETATM    4  C5  UNL     1     -33.610   8.766 -23.616  1.00  0.00     0.149 A 
HETATM    5  N1  UNL     1     -34.205   9.277 -22.494  1.00  0.00    -0.284 N 
HETATM    6  N5  UNL     1     -33.605   8.706 -21.454  1.00  0.00    -0.020 NA
HETATM    7  N4  UNL     1     -32.652   7.856 -21.914  1.00  0.00    -0.274 N 
ATOM      8  H4  UNL     1     -32.032   7.279 -21.346  1.00  0.00     0.185 HD
BRANCH   5   9
HETATM    9  C4  UNL     1     -35.278  10.248 -22.441  1.00  0.00     0.149 C 
BRANCH   9  10
HETATM   10  C3  UNL     1     -36.091   9.951 -21.232  1.00  0.00     0.064 C 
BRANCH  10  11
HETATM   11  C2  UNL     1     -35.872  10.828 -20.047  1.00  0.00     0.220 C 
BRANCH  11  12
HETATM   12  C1  UNL     1     -37.032  11.111 -19.220  1.00  0.00     0.203 C 
HETATM   13  O1  UNL     1     -38.089  10.448 -19.366  1.00  0.00    -0.646 OA
HETATM   14  O2  UNL     1     -37.024  12.101 -18.256  1.00  0.00    -0.646 OA
ENDBRANCH  11  12
BRANCH  11  15
HETATM   15  O3  UNL     1     -34.886  10.172 -19.264  1.00  0.00    -0.385 OA
ATOM     16  H3  UNL     1     -34.405   9.563 -19.811  1.00  0.00     0.210 HD
ENDBRANCH  11  15
ENDBRANCH  10  11
ENDBRANCH   9  10
ENDBRANCH   5   9
ENDBRANCH   1   3
BRANCH   1  17
HETATM   17  C7  UNL     1     -31.069   7.134 -25.339  1.00  0.00    -0.012 C 
BRANCH  17  18
HETATM   18  C8  UNL     1     -30.543   7.200 -26.665  1.00  0.00     0.253 C 
HETATM   19  N2  UNL     1     -31.403   6.496 -27.608  1.00  0.00    -0.059 NA
HETATM   20  N3  UNL     1     -30.768   6.373 -28.812  1.00  0.00    -0.136 NA
HETATM   21  C9  UNL     1     -30.391   7.641 -29.405  1.00  0.00     0.134 C 
HETATM   22  C10 UNL     1     -30.755   8.809 -28.541  1.00  0.00     0.063 C 
HETATM   23  C11 UNL     1     -30.492   8.647 -27.091  1.00  0.00     0.140 C 
BRANCH  18  24
HETATM   24  O5  UNL     1     -29.260   6.627 -26.720  1.00  0.00    -0.360 OA
ATOM     25  H5  UNL     1     -28.951   6.581 -27.617  1.00  0.00     0.213 HD
ENDBRANCH  18  24
BRANCH  19  26
HETATM   26  O6  UNL     1     -32.621   7.069 -27.650  1.00  0.00    -0.293 OA
ATOM     27  H6  UNL     1     -33.202   6.655 -27.023  1.00  0.00     0.238 HD
ENDBRANCH  19  26
BRANCH  23  28
HETATM   28  O7  UNL     1     -31.457   9.347 -26.336  1.00  0.00    -0.382 OA
ATOM     29  H7  UNL     1     -31.062   9.566 -25.500  1.00  0.00     0.210 HD
ENDBRANCH  23  28
BRANCH  23  30
HETATM   30  C12 UNL     1     -29.146   9.190 -26.661  1.00  0.00     0.207 C 
BRANCH  30  31
HETATM   31  O8  UNL     1     -29.206  10.518 -26.272  1.00  0.00    -0.398 OA
ATOM     32  H8  UNL     1     -28.834  10.664 -25.410  1.00  0.00     0.209 HD
ENDBRANCH  30  31
ENDBRANCH  23  30
ENDBRANCH  17  18
ENDBRANCH   1  17
TORSDOF 13
ENDMDL
MODEL 2
REMARK VINA RESULT: -6.647660141      1.076      1.340
REMARK  13 active torsions:
REMARK  status: ('A' for Active; 'I' for Inactive)
REMARK    1  A    between atoms: C1_2  and  C2_4 
REMARK    2  A    between atoms: C2_4  and  O3_5 
REMARK    3  A    between atoms: C2_4  and  C3_7 
REMARK    4  A    between atoms: C3_7  and  C4_8 
REMARK    5  A    between atoms: C4_8  and  N1_9 
REMARK    6  A    between atoms: C6_11  and  S1_12 
REMARK    7  A    between atoms: S1_12  and  C7_14 
REMARK    8  A    between atoms: C7_14  and  C8_15 
REMARK    9  A    between atoms: C8_15  and  O5_16 
REMARK   10  A    between atoms: N2_18  and  O6_19 
REMARK   11  A    between atoms: C11_24  and  O7_25 
REMARK   12  A    between atoms: C11_24  and  C12_27 
REMARK   13  A    between atoms: C12_27  and  O8_28 
ROOT
HETATM    1  S1  UNL     1     -31.335   7.061 -24.413  1.00  0.00     0.141 S 
HETATM    2  O4  UNL     1     -31.087   6.293 -23.070  1.00  0.00    -0.238 OA
ENDROOT
BRANCH   1   3
HETATM    3  C6  UNL     1     -32.503   7.835 -23.399  1.00  0.00     0.142 A 
HETATM    4  C5  UNL     1     -33.420   8.716 -23.772  1.00  0.00     0.149 A 
HETATM    5  N1  UNL     1     -34.029   9.175 -22.637  1.00  0.00    -0.284 N 
HETATM    6  N5  UNL     1     -33.451   8.546 -21.617  1.00  0.00    -0.020 NA
HETATM    7  N4  UNL     1     -32.500   7.710 -22.104  1.00  0.00    -0.274 N 
ATOM      8  H4  UNL     1     -31.895   7.098 -21.556  1.00  0.00     0.185 HD
BRANCH   5   9
HETATM    9  C4  UNL     1     -35.092  10.154 -22.551  1.00  0.00     0.149 C 
BRANCH   9  10
HETATM   10  C3  UNL     1     -35.904   9.830 -21.348  1.00  0.00     0.064 C 
BRANCH  10  11
HETATM   11  C2  UNL     1     -35.711  10.704 -20.157  1.00  0.00     0.220 C 
BRANCH  11  12
HETATM   12  C1  UNL     1     -36.885  10.964 -19.341  1.00  0.00     0.203 C 
HETATM   13  O1  UNL     1     -37.909  10.246 -19.459  1.00  0.00    -0.646 OA
HETATM   14  O2  UNL     1     -36.926  11.992 -18.418  1.00  0.00    -0.646 OA
ENDBRANCH  11  12
BRANCH  11  15
HETATM   15  O3  UNL     1     -34.724  10.060 -19.366  1.00  0.00    -0.385 OA
ATOM     16  H3  UNL     1     -33.922   9.980 -19.870  1.00  0.00     0.210 HD
ENDBRANCH  11  15
ENDBRANCH  10  11
ENDBRANCH   9  10
ENDBRANCH   5   9
ENDBRANCH   1   3
BRANCH   1  17
HETATM   17  C7  UNL     1     -30.922   7.093 -25.559  1.00  0.00    -0.012 C 
BRANCH  17  18
HETATM   18  C8  UNL     1     -30.414   7.146 -26.893  1.00  0.00     0.253 C 
HETATM   19  N2  UNL     1     -30.097   5.813 -27.389  1.00  0.00    -0.059 NA
HETATM   20  N3  UNL     1     -29.401   5.907 -28.561  1.00  0.00    -0.136 NA
HETATM   21  C9  UNL     1     -30.112   6.619 -29.604  1.00  0.00     0.134 C 
HETATM   22  C10 UNL     1     -31.446   7.125 -29.148  1.00  0.00     0.063 C 
HETATM   23  C11 UNL     1     -31.481   7.723 -27.792  1.00  0.00     0.140 C 
BRANCH  18  24
HETATM   24  O5  UNL     1     -29.248   7.931 -26.949  1.00  0.00    -0.360 OA
ATOM     25  H5  UNL     1     -28.840   7.987 -26.093  1.00  0.00     0.213 HD
ENDBRANCH  18  24
BRANCH  19  26
HETATM   26  O6  UNL     1     -31.207   5.052 -27.431  1.00  0.00    -0.293 OA
ATOM     27  H6  UNL     1     -31.645   5.154 -28.268  1.00  0.00     0.238 HD
ENDBRANCH  19  26
BRANCH  23  28
HETATM   28  O7  UNL     1     -32.729   7.479 -27.180  1.00  0.00    -0.382 OA
ATOM     29  H7  UNL     1     -32.560   7.088 -26.332  1.00  0.00     0.210 HD
ENDBRANCH  23  28
BRANCH  23  30
HETATM   30  C12 UNL     1     -31.297   9.225 -27.793  1.00  0.00     0.207 C 
BRANCH  30  31
HETATM   31  O8  UNL     1     -31.882   9.833 -28.892  1.00  0.00    -0.398 OA
ATOM     32  H8  UNL     1     -31.826  10.781 -28.858  1.00  0.00     0.209 HD
ENDBRANCH  30  31
ENDBRANCH  23  30
ENDBRANCH  17  18
ENDBRANCH   1  17
TORSDOF 13
ENDMDL
MODEL 3
REMARK VINA RESULT: -6.617470609      1.795      2.857
REMARK  13 active torsions:
REMARK  status: ('A' for Active; 'I' for Inactive)
REMARK    1  A    between atoms: C1_2  and  C2_4 
REMARK    2  A    between atoms: C2_4  and  O3_5 
REMARK    3  A    between atoms: C2_4  and  C3_7 
REMARK    4  A    between atoms: C3_7  and  C4_8 
REMARK    5  A    between atoms: C4_8  and  N1_9 
REMARK    6  A    between atoms: C6_11  and  S1_12 
REMARK    7  A    between atoms: S1_12  and  C7_14 
REMARK    8  A    between atoms: C7_14  and  C8_15 
REMARK    9  A    between atoms: C8_15  and  O5_16 
REMARK   10  A    between atoms: N2_18  and  O6_19 
REMARK   11  A    between atoms: C11_24  and  O7_25 
REMARK   12  A    between atoms: C11_24  and  C12_27 
REMARK   13  A    between atoms: C12_27  and  O8_28 
ROOT
HETATM    1  S1  UNL     1     -31.611   8.230 -26.468  1.00  0.00     0.141 S 
HETATM    2  O4  UNL     1     -31.388   9.757 -26.198  1.00  0.00    -0.238 OA
ENDROOT
BRANCH   1   3
HETATM    3  C6  UNL     1     -32.474   8.406 -24.979  1.00  0.00     0.142 A 
HETATM    4  C5  UNL     1     -33.472   9.242 -24.735  1.00  0.00     0.149 A 
HETATM    5  N1  UNL     1     -33.759   9.152 -23.400  1.00  0.00    -0.284 N 
HETATM    6  N5  UNL     1     -32.918   8.257 -22.891  1.00  0.00    -0.020 NA
HETATM    7  N4  UNL     1     -32.120   7.795 -23.886  1.00  0.00    -0.274 N 
ATOM      8  H4  UNL     1     -31.380   7.100 -23.795  1.00  0.00     0.185 HD
BRANCH   5   9
HETATM    9  C4  UNL     1     -34.776   9.884 -22.675  1.00  0.00     0.149 C 
BRANCH   9  10
HETATM   10  C3  UNL     1     -34.973   9.203 -21.368  1.00  0.00     0.064 C 
BRANCH  10  11
HETATM   11  C2  UNL     1     -34.946  10.066 -20.153  1.00  0.00     0.220 C 
BRANCH  11  12
HETATM   12  C1  UNL     1     -36.231  10.460 -19.603  1.00  0.00     0.203 C 
HETATM   13  O1  UNL     1     -37.174   9.633 -19.543  1.00  0.00    -0.646 OA
HETATM   14  O2  UNL     1     -36.468  11.738 -19.131  1.00  0.00    -0.646 OA
ENDBRANCH  11  12
BRANCH  11  15
HETATM   15  O3  UNL     1     -34.224   9.328 -19.178  1.00  0.00    -0.385 OA
ATOM     16  H3  UNL     1     -33.682   8.681 -19.612  1.00  0.00     0.210 HD
ENDBRANCH  11  15
ENDBRANCH  10  11
ENDBRANCH   9  10
ENDBRANCH   5   9
ENDBRANCH   1   3
BRANCH   1  17
HETATM   17  C7  UNL     1     -31.326   7.377 -27.291  1.00  0.00    -0.012 C 
BRANCH  17  18
HETATM   18  C8  UNL     1     -31.022   6.369 -28.255  1.00  0.00     0.253 C 
HETATM   19  N2  UNL     1     -30.636   6.959 -29.530  1.00  0.00    -0.059 NA
HETATM   20  N3  UNL     1     -30.579   5.990 -30.492  1.00  0.00    -0.136 NA
HETATM   21  C9  UNL     1     -29.647   4.922 -30.189  1.00  0.00     0.134 C 
HETATM   22  C10 UNL     1     -28.976   5.106 -28.862  1.00  0.00     0.063 C 
HETATM   23  C11 UNL     1     -29.849   5.562 -27.754  1.00  0.00     0.140 C 
BRANCH  18  24
HETATM   24  O5  UNL     1     -32.134   5.535 -28.470  1.00  0.00    -0.360 OA
ATOM     25  H5  UNL     1     -32.095   4.771 -27.906  1.00  0.00     0.213 HD
ENDBRANCH  18  24
BRANCH  19  26
HETATM   26  O6  UNL     1     -29.521   7.700 -29.385  1.00  0.00    -0.293 OA
ATOM     27  H6  UNL     1     -28.804   7.318 -29.877  1.00  0.00     0.238 HD
ENDBRANCH  19  26
BRANCH  23  28
HETATM   28  O7  UNL     1     -29.121   6.380 -26.862  1.00  0.00    -0.382 OA
ATOM     29  H7  UNL     1     -28.369   5.881 -26.567  1.00  0.00     0.210 HD
ENDBRANCH  23  28
BRANCH  23  30
HETATM   30  C12 UNL     1     -30.410   4.427 -26.925  1.00  0.00     0.207 C 
BRANCH  30  31
HETATM   31  O8  UNL     1     -29.429   3.740 -26.229  1.00  0.00    -0.398 OA
ATOM     32  H8  UNL     1     -29.621   3.670 -25.301  1.00  0.00     0.209 HD
ENDBRANCH  30  31
ENDBRANCH  23  30
ENDBRANCH  17  18
ENDBRANCH   1  17
TORSDOF 13
ENDMDL
MODEL 4
REMARK VINA RESULT: -6.572921094      5.595     11.990
REMARK  13 active torsions:
REMARK  status: ('A' for Active; 'I' for Inactive)
REMARK    1  A    between atoms: C1_2  and  C2_4 
REMARK    2  A    between atoms: C2_4  and  O3_5 
REMARK    3  A    between atoms: C2_4  and  C3_7 
REMARK    4  A    between atoms: C3_7  and  C4_8 
REMARK    5  A    between atoms: C4_8  and  N1_9 
REMARK    6  A    between atoms: C6_11  and  S1_12 
REMARK    7  A    between atoms: S1_12  and  C7_14 
REMARK    8  A    between atoms: C7_14  and  C8_15 
REMARK    9  A    between atoms: C8_15  and  O5_16 
REMARK   10  A    between atoms: N2_18  and  O6_19 
REMARK   11  A    between atoms: C11_24  and  O7_25 
REMARK   12  A    between atoms: C11_24  and  C12_27 
REMARK   13  A    between atoms: C12_27  and  O8_28 
ROOT
HETATM    1  S1  UNL     1     -30.105   5.269 -30.135  1.00  0.00     0.141 S 
HETATM    2  O4  UNL     1     -30.410   4.053 -31.073  1.00  0.00    -0.238 OA
ENDROOT
BRANCH   1   3
HETATM    3  C6  UNL     1     -28.640   5.218 -31.052  1.00  0.00     0.142 A 
HETATM    4  C5  UNL     1     -28.502   4.812 -32.306  1.00  0.00     0.149 A 
HETATM    5  N1  UNL     1     -27.163   4.800 -32.585  1.00  0.00    -0.284 N 
HETATM    6  N5  UNL     1     -26.543   5.206 -31.480  1.00  0.00    -0.020 NA
HETATM    7  N4  UNL     1     -27.475   5.466 -30.529  1.00  0.00    -0.274 N 
ATOM      8  H4  UNL     1     -27.295   5.794 -29.580  1.00  0.00     0.185 HD
BRANCH   5   9
HETATM    9  C4  UNL     1     -26.534   4.421 -33.833  1.00  0.00     0.149 C 
BRANCH   9  10
HETATM   10  C3  UNL     1     -25.486   5.433 -34.131  1.00  0.00     0.064 C 
BRANCH  10  11
HETATM   11  C2  UNL     1     -25.338   5.842 -35.556  1.00  0.00     0.220 C 
BRANCH  11  12
HETATM   12  C1  UNL     1     -23.987   6.101 -36.025  1.00  0.00     0.203 C 
HETATM   13  O1  UNL     1     -23.781   6.404 -37.226  1.00  0.00    -0.646 OA
HETATM   14  O2  UNL     1     -22.891   6.027 -35.185  1.00  0.00    -0.646 OA
ENDBRANCH  11  12
BRANCH  11  15
HETATM   15  O3  UNL     1     -25.904   4.786 -36.317  1.00  0.00    -0.385 OA
ATOM     16  H3  UNL     1     -26.009   5.070 -37.218  1.00  0.00     0.210 HD
ENDBRANCH  11  15
ENDBRANCH  10  11
ENDBRANCH   9  10
ENDBRANCH   5   9
ENDBRANCH   1   3
BRANCH   1  17
HETATM   17  C7  UNL     1     -30.627   5.908 -29.237  1.00  0.00    -0.012 C 
BRANCH  17  18
HETATM   18  C8  UNL     1     -31.213   6.653 -28.169  1.00  0.00     0.253 C 
HETATM   19  N2  UNL     1     -30.740   6.178 -26.875  1.00  0.00    -0.059 NA
HETATM   20  N3  UNL     1     -31.483   6.739 -25.874  1.00  0.00    -0.136 NA
HETATM   21  C9  UNL     1     -31.447   8.188 -25.865  1.00  0.00     0.134 C 
HETATM   22  C10 UNL     1     -30.624   8.750 -26.983  1.00  0.00     0.063 C 
HETATM   23  C11 UNL     1     -30.797   8.097 -28.303  1.00  0.00     0.140 C 
BRANCH  18  24
HETATM   24  O5  UNL     1     -32.615   6.542 -28.198  1.00  0.00    -0.360 OA
ATOM     25  H5  UNL     1     -32.880   5.629 -28.184  1.00  0.00     0.213 HD
ENDBRANCH  18  24
BRANCH  19  26
HETATM   26  O6  UNL     1     -29.408   6.346 -26.773  1.00  0.00    -0.293 OA
ATOM     27  H6  UNL     1     -29.131   6.246 -25.870  1.00  0.00     0.238 HD
ENDBRANCH  19  26
BRANCH  23  28
HETATM   28  O7  UNL     1     -29.585   8.124 -29.026  1.00  0.00    -0.382 OA
ATOM     29  H7  UNL     1     -29.194   8.980 -28.895  1.00  0.00     0.210 HD
ENDBRANCH  23  28
BRANCH  23  30
HETATM   30  C12 UNL     1     -31.826   8.778 -29.180  1.00  0.00     0.207 C 
BRANCH  30  31
HETATM   31  O8  UNL     1     -31.353   9.036 -30.455  1.00  0.00    -0.398 OA
ATOM     32  H8  UNL     1     -31.568   8.345 -31.072  1.00  0.00     0.209 HD
ENDBRANCH  30  31
ENDBRANCH  23  30
ENDBRANCH  17  18
ENDBRANCH   1  17
TORSDOF 13
ENDMDL
MODEL 5
REMARK VINA RESULT: -6.555460125      6.122     12.187
REMARK  13 active torsions:
REMARK  status: ('A' for Active; 'I' for Inactive)
REMARK    1  A    between atoms: C1_2  and  C2_4 
REMARK    2  A    between atoms: C2_4  and  O3_5 
REMARK    3  A    between atoms: C2_4  and  C3_7 
REMARK    4  A    between atoms: C3_7  and  C4_8 
REMARK    5  A    between atoms: C4_8  and  N1_9 
REMARK    6  A    between atoms: C6_11  and  S1_12 
REMARK    7  A    between atoms: S1_12  and  C7_14 
REMARK    8  A    between atoms: C7_14  and  C8_15 
REMARK    9  A    between atoms: C8_15  and  O5_16 
REMARK   10  A    between atoms: N2_18  and  O6_19 
REMARK   11  A    between atoms: C11_24  and  O7_25 
REMARK   12  A    between atoms: C11_24  and  C12_27 
REMARK   13  A    between atoms: C12_27  and  O8_28 
ROOT
HETATM    1  S1  UNL     1     -29.746   4.858 -30.695  1.00  0.00     0.141 S 
HETATM    2  O4  UNL     1     -30.167   4.018 -31.948  1.00  0.00    -0.238 OA
ENDROOT
BRANCH   1   3
HETATM    3  C6  UNL     1     -28.289   4.944 -31.624  1.00  0.00     0.142 A 
HETATM    4  C5  UNL     1     -28.110   4.507 -32.862  1.00  0.00     0.149 A 
HETATM    5  N1  UNL     1     -26.780   4.643 -33.153  1.00  0.00    -0.284 N 
HETATM    6  N5  UNL     1     -26.208   5.163 -32.071  1.00  0.00    -0.020 NA
HETATM    7  N4  UNL     1     -27.160   5.349 -31.122  1.00  0.00    -0.274 N 
ATOM      8  H4  UNL     1     -27.016   5.734 -30.188  1.00  0.00     0.185 HD
BRANCH   5   9
HETATM    9  C4  UNL     1     -26.117   4.291 -34.391  1.00  0.00     0.149 C 
BRANCH   9  10
HETATM   10  C3  UNL     1     -25.856   5.553 -35.133  1.00  0.00     0.064 C 
BRANCH  10  11
HETATM   11  C2  UNL     1     -24.441   6.019 -35.183  1.00  0.00     0.220 C 
BRANCH  11  12
HETATM   12  C1  UNL     1     -24.053   6.804 -36.342  1.00  0.00     0.203 C 
HETATM   13  O1  UNL     1     -24.569   7.931 -36.545  1.00  0.00    -0.646 OA
HETATM   14  O2  UNL     1     -23.118   6.354 -37.255  1.00  0.00    -0.646 OA
ENDBRANCH  11  12
BRANCH  11  15
HETATM   15  O3  UNL     1     -24.253   6.792 -34.008  1.00  0.00    -0.385 OA
ATOM     16  H3  UNL     1     -25.027   7.319 -33.852  1.00  0.00     0.210 HD
ENDBRANCH  11  15
ENDBRANCH  10  11
ENDBRANCH   9  10
ENDBRANCH   5   9
ENDBRANCH   1   3
BRANCH   1  17
HETATM   17  C7  UNL     1     -30.204   5.244 -29.634  1.00  0.00    -0.012 C 
BRANCH  17  18
HETATM   18  C8  UNL     1     -30.725   5.675 -28.376  1.00  0.00     0.253 C 
HETATM   19  N2  UNL     1     -30.113   4.943 -27.274  1.00  0.00    -0.059 NA
HETATM   20  N3  UNL     1     -30.787   5.202 -26.114  1.00  0.00    -0.136 NA
HETATM   21  C9  UNL     1     -30.820   6.607 -25.760  1.00  0.00     0.134 C 
HETATM   22  C10 UNL     1     -30.131   7.470 -26.772  1.00  0.00     0.063 C 
HETATM   23  C11 UNL     1     -30.392   7.135 -28.192  1.00  0.00     0.140 C 
BRANCH  18  24
HETATM   24  O5  UNL     1     -32.117   5.478 -28.321  1.00  0.00    -0.360 OA
ATOM     25  H5  UNL     1     -32.561   6.054 -28.933  1.00  0.00     0.213 HD
ENDBRANCH  18  24
BRANCH  19  26
HETATM   26  O6  UNL     1     -28.786   5.173 -27.239  1.00  0.00    -0.293 OA
ATOM     27  H6  UNL     1     -28.466   5.123 -26.346  1.00  0.00     0.238 HD
ENDBRANCH  19  26
BRANCH  23  28
HETATM   28  O7  UNL     1     -29.254   7.414 -28.979  1.00  0.00    -0.382 OA
ATOM     29  H7  UNL     1     -28.931   8.269 -28.721  1.00  0.00     0.210 HD
ENDBRANCH  23  28
BRANCH  23  30
HETATM   30  C12 UNL     1     -31.529   7.931 -28.797  1.00  0.00     0.207 C 
BRANCH  30  31
HETATM   31  O8  UNL     1     -31.121   8.720 -29.859  1.00  0.00    -0.398 OA
ATOM     32  H8  UNL     1     -30.214   8.993 -29.784  1.00  0.00     0.209 HD
ENDBRANCH  30  31
ENDBRANCH  23  30
ENDBRANCH  17  18
ENDBRANCH   1  17
TORSDOF 13
ENDMDL
