MODEL 1
REMARK VINA RESULT: -5.116040027      0.000      0.000
REMARK  3 active torsions:
REMARK  status: ('A' for Active; 'I' for Inactive)
REMARK    1  A    between atoms: C3_5  and  C4_7 
REMARK    2  A    between atoms: C5_8  and  C6_9 
REMARK    3  A    between atoms: C6_9  and  N3_10 
ROOT
HETATM    1  C1  UNL     1       1.474  73.694  81.675  1.00  0.00     0.123 C 
HETATM    2  C2  UNL     1       1.342  74.724  81.028  1.00  0.00    -0.074 C 
HETATM    3  N1  UNL     1       1.171  75.889  80.289  1.00  0.00    -0.307 N 
ATOM      4  H1  UNL     1       1.928  76.572  80.271  1.00  0.00     0.177 HD
HETATM    5  C3  UNL     1       0.097  76.139  79.628  1.00  0.00     0.177 C 
HETATM    6  N2  UNL     1       0.026  77.358  78.908  1.00  0.00    -0.072 NA
ENDROOT
BRANCH   5   7
HETATM    7  C4  UNL     1      -0.976  75.192  79.643  1.00  0.00    -0.031 C 
HETATM    8  C5  UNL     1      -1.894  74.399  79.658  1.00  0.00    -0.071 C 
BRANCH   8   9
HETATM    9  C6  UNL     1      -3.010  73.439  79.651  1.00  0.00     0.323 C 
BRANCH   9  10
HETATM   10  N3  UNL     1      -4.173  74.107  80.189  1.00  0.00    -0.069 N 
ATOM     11  H33 UNL     1      -3.949  75.000  80.627  1.00  0.00     0.275 HD
ATOM     12  H32 UNL     1      -4.795  74.465  79.463  1.00  0.00     0.275 HD
ATOM     13  H31 UNL     1      -4.639  73.460  80.825  1.00  0.00     0.275 HD
ENDBRANCH   9  10
ENDBRANCH   8   9
ENDBRANCH   5   7
TORSDOF 3
ENDMDL
MODEL 2
REMARK VINA RESULT: -4.905201612      2.772      3.359
REMARK  3 active torsions:
REMARK  status: ('A' for Active; 'I' for Inactive)
REMARK    1  A    between atoms: C3_5  and  C4_7 
REMARK    2  A    between atoms: C5_8  and  C6_9 
REMARK    3  A    between atoms: C6_9  and  N3_10 
ROOT
HETATM    1  C1  UNL     1       3.798  75.332  78.438  1.00  0.00     0.123 C 
HETATM    2  C2  UNL     1       2.854  76.046  78.125  1.00  0.00    -0.074 C 
HETATM    3  N1  UNL     1       1.773  76.851  77.790  1.00  0.00    -0.307 N 
ATOM      4  H1  UNL     1       1.857  77.475  76.988  1.00  0.00     0.177 HD
HETATM    5  C3  UNL     1       0.669  76.840  78.450  1.00  0.00     0.177 C 
HETATM    6  N2  UNL     1      -0.373  77.701  78.023  1.00  0.00    -0.072 NA
ENDROOT
BRANCH   5   7
HETATM    7  C4  UNL     1       0.533  75.971  79.580  1.00  0.00    -0.031 C 
HETATM    8  C5  UNL     1       0.414  75.224  80.528  1.00  0.00    -0.071 C 
BRANCH   8   9
HETATM    9  C6  UNL     1       0.295  74.314  81.679  1.00  0.00     0.323 C 
BRANCH   9  10
HETATM   10  N3  UNL     1       1.450  73.443  81.676  1.00  0.00    -0.069 N 
ATOM     11  H33 UNL     1       1.284  72.568  81.180  1.00  0.00     0.275 HD
ATOM     12  H32 UNL     1       2.206  73.792  81.087  1.00  0.00     0.275 HD
ATOM     13  H31 UNL     1       1.736  73.301  82.645  1.00  0.00     0.275 HD
ENDBRANCH   9  10
ENDBRANCH   8   9
ENDBRANCH   5   7
TORSDOF 3
ENDMDL
MODEL 3
REMARK VINA RESULT: -4.896154954      1.473      2.634
REMARK  3 active torsions:
REMARK  status: ('A' for Active; 'I' for Inactive)
REMARK    1  A    between atoms: C3_5  and  C4_7 
REMARK    2  A    between atoms: C5_8  and  C6_9 
REMARK    3  A    between atoms: C6_9  and  N3_10 
ROOT
HETATM    1  C1  UNL     1       0.742  77.551  79.819  1.00  0.00     0.123 C 
HETATM    2  C2  UNL     1       1.176  76.594  80.446  1.00  0.00    -0.074 C 
HETATM    3  N1  UNL     1       1.655  75.494  81.148  1.00  0.00    -0.307 N 
ATOM      4  H1  UNL     1       2.531  75.585  81.661  1.00  0.00     0.177 HD
HETATM    5  C3  UNL     1       1.036  74.367  81.176  1.00  0.00     0.177 C 
HETATM    6  N2  UNL     1       1.612  73.309  81.923  1.00  0.00    -0.072 NA
ENDROOT
BRANCH   5   7
HETATM    7  C4  UNL     1      -0.195  74.221  80.461  1.00  0.00    -0.031 C 
HETATM    8  C5  UNL     1      -1.233  74.087  79.847  1.00  0.00    -0.071 C 
BRANCH   8   9
HETATM    9  C6  UNL     1      -2.502  73.910  79.123  1.00  0.00     0.323 C 
BRANCH   9  10
HETATM   10  N3  UNL     1      -3.539  73.660  80.100  1.00  0.00    -0.069 N 
ATOM     11  H33 UNL     1      -3.169  73.504  81.037  1.00  0.00     0.275 HD
ATOM     12  H32 UNL     1      -4.093  74.490  80.309  1.00  0.00     0.275 HD
ATOM     13  H31 UNL     1      -4.104  72.881  79.763  1.00  0.00     0.275 HD
ENDBRANCH   9  10
ENDBRANCH   8   9
ENDBRANCH   5   7
TORSDOF 3
ENDMDL
MODEL 4
REMARK VINA RESULT: -4.861682537      1.688      4.331
REMARK  3 active torsions:
REMARK  status: ('A' for Active; 'I' for Inactive)
REMARK    1  A    between atoms: C3_5  and  C4_7 
REMARK    2  A    between atoms: C5_8  and  C6_9 
REMARK    3  A    between atoms: C6_9  and  N3_10 
ROOT
HETATM    1  C1  UNL     1      -0.492  71.589  78.302  1.00  0.00     0.123 C 
HETATM    2  C2  UNL     1      -1.538  72.053  78.735  1.00  0.00    -0.074 C 
HETATM    3  N1  UNL     1      -2.716  72.600  79.228  1.00  0.00    -0.307 N 
ATOM      4  H1  UNL     1      -3.563  72.031  79.216  1.00  0.00     0.177 HD
HETATM    5  C3  UNL     1      -2.783  73.795  79.697  1.00  0.00     0.177 C 
HETATM    6  N2  UNL     1      -4.036  74.256  80.175  1.00  0.00    -0.072 NA
ENDROOT
BRANCH   5   7
HETATM    7  C4  UNL     1      -1.606  74.609  79.720  1.00  0.00    -0.031 C 
HETATM    8  C5  UNL     1      -0.600  75.288  79.737  1.00  0.00    -0.071 C 
BRANCH   8   9
HETATM    9  C6  UNL     1       0.616  76.117  79.733  1.00  0.00     0.323 C 
BRANCH   9  10
HETATM   10  N3  UNL     1       1.399  75.750  78.575  1.00  0.00    -0.069 N 
ATOM     11  H33 UNL     1       0.867  75.799  77.706  1.00  0.00     0.275 HD
ATOM     12  H32 UNL     1       2.107  76.445  78.339  1.00  0.00     0.275 HD
ATOM     13  H31 UNL     1       1.793  74.824  78.745  1.00  0.00     0.275 HD
ENDBRANCH   9  10
ENDBRANCH   8   9
ENDBRANCH   5   7
TORSDOF 3
ENDMDL
MODEL 5
REMARK VINA RESULT: -4.762878637      3.373      4.159
REMARK  3 active torsions:
REMARK  status: ('A' for Active; 'I' for Inactive)
REMARK    1  A    between atoms: C3_5  and  C4_7 
REMARK    2  A    between atoms: C5_8  and  C6_9 
REMARK    3  A    between atoms: C6_9  and  N3_10 
ROOT
HETATM    1  C1  UNL     1       0.710  77.860  79.988  1.00  0.00     0.123 C 
HETATM    2  C2  UNL     1       1.587  77.586  79.180  1.00  0.00    -0.074 C 
HETATM    3  N1  UNL     1       2.579  77.253  78.265  1.00  0.00    -0.307 N 
ATOM      4  H1  UNL     1       2.974  77.990  77.681  1.00  0.00     0.177 HD
HETATM    5  C3  UNL     1       3.020  76.053  78.126  1.00  0.00     0.177 C 
HETATM    6  N2  UNL     1       4.034  75.821  77.163  1.00  0.00    -0.072 NA
ENDROOT
BRANCH   5   7
HETATM    7  C4  UNL     1       2.476  75.005  78.936  1.00  0.00    -0.031 C 
HETATM    8  C5  UNL     1       2.016  74.108  79.612  1.00  0.00    -0.071 C 
BRANCH   8   9
HETATM    9  C6  UNL     1       1.482  73.015  80.440  1.00  0.00     0.323 C 
BRANCH   9  10
HETATM   10  N3  UNL     1       1.416  73.486  81.805  1.00  0.00    -0.069 N 
ATOM     11  H33 UNL     1       0.672  74.166  81.954  1.00  0.00     0.275 HD
ATOM     12  H32 UNL     1       1.080  72.773  82.454  1.00  0.00     0.275 HD
ATOM     13  H31 UNL     1       2.337  73.846  82.056  1.00  0.00     0.275 HD
ENDBRANCH   9  10
ENDBRANCH   8   9
ENDBRANCH   5   7
TORSDOF 3
ENDMDL
