MODEL 1
REMARK VINA RESULT: -4.303497799      0.000      0.000
REMARK  1 active torsions:
REMARK  status: ('A' for Active; 'I' for Inactive)
REMARK    1  A    between atoms: N2_3  and  C2_5 
ROOT
HETATM    1  N1  UNL     1       4.109  78.163  77.614  1.00  0.00    -0.172 NA
HETATM    2  C1  UNL     1       3.066  77.636  77.577  1.00  0.00     0.183 C 
HETATM    3  N2  UNL     1       1.820  77.008  77.521  1.00  0.00    -0.272 N 
ATOM      4  H2  UNL     1       1.678  76.243  76.860  1.00  0.00     0.180 HD
ENDROOT
BRANCH   3   5
HETATM    5  C2  UNL     1       0.745  77.404  78.357  1.00  0.00     0.194 C 
HETATM    6  N3  UNL     1      -0.521  77.691  77.727  1.00  0.00    -0.069 NA
HETATM    7  S1  UNL     1       0.877  77.544  79.965  1.00  0.00    -0.043 SA
ENDBRANCH   3   5
TORSDOF 1
ENDMDL
MODEL 2
REMARK VINA RESULT: -4.266020843      1.085      1.085
REMARK  1 active torsions:
REMARK  status: ('A' for Active; 'I' for Inactive)
REMARK    1  A    between atoms: N2_3  and  C2_5 
ROOT
HETATM    1  N1  UNL     1       3.715  76.314  77.191  1.00  0.00    -0.172 NA
HETATM    2  C1  UNL     1       2.853  77.007  77.571  1.00  0.00     0.183 C 
HETATM    3  N2  UNL     1       1.832  77.839  78.034  1.00  0.00    -0.272 N 
ATOM      4  H2  UNL     1       2.003  78.842  78.106  1.00  0.00     0.180 HD
ENDROOT
BRANCH   3   5
HETATM    5  C2  UNL     1       0.563  77.328  78.408  1.00  0.00     0.194 C 
HETATM    6  N3  UNL     1      -0.577  77.727  77.620  1.00  0.00    -0.069 NA
HETATM    7  S1  UNL     1       0.344  76.328  79.663  1.00  0.00    -0.043 SA
ENDBRANCH   3   5
TORSDOF 1
ENDMDL
MODEL 3
REMARK VINA RESULT: -4.014830573      1.492      1.492
REMARK  1 active torsions:
REMARK  status: ('A' for Active; 'I' for Inactive)
REMARK    1  A    between atoms: N2_3  and  C2_5 
ROOT
HETATM    1  N1  UNL     1       2.764  78.399  77.550  1.00  0.00    -0.172 NA
HETATM    2  C1  UNL     1       2.122  77.474  77.866  1.00  0.00     0.183 C 
HETATM    3  N2  UNL     1       1.350  76.369  78.232  1.00  0.00    -0.272 N 
ATOM      4  H2  UNL     1       1.341  75.548  77.627  1.00  0.00     0.180 HD
ENDROOT
BRANCH   3   5
HETATM    5  C2  UNL     1       0.578  76.358  79.422  1.00  0.00     0.194 C 
HETATM    6  N3  UNL     1      -0.807  75.971  79.316  1.00  0.00    -0.069 NA
HETATM    7  S1  UNL     1       1.179  76.755  80.873  1.00  0.00    -0.043 SA
ENDBRANCH   3   5
TORSDOF 1
ENDMDL
MODEL 4
REMARK VINA RESULT: -3.938263863      3.988      4.495
REMARK  1 active torsions:
REMARK  status: ('A' for Active; 'I' for Inactive)
REMARK    1  A    between atoms: N2_3  and  C2_5 
ROOT
HETATM    1  N1  UNL     1       1.624  73.205  81.826  1.00  0.00    -0.172 NA
HETATM    2  C1  UNL     1       1.180  74.221  81.455  1.00  0.00     0.183 C 
HETATM    3  N2  UNL     1       0.646  75.437  81.023  1.00  0.00    -0.272 N 
ATOM      4  H2  UNL     1       0.981  76.304  81.445  1.00  0.00     0.180 HD
ENDROOT
BRANCH   3   5
HETATM    5  C2  UNL     1      -0.348  75.501  80.014  1.00  0.00     0.194 C 
HETATM    6  N3  UNL     1      -0.318  76.630  79.117  1.00  0.00    -0.069 NA
HETATM    7  S1  UNL     1      -1.498  74.376  79.828  1.00  0.00    -0.043 SA
ENDBRANCH   3   5
TORSDOF 1
ENDMDL
MODEL 5
REMARK VINA RESULT: -3.934829594      1.837      3.370
REMARK  1 active torsions:
REMARK  status: ('A' for Active; 'I' for Inactive)
REMARK    1  A    between atoms: N2_3  and  C2_5 
ROOT
HETATM    1  N1  UNL     1      -0.626  76.064  79.439  1.00  0.00    -0.172 NA
HETATM    2  C1  UNL     1       0.036  76.693  78.708  1.00  0.00     0.183 C 
HETATM    3  N2  UNL     1       0.820  77.439  77.824  1.00  0.00    -0.272 N 
ATOM      4  H2  UNL     1       0.361  78.040  77.140  1.00  0.00     0.180 HD
ENDROOT
BRANCH   3   5
HETATM    5  C2  UNL     1       2.236  77.384  77.853  1.00  0.00     0.194 C 
HETATM    6  N3  UNL     1       2.959  78.580  77.500  1.00  0.00    -0.069 NA
HETATM    7  S1  UNL     1       3.064  76.053  78.262  1.00  0.00    -0.043 SA
ENDBRANCH   3   5
TORSDOF 1
ENDMDL
