MODEL 1
REMARK VINA RESULT: -4.729025961      0.000      0.000
REMARK  0 active torsions:
REMARK  status: ('A' for Active; 'I' for Inactive)
ROOT
HETATM    1  C1  UNL     1       1.260  75.857  81.124  1.00  0.00     0.143 C 
HETATM    2  N1  UNL     1       1.638  77.221  80.870  1.00  0.00    -0.200 NA
HETATM    3  C2  UNL     1       0.812  77.896  79.926  1.00  0.00     0.139 C 
HETATM    4  C3  UNL     1       0.538  77.200  78.659  1.00  0.00     0.130 C 
HETATM    5  N2  UNL     1       1.670  76.616  78.052  1.00  0.00    -0.418 N 
ATOM      6  H2  UNL     1       1.569  75.806  77.440  1.00  0.00     0.153 HD
HETATM    7  C4  UNL     1       2.927  77.165  78.302  1.00  0.00     0.142 C 
HETATM    8  C5  UNL     1       3.436  76.573  79.623  1.00  0.00     0.213 C 
HETATM    9  O1  UNL     1       2.966  77.362  80.630  1.00  0.00    -0.302 OA
ENDROOT
TORSDOF 0
ENDMDL
MODEL 2
REMARK VINA RESULT: -4.565120600      1.503      2.903
REMARK  0 active torsions:
REMARK  status: ('A' for Active; 'I' for Inactive)
ROOT
HETATM    1  C1  UNL     1       2.820  77.550  77.401  1.00  0.00     0.143 C 
HETATM    2  N1  UNL     1       2.788  77.603  78.837  1.00  0.00    -0.200 NA
HETATM    3  C2  UNL     1       3.231  76.412  79.481  1.00  0.00     0.139 C 
HETATM    4  C3  UNL     1       2.657  75.142  79.007  1.00  0.00     0.130 C 
HETATM    5  N2  UNL     1       1.258  75.160  78.827  1.00  0.00    -0.418 N 
ATOM      6  H2  UNL     1       0.814  74.536  78.153  1.00  0.00     0.153 HD
HETATM    7  C4  UNL     1       0.493  76.045  79.585  1.00  0.00     0.142 C 
HETATM    8  C5  UNL     1       0.515  77.406  78.875  1.00  0.00     0.213 C 
HETATM    9  O1  UNL     1       1.613  78.079  79.321  1.00  0.00    -0.302 OA
ENDROOT
TORSDOF 0
ENDMDL
MODEL 3
REMARK VINA RESULT: -4.428778655      1.225      2.428
REMARK  0 active torsions:
REMARK  status: ('A' for Active; 'I' for Inactive)
ROOT
HETATM    1  C1  UNL     1       0.812  77.942  79.496  1.00  0.00     0.143 C 
HETATM    2  N1  UNL     1       2.015  77.487  80.139  1.00  0.00    -0.200 NA
HETATM    3  C2  UNL     1       2.942  76.845  79.269  1.00  0.00     0.139 C 
HETATM    4  C3  UNL     1       2.411  75.796  78.383  1.00  0.00     0.130 C 
HETATM    5  N2  UNL     1       1.548  74.875  79.013  1.00  0.00    -0.418 N 
ATOM      6  H2  UNL     1       0.829  74.388  78.477  1.00  0.00     0.153 HD
HETATM    7  C4  UNL     1       1.694  74.642  80.379  1.00  0.00     0.142 C 
HETATM    8  C5  UNL     1       0.923  75.741  81.123  1.00  0.00     0.213 C 
HETATM    9  O1  UNL     1       1.771  76.796  81.282  1.00  0.00    -0.302 OA
ENDROOT
TORSDOF 0
ENDMDL
MODEL 4
REMARK VINA RESULT: -4.424925775      1.360      1.550
REMARK  0 active torsions:
REMARK  status: ('A' for Active; 'I' for Inactive)
ROOT
HETATM    1  C1  UNL     1       3.681  75.721  80.890  1.00  0.00     0.143 C 
HETATM    2  N1  UNL     1       3.198  77.025  80.525  1.00  0.00    -0.200 NA
HETATM    3  C2  UNL     1       1.780  77.158  80.553  1.00  0.00     0.139 C 
HETATM    4  C3  UNL     1       0.996  76.117  79.870  1.00  0.00     0.130 C 
HETATM    5  N2  UNL     1       1.471  75.770  78.587  1.00  0.00    -0.418 N 
ATOM      6  H2  UNL     1       1.296  74.841  78.204  1.00  0.00     0.153 HD
HETATM    7  C4  UNL     1       2.184  76.718  77.854  1.00  0.00     0.142 C 
HETATM    8  C5  UNL     1       3.646  76.660  78.317  1.00  0.00     0.213 C 
HETATM    9  O1  UNL     1       3.766  77.496  79.386  1.00  0.00    -0.302 OA
ENDROOT
TORSDOF 0
ENDMDL
MODEL 5
REMARK VINA RESULT: -4.419105769      1.272      2.512
REMARK  0 active torsions:
REMARK  status: ('A' for Active; 'I' for Inactive)
ROOT
HETATM    1  C1  UNL     1       3.710  76.834  79.647  1.00  0.00     0.143 C 
HETATM    2  N1  UNL     1       2.817  76.654  80.759  1.00  0.00    -0.200 NA
HETATM    3  C2  UNL     1       2.342  75.321  80.925  1.00  0.00     0.139 C 
HETATM    4  C3  UNL     1       1.807  74.649  79.729  1.00  0.00     0.130 C 
HETATM    5  N2  UNL     1       0.926  75.436  78.958  1.00  0.00    -0.418 N 
ATOM      6  H2  UNL     1       0.819  75.265  77.957  1.00  0.00     0.153 HD
HETATM    7  C4  UNL     1       0.203  76.450  79.585  1.00  0.00     0.142 C 
HETATM    8  C5  UNL     1       1.107  77.687  79.657  1.00  0.00     0.213 C 
HETATM    9  O1  UNL     1       1.837  77.591  80.804  1.00  0.00    -0.302 OA
ENDROOT
TORSDOF 0
ENDMDL
