MODEL 1
REMARK VINA RESULT: -5.435534089      0.000      0.000
REMARK  4 active torsions:
REMARK  status: ('A' for Active; 'I' for Inactive)
REMARK    1  A    between atoms: C2_2  and  C3_3 
REMARK    2  A    between atoms: C2_2  and  N5_11 
REMARK    3  A    between atoms: C4_4  and  N1_5 
REMARK    4  A    between atoms: N5_11  and  N6_12 
ROOT
HETATM    1  C3  UNL     1      -0.894  74.612  79.587  1.00  0.00    -0.010 C 
HETATM    2  C4  UNL     1      -1.506  73.579  79.419  1.00  0.00     0.063 C 
ENDROOT
BRANCH   1   3
HETATM    3  C2  UNL     1      -0.148  75.829  79.774  1.00  0.00     0.159 C 
HETATM    4  C1  UNL     1       0.617  76.073  81.026  1.00  0.00     0.098 C 
BRANCH   3   5
HETATM    5  N5  UNL     1      -0.112  76.726  78.898  1.00  0.00    -0.329 NA
BRANCH   5   6
HETATM    6  N6  UNL     1      -0.043  77.505  77.927  1.00  0.00    -0.280 N 
ATOM      7  H62 UNL     1       0.759  76.936  77.655  1.00  0.00     0.191 HD
ATOM      8  H61 UNL     1      -0.088  78.200  77.183  1.00  0.00     0.191 HD
ENDBRANCH   5   6
ENDBRANCH   3   5
ENDBRANCH   1   3
BRANCH   2   9
HETATM    9  N1  UNL     1      -2.201  72.392  79.204  1.00  0.00    -0.124 N 
HETATM   10  N2  UNL     1      -3.443  72.008  79.310  1.00  0.00    -0.195 N 
HETATM   11  N3  UNL     1      -3.138  70.763  78.907  1.00  0.00     0.014 NA
ATOM     12  H2  UNL     1      -4.307  72.472  79.590  1.00  0.00     0.208 HD
HETATM   13  N4  UNL     1      -1.872  71.179  78.805  1.00  0.00    -0.195 N 
ATOM     14  H4  UNL     1      -0.997  70.733  78.528  1.00  0.00     0.208 HD
ENDBRANCH   2   9
TORSDOF 4
ENDMDL
MODEL 2
REMARK VINA RESULT: -5.226733521      1.610      5.389
REMARK  4 active torsions:
REMARK  status: ('A' for Active; 'I' for Inactive)
REMARK    1  A    between atoms: C2_2  and  C3_3 
REMARK    2  A    between atoms: C2_2  and  N5_11 
REMARK    3  A    between atoms: C4_4  and  N1_5 
REMARK    4  A    between atoms: N5_11  and  N6_12 
ROOT
HETATM    1  C3  UNL     1      -0.872  74.151  79.450  1.00  0.00    -0.010 C 
HETATM    2  C4  UNL     1      -0.261  75.139  79.800  1.00  0.00     0.063 C 
ENDROOT
BRANCH   1   3
HETATM    3  C2  UNL     1      -1.593  72.986  79.010  1.00  0.00     0.159 C 
HETATM    4  C1  UNL     1      -0.872  71.757  78.583  1.00  0.00     0.098 C 
BRANCH   3   5
HETATM    5  N5  UNL     1      -2.846  72.958  78.968  1.00  0.00    -0.329 NA
BRANCH   5   6
HETATM    6  N6  UNL     1      -4.087  73.073  78.982  1.00  0.00    -0.280 N 
ATOM      7  H62 UNL     1      -3.936  73.519  79.886  1.00  0.00     0.191 HD
ATOM      8  H61 UNL     1      -5.101  73.110  78.881  1.00  0.00     0.191 HD
ENDBRANCH   5   6
ENDBRANCH   3   5
ENDBRANCH   1   3
BRANCH   2   9
HETATM    9  N1  UNL     1       0.456  76.269  80.185  1.00  0.00    -0.124 N 
HETATM   10  N2  UNL     1       1.181  76.604  81.216  1.00  0.00    -0.195 N 
HETATM   11  N3  UNL     1       1.432  77.819  80.699  1.00  0.00     0.014 NA
ATOM     12  H2  UNL     1       1.451  76.130  82.078  1.00  0.00     0.208 HD
HETATM   13  N4  UNL     1       0.686  77.453  79.653  1.00  0.00    -0.195 N 
ATOM     14  H4  UNL     1       0.405  77.910  78.785  1.00  0.00     0.208 HD
ENDBRANCH   2   9
TORSDOF 4
ENDMDL
MODEL 3
REMARK VINA RESULT: -5.161836521      2.668      5.297
REMARK  4 active torsions:
REMARK  status: ('A' for Active; 'I' for Inactive)
REMARK    1  A    between atoms: C2_2  and  C3_3 
REMARK    2  A    between atoms: C2_2  and  N5_11 
REMARK    3  A    between atoms: C4_4  and  N1_5 
REMARK    4  A    between atoms: N5_11  and  N6_12 
ROOT
HETATM    1  C3  UNL     1      -0.642  72.589  79.050  1.00  0.00    -0.010 C 
HETATM    2  C4  UNL     1       0.391  73.218  79.152  1.00  0.00     0.063 C 
ENDROOT
BRANCH   1   3
HETATM    3  C2  UNL     1      -1.879  71.865  78.926  1.00  0.00     0.159 C 
HETATM    4  C1  UNL     1      -1.886  70.393  78.710  1.00  0.00     0.098 C 
BRANCH   3   5
HETATM    5  N5  UNL     1      -2.993  72.437  78.995  1.00  0.00    -0.329 NA
BRANCH   5   6
HETATM    6  N6  UNL     1      -4.023  73.137  79.038  1.00  0.00    -0.280 N 
ATOM      7  H62 UNL     1      -3.814  73.328  78.058  1.00  0.00     0.191 HD
ATOM      8  H61 UNL     1      -4.876  73.674  79.195  1.00  0.00     0.191 HD
ENDBRANCH   5   6
ENDBRANCH   3   5
ENDBRANCH   1   3
BRANCH   2   9
HETATM    9  N1  UNL     1       1.568  73.954  79.252  1.00  0.00    -0.124 N 
HETATM   10  N2  UNL     1       2.715  73.798  79.854  1.00  0.00    -0.195 N 
HETATM   11  N3  UNL     1       3.172  74.970  79.380  1.00  0.00     0.014 NA
ATOM     12  H2  UNL     1       3.109  73.072  80.451  1.00  0.00     0.208 HD
HETATM   13  N4  UNL     1       1.990  75.107  78.772  1.00  0.00    -0.195 N 
ATOM     14  H4  UNL     1       1.577  75.823  78.173  1.00  0.00     0.208 HD
ENDBRANCH   2   9
TORSDOF 4
ENDMDL
MODEL 4
REMARK VINA RESULT: -5.060366422      3.208      6.400
REMARK  4 active torsions:
REMARK  status: ('A' for Active; 'I' for Inactive)
REMARK    1  A    between atoms: C2_2  and  C3_3 
REMARK    2  A    between atoms: C2_2  and  N5_11 
REMARK    3  A    between atoms: C4_4  and  N1_5 
REMARK    4  A    between atoms: N5_11  and  N6_12 
ROOT
HETATM    1  C3  UNL     1       2.006  74.858  79.427  1.00  0.00    -0.010 C 
HETATM    2  C4  UNL     1       2.641  75.769  78.939  1.00  0.00     0.063 C 
ENDROOT
BRANCH   1   3
HETATM    3  C2  UNL     1       1.255  73.788  80.028  1.00  0.00     0.159 C 
HETATM    4  C1  UNL     1       1.299  73.553  81.497  1.00  0.00     0.098 C 
BRANCH   3   5
HETATM    5  N5  UNL     1       0.538  73.017  79.348  1.00  0.00    -0.329 NA
BRANCH   5   6
HETATM    6  N6  UNL     1      -0.237  72.377  78.610  1.00  0.00    -0.280 N 
ATOM      7  H62 UNL     1      -0.848  73.187  78.718  1.00  0.00     0.191 HD
ATOM      8  H61 UNL     1      -0.783  71.763  78.006  1.00  0.00     0.191 HD
ENDBRANCH   5   6
ENDBRANCH   3   5
ENDBRANCH   1   3
BRANCH   2   9
HETATM    9  N1  UNL     1       3.358  76.830  78.392  1.00  0.00    -0.124 N 
HETATM   10  N2  UNL     1       3.190  77.648  77.390  1.00  0.00    -0.195 N 
HETATM   11  N3  UNL     1       4.348  78.278  77.655  1.00  0.00     0.014 NA
ATOM     12  H2  UNL     1       2.465  77.764  76.683  1.00  0.00     0.208 HD
HETATM   13  N4  UNL     1       4.498  77.429  78.676  1.00  0.00    -0.195 N 
ATOM     14  H4  UNL     1       5.212  77.297  79.392  1.00  0.00     0.208 HD
ENDBRANCH   2   9
TORSDOF 4
ENDMDL
MODEL 5
REMARK VINA RESULT: -5.038680940      2.132      5.418
REMARK  4 active torsions:
REMARK  status: ('A' for Active; 'I' for Inactive)
REMARK    1  A    between atoms: C2_2  and  C3_3 
REMARK    2  A    between atoms: C2_2  and  N5_11 
REMARK    3  A    between atoms: C4_4  and  N1_5 
REMARK    4  A    between atoms: N5_11  and  N6_12 
ROOT
HETATM    1  C3  UNL     1      -1.092  74.638  79.885  1.00  0.00    -0.010 C 
HETATM    2  C4  UNL     1      -0.179  75.397  80.138  1.00  0.00     0.063 C 
ENDROOT
BRANCH   1   3
HETATM    3  C2  UNL     1      -2.171  73.727  79.608  1.00  0.00     0.159 C 
HETATM    4  C1  UNL     1      -1.925  72.446  78.892  1.00  0.00     0.098 C 
BRANCH   3   5
HETATM    5  N5  UNL     1      -3.351  73.971  79.954  1.00  0.00    -0.329 NA
BRANCH   5   6
HETATM    6  N6  UNL     1      -4.472  74.353  80.341  1.00  0.00    -0.280 N 
ATOM      7  H62 UNL     1      -4.690  74.399  79.346  1.00  0.00     0.191 HD
ATOM      8  H61 UNL     1      -5.345  74.653  80.775  1.00  0.00     0.191 HD
ENDBRANCH   5   6
ENDBRANCH   3   5
ENDBRANCH   1   3
BRANCH   2   9
HETATM    9  N1  UNL     1       0.860  76.269  80.450  1.00  0.00    -0.124 N 
HETATM   10  N2  UNL     1       1.007  77.565  80.490  1.00  0.00    -0.195 N 
HETATM   11  N3  UNL     1       2.288  77.450  80.880  1.00  0.00     0.014 NA
ATOM     12  H2  UNL     1       0.391  78.355  80.299  1.00  0.00     0.208 HD
HETATM   13  N4  UNL     1       2.114  76.127  80.832  1.00  0.00    -0.195 N 
ATOM     14  H4  UNL     1       2.714  75.323  81.018  1.00  0.00     0.208 HD
ENDBRANCH   2   9
TORSDOF 4
ENDMDL
