MODEL 1
REMARK VINA RESULT: -4.933476106      0.000      0.000
REMARK  1 active torsions:
REMARK  status: ('A' for Active; 'I' for Inactive)
REMARK    1  A    between atoms: O1_1  and  N1_3 
ROOT
HETATM    1  N1  UNL     1      -3.006  72.558  78.765  1.00  0.00    -0.198 NA
HETATM    2  C1  UNL     1      -2.810  71.154  78.969  1.00  0.00     0.122 C 
HETATM    3  C2  UNL     1      -1.393  70.708  78.937  1.00  0.00     0.043 C 
HETATM    4  C3  UNL     1      -0.425  71.729  78.426  1.00  0.00     0.169 C 
HETATM    5  O2  UNL     1      -0.132  72.730  79.325  1.00  0.00    -0.390 OA
HETATM    6  C4  UNL     1      -1.026  73.792  79.232  1.00  0.00     0.184 C 
HETATM    7  C5  UNL     1      -2.345  73.285  79.822  1.00  0.00     0.146 C 
ENDROOT
BRANCH   1   8
HETATM    8  O1  UNL     1      -4.330  72.810  78.753  1.00  0.00    -0.313 OA
ATOM      9  H1  UNL     1      -4.488  73.625  79.214  1.00  0.00     0.237 HD
ENDBRANCH   1   8
TORSDOF 1
ENDMDL
MODEL 2
REMARK VINA RESULT: -4.614407409      1.658      2.921
REMARK  1 active torsions:
REMARK  status: ('A' for Active; 'I' for Inactive)
REMARK    1  A    between atoms: O1_1  and  N1_3 
ROOT
HETATM    1  N1  UNL     1      -0.713  73.733  80.304  1.00  0.00    -0.198 NA
HETATM    2  C1  UNL     1       0.112  73.021  79.376  1.00  0.00     0.122 C 
HETATM    3  C2  UNL     1      -0.601  72.021  78.541  1.00  0.00     0.043 C 
HETATM    4  C3  UNL     1      -1.998  71.715  78.985  1.00  0.00     0.169 C 
HETATM    5  O2  UNL     1      -2.918  72.691  78.673  1.00  0.00    -0.390 OA
HETATM    6  C4  UNL     1      -3.005  73.662  79.667  1.00  0.00     0.184 C 
HETATM    7  C5  UNL     1      -1.712  74.477  79.575  1.00  0.00     0.146 C 
ENDROOT
BRANCH   1   8
HETATM    8  O1  UNL     1       0.068  74.553  81.035  1.00  0.00    -0.313 OA
ATOM      9  H1  UNL     1       0.273  74.124  81.857  1.00  0.00     0.237 HD
ENDBRANCH   1   8
TORSDOF 1
ENDMDL
MODEL 3
REMARK VINA RESULT: -4.591051618      6.273      6.773
REMARK  1 active torsions:
REMARK  status: ('A' for Active; 'I' for Inactive)
REMARK    1  A    between atoms: O1_1  and  N1_3 
ROOT
HETATM    1  N1  UNL     1       2.861  77.744  78.468  1.00  0.00    -0.198 NA
HETATM    2  C1  UNL     1       3.386  76.571  77.835  1.00  0.00     0.122 C 
HETATM    3  C2  UNL     1       3.508  75.383  78.718  1.00  0.00     0.043 C 
HETATM    4  C3  UNL     1       3.330  75.665  80.178  1.00  0.00     0.169 C 
HETATM    5  O2  UNL     1       2.023  75.866  80.561  1.00  0.00    -0.390 OA
HETATM    6  C4  UNL     1       1.643  77.199  80.439  1.00  0.00     0.184 C 
HETATM    7  C5  UNL     1       1.524  77.469  78.936  1.00  0.00     0.146 C 
ENDROOT
BRANCH   1   8
HETATM    8  O1  UNL     1       2.867  78.754  77.576  1.00  0.00    -0.313 OA
ATOM      9  H1  UNL     1       2.393  79.489  77.947  1.00  0.00     0.237 HD
ENDBRANCH   1   8
TORSDOF 1
ENDMDL
MODEL 4
REMARK VINA RESULT: -4.591028127      6.484      7.066
REMARK  1 active torsions:
REMARK  status: ('A' for Active; 'I' for Inactive)
REMARK    1  A    between atoms: O1_1  and  N1_3 
ROOT
HETATM    1  N1  UNL     1       3.150  76.342  78.164  1.00  0.00    -0.198 NA
HETATM    2  C1  UNL     1       2.043  77.163  77.776  1.00  0.00     0.122 C 
HETATM    3  C2  UNL     1       1.181  77.624  78.894  1.00  0.00     0.043 C 
HETATM    4  C3  UNL     1       1.434  76.943  80.203  1.00  0.00     0.169 C 
HETATM    5  O2  UNL     1       2.572  77.366  80.852  1.00  0.00    -0.390 OA
HETATM    6  C4  UNL     1       3.694  76.642  80.462  1.00  0.00     0.184 C 
HETATM    7  C5  UNL     1       4.016  77.099  79.036  1.00  0.00     0.146 C 
ENDROOT
BRANCH   1   8
HETATM    8  O1  UNL     1       3.803  75.945  77.054  1.00  0.00    -0.313 OA
ATOM      9  H1  UNL     1       3.179  75.537  76.465  1.00  0.00     0.237 HD
ENDBRANCH   1   8
TORSDOF 1
ENDMDL
MODEL 5
REMARK VINA RESULT: -4.561034590      2.570      3.666
REMARK  1 active torsions:
REMARK  status: ('A' for Active; 'I' for Inactive)
REMARK    1  A    between atoms: O1_1  and  N1_3 
ROOT
HETATM    1  N1  UNL     1       0.627  73.281  80.339  1.00  0.00    -0.198 NA
HETATM    2  C1  UNL     1      -0.094  72.473  79.401  1.00  0.00     0.122 C 
HETATM    3  C2  UNL     1      -1.384  73.048  78.940  1.00  0.00     0.043 C 
HETATM    4  C3  UNL     1      -1.860  74.232  79.724  1.00  0.00     0.169 C 
HETATM    5  O2  UNL     1      -1.191  75.403  79.444  1.00  0.00    -0.390 OA
HETATM    6  C4  UNL     1      -0.058  75.558  80.236  1.00  0.00     0.184 C 
HETATM    7  C5  UNL     1       0.962  74.540  79.718  1.00  0.00     0.146 C 
ENDROOT
BRANCH   1   8
HETATM    8  O1  UNL     1       1.734  72.614  80.719  1.00  0.00    -0.313 OA
ATOM      9  H1  UNL     1       1.529  72.097  81.488  1.00  0.00     0.237 HD
ENDBRANCH   1   8
TORSDOF 1
ENDMDL
