MODEL 1
REMARK VINA RESULT: -8.910406051      0.000      0.000
REMARK  13 active torsions:
REMARK  status: ('A' for Active; 'I' for Inactive)
REMARK    1  A    between atoms: C2_2  and  C3_3 
REMARK    2  A    between atoms: N2_5  and  C4_7 
REMARK    3  A    between atoms: C4_7  and  C5_8 
REMARK    4  A    between atoms: C5_8  and  C6_9 
REMARK    5  A    between atoms: C6_9  and  C7_10 
REMARK    6  A    between atoms: C13_19  and  N4_20 
REMARK    7  A    between atoms: N4_20  and  S1_22 
REMARK    8  A    between atoms: C18_32  and  C19_33 
REMARK    9  A    between atoms: C19_33  and  C20_34 
REMARK   10  A    between atoms: C24_41  and  C25_42 
REMARK   11  A    between atoms: C25_42  and  C26_43 
REMARK   12  A    between atoms: N7_48  and  C30_49 
REMARK   13  A    between atoms: C30_49  and  C31_50 
ROOT
HETATM    1  C7  UNL     1     -15.643  14.416 -20.923  1.00  0.00     0.179 C 
HETATM    2  C8  UNL     1     -15.002  15.665 -21.310  1.00  0.00     0.240 C 
HETATM    3  O1  UNL     1     -15.117  16.654 -20.502  1.00  0.00    -0.271 OA
HETATM    4  N3  UNL     1     -14.250  15.926 -22.484  1.00  0.00    -0.358 N 
ATOM      5  H3  UNL     1     -14.148  16.900 -22.769  1.00  0.00     0.162 HD
HETATM    6  C9  UNL     1     -13.617  14.924 -23.308  1.00  0.00     0.134 C 
HETATM    7  C10 UNL     1     -12.271  15.505 -23.755  1.00  0.00     0.113 C 
HETATM    8  C11 UNL     1     -12.333  16.829 -24.207  1.00  0.00    -0.103 C 
HETATM    9  C12 UNL     1     -12.368  17.896 -24.550  1.00  0.00    -0.080 C 
HETATM   10  C13 UNL     1     -12.384  19.258 -24.964  1.00  0.00     0.184 C 
HETATM   11  C15 UNL     1     -13.710  19.598 -25.601  1.00  0.00     0.109 C 
HETATM   12  C16 UNL     1     -13.433  20.550 -26.747  1.00  0.00     0.023 C 
HETATM   13  C17 UNL     1     -14.453  18.426 -26.124  1.00  0.00     0.229 C 
HETATM   14  O4  UNL     1     -14.065  18.078 -27.307  1.00  0.00    -0.273 OA
HETATM   15  N5  UNL     1     -15.472  17.666 -25.557  1.00  0.00    -0.322 N 
ATOM     16  H5  UNL     1     -15.215  16.690 -25.412  1.00  0.00     0.169 HD
HETATM   17  C18 UNL     1     -16.805  17.972 -25.134  1.00  0.00     0.099 C 
HETATM   18  C23 UNL     1     -16.938  18.187 -23.656  1.00  0.00     0.268 C 
HETATM   19  O5  UNL     1     -16.368  19.219 -23.123  1.00  0.00    -0.266 OA
HETATM   20  N6  UNL     1     -17.630  17.374 -22.745  1.00  0.00    -0.342 N 
ATOM     21  H6  UNL     1     -17.847  17.785 -21.837  1.00  0.00     0.163 HD
HETATM   22  C24 UNL     1     -18.079  15.977 -22.971  1.00  0.00     0.177 C 
HETATM   23  C29 UNL     1     -17.969  15.202 -21.728  1.00  0.00     0.243 C 
HETATM   24  O6  UNL     1     -18.915  15.454 -20.876  1.00  0.00    -0.271 OA
HETATM   25  N7  UNL     1     -17.031  14.235 -21.283  1.00  0.00    -0.337 N 
ENDROOT
BRANCH   1  26
HETATM   26  C6  UNL     1     -15.403  14.159 -19.423  1.00  0.00     0.037 C 
BRANCH  26  27
HETATM   27  C5  UNL     1     -14.676  12.845 -19.223  1.00  0.00     0.022 C 
BRANCH  27  28
HETATM   28  C4  UNL     1     -15.066  12.233 -17.868  1.00  0.00     0.120 C 
BRANCH  28  29
HETATM   29  N2  UNL     1     -14.286  11.040 -17.617  1.00  0.00    -0.382 N 
HETATM   30  C3  UNL     1     -14.786   9.867 -17.736  1.00  0.00     0.088 C 
HETATM   31  N1  UNL     1     -16.140   9.741 -18.124  1.00  0.00    -0.088 NA
ATOM     32  H2  UNL     1     -13.311  11.135 -17.338  1.00  0.00     0.160 HD
BRANCH  30  33
HETATM   33  C2  UNL     1     -14.010   8.631 -17.484  1.00  0.00     0.068 C 
HETATM   34  C1  UNL     1     -14.026   8.289 -15.993  1.00  0.00     0.012 C 
ENDBRANCH  30  33
ENDBRANCH  28  29
ENDBRANCH  27  28
ENDBRANCH  26  27
ENDBRANCH   1  26
BRANCH  25  35
HETATM   35  C30 UNL     1     -17.509  12.849 -21.098  1.00  0.00     0.130 C 
BRANCH  35  36
HETATM   36  C31 UNL     1     -18.834  12.721 -20.452  1.00  0.00    -0.005 C 
HETATM   37  C32 UNL     1     -18.669  12.324 -18.972  1.00  0.00     0.011 C 
HETATM   38  C33 UNL     1     -19.816  11.771 -21.016  1.00  0.00     0.011 C 
ENDBRANCH  35  36
ENDBRANCH  25  35
BRANCH  22  39
HETATM   39  C25 UNL     1     -19.461  16.153 -23.518  1.00  0.00     0.038 C 
BRANCH  39  40
HETATM   40  C26 UNL     1     -19.984  15.266 -24.569  1.00  0.00    -0.020 C 
HETATM   41  C27 UNL     1     -20.790  14.136 -23.805  1.00  0.00     0.009 C 
HETATM   42  C28 UNL     1     -18.976  14.425 -25.326  1.00  0.00     0.009 C 
ENDBRANCH  39  40
ENDBRANCH  22  39
BRANCH  17  43
HETATM   43  C19 UNL     1     -17.638  18.832 -25.971  1.00  0.00     0.012 C 
BRANCH  43  44
HETATM   44  C20 UNL     1     -17.171  19.752 -26.987  1.00  0.00     0.002 C 
HETATM   45  C21 UNL     1     -17.424  18.994 -28.328  1.00  0.00     0.013 C 
HETATM   46  C22 UNL     1     -17.931  21.035 -27.185  1.00  0.00     0.013 C 
ENDBRANCH  43  44
ENDBRANCH  17  43
BRANCH  10  47
HETATM   47  N4  UNL     1     -11.289  19.477 -25.875  1.00  0.00    -0.303 N 
ATOM     48  H4  UNL     1     -11.287  19.110 -26.828  1.00  0.00     0.173 HD
BRANCH  47  49
HETATM   49  S1  UNL     1     -10.002  20.391 -25.245  1.00  0.00     0.223 S 
HETATM   50  C14 UNL     1     -10.555  21.719 -24.212  1.00  0.00     0.186 C 
HETATM   51  O2  UNL     1      -9.255  21.015 -26.398  1.00  0.00    -0.206 OA
HETATM   52  O3  UNL     1      -8.997  19.553 -24.504  1.00  0.00    -0.206 OA
ENDBRANCH  47  49
ENDBRANCH  10  47
TORSDOF 13
ENDMDL
MODEL 2
REMARK VINA RESULT: -8.760713775      0.878      1.219
REMARK  13 active torsions:
REMARK  status: ('A' for Active; 'I' for Inactive)
REMARK    1  A    between atoms: C2_2  and  C3_3 
REMARK    2  A    between atoms: N2_5  and  C4_7 
REMARK    3  A    between atoms: C4_7  and  C5_8 
REMARK    4  A    between atoms: C5_8  and  C6_9 
REMARK    5  A    between atoms: C6_9  and  C7_10 
REMARK    6  A    between atoms: C13_19  and  N4_20 
REMARK    7  A    between atoms: N4_20  and  S1_22 
REMARK    8  A    between atoms: C18_32  and  C19_33 
REMARK    9  A    between atoms: C19_33  and  C20_34 
REMARK   10  A    between atoms: C24_41  and  C25_42 
REMARK   11  A    between atoms: C25_42  and  C26_43 
REMARK   12  A    between atoms: N7_48  and  C30_49 
REMARK   13  A    between atoms: C30_49  and  C31_50 
ROOT
HETATM    1  C7  UNL     1     -15.442  14.319 -20.327  1.00  0.00     0.179 C 
HETATM    2  C8  UNL     1     -14.727  15.507 -20.771  1.00  0.00     0.240 C 
HETATM    3  O1  UNL     1     -14.706  16.509 -19.971  1.00  0.00    -0.271 OA
HETATM    4  N3  UNL     1     -14.034  15.695 -21.995  1.00  0.00    -0.358 N 
ATOM      5  H3  UNL     1     -13.871  16.654 -22.299  1.00  0.00     0.162 HD
HETATM    6  C9  UNL     1     -13.542  14.637 -22.844  1.00  0.00     0.134 C 
HETATM    7  C10 UNL     1     -12.185  15.100 -23.385  1.00  0.00     0.113 C 
HETATM    8  C11 UNL     1     -12.166  16.421 -23.850  1.00  0.00    -0.103 C 
HETATM    9  C12 UNL     1     -12.135  17.485 -24.204  1.00  0.00    -0.080 C 
HETATM   10  C13 UNL     1     -12.066  18.839 -24.635  1.00  0.00     0.184 C 
HETATM   11  C15 UNL     1     -13.398  19.284 -25.189  1.00  0.00     0.109 C 
HETATM   12  C16 UNL     1     -13.119  20.200 -26.364  1.00  0.00     0.023 C 
HETATM   13  C17 UNL     1     -14.268  18.174 -25.647  1.00  0.00     0.229 C 
HETATM   14  O4  UNL     1     -13.989  17.785 -26.848  1.00  0.00    -0.273 OA
HETATM   15  N5  UNL     1     -15.307  17.506 -25.005  1.00  0.00    -0.322 N 
ATOM     16  H5  UNL     1     -15.123  16.513 -24.864  1.00  0.00     0.169 HD
HETATM   17  C18 UNL     1     -16.580  17.926 -24.501  1.00  0.00     0.099 C 
HETATM   18  C23 UNL     1     -16.597  18.163 -23.021  1.00  0.00     0.268 C 
HETATM   19  O5  UNL     1     -15.910  19.148 -22.539  1.00  0.00    -0.266 OA
HETATM   20  N6  UNL     1     -17.293  17.418 -22.056  1.00  0.00    -0.342 N 
ATOM     21  H6  UNL     1     -17.415  17.853 -21.141  1.00  0.00     0.163 HD
HETATM   22  C24 UNL     1     -17.869  16.062 -22.234  1.00  0.00     0.177 C 
HETATM   23  C29 UNL     1     -17.743  15.290 -20.990  1.00  0.00     0.243 C 
HETATM   24  O6  UNL     1     -18.607  15.627 -20.082  1.00  0.00    -0.271 OA
HETATM   25  N7  UNL     1     -16.861  14.252 -20.594  1.00  0.00    -0.337 N 
ENDROOT
BRANCH   1  26
HETATM   26  C6  UNL     1     -15.127  14.055 -18.842  1.00  0.00     0.037 C 
BRANCH  26  27
HETATM   27  C5  UNL     1     -14.396  12.738 -18.684  1.00  0.00     0.022 C 
BRANCH  27  28
HETATM   28  C4  UNL     1     -14.936  11.983 -17.460  1.00  0.00     0.120 C 
BRANCH  28  29
HETATM   29  N2  UNL     1     -14.229  10.731 -17.294  1.00  0.00    -0.382 N 
HETATM   30  C3  UNL     1     -14.643   9.644 -17.827  1.00  0.00     0.088 C 
HETATM   31  N1  UNL     1     -15.826   9.673 -18.602  1.00  0.00    -0.088 NA
ATOM     32  H2  UNL     1     -13.377  10.714 -16.735  1.00  0.00     0.160 HD
BRANCH  30  33
HETATM   33  C2  UNL     1     -13.938   8.350 -17.671  1.00  0.00     0.068 C 
HETATM   34  C1  UNL     1     -14.297   7.709 -16.329  1.00  0.00     0.012 C 
ENDBRANCH  30  33
ENDBRANCH  28  29
ENDBRANCH  27  28
ENDBRANCH  26  27
ENDBRANCH   1  26
BRANCH  25  35
HETATM   35  C30 UNL     1     -17.439  12.912 -20.360  1.00  0.00     0.130 C 
BRANCH  35  36
HETATM   36  C31 UNL     1     -17.914  12.211 -21.573  1.00  0.00    -0.005 C 
HETATM   37  C32 UNL     1     -19.148  11.348 -21.242  1.00  0.00     0.011 C 
HETATM   38  C33 UNL     1     -16.982  11.317 -22.293  1.00  0.00     0.011 C 
ENDBRANCH  35  36
ENDBRANCH  25  35
BRANCH  22  39
HETATM   39  C25 UNL     1     -19.266  16.348 -22.693  1.00  0.00     0.038 C 
BRANCH  39  40
HETATM   40  C26 UNL     1     -20.004  15.392 -23.532  1.00  0.00    -0.020 C 
HETATM   41  C27 UNL     1     -21.171  16.229 -24.201  1.00  0.00     0.009 C 
HETATM   42  C28 UNL     1     -20.805  14.322 -22.816  1.00  0.00     0.009 C 
ENDBRANCH  39  40
ENDBRANCH  22  39
BRANCH  17  43
HETATM   43  C19 UNL     1     -17.392  18.846 -25.294  1.00  0.00     0.012 C 
BRANCH  43  44
HETATM   44  C20 UNL     1     -18.307  18.483 -26.356  1.00  0.00     0.002 C 
HETATM   45  C21 UNL     1     -17.507  18.783 -27.663  1.00  0.00     0.013 C 
HETATM   46  C22 UNL     1     -18.668  17.032 -26.517  1.00  0.00     0.013 C 
ENDBRANCH  43  44
ENDBRANCH  17  43
BRANCH  10  47
HETATM   47  N4  UNL     1     -11.018  18.959 -25.618  1.00  0.00    -0.303 N 
ATOM     48  H4  UNL     1     -11.011  18.412 -26.479  1.00  0.00     0.173 HD
BRANCH  47  49
HETATM   49  S1  UNL     1      -9.797  20.077 -25.234  1.00  0.00     0.223 S 
HETATM   50  C14 UNL     1     -10.311  21.250 -24.010  1.00  0.00     0.186 C 
HETATM   51  O2  UNL     1      -9.466  20.862 -26.479  1.00  0.00    -0.206 OA
HETATM   52  O3  UNL     1      -8.516  19.420 -24.804  1.00  0.00    -0.206 OA
ENDBRANCH  47  49
ENDBRANCH  10  47
TORSDOF 13
ENDMDL
MODEL 3
REMARK VINA RESULT: -8.612185536      1.092      1.380
REMARK  13 active torsions:
REMARK  status: ('A' for Active; 'I' for Inactive)
REMARK    1  A    between atoms: C2_2  and  C3_3 
REMARK    2  A    between atoms: N2_5  and  C4_7 
REMARK    3  A    between atoms: C4_7  and  C5_8 
REMARK    4  A    between atoms: C5_8  and  C6_9 
REMARK    5  A    between atoms: C6_9  and  C7_10 
REMARK    6  A    between atoms: C13_19  and  N4_20 
REMARK    7  A    between atoms: N4_20  and  S1_22 
REMARK    8  A    between atoms: C18_32  and  C19_33 
REMARK    9  A    between atoms: C19_33  and  C20_34 
REMARK   10  A    between atoms: C24_41  and  C25_42 
REMARK   11  A    between atoms: C25_42  and  C26_43 
REMARK   12  A    between atoms: N7_48  and  C30_49 
REMARK   13  A    between atoms: C30_49  and  C31_50 
ROOT
HETATM    1  C7  UNL     1     -15.478  14.048 -20.580  1.00  0.00     0.179 C 
HETATM    2  C8  UNL     1     -14.782  15.278 -20.936  1.00  0.00     0.240 C 
HETATM    3  O1  UNL     1     -14.787  16.222 -20.070  1.00  0.00    -0.271 OA
HETATM    4  N3  UNL     1     -14.085  15.561 -22.139  1.00  0.00    -0.358 N 
ATOM      5  H3  UNL     1     -13.939  16.542 -22.375  1.00  0.00     0.162 HD
HETATM    6  C9  UNL     1     -13.566  14.573 -23.053  1.00  0.00     0.134 C 
HETATM    7  C10 UNL     1     -12.215  15.098 -23.551  1.00  0.00     0.113 C 
HETATM    8  C11 UNL     1     -12.219  16.447 -23.924  1.00  0.00    -0.103 C 
HETATM    9  C12 UNL     1     -12.206  17.533 -24.206  1.00  0.00    -0.080 C 
HETATM   10  C13 UNL     1     -12.160  18.914 -24.542  1.00  0.00     0.184 C 
HETATM   11  C15 UNL     1     -13.496  19.370 -25.077  1.00  0.00     0.109 C 
HETATM   12  C16 UNL     1     -13.227  20.369 -26.184  1.00  0.00     0.023 C 
HETATM   13  C17 UNL     1     -14.342  18.278 -25.616  1.00  0.00     0.229 C 
HETATM   14  O4  UNL     1     -14.046  17.977 -26.838  1.00  0.00    -0.273 OA
HETATM   15  N5  UNL     1     -15.371  17.548 -25.030  1.00  0.00    -0.322 N 
ATOM     16  H5  UNL     1     -15.169  16.551 -24.955  1.00  0.00     0.169 HD
HETATM   17  C18 UNL     1     -16.656  17.908 -24.510  1.00  0.00     0.099 C 
HETATM   18  C23 UNL     1     -16.688  18.044 -23.017  1.00  0.00     0.268 C 
HETATM   19  O5  UNL     1     -16.025  19.006 -22.464  1.00  0.00    -0.266 OA
HETATM   20  N6  UNL     1     -17.377  17.222 -22.111  1.00  0.00    -0.342 N 
ATOM     21  H6  UNL     1     -17.513  17.591 -21.169  1.00  0.00     0.163 HD
HETATM   22  C24 UNL     1     -17.925  15.870 -22.384  1.00  0.00     0.177 C 
HETATM   23  C29 UNL     1     -17.793  15.018 -21.194  1.00  0.00     0.243 C 
HETATM   24  O6  UNL     1     -18.670  15.276 -20.274  1.00  0.00    -0.271 OA
HETATM   25  N7  UNL     1     -16.893  13.973 -20.862  1.00  0.00    -0.337 N 
ENDROOT
BRANCH   1  26
HETATM   26  C6  UNL     1     -15.168  13.690 -19.113  1.00  0.00     0.037 C 
BRANCH  26  27
HETATM   27  C5  UNL     1     -14.546  12.312 -19.027  1.00  0.00     0.022 C 
BRANCH  27  28
HETATM   28  C4  UNL     1     -14.556  11.823 -17.571  1.00  0.00     0.120 C 
BRANCH  28  29
HETATM   29  N2  UNL     1     -15.630  10.874 -17.370  1.00  0.00    -0.382 N 
HETATM   30  C3  UNL     1     -15.546   9.926 -16.515  1.00  0.00     0.088 C 
HETATM   31  N1  UNL     1     -14.365   9.808 -15.745  1.00  0.00    -0.088 NA
ATOM     32  H2  UNL     1     -16.479  10.962 -17.928  1.00  0.00     0.160 HD
BRANCH  30  33
HETATM   33  C2  UNL     1     -16.630   8.941 -16.292  1.00  0.00     0.068 C 
HETATM   34  C1  UNL     1     -17.797   9.213 -17.242  1.00  0.00     0.012 C 
ENDBRANCH  30  33
ENDBRANCH  28  29
ENDBRANCH  27  28
ENDBRANCH  26  27
ENDBRANCH   1  26
BRANCH  25  35
HETATM   35  C30 UNL     1     -17.447  12.609 -20.724  1.00  0.00     0.130 C 
BRANCH  35  36
HETATM   36  C31 UNL     1     -18.908  12.542 -20.502  1.00  0.00    -0.005 C 
HETATM   37  C32 UNL     1     -19.207  12.165 -19.037  1.00  0.00     0.011 C 
HETATM   38  C33 UNL     1     -19.716  11.620 -21.327  1.00  0.00     0.011 C 
ENDBRANCH  35  36
ENDBRANCH  25  35
BRANCH  22  39
HETATM   39  C25 UNL     1     -19.323  16.160 -22.834  1.00  0.00     0.038 C 
BRANCH  39  40
HETATM   40  C26 UNL     1     -19.996  15.311 -23.830  1.00  0.00    -0.020 C 
HETATM   41  C27 UNL     1     -21.106  14.515 -23.027  1.00  0.00     0.009 C 
HETATM   42  C28 UNL     1     -19.195  14.162 -24.410  1.00  0.00     0.009 C 
ENDBRANCH  39  40
ENDBRANCH  22  39
BRANCH  17  43
HETATM   43  C19 UNL     1     -17.481  18.864 -25.245  1.00  0.00     0.012 C 
BRANCH  43  44
HETATM   44  C20 UNL     1     -18.392  18.555 -26.327  1.00  0.00     0.002 C 
HETATM   45  C21 UNL     1     -17.541  18.790 -27.615  1.00  0.00     0.013 C 
HETATM   46  C22 UNL     1     -18.844  17.130 -26.488  1.00  0.00     0.013 C 
ENDBRANCH  43  44
ENDBRANCH  17  43
BRANCH  10  47
HETATM   47  N4  UNL     1     -11.108  19.120 -25.507  1.00  0.00    -0.303 N 
ATOM     48  H4  UNL     1     -11.075  18.622 -26.396  1.00  0.00     0.173 HD
BRANCH  47  49
HETATM   49  S1  UNL     1      -9.928  20.256 -25.050  1.00  0.00     0.223 S 
HETATM   50  C14 UNL     1      -9.319  21.191 -26.426  1.00  0.00     0.186 C 
HETATM   51  O2  UNL     1      -8.751  19.509 -24.474  1.00  0.00    -0.206 OA
HETATM   52  O3  UNL     1     -10.400  21.187 -23.969  1.00  0.00    -0.206 OA
ENDBRANCH  47  49
ENDBRANCH  10  47
TORSDOF 13
ENDMDL
MODEL 4
REMARK VINA RESULT: -8.004853958      2.600      3.680
REMARK  13 active torsions:
REMARK  status: ('A' for Active; 'I' for Inactive)
REMARK    1  A    between atoms: C2_2  and  C3_3 
REMARK    2  A    between atoms: N2_5  and  C4_7 
REMARK    3  A    between atoms: C4_7  and  C5_8 
REMARK    4  A    between atoms: C5_8  and  C6_9 
REMARK    5  A    between atoms: C6_9  and  C7_10 
REMARK    6  A    between atoms: C13_19  and  N4_20 
REMARK    7  A    between atoms: N4_20  and  S1_22 
REMARK    8  A    between atoms: C18_32  and  C19_33 
REMARK    9  A    between atoms: C19_33  and  C20_34 
REMARK   10  A    between atoms: C24_41  and  C25_42 
REMARK   11  A    between atoms: C25_42  and  C26_43 
REMARK   12  A    between atoms: N7_48  and  C30_49 
REMARK   13  A    between atoms: C30_49  and  C31_50 
ROOT
HETATM    1  C7  UNL     1     -14.814  17.401 -22.590  1.00  0.00     0.179 C 
HETATM    2  C8  UNL     1     -14.140  18.300 -23.517  1.00  0.00     0.240 C 
HETATM    3  O1  UNL     1     -14.017  19.524 -23.157  1.00  0.00    -0.271 OA
HETATM    4  N3  UNL     1     -13.588  17.982 -24.785  1.00  0.00    -0.358 N 
ATOM      5  H3  UNL     1     -13.449  18.750 -25.441  1.00  0.00     0.162 HD
HETATM    6  C9  UNL     1     -13.206  16.660 -25.220  1.00  0.00     0.134 C 
HETATM    7  C10 UNL     1     -11.914  16.816 -26.029  1.00  0.00     0.113 C 
HETATM    8  C11 UNL     1     -11.933  17.867 -26.954  1.00  0.00    -0.103 C 
HETATM    9  C12 UNL     1     -11.930  18.719 -27.683  1.00  0.00    -0.080 C 
HETATM   10  C13 UNL     1     -11.894  19.811 -28.595  1.00  0.00     0.184 C 
HETATM   11  C15 UNL     1     -13.275  20.088 -29.139  1.00  0.00     0.109 C 
HETATM   12  C16 UNL     1     -13.120  20.485 -30.593  1.00  0.00     0.023 C 
HETATM   13  C17 UNL     1     -14.204  18.935 -29.057  1.00  0.00     0.229 C 
HETATM   14  O4  UNL     1     -14.067  18.113 -30.046  1.00  0.00    -0.273 OA
HETATM   15  N5  UNL     1     -15.171  18.609 -28.110  1.00  0.00    -0.322 N 
ATOM     16  H5  UNL     1     -14.984  17.732 -27.626  1.00  0.00     0.169 HD
HETATM   17  C18 UNL     1     -16.374  19.253 -27.676  1.00  0.00     0.099 C 
HETATM   18  C23 UNL     1     -16.221  20.024 -26.399  1.00  0.00     0.268 C 
HETATM   19  O5  UNL     1     -15.473  21.079 -26.394  1.00  0.00    -0.266 OA
HETATM   20  N6  UNL     1     -16.813  19.729 -25.161  1.00  0.00    -0.342 N 
ATOM     21  H6  UNL     1     -16.825  20.478 -24.469  1.00  0.00     0.163 HD
HETATM   22  C24 UNL     1     -17.421  18.436 -24.757  1.00  0.00     0.177 C 
HETATM   23  C29 UNL     1     -17.164  18.176 -23.334  1.00  0.00     0.243 C 
HETATM   24  O6  UNL     1     -17.916  18.872 -22.538  1.00  0.00    -0.271 OA
HETATM   25  N7  UNL     1     -16.255  17.315 -22.668  1.00  0.00    -0.337 N 
ENDROOT
BRANCH   1  26
HETATM   26  C6  UNL     1     -14.336  17.692 -21.154  1.00  0.00     0.037 C 
BRANCH  26  27
HETATM   27  C5  UNL     1     -13.222  16.741 -20.767  1.00  0.00     0.022 C 
BRANCH  27  28
HETATM   28  C4  UNL     1     -13.605  15.303 -21.148  1.00  0.00     0.120 C 
BRANCH  28  29
HETATM   29  N2  UNL     1     -14.315  14.670 -20.057  1.00  0.00    -0.382 N 
HETATM   30  C3  UNL     1     -14.955  13.573 -20.212  1.00  0.00     0.088 C 
HETATM   31  N1  UNL     1     -14.965  12.965 -21.489  1.00  0.00    -0.088 NA
ATOM     32  H2  UNL     1     -14.306  15.112 -19.138  1.00  0.00     0.160 HD
BRANCH  30  33
HETATM   33  C2  UNL     1     -15.690  12.906 -19.112  1.00  0.00     0.068 C 
HETATM   34  C1  UNL     1     -14.725  12.101 -18.240  1.00  0.00     0.012 C 
ENDBRANCH  30  33
ENDBRANCH  28  29
ENDBRANCH  27  28
ENDBRANCH  26  27
ENDBRANCH   1  26
BRANCH  25  35
HETATM   35  C30 UNL     1     -16.818  16.191 -21.892  1.00  0.00     0.130 C 
BRANCH  35  36
HETATM   36  C31 UNL     1     -17.885  15.427 -22.574  1.00  0.00    -0.005 C 
HETATM   37  C32 UNL     1     -18.913  14.912 -21.546  1.00  0.00     0.011 C 
HETATM   38  C33 UNL     1     -17.514  14.254 -23.393  1.00  0.00     0.011 C 
ENDBRANCH  35  36
ENDBRANCH  25  35
BRANCH  22  39
HETATM   39  C25 UNL     1     -18.857  18.605 -25.147  1.00  0.00     0.038 C 
BRANCH  39  40
HETATM   40  C26 UNL     1     -19.628  17.489 -25.717  1.00  0.00    -0.020 C 
HETATM   41  C27 UNL     1     -20.583  16.998 -24.551  1.00  0.00     0.009 C 
HETATM   42  C28 UNL     1     -18.873  16.210 -26.016  1.00  0.00     0.009 C 
ENDBRANCH  39  40
ENDBRANCH  22  39
BRANCH  17  43
HETATM   43  C19 UNL     1     -17.260  19.854 -28.670  1.00  0.00     0.012 C 
BRANCH  43  44
HETATM   44  C20 UNL     1     -17.108  21.161 -29.274  1.00  0.00     0.002 C 
HETATM   45  C21 UNL     1     -16.972  20.858 -30.800  1.00  0.00     0.013 C 
HETATM   46  C22 UNL     1     -18.280  22.103 -29.229  1.00  0.00     0.013 C 
ENDBRANCH  43  44
ENDBRANCH  17  43
BRANCH  10  47
HETATM   47  N4  UNL     1     -10.963  19.501 -29.651  1.00  0.00    -0.303 N 
ATOM     48  H4  UNL     1     -11.222  18.940 -30.462  1.00  0.00     0.173 HD
BRANCH  47  49
HETATM   49  S1  UNL     1      -9.401  20.140 -29.442  1.00  0.00     0.223 S 
HETATM   50  C14 UNL     1      -8.233  18.918 -28.913  1.00  0.00     0.186 C 
HETATM   51  O2  UNL     1      -9.459  21.188 -28.359  1.00  0.00    -0.206 OA
HETATM   52  O3  UNL     1      -8.887  20.838 -30.670  1.00  0.00    -0.206 OA
ENDBRANCH  47  49
ENDBRANCH  10  47
TORSDOF 13
ENDMDL
MODEL 5
REMARK VINA RESULT: -7.979373503      8.789     15.764
REMARK  13 active torsions:
REMARK  status: ('A' for Active; 'I' for Inactive)
REMARK    1  A    between atoms: C2_2  and  C3_3 
REMARK    2  A    between atoms: N2_5  and  C4_7 
REMARK    3  A    between atoms: C4_7  and  C5_8 
REMARK    4  A    between atoms: C5_8  and  C6_9 
REMARK    5  A    between atoms: C6_9  and  C7_10 
REMARK    6  A    between atoms: C13_19  and  N4_20 
REMARK    7  A    between atoms: N4_20  and  S1_22 
REMARK    8  A    between atoms: C18_32  and  C19_33 
REMARK    9  A    between atoms: C19_33  and  C20_34 
REMARK   10  A    between atoms: C24_41  and  C25_42 
REMARK   11  A    between atoms: C25_42  and  C26_43 
REMARK   12  A    between atoms: N7_48  and  C30_49 
REMARK   13  A    between atoms: C30_49  and  C31_50 
ROOT
HETATM    1  C7  UNL     1     -19.672   7.401 -18.289  1.00  0.00     0.179 C 
HETATM    2  C8  UNL     1     -19.912   6.043 -17.822  1.00  0.00     0.240 C 
HETATM    3  O1  UNL     1     -20.733   5.898 -16.848  1.00  0.00    -0.271 OA
HETATM    4  N3  UNL     1     -19.347   4.841 -18.321  1.00  0.00    -0.358 N 
ATOM      5  H3  UNL     1     -19.350   4.030 -17.705  1.00  0.00     0.162 HD
HETATM    6  C9  UNL     1     -18.768   4.676 -19.633  1.00  0.00     0.134 C 
HETATM    7  C10 UNL     1     -19.176   3.282 -20.123  1.00  0.00     0.113 C 
HETATM    8  C11 UNL     1     -19.027   2.266 -19.171  1.00  0.00    -0.103 C 
HETATM    9  C12 UNL     1     -18.931   1.449 -18.409  1.00  0.00    -0.080 C 
HETATM   10  C13 UNL     1     -18.844   0.401 -17.450  1.00  0.00     0.184 C 
HETATM   11  C15 UNL     1     -17.713   0.664 -16.485  1.00  0.00     0.109 C 
HETATM   12  C16 UNL     1     -17.072  -0.670 -16.160  1.00  0.00     0.023 C 
HETATM   13  C17 UNL     1     -16.669   1.580 -17.005  1.00  0.00     0.229 C 
HETATM   14  O4  UNL     1     -15.794   0.973 -17.738  1.00  0.00    -0.273 OA
HETATM   15  N5  UNL     1     -16.490   2.950 -16.832  1.00  0.00    -0.322 N 
ATOM     16  H5  UNL     1     -16.546   3.478 -17.702  1.00  0.00     0.169 HD
HETATM   17  C18 UNL     1     -16.243   3.769 -15.684  1.00  0.00     0.099 C 
HETATM   18  C23 UNL     1     -17.468   4.454 -15.154  1.00  0.00     0.268 C 
HETATM   19  O5  UNL     1     -18.406   3.735 -14.630  1.00  0.00    -0.266 OA
HETATM   20  N6  UNL     1     -17.731   5.833 -15.160  1.00  0.00    -0.342 N 
ATOM     21  H6  UNL     1     -18.471   6.160 -14.539  1.00  0.00     0.163 HD
HETATM   22  C24 UNL     1     -17.040   6.861 -15.977  1.00  0.00     0.177 C 
HETATM   23  C29 UNL     1     -17.990   7.902 -16.393  1.00  0.00     0.243 C 
HETATM   24  O6  UNL     1     -18.288   8.738 -15.446  1.00  0.00    -0.271 OA
HETATM   25  N7  UNL     1     -18.641   8.166 -17.625  1.00  0.00    -0.337 N 
ENDROOT
BRANCH   1  26
HETATM   26  C6  UNL     1     -21.007   8.168 -18.345  1.00  0.00     0.037 C 
BRANCH  26  27
HETATM   27  C5  UNL     1     -21.625   8.051 -19.723  1.00  0.00     0.022 C 
BRANCH  27  28
HETATM   28  C4  UNL     1     -20.866   8.945 -20.715  1.00  0.00     0.120 C 
BRANCH  28  29
HETATM   29  N2  UNL     1     -20.827  10.308 -20.230  1.00  0.00    -0.382 N 
HETATM   30  C3  UNL     1     -19.918  11.131 -20.596  1.00  0.00     0.088 C 
HETATM   31  N1  UNL     1     -18.925  10.689 -21.502  1.00  0.00    -0.088 NA
ATOM     32  H2  UNL     1     -21.544  10.621 -19.577  1.00  0.00     0.160 HD
BRANCH  30  33
HETATM   33  C2  UNL     1     -19.855  12.530 -20.113  1.00  0.00     0.068 C 
HETATM   34  C1  UNL     1     -18.481  13.132 -20.409  1.00  0.00     0.012 C 
ENDBRANCH  30  33
ENDBRANCH  28  29
ENDBRANCH  27  28
ENDBRANCH  26  27
ENDBRANCH   1  26
BRANCH  25  35
HETATM   35  C30 UNL     1     -18.284   9.411 -18.337  1.00  0.00     0.130 C 
BRANCH  35  36
HETATM   36  C31 UNL     1     -16.888   9.865 -18.150  1.00  0.00    -0.005 C 
HETATM   37  C32 UNL     1     -16.865  11.261 -17.496  1.00  0.00     0.011 C 
HETATM   38  C33 UNL     1     -16.002   9.959 -19.329  1.00  0.00     0.011 C 
ENDBRANCH  35  36
ENDBRANCH  25  35
BRANCH  22  39
HETATM   39  C25 UNL     1     -15.924   7.306 -15.083  1.00  0.00     0.038 C 
BRANCH  39  40
HETATM   40  C26 UNL     1     -14.600   7.646 -15.627  1.00  0.00    -0.020 C 
HETATM   41  C27 UNL     1     -14.451   9.211 -15.429  1.00  0.00     0.009 C 
HETATM   42  C28 UNL     1     -14.423   7.538 -17.129  1.00  0.00     0.009 C 
ENDBRANCH  39  40
ENDBRANCH  22  39
BRANCH  17  43
HETATM   43  C19 UNL     1     -15.293   3.313 -14.673  1.00  0.00     0.012 C 
BRANCH  43  44
HETATM   44  C20 UNL     1     -15.580   2.424 -13.566  1.00  0.00     0.002 C 
HETATM   45  C21 UNL     1     -14.706   1.163 -13.858  1.00  0.00     0.013 C 
HETATM   46  C22 UNL     1     -15.120   2.831 -12.193  1.00  0.00     0.013 C 
ENDBRANCH  43  44
ENDBRANCH  17  43
BRANCH  10  47
HETATM   47  N4  UNL     1     -18.663  -0.849 -18.146  1.00  0.00    -0.303 N 
ATOM     48  H4  UNL     1     -17.742  -1.254 -18.314  1.00  0.00     0.173 HD
BRANCH  47  49
HETATM   49  S1  UNL     1     -20.099  -1.596 -18.665  1.00  0.00     0.223 S 
HETATM   50  C14 UNL     1     -21.482  -1.201 -17.631  1.00  0.00     0.186 C 
HETATM   51  O2  UNL     1     -19.909  -3.090 -18.590  1.00  0.00    -0.206 OA
HETATM   52  O3  UNL     1     -20.432  -1.290 -20.099  1.00  0.00    -0.206 OA
ENDBRANCH  47  49
ENDBRANCH  10  47
TORSDOF 13
ENDMDL
