MODEL 1
REMARK VINA RESULT: -8.562130359      0.000      0.000
REMARK  13 active torsions:
REMARK  status: ('A' for Active; 'I' for Inactive)
REMARK    1  A    between atoms: C2_2  and  C3_3 
REMARK    2  A    between atoms: C3_3  and  C4_4 
REMARK    3  A    between atoms: C4_4  and  C5_5 
REMARK    4  A    between atoms: C6_8  and  O1_9 
REMARK    5  A    between atoms: C8_13  and  C9_14 
REMARK    6  A    between atoms: C9_14  and  C10_15 
REMARK       I    between atoms: C10_15  and  N2_17 
REMARK    7  A    between atoms: N2_17  and  C11_18 
REMARK    8  A    between atoms: N2_17  and  C13_20 
REMARK    9  A    between atoms: C15_24  and  O4_25 
REMARK   10  A    between atoms: C16_27  and  C17_28 
REMARK   11  A    between atoms: C17_28  and  C18_29 
REMARK   12  A    between atoms: C22_36  and  C23_37 
REMARK   13  A    between atoms: C23_37  and  C24_38 
ROOT
HETATM    1  C5  UNL     1     -17.125  18.943 -24.996  1.00  0.00     0.176 C 
HETATM    2  N1  UNL     1     -17.031  19.201 -23.608  1.00  0.00    -0.355 N 
ATOM      3  H1  UNL     1     -17.923  19.211 -23.114  1.00  0.00     0.162 HD
HETATM    4  C6  UNL     1     -15.904  19.448 -22.793  1.00  0.00     0.185 C 
HETATM    5  C7  UNL     1     -14.705  18.688 -22.621  1.00  0.00     0.222 C 
HETATM    6  O2  UNL     1     -13.612  19.350 -22.808  1.00  0.00    -0.286 OA
HETATM    7  C8  UNL     1     -14.535  17.257 -22.255  1.00  0.00     0.170 C 
HETATM    8  N3  UNL     1     -15.088  16.974 -20.964  1.00  0.00    -0.360 N 
ATOM      9  H3  UNL     1     -15.521  17.783 -20.521  1.00  0.00     0.162 HD
HETATM   10  C15 UNL     1     -15.154  15.823 -20.195  1.00  0.00     0.135 C 
HETATM   11  C16 UNL     1     -15.471  14.424 -20.448  1.00  0.00     0.159 C 
HETATM   12  N4  UNL     1     -15.462  14.037 -21.847  1.00  0.00    -0.347 N 
ATOM     13  H4  UNL     1     -14.605  14.232 -22.365  1.00  0.00     0.163 HD
HETATM   14  C21 UNL     1     -16.499  13.426 -22.567  1.00  0.00     0.241 C 
HETATM   15  O5  UNL     1     -16.186  13.037 -23.759  1.00  0.00    -0.271 OA
HETATM   16  C22 UNL     1     -17.870  13.163 -22.183  1.00  0.00     0.181 C 
HETATM   17  N6  UNL     1     -18.838  13.471 -23.235  1.00  0.00    -0.346 N 
ATOM     18  H6  UNL     1     -19.664  12.872 -23.250  1.00  0.00     0.163 HD
HETATM   19  C32 UNL     1     -18.809  14.444 -24.208  1.00  0.00     0.240 C 
HETATM   20  O6  UNL     1     -18.917  14.106 -25.442  1.00  0.00    -0.271 OA
HETATM   21  C33 UNL     1     -18.662  15.939 -24.030  1.00  0.00     0.172 C 
HETATM   22  C34 UNL     1     -18.745  16.296 -22.577  1.00  0.00     0.042 C 
HETATM   23  N7  UNL     1     -17.497  16.378 -24.729  1.00  0.00    -0.346 N 
ATOM     24  H7  UNL     1     -16.735  15.700 -24.712  1.00  0.00     0.163 HD
HETATM   25  C35 UNL     1     -17.191  17.534 -25.426  1.00  0.00     0.241 C 
HETATM   26  O7  UNL     1     -16.903  17.390 -26.684  1.00  0.00    -0.271 OA
ENDROOT
BRANCH  16  27
HETATM   27  C23 UNL     1     -18.173  11.826 -21.591  1.00  0.00     0.075 C 
BRANCH  27  28
HETATM   28  C24 UNL     1     -19.081  11.727 -20.479  1.00  0.00    -0.028 A 
HETATM   29  C25 UNL     1     -19.200  12.623 -19.404  1.00  0.00     0.096 A 
HETATM   30  N5  UNL     1     -20.169  12.230 -18.567  1.00  0.00    -0.365 N 
HETATM   31  C26 UNL     1     -20.683  11.103 -19.066  1.00  0.00     0.042 A 
ATOM     32  H5  UNL     1     -20.459  12.702 -17.711  1.00  0.00     0.165 HD
HETATM   33  C27 UNL     1     -21.696  10.325 -18.542  1.00  0.00     0.030 A 
HETATM   34  C31 UNL     1     -20.029  10.779 -20.237  1.00  0.00    -0.002 A 
HETATM   35  C28 UNL     1     -22.096   9.176 -19.181  1.00  0.00     0.002 A 
HETATM   36  C29 UNL     1     -21.468   8.809 -20.359  1.00  0.00     0.001 A 
HETATM   37  C30 UNL     1     -20.463   9.602 -20.858  1.00  0.00     0.014 A 
ENDBRANCH  27  28
ENDBRANCH  16  27
BRANCH  11  38
HETATM   38  C17 UNL     1     -14.742  13.429 -19.602  1.00  0.00     0.037 C 
BRANCH  38  39
HETATM   39  C18 UNL     1     -15.432  12.414 -18.833  1.00  0.00    -0.020 C 
HETATM   40  C19 UNL     1     -14.707  12.383 -17.447  1.00  0.00     0.009 C 
HETATM   41  C20 UNL     1     -15.468  11.000 -19.246  1.00  0.00     0.009 C 
ENDBRANCH  38  39
ENDBRANCH  11  38
BRANCH  10  42
HETATM   42  O4  UNL     1     -14.866  16.064 -18.934  1.00  0.00    -0.348 OA
ATOM     43  H4  UNL     1     -15.615  15.918 -18.368  1.00  0.00     0.219 HD
ENDBRANCH  10  42
BRANCH   7  44
HETATM   44  C9  UNL     1     -13.066  16.902 -22.391  1.00  0.00     0.136 C 
BRANCH  44  45
HETATM   45  C10 UNL     1     -12.872  15.878 -23.413  1.00  0.00     0.222 C 
HETATM   46  O3  UNL     1     -13.052  14.668 -23.168  1.00  0.00    -0.273 OA
HETATM   47  N2  UNL     1     -12.466  16.240 -24.733  1.00  0.00    -0.353 N 
BRANCH  47  48
HETATM   48  C11 UNL     1     -12.237  17.638 -25.098  1.00  0.00     0.121 C 
HETATM   49  C12 UNL     1     -13.408  18.130 -25.959  1.00  0.00     0.026 C 
ENDBRANCH  47  48
BRANCH  47  50
HETATM   50  C13 UNL     1     -12.263  15.245 -25.756  1.00  0.00     0.121 C 
HETATM   51  C14 UNL     1     -11.185  15.660 -26.739  1.00  0.00     0.026 C 
ENDBRANCH  47  50
ENDBRANCH  44  45
ENDBRANCH   7  44
BRANCH   1  52
HETATM   52  C4  UNL     1     -18.419  19.578 -25.556  1.00  0.00     0.035 C 
BRANCH  52  53
HETATM   53  C3  UNL     1     -18.120  20.294 -26.864  1.00  0.00     0.002 C 
BRANCH  53  54
HETATM   54  C2  UNL     1     -16.679  20.763 -26.764  1.00  0.00    -0.004 C 
HETATM   55  C1  UNL     1     -16.033  20.634 -28.126  1.00  0.00     0.005 C 
ENDBRANCH  53  54
ENDBRANCH  52  53
ENDBRANCH   1  52
BRANCH   4  56
HETATM   56  O1  UNL     1     -15.956  20.549 -22.073  1.00  0.00    -0.344 OA
ATOM     57  H1  UNL     1     -15.370  20.576 -21.325  1.00  0.00     0.219 HD
ENDBRANCH   4  56
TORSDOF 13
ENDMDL
MODEL 2
REMARK VINA RESULT: -7.952656218      1.421      1.782
REMARK  13 active torsions:
REMARK  status: ('A' for Active; 'I' for Inactive)
REMARK    1  A    between atoms: C2_2  and  C3_3 
REMARK    2  A    between atoms: C3_3  and  C4_4 
REMARK    3  A    between atoms: C4_4  and  C5_5 
REMARK    4  A    between atoms: C6_8  and  O1_9 
REMARK    5  A    between atoms: C8_13  and  C9_14 
REMARK    6  A    between atoms: C9_14  and  C10_15 
REMARK       I    between atoms: C10_15  and  N2_17 
REMARK    7  A    between atoms: N2_17  and  C11_18 
REMARK    8  A    between atoms: N2_17  and  C13_20 
REMARK    9  A    between atoms: C15_24  and  O4_25 
REMARK   10  A    between atoms: C16_27  and  C17_28 
REMARK   11  A    between atoms: C17_28  and  C18_29 
REMARK   12  A    between atoms: C22_36  and  C23_37 
REMARK   13  A    between atoms: C23_37  and  C24_38 
ROOT
HETATM    1  C5  UNL     1     -16.961  19.135 -25.574  1.00  0.00     0.176 C 
HETATM    2  N1  UNL     1     -16.924  19.485 -24.204  1.00  0.00    -0.355 N 
ATOM      3  H1  UNL     1     -17.838  19.620 -23.773  1.00  0.00     0.162 HD
HETATM    4  C6  UNL     1     -15.829  19.677 -23.333  1.00  0.00     0.185 C 
HETATM    5  C7  UNL     1     -14.728  18.817 -23.029  1.00  0.00     0.222 C 
HETATM    6  O2  UNL     1     -13.564  19.350 -23.185  1.00  0.00    -0.286 OA
HETATM    7  C8  UNL     1     -14.731  17.407 -22.557  1.00  0.00     0.170 C 
HETATM    8  N3  UNL     1     -15.388  17.276 -21.290  1.00  0.00    -0.360 N 
ATOM      9  H3  UNL     1     -15.760  18.155 -20.932  1.00  0.00     0.162 HD
HETATM   10  C15 UNL     1     -15.621  16.198 -20.451  1.00  0.00     0.135 C 
HETATM   11  C16 UNL     1     -16.066  14.823 -20.630  1.00  0.00     0.159 C 
HETATM   12  N4  UNL     1     -16.013  14.334 -21.997  1.00  0.00    -0.347 N 
ATOM     13  H4  UNL     1     -15.111  14.404 -22.467  1.00  0.00     0.163 HD
HETATM   14  C21 UNL     1     -17.063  13.778 -22.742  1.00  0.00     0.241 C 
HETATM   15  O5  UNL     1     -16.720  13.273 -23.881  1.00  0.00    -0.271 OA
HETATM   16  C22 UNL     1     -18.475  13.682 -22.435  1.00  0.00     0.181 C 
HETATM   17  N6  UNL     1     -19.339  14.008 -23.569  1.00  0.00    -0.346 N 
ATOM     18  H6  UNL     1     -20.221  13.495 -23.599  1.00  0.00     0.163 HD
HETATM   19  C32 UNL     1     -19.150  14.897 -24.601  1.00  0.00     0.240 C 
HETATM   20  O6  UNL     1     -19.218  14.481 -25.814  1.00  0.00    -0.271 OA
HETATM   21  C33 UNL     1     -18.858  16.380 -24.514  1.00  0.00     0.172 C 
HETATM   22  C34 UNL     1     -18.992  16.850 -23.098  1.00  0.00     0.042 C 
HETATM   23  N7  UNL     1     -17.614  16.647 -25.161  1.00  0.00    -0.346 N 
ATOM     24  H7  UNL     1     -16.929  15.900 -25.047  1.00  0.00     0.163 HD
HETATM   25  C35 UNL     1     -17.147  17.712 -25.912  1.00  0.00     0.241 C 
HETATM   26  O7  UNL     1     -16.799  17.447 -27.134  1.00  0.00    -0.271 OA
ENDROOT
BRANCH  16  27
HETATM   27  C23 UNL     1     -18.951  12.430 -21.776  1.00  0.00     0.075 C 
BRANCH  27  28
HETATM   28  C24 UNL     1     -18.706  12.224 -20.374  1.00  0.00    -0.028 A 
HETATM   29  C25 UNL     1     -19.333  12.879 -19.301  1.00  0.00     0.096 A 
HETATM   30  N5  UNL     1     -18.876  12.414 -18.132  1.00  0.00    -0.365 N 
HETATM   31  C26 UNL     1     -17.970  11.475 -18.412  1.00  0.00     0.042 A 
ATOM     32  H5  UNL     1     -19.167  12.719 -17.203  1.00  0.00     0.165 HD
HETATM   33  C27 UNL     1     -17.220  10.725 -17.526  1.00  0.00     0.030 A 
HETATM   34  C31 UNL     1     -17.851  11.345 -19.780  1.00  0.00    -0.002 A 
HETATM   35  C28 UNL     1     -16.310   9.805 -17.988  1.00  0.00     0.002 A 
HETATM   36  C29 UNL     1     -16.155   9.639 -19.353  1.00  0.00     0.001 A 
HETATM   37  C30 UNL     1     -16.914  10.398 -20.211  1.00  0.00     0.014 A 
ENDBRANCH  27  28
ENDBRANCH  16  27
BRANCH  11  38
HETATM   38  C17 UNL     1     -15.498  13.825 -19.671  1.00  0.00     0.037 C 
BRANCH  38  39
HETATM   39  C18 UNL     1     -14.443  12.906 -20.046  1.00  0.00    -0.020 C 
HETATM   40  C19 UNL     1     -13.971  12.253 -18.705  1.00  0.00     0.009 C 
HETATM   41  C20 UNL     1     -13.191  13.358 -20.680  1.00  0.00     0.009 C 
ENDBRANCH  38  39
ENDBRANCH  11  38
BRANCH  10  42
HETATM   42  O4  UNL     1     -15.386  16.502 -19.192  1.00  0.00    -0.348 OA
ATOM     43  H4  UNL     1     -15.896  15.962 -18.600  1.00  0.00     0.219 HD
ENDBRANCH  10  42
BRANCH   7  44
HETATM   44  C9  UNL     1     -13.303  16.897 -22.568  1.00  0.00     0.136 C 
BRANCH  44  45
HETATM   45  C10 UNL     1     -13.119  15.889 -23.609  1.00  0.00     0.222 C 
HETATM   46  O3  UNL     1     -13.564  14.732 -23.482  1.00  0.00    -0.273 OA
HETATM   47  N2  UNL     1     -12.415  16.209 -24.809  1.00  0.00    -0.353 N 
BRANCH  47  48
HETATM   48  C11 UNL     1     -11.865  17.545 -25.031  1.00  0.00     0.121 C 
HETATM   49  C12 UNL     1     -12.724  18.274 -26.074  1.00  0.00     0.026 C 
ENDBRANCH  47  48
BRANCH  47  50
HETATM   50  C13 UNL     1     -12.218  15.228 -25.847  1.00  0.00     0.121 C 
HETATM   51  C14 UNL     1     -11.079  15.610 -26.773  1.00  0.00     0.026 C 
ENDBRANCH  47  50
ENDBRANCH  44  45
ENDBRANCH   7  44
BRANCH   1  52
HETATM   52  C4  UNL     1     -18.144  19.853 -26.263  1.00  0.00     0.035 C 
BRANCH  52  53
HETATM   53  C3  UNL     1     -17.623  20.836 -27.298  1.00  0.00     0.002 C 
BRANCH  53  54
HETATM   54  C2  UNL     1     -18.096  20.318 -28.644  1.00  0.00    -0.004 C 
HETATM   55  C1  UNL     1     -16.886  19.996 -29.492  1.00  0.00     0.005 C 
ENDBRANCH  53  54
ENDBRANCH  52  53
ENDBRANCH   1  52
BRANCH   4  56
HETATM   56  O1  UNL     1     -15.809  20.828 -22.693  1.00  0.00    -0.344 OA
ATOM     57  H1  UNL     1     -16.242  21.549 -23.136  1.00  0.00     0.219 HD
ENDBRANCH   4  56
TORSDOF 13
ENDMDL
MODEL 3
REMARK VINA RESULT: -7.833496385      0.837      1.359
REMARK  13 active torsions:
REMARK  status: ('A' for Active; 'I' for Inactive)
REMARK    1  A    between atoms: C2_2  and  C3_3 
REMARK    2  A    between atoms: C3_3  and  C4_4 
REMARK    3  A    between atoms: C4_4  and  C5_5 
REMARK    4  A    between atoms: C6_8  and  O1_9 
REMARK    5  A    between atoms: C8_13  and  C9_14 
REMARK    6  A    between atoms: C9_14  and  C10_15 
REMARK       I    between atoms: C10_15  and  N2_17 
REMARK    7  A    between atoms: N2_17  and  C11_18 
REMARK    8  A    between atoms: N2_17  and  C13_20 
REMARK    9  A    between atoms: C15_24  and  O4_25 
REMARK   10  A    between atoms: C16_27  and  C17_28 
REMARK   11  A    between atoms: C17_28  and  C18_29 
REMARK   12  A    between atoms: C22_36  and  C23_37 
REMARK   13  A    between atoms: C23_37  and  C24_38 
ROOT
HETATM    1  C5  UNL     1     -17.158  18.806 -24.826  1.00  0.00     0.176 C 
HETATM    2  N1  UNL     1     -17.025  19.122 -23.453  1.00  0.00    -0.355 N 
ATOM      3  H1  UNL     1     -17.899  19.118 -22.928  1.00  0.00     0.162 HD
HETATM    4  C6  UNL     1     -15.881  19.443 -22.690  1.00  0.00     0.185 C 
HETATM    5  C7  UNL     1     -14.648  18.736 -22.533  1.00  0.00     0.222 C 
HETATM    6  O2  UNL     1     -13.589  19.430 -22.785  1.00  0.00    -0.286 OA
HETATM    7  C8  UNL     1     -14.410  17.328 -22.119  1.00  0.00     0.170 C 
HETATM    8  N3  UNL     1     -14.906  17.075 -20.798  1.00  0.00    -0.360 N 
ATOM      9  H3  UNL     1     -15.354  17.885 -20.371  1.00  0.00     0.162 HD
HETATM   10  C15 UNL     1     -14.900  15.955 -19.984  1.00  0.00     0.135 C 
HETATM   11  C16 UNL     1     -15.171  14.536 -20.171  1.00  0.00     0.159 C 
HETATM   12  N4  UNL     1     -15.196  14.094 -21.554  1.00  0.00    -0.347 N 
ATOM     13  H4  UNL     1     -14.366  14.300 -22.110  1.00  0.00     0.163 HD
HETATM   14  C21 UNL     1     -16.233  13.416 -22.212  1.00  0.00     0.241 C 
HETATM   15  O5  UNL     1     -15.947  12.993 -23.398  1.00  0.00    -0.271 OA
HETATM   16  C22 UNL     1     -17.579  13.117 -21.768  1.00  0.00     0.181 C 
HETATM   17  N6  UNL     1     -18.594  13.348 -22.795  1.00  0.00    -0.346 N 
ATOM     18  H6  UNL     1     -19.395  12.718 -22.757  1.00  0.00     0.163 HD
HETATM   19  C32 UNL     1     -18.637  14.281 -23.806  1.00  0.00     0.240 C 
HETATM   20  O6  UNL     1     -18.774  13.890 -25.020  1.00  0.00    -0.271 OA
HETATM   21  C33 UNL     1     -18.541  15.787 -23.690  1.00  0.00     0.172 C 
HETATM   22  C34 UNL     1     -18.588  16.197 -22.250  1.00  0.00     0.042 C 
HETATM   23  N7  UNL     1     -17.420  16.241 -24.447  1.00  0.00    -0.346 N 
ATOM     24  H7  UNL     1     -16.632  15.594 -24.433  1.00  0.00     0.163 HD
HETATM   25  C35 UNL     1     -17.183  17.379 -25.199  1.00  0.00     0.241 C 
HETATM   26  O7  UNL     1     -16.934  17.196 -26.460  1.00  0.00    -0.271 OA
ENDROOT
BRANCH  16  27
HETATM   27  C23 UNL     1     -17.808  11.795 -21.114  1.00  0.00     0.075 C 
BRANCH  27  28
HETATM   28  C24 UNL     1     -18.889  11.639 -20.178  1.00  0.00    -0.028 A 
HETATM   29  C25 UNL     1     -19.177  12.462 -19.077  1.00  0.00     0.096 A 
HETATM   30  N5  UNL     1     -20.275  12.033 -18.442  1.00  0.00    -0.365 N 
HETATM   31  C26 UNL     1     -20.711  10.955 -19.098  1.00  0.00     0.042 A 
ATOM     32  H5  UNL     1     -20.699  12.452 -17.614  1.00  0.00     0.165 HD
HETATM   33  C27 UNL     1     -21.805  10.165 -18.805  1.00  0.00     0.030 A 
HETATM   34  C31 UNL     1     -19.874  10.698 -20.164  1.00  0.00    -0.002 A 
HETATM   35  C28 UNL     1     -22.104   9.072 -19.582  1.00  0.00     0.002 A 
HETATM   36  C29 UNL     1     -21.293   8.773 -20.662  1.00  0.00     0.001 A 
HETATM   37  C30 UNL     1     -20.211   9.576 -20.930  1.00  0.00     0.014 A 
ENDBRANCH  27  28
ENDBRANCH  16  27
BRANCH  11  38
HETATM   38  C17 UNL     1     -14.374  13.603 -19.315  1.00  0.00     0.037 C 
BRANCH  38  39
HETATM   39  C18 UNL     1     -14.976  12.478 -18.630  1.00  0.00    -0.020 C 
HETATM   40  C19 UNL     1     -16.098  13.094 -17.731  1.00  0.00     0.009 C 
HETATM   41  C20 UNL     1     -14.215  11.616 -17.707  1.00  0.00     0.009 C 
ENDBRANCH  38  39
ENDBRANCH  11  38
BRANCH  10  42
HETATM   42  O4  UNL     1     -14.578  16.256 -18.744  1.00  0.00    -0.348 OA
ATOM     43  H4  UNL     1     -13.731  15.898 -18.504  1.00  0.00     0.219 HD
ENDBRANCH  10  42
BRANCH   7  44
HETATM   44  C9  UNL     1     -12.934  17.023 -22.294  1.00  0.00     0.136 C 
BRANCH  44  45
HETATM   45  C10 UNL     1     -12.738  15.944 -23.258  1.00  0.00     0.222 C 
HETATM   46  O3  UNL     1     -12.850  14.746 -22.929  1.00  0.00    -0.273 OA
HETATM   47  N2  UNL     1     -12.407  16.237 -24.615  1.00  0.00    -0.353 N 
BRANCH  47  48
HETATM   48  C11 UNL     1     -12.260  17.616 -25.078  1.00  0.00     0.121 C 
HETATM   49  C12 UNL     1     -13.496  18.005 -25.899  1.00  0.00     0.026 C 
ENDBRANCH  47  48
BRANCH  47  50
HETATM   50  C13 UNL     1     -12.204  15.187 -25.582  1.00  0.00     0.121 C 
HETATM   51  C14 UNL     1     -11.332  15.645 -26.735  1.00  0.00     0.026 C 
ENDBRANCH  47  50
ENDBRANCH  44  45
ENDBRANCH   7  44
BRANCH   1  52
HETATM   52  C4  UNL     1     -18.494  19.368 -25.362  1.00  0.00     0.035 C 
BRANCH  52  53
HETATM   53  C3  UNL     1     -19.650  18.511 -24.873  1.00  0.00     0.002 C 
BRANCH  53  54
HETATM   54  C2  UNL     1     -20.112  17.705 -26.074  1.00  0.00    -0.004 C 
HETATM   55  C1  UNL     1     -21.053  16.620 -25.596  1.00  0.00     0.005 C 
ENDBRANCH  53  54
ENDBRANCH  52  53
ENDBRANCH   1  52
BRANCH   4  56
HETATM   56  O1  UNL     1     -15.950  20.569 -22.011  1.00  0.00    -0.344 OA
ATOM     57  H1  UNL     1     -16.664  20.626 -21.387  1.00  0.00     0.219 HD
ENDBRANCH   4  56
TORSDOF 13
ENDMDL
MODEL 4
REMARK VINA RESULT: -7.413105841      1.258      1.662
REMARK  13 active torsions:
REMARK  status: ('A' for Active; 'I' for Inactive)
REMARK    1  A    between atoms: C2_2  and  C3_3 
REMARK    2  A    between atoms: C3_3  and  C4_4 
REMARK    3  A    between atoms: C4_4  and  C5_5 
REMARK    4  A    between atoms: C6_8  and  O1_9 
REMARK    5  A    between atoms: C8_13  and  C9_14 
REMARK    6  A    between atoms: C9_14  and  C10_15 
REMARK       I    between atoms: C10_15  and  N2_17 
REMARK    7  A    between atoms: N2_17  and  C11_18 
REMARK    8  A    between atoms: N2_17  and  C13_20 
REMARK    9  A    between atoms: C15_24  and  O4_25 
REMARK   10  A    between atoms: C16_27  and  C17_28 
REMARK   11  A    between atoms: C17_28  and  C18_29 
REMARK   12  A    between atoms: C22_36  and  C23_37 
REMARK   13  A    between atoms: C23_37  and  C24_38 
ROOT
HETATM    1  C5  UNL     1     -16.871  19.147 -25.514  1.00  0.00     0.176 C 
HETATM    2  N1  UNL     1     -16.868  19.475 -24.137  1.00  0.00    -0.355 N 
ATOM      3  H1  UNL     1     -17.791  19.635 -23.735  1.00  0.00     0.162 HD
HETATM    4  C6  UNL     1     -15.796  19.617 -23.228  1.00  0.00     0.185 C 
HETATM    5  C7  UNL     1     -14.736  18.716 -22.902  1.00  0.00     0.222 C 
HETATM    6  O2  UNL     1     -13.550  19.212 -23.013  1.00  0.00    -0.286 OA
HETATM    7  C8  UNL     1     -14.802  17.300 -22.453  1.00  0.00     0.170 C 
HETATM    8  N3  UNL     1     -15.505  17.173 -21.210  1.00  0.00    -0.360 N 
ATOM      9  H3  UNL     1     -15.859  18.059 -20.851  1.00  0.00     0.162 HD
HETATM   10  C15 UNL     1     -15.801  16.092 -20.397  1.00  0.00     0.135 C 
HETATM   11  C16 UNL     1     -16.285  14.735 -20.612  1.00  0.00     0.159 C 
HETATM   12  N4  UNL     1     -16.203  14.265 -21.983  1.00  0.00    -0.347 N 
ATOM     13  H4  UNL     1     -15.284  14.311 -22.423  1.00  0.00     0.163 HD
HETATM   14  C21 UNL     1     -17.245  13.755 -22.771  1.00  0.00     0.241 C 
HETATM   15  O5  UNL     1     -16.883  13.256 -23.906  1.00  0.00    -0.271 OA
HETATM   16  C22 UNL     1     -18.669  13.703 -22.512  1.00  0.00     0.181 C 
HETATM   17  N6  UNL     1     -19.485  14.074 -23.668  1.00  0.00    -0.346 N 
ATOM     18  H6  UNL     1     -20.381  13.592 -23.736  1.00  0.00     0.163 HD
HETATM   19  C32 UNL     1     -19.232  14.972 -24.680  1.00  0.00     0.240 C 
HETATM   20  O6  UNL     1     -19.273  14.576 -25.900  1.00  0.00    -0.271 OA
HETATM   21  C33 UNL     1     -18.893  16.443 -24.560  1.00  0.00     0.172 C 
HETATM   22  C34 UNL     1     -19.059  16.896 -23.142  1.00  0.00     0.042 C 
HETATM   23  N7  UNL     1     -17.621  16.676 -25.161  1.00  0.00    -0.346 N 
ATOM     24  H7  UNL     1     -16.965  15.905 -25.037  1.00  0.00     0.163 HD
HETATM   25  C35 UNL     1     -17.093  17.736 -25.880  1.00  0.00     0.241 C 
HETATM   26  O7  UNL     1     -16.715  17.477 -27.094  1.00  0.00    -0.271 OA
ENDROOT
BRANCH  16  27
HETATM   27  C23 UNL     1     -19.209  12.459 -21.889  1.00  0.00     0.075 C 
BRANCH  27  28
HETATM   28  C24 UNL     1     -18.331  11.592 -21.149  1.00  0.00    -0.028 A 
HETATM   29  C25 UNL     1     -16.983  11.315 -21.431  1.00  0.00     0.096 A 
HETATM   30  N5  UNL     1     -16.469  10.486 -20.514  1.00  0.00    -0.365 N 
HETATM   31  C26 UNL     1     -17.444  10.215 -19.642  1.00  0.00     0.042 A 
ATOM     32  H5  UNL     1     -15.514  10.129 -20.486  1.00  0.00     0.165 HD
HETATM   33  C27 UNL     1     -17.389   9.395 -18.532  1.00  0.00     0.030 A 
HETATM   34  C31 UNL     1     -18.592  10.883 -20.015  1.00  0.00    -0.002 A 
HETATM   35  C28 UNL     1     -18.500   9.212 -17.745  1.00  0.00     0.002 A 
HETATM   36  C29 UNL     1     -19.676   9.861 -18.079  1.00  0.00     0.001 A 
HETATM   37  C30 UNL     1     -19.702  10.671 -19.189  1.00  0.00     0.014 A 
ENDBRANCH  27  28
ENDBRANCH  16  27
BRANCH  11  38
HETATM   38  C17 UNL     1     -15.782  13.705 -19.651  1.00  0.00     0.037 C 
BRANCH  38  39
HETATM   39  C18 UNL     1     -16.221  13.655 -18.271  1.00  0.00    -0.020 C 
HETATM   40  C19 UNL     1     -15.389  12.503 -17.616  1.00  0.00     0.009 C 
HETATM   41  C20 UNL     1     -17.612  13.344 -17.896  1.00  0.00     0.009 C 
ENDBRANCH  38  39
ENDBRANCH  11  38
BRANCH  10  42
HETATM   42  O4  UNL     1     -15.597  16.369 -19.126  1.00  0.00    -0.348 OA
ATOM     43  H4  UNL     1     -16.331  16.099 -18.586  1.00  0.00     0.219 HD
ENDBRANCH  10  42
BRANCH   7  44
HETATM   44  C9  UNL     1     -13.391  16.743 -22.426  1.00  0.00     0.136 C 
BRANCH  44  45
HETATM   45  C10 UNL     1     -13.221  15.710 -23.444  1.00  0.00     0.222 C 
HETATM   46  O3  UNL     1     -13.670  14.558 -23.287  1.00  0.00    -0.273 OA
HETATM   47  N2  UNL     1     -12.527  15.998 -24.657  1.00  0.00    -0.353 N 
BRANCH  47  48
HETATM   48  C11 UNL     1     -11.972  17.327 -24.916  1.00  0.00     0.121 C 
HETATM   49  C12 UNL     1     -12.875  18.061 -25.917  1.00  0.00     0.026 C 
ENDBRANCH  47  48
BRANCH  47  50
HETATM   50  C13 UNL     1     -12.343  14.993 -25.674  1.00  0.00     0.121 C 
HETATM   51  C14 UNL     1     -11.247  15.374 -26.650  1.00  0.00     0.026 C 
ENDBRANCH  47  50
ENDBRANCH  44  45
ENDBRANCH   7  44
BRANCH   1  52
HETATM   52  C4  UNL     1     -18.007  19.914 -26.229  1.00  0.00     0.035 C 
BRANCH  52  53
HETATM   53  C3  UNL     1     -17.428  20.789 -27.330  1.00  0.00     0.002 C 
BRANCH  53  54
HETATM   54  C2  UNL     1     -18.079  20.324 -28.620  1.00  0.00    -0.004 C 
HETATM   55  C1  UNL     1     -16.991  19.966 -29.610  1.00  0.00     0.005 C 
ENDBRANCH  53  54
ENDBRANCH  52  53
ENDBRANCH   1  52
BRANCH   4  56
HETATM   56  O1  UNL     1     -15.759  20.758 -22.571  1.00  0.00    -0.344 OA
ATOM     57  H1  UNL     1     -16.583  21.035 -22.186  1.00  0.00     0.219 HD
ENDBRANCH   4  56
TORSDOF 13
ENDMDL
MODEL 5
REMARK VINA RESULT: -7.100868810      8.201     14.181
REMARK  13 active torsions:
REMARK  status: ('A' for Active; 'I' for Inactive)
REMARK    1  A    between atoms: C2_2  and  C3_3 
REMARK    2  A    between atoms: C3_3  and  C4_4 
REMARK    3  A    between atoms: C4_4  and  C5_5 
REMARK    4  A    between atoms: C6_8  and  O1_9 
REMARK    5  A    between atoms: C8_13  and  C9_14 
REMARK    6  A    between atoms: C9_14  and  C10_15 
REMARK       I    between atoms: C10_15  and  N2_17 
REMARK    7  A    between atoms: N2_17  and  C11_18 
REMARK    8  A    between atoms: N2_17  and  C13_20 
REMARK    9  A    between atoms: C15_24  and  O4_25 
REMARK   10  A    between atoms: C16_27  and  C17_28 
REMARK   11  A    between atoms: C17_28  and  C18_29 
REMARK   12  A    between atoms: C22_36  and  C23_37 
REMARK   13  A    between atoms: C23_37  and  C24_38 
ROOT
HETATM    1  C5  UNL     1     -18.801   0.800 -17.262  1.00  0.00     0.176 C 
HETATM    2  N1  UNL     1     -17.569   1.369 -17.663  1.00  0.00    -0.355 N 
ATOM      3  H1  UNL     1     -17.520   1.632 -18.647  1.00  0.00     0.162 HD
HETATM    4  C6  UNL     1     -16.395   1.634 -16.924  1.00  0.00     0.185 C 
HETATM    5  C7  UNL     1     -16.213   2.368 -15.711  1.00  0.00     0.222 C 
HETATM    6  O2  UNL     1     -15.600   1.725 -14.774  1.00  0.00    -0.286 OA
HETATM    7  C8  UNL     1     -16.620   3.758 -15.375  1.00  0.00     0.170 C 
HETATM    8  N3  UNL     1     -15.989   4.715 -16.235  1.00  0.00    -0.360 N 
ATOM      9  H3  UNL     1     -15.387   4.292 -16.941  1.00  0.00     0.162 HD
HETATM   10  C15 UNL     1     -16.029   6.098 -16.302  1.00  0.00     0.135 C 
HETATM   11  C16 UNL     1     -17.075   7.109 -16.230  1.00  0.00     0.159 C 
HETATM   12  N4  UNL     1     -18.345   6.641 -15.704  1.00  0.00    -0.347 N 
ATOM     13  H4  UNL     1     -18.318   6.195 -14.787  1.00  0.00     0.163 HD
HETATM   14  C21 UNL     1     -19.604   6.733 -16.315  1.00  0.00     0.241 C 
HETATM   15  O5  UNL     1     -20.602   6.385 -15.572  1.00  0.00    -0.271 OA
HETATM   16  C22 UNL     1     -19.962   7.155 -17.653  1.00  0.00     0.181 C 
HETATM   17  N6  UNL     1     -20.966   6.300 -18.284  1.00  0.00    -0.346 N 
ATOM     18  H6  UNL     1     -21.601   6.780 -18.922  1.00  0.00     0.163 HD
HETATM   19  C32 UNL     1     -21.190   4.948 -18.150  1.00  0.00     0.240 C 
HETATM   20  O6  UNL     1     -22.350   4.533 -17.795  1.00  0.00    -0.271 OA
HETATM   21  C33 UNL     1     -20.213   3.814 -18.376  1.00  0.00     0.172 C 
HETATM   22  C34 UNL     1     -18.947   4.337 -18.982  1.00  0.00     0.042 C 
HETATM   23  N7  UNL     1     -20.082   3.068 -17.166  1.00  0.00    -0.346 N 
ATOM     24  H7  UNL     1     -20.139   3.643 -16.326  1.00  0.00     0.163 HD
HETATM   25  C35 UNL     1     -19.893   1.722 -16.900  1.00  0.00     0.241 C 
HETATM   26  O7  UNL     1     -20.823   1.136 -16.209  1.00  0.00    -0.271 OA
ENDROOT
BRANCH  16  27
HETATM   27  C23 UNL     1     -20.323   8.591 -17.846  1.00  0.00     0.075 C 
BRANCH  27  28
HETATM   28  C24 UNL     1     -20.247   9.176 -19.158  1.00  0.00    -0.028 A 
HETATM   29  C25 UNL     1     -20.699   8.612 -20.362  1.00  0.00     0.096 A 
HETATM   30  N5  UNL     1     -20.490   9.452 -21.384  1.00  0.00    -0.365 N 
HETATM   31  C26 UNL     1     -19.915  10.546 -20.880  1.00  0.00     0.042 A 
ATOM     32  H5  UNL     1     -20.726   9.286 -22.363  1.00  0.00     0.165 HD
HETATM   33  C27 UNL     1     -19.501  11.678 -21.556  1.00  0.00     0.030 A 
HETATM   34  C31 UNL     1     -19.756  10.395 -19.518  1.00  0.00    -0.002 A 
HETATM   35  C28 UNL     1     -18.906  12.714 -20.879  1.00  0.00     0.002 A 
HETATM   36  C29 UNL     1     -18.725  12.610 -19.511  1.00  0.00     0.001 A 
HETATM   37  C30 UNL     1     -19.145  11.472 -18.865  1.00  0.00     0.014 A 
ENDBRANCH  27  28
ENDBRANCH  16  27
BRANCH  11  38
HETATM   38  C17 UNL     1     -16.677   8.414 -15.616  1.00  0.00     0.037 C 
BRANCH  38  39
HETATM   39  C18 UNL     1     -16.344   9.575 -16.415  1.00  0.00    -0.020 C 
HETATM   40  C19 UNL     1     -16.728   9.189 -17.882  1.00  0.00     0.009 C 
HETATM   41  C20 UNL     1     -14.965  10.084 -16.532  1.00  0.00     0.009 C 
ENDBRANCH  38  39
ENDBRANCH  11  38
BRANCH  10  42
HETATM   42  O4  UNL     1     -14.830   6.611 -16.480  1.00  0.00    -0.348 OA
ATOM     43  H4  UNL     1     -14.874   7.513 -16.775  1.00  0.00     0.219 HD
ENDBRANCH  10  42
BRANCH   7  44
HETATM   44  C9  UNL     1     -16.361   3.987 -13.898  1.00  0.00     0.136 C 
BRANCH  44  45
HETATM   45  C10 UNL     1     -17.447   3.441 -13.089  1.00  0.00     0.222 C 
HETATM   46  O3  UNL     1     -18.532   3.100 -13.598  1.00  0.00    -0.273 OA
HETATM   47  N2  UNL     1     -17.290   3.285 -11.679  1.00  0.00    -0.353 N 
BRANCH  47  48
HETATM   48  C11 UNL     1     -16.046   3.661 -11.008  1.00  0.00     0.121 C 
HETATM   49  C12 UNL     1     -15.241   2.392 -10.696  1.00  0.00     0.026 C 
ENDBRANCH  47  48
BRANCH  47  50
HETATM   50  C13 UNL     1     -18.351   2.753 -10.860  1.00  0.00     0.121 C 
HETATM   51  C14 UNL     1     -18.953   3.814  -9.959  1.00  0.00     0.026 C 
ENDBRANCH  47  50
ENDBRANCH  44  45
ENDBRANCH   7  44
BRANCH   1  52
HETATM   52  C4  UNL     1     -19.381  -0.050 -18.416  1.00  0.00     0.035 C 
BRANCH  52  53
HETATM   53  C3  UNL     1     -19.000   0.564 -19.754  1.00  0.00     0.002 C 
BRANCH  53  54
HETATM   54  C2  UNL     1     -20.304   0.784 -20.500  1.00  0.00    -0.004 C 
HETATM   55  C1  UNL     1     -20.070   1.803 -21.593  1.00  0.00     0.005 C 
ENDBRANCH  53  54
ENDBRANCH  52  53
ENDBRANCH   1  52
BRANCH   4  56
HETATM   56  O1  UNL     1     -15.285   1.129 -17.423  1.00  0.00    -0.344 OA
ATOM     57  H1  UNL     1     -14.843   1.671 -18.065  1.00  0.00     0.219 HD
ENDBRANCH   4  56
TORSDOF 13
ENDMDL
