MODEL 1
REMARK VINA RESULT: -6.023720033      0.000      0.000
REMARK  13 active torsions:
REMARK  status: ('A' for Active; 'I' for Inactive)
REMARK    1  A    between atoms: C2_2  and  C4_4 
REMARK    2  A    between atoms: C4_4  and  C5_5 
REMARK    3  A    between atoms: C7_10  and  C8_11 
REMARK    4  A    between atoms: C8_11  and  C9_12 
REMARK    5  A    between atoms: C9_12  and  C10_13 
REMARK    6  A    between atoms: C10_13  and  C11_14 
REMARK    7  A    between atoms: C11_14  and  N2_15 
REMARK    8  A    between atoms: C13_23  and  C14_24 
REMARK    9  A    between atoms: C19_32  and  C20_33 
REMARK   10  A    between atoms: C20_33  and  C21_34 
REMARK   11  A    between atoms: C25_41  and  C26_42 
REMARK   12  A    between atoms: C30_49  and  C31_50 
REMARK   13  A    between atoms: C31_50  and  C32_51 
ROOT
HETATM    1  C5  UNL     1     -19.107   0.872 -16.399  1.00  0.00     0.177 C 
HETATM    2  N1  UNL     1     -18.247   1.337 -17.464  1.00  0.00    -0.346 N 
ATOM      3  H1  UNL     1     -18.574   1.137 -18.410  1.00  0.00     0.163 HD
HETATM    4  C6  UNL     1     -17.037   2.017 -17.383  1.00  0.00     0.241 C 
HETATM    5  O1  UNL     1     -16.991   3.157 -17.989  1.00  0.00    -0.271 OA
HETATM    6  C7  UNL     1     -15.797   1.592 -16.685  1.00  0.00     0.176 C 
HETATM    7  N3  UNL     1     -15.984   1.092 -15.356  1.00  0.00    -0.347 N 
ATOM      8  H3  UNL     1     -16.203   0.097 -15.318  1.00  0.00     0.163 HD
HETATM    9  C12 UNL     1     -15.923   1.705 -14.102  1.00  0.00     0.224 C 
HETATM   10  O2  UNL     1     -15.016   1.279 -13.277  1.00  0.00    -0.273 OA
HETATM   11  C13 UNL     1     -16.733   2.782 -13.519  1.00  0.00     0.100 C 
HETATM   12  C17 UNL     1     -17.033   3.966 -14.351  1.00  0.00     0.137 C 
HETATM   13  N4  UNL     1     -15.845   4.611 -14.863  1.00  0.00    -0.358 N 
ATOM     14  H4  UNL     1     -14.943   4.176 -14.676  1.00  0.00     0.162 HD
HETATM   15  C18 UNL     1     -15.864   5.804 -15.605  1.00  0.00     0.240 C 
HETATM   16  O3  UNL     1     -14.791   6.195 -16.129  1.00  0.00    -0.271 OA
HETATM   17  C19 UNL     1     -17.112   6.621 -15.790  1.00  0.00     0.177 C 
HETATM   18  N5  UNL     1     -17.554   6.572 -17.170  1.00  0.00    -0.346 N 
ATOM     19  H5  UNL     1     -16.823   6.516 -17.880  1.00  0.00     0.163 HD
HETATM   20  C24 UNL     1     -18.870   6.594 -17.630  1.00  0.00     0.241 C 
HETATM   21  O4  UNL     1     -19.106   7.253 -18.695  1.00  0.00    -0.271 OA
HETATM   22  C25 UNL     1     -20.045   5.927 -17.015  1.00  0.00     0.180 C 
HETATM   23  N6  UNL     1     -21.055   5.613 -18.027  1.00  0.00    -0.346 N 
ATOM     24  H6  UNL     1     -21.351   6.371 -18.642  1.00  0.00     0.163 HD
HETATM   25  C29 UNL     1     -21.648   4.362 -18.222  1.00  0.00     0.241 C 
HETATM   26  O5  UNL     1     -22.887   4.307 -18.443  1.00  0.00    -0.271 OA
HETATM   27  C30 UNL     1     -20.922   3.041 -18.190  1.00  0.00     0.177 C 
HETATM   28  N7  UNL     1     -21.141   2.370 -16.930  1.00  0.00    -0.346 N 
ATOM     29  H7  UNL     1     -22.114   2.280 -16.638  1.00  0.00     0.163 HD
HETATM   30  C35 UNL     1     -20.191   1.827 -16.056  1.00  0.00     0.241 C 
HETATM   31  O6  UNL     1     -20.244   2.176 -14.822  1.00  0.00    -0.271 OA
ENDROOT
BRANCH   6  32
HETATM   32  C8  UNL     1     -15.103   0.501 -17.559  1.00  0.00     0.035 C 
BRANCH  32  33
HETATM   33  C9  UNL     1     -15.173  -0.820 -16.852  1.00  0.00     0.004 C 
BRANCH  33  34
HETATM   34  C10 UNL     1     -13.886  -1.533 -16.691  1.00  0.00     0.027 C 
BRANCH  34  35
HETATM   35  C11 UNL     1     -13.545  -1.646 -15.225  1.00  0.00     0.229 C 
BRANCH  35  36
HETATM   36  N2  UNL     1     -12.861  -0.427 -14.789  1.00  0.00    -0.079 N 
ATOM     37  H23 UNL     1     -11.851  -0.555 -14.722  1.00  0.00     0.274 HD
ATOM     38  H22 UNL     1     -12.869   0.298 -15.507  1.00  0.00     0.274 HD
ATOM     39  H21 UNL     1     -13.268  -0.106 -13.910  1.00  0.00     0.274 HD
ENDBRANCH  35  36
ENDBRANCH  34  35
ENDBRANCH  33  34
ENDBRANCH  32  33
ENDBRANCH   6  32
BRANCH   1  40
HETATM   40  C4  UNL     1     -19.704  -0.478 -16.839  1.00  0.00     0.038 C 
BRANCH  40  41
HETATM   41  C2  UNL     1     -18.752  -1.250 -17.700  1.00  0.00    -0.020 C 
HETATM   42  C1  UNL     1     -19.474  -1.598 -18.987  1.00  0.00     0.009 C 
HETATM   43  C3  UNL     1     -18.384  -2.510 -16.947  1.00  0.00     0.009 C 
ENDBRANCH  40  41
ENDBRANCH   1  40
BRANCH  11  44
HETATM   44  C14 UNL     1     -16.066   3.298 -12.244  1.00  0.00     0.000 A 
HETATM   45  C15 UNL     1     -16.528   2.771 -10.934  1.00  0.00     0.006 A 
HETATM   46  C16 UNL     1     -16.825   4.190 -11.371  1.00  0.00     0.006 A 
ENDBRANCH  11  44
BRANCH  27  47
HETATM   47  C31 UNL     1     -21.437   2.176 -19.352  1.00  0.00     0.038 C 
BRANCH  47  48
HETATM   48  C32 UNL     1     -20.217   1.812 -20.202  1.00  0.00    -0.020 C 
HETATM   49  C33 UNL     1     -19.430   3.074 -20.527  1.00  0.00     0.009 C 
HETATM   50  C34 UNL     1     -20.643   1.100 -21.469  1.00  0.00     0.009 C 
ENDBRANCH  47  48
ENDBRANCH  27  47
BRANCH  17  51
HETATM   51  C20 UNL     1     -16.811   8.064 -15.483  1.00  0.00     0.038 C 
BRANCH  51  52
HETATM   52  C21 UNL     1     -16.208   8.804 -16.647  1.00  0.00    -0.020 C 
HETATM   53  C22 UNL     1     -14.904   9.453 -16.325  1.00  0.00     0.009 C 
HETATM   54  C23 UNL     1     -17.198   9.889 -17.038  1.00  0.00     0.009 C 
ENDBRANCH  51  52
ENDBRANCH  17  51
BRANCH  22  55
HETATM   55  C26 UNL     1     -20.732   6.755 -15.966  1.00  0.00     0.009 C 
HETATM   56  C27 UNL     1     -22.162   6.960 -16.436  1.00  0.00     0.012 C 
HETATM   57  C28 UNL     1     -20.122   8.130 -15.804  1.00  0.00     0.012 C 
ENDBRANCH  22  55
TORSDOF 13
ENDMDL
MODEL 2
REMARK VINA RESULT: -5.895007622      2.074      7.291
REMARK  13 active torsions:
REMARK  status: ('A' for Active; 'I' for Inactive)
REMARK    1  A    between atoms: C2_2  and  C4_4 
REMARK    2  A    between atoms: C4_4  and  C5_5 
REMARK    3  A    between atoms: C7_10  and  C8_11 
REMARK    4  A    between atoms: C8_11  and  C9_12 
REMARK    5  A    between atoms: C9_12  and  C10_13 
REMARK    6  A    between atoms: C10_13  and  C11_14 
REMARK    7  A    between atoms: C11_14  and  N2_15 
REMARK    8  A    between atoms: C13_23  and  C14_24 
REMARK    9  A    between atoms: C19_32  and  C20_33 
REMARK   10  A    between atoms: C20_33  and  C21_34 
REMARK   11  A    between atoms: C25_41  and  C26_42 
REMARK   12  A    between atoms: C30_49  and  C31_50 
REMARK   13  A    between atoms: C31_50  and  C32_51 
ROOT
HETATM    1  C5  UNL     1     -16.952   3.757 -13.829  1.00  0.00     0.177 C 
HETATM    2  N1  UNL     1     -16.048   3.576 -14.944  1.00  0.00    -0.346 N 
ATOM      3  H1  UNL     1     -15.266   2.943 -14.776  1.00  0.00     0.163 HD
HETATM    4  C6  UNL     1     -16.095   4.142 -16.213  1.00  0.00     0.241 C 
HETATM    5  O1  UNL     1     -16.134   3.308 -17.200  1.00  0.00    -0.271 OA
HETATM    6  C7  UNL     1     -16.106   5.584 -16.568  1.00  0.00     0.176 C 
HETATM    7  N3  UNL     1     -17.015   6.392 -15.814  1.00  0.00    -0.347 N 
ATOM      8  H3  UNL     1     -16.627   6.736 -14.935  1.00  0.00     0.163 HD
HETATM    9  C12 UNL     1     -18.330   6.803 -16.048  1.00  0.00     0.224 C 
HETATM   10  O2  UNL     1     -18.541   8.079 -16.162  1.00  0.00    -0.273 OA
HETATM   11  C13 UNL     1     -19.567   6.026 -16.193  1.00  0.00     0.100 C 
HETATM   12  C17 UNL     1     -19.541   4.810 -17.031  1.00  0.00     0.137 C 
HETATM   13  N4  UNL     1     -19.087   5.064 -18.380  1.00  0.00    -0.358 N 
ATOM     14  H4  UNL     1     -18.770   6.005 -18.611  1.00  0.00     0.162 HD
HETATM   15  C18 UNL     1     -19.059   4.088 -19.390  1.00  0.00     0.240 C 
HETATM   16  O3  UNL     1     -18.506   4.378 -20.481  1.00  0.00    -0.271 OA
HETATM   17  C19 UNL     1     -19.663   2.724 -19.212  1.00  0.00     0.177 C 
HETATM   18  N5  UNL     1     -18.628   1.709 -19.167  1.00  0.00    -0.346 N 
ATOM     19  H5  UNL     1     -17.804   1.874 -19.745  1.00  0.00     0.163 HD
HETATM   20  C24 UNL     1     -18.640   0.533 -18.419  1.00  0.00     0.241 C 
HETATM   21  O4  UNL     1     -18.149  -0.511 -18.963  1.00  0.00    -0.271 OA
HETATM   22  C25 UNL     1     -19.165   0.352 -17.042  1.00  0.00     0.180 C 
HETATM   23  N6  UNL     1     -18.469  -0.741 -16.359  1.00  0.00    -0.346 N 
ATOM     24  H6  UNL     1     -18.415  -1.635 -16.845  1.00  0.00     0.163 HD
HETATM   25  C29 UNL     1     -17.874  -0.660 -15.096  1.00  0.00     0.241 C 
HETATM   26  O5  UNL     1     -18.023  -1.619 -14.294  1.00  0.00    -0.271 OA
HETATM   27  C30 UNL     1     -17.050   0.500 -14.595  1.00  0.00     0.177 C 
HETATM   28  N7  UNL     1     -17.828   1.331 -13.709  1.00  0.00    -0.346 N 
ATOM     29  H7  UNL     1     -18.307   0.846 -12.950  1.00  0.00     0.163 HD
HETATM   30  C35 UNL     1     -18.011   2.719 -13.754  1.00  0.00     0.241 C 
HETATM   31  O6  UNL     1     -19.215   3.166 -13.725  1.00  0.00    -0.271 OA
ENDROOT
BRANCH   6  32
HETATM   32  C8  UNL     1     -14.655   6.133 -16.398  1.00  0.00     0.035 C 
BRANCH  32  33
HETATM   33  C9  UNL     1     -14.692   7.632 -16.374  1.00  0.00     0.004 C 
BRANCH  33  34
HETATM   34  C10 UNL     1     -13.958   8.311 -17.466  1.00  0.00     0.027 C 
BRANCH  34  35
HETATM   35  C11 UNL     1     -14.778   9.462 -17.992  1.00  0.00     0.229 C 
BRANCH  35  36
HETATM   36  N2  UNL     1     -16.198   9.104 -17.963  1.00  0.00    -0.079 N 
ATOM     37  H23 UNL     1     -16.713   9.501 -18.748  1.00  0.00     0.274 HD
ATOM     38  H22 UNL     1     -16.351   8.117 -18.171  1.00  0.00     0.274 HD
ATOM     39  H21 UNL     1     -16.597   9.375 -17.063  1.00  0.00     0.274 HD
ENDBRANCH  35  36
ENDBRANCH  34  35
ENDBRANCH  33  34
ENDBRANCH  32  33
ENDBRANCH   6  32
BRANCH   1  40
HETATM   40  C4  UNL     1     -16.107   3.752 -12.542  1.00  0.00     0.038 C 
BRANCH  40  41
HETATM   41  C2  UNL     1     -16.830   3.097 -11.406  1.00  0.00    -0.020 C 
HETATM   42  C1  UNL     1     -17.208   4.181 -10.415  1.00  0.00     0.009 C 
HETATM   43  C3  UNL     1     -15.873   2.114 -10.769  1.00  0.00     0.009 C 
ENDBRANCH  40  41
ENDBRANCH   1  40
BRANCH  11  44
HETATM   44  C14 UNL     1     -20.676   6.920 -16.747  1.00  0.00     0.000 A 
HETATM   45  C15 UNL     1     -21.616   7.565 -15.795  1.00  0.00     0.006 A 
HETATM   46  C16 UNL     1     -22.053   6.433 -16.700  1.00  0.00     0.006 A 
ENDBRANCH  11  44
BRANCH  27  47
HETATM   47  C31 UNL     1     -15.820  -0.060 -13.861  1.00  0.00     0.038 C 
BRANCH  47  48
HETATM   48  C32 UNL     1     -14.595   0.341 -14.688  1.00  0.00    -0.020 C 
HETATM   49  C33 UNL     1     -14.914   0.197 -16.170  1.00  0.00     0.009 C 
HETATM   50  C34 UNL     1     -13.397  -0.502 -14.308  1.00  0.00     0.009 C 
ENDBRANCH  47  48
ENDBRANCH  27  47
BRANCH  17  51
HETATM   51  C20 UNL     1     -20.529   2.406 -20.403  1.00  0.00     0.038 C 
BRANCH  51  52
HETATM   52  C21 UNL     1     -19.875   1.460 -21.376  1.00  0.00    -0.020 C 
HETATM   53  C22 UNL     1     -19.709   2.037 -22.741  1.00  0.00     0.009 C 
HETATM   54  C23 UNL     1     -20.779   0.242 -21.478  1.00  0.00     0.009 C 
ENDBRANCH  51  52
ENDBRANCH  17  51
BRANCH  22  55
HETATM   55  C26 UNL     1     -20.631   0.027 -16.990  1.00  0.00     0.009 C 
HETATM   56  C27 UNL     1     -21.183   0.694 -15.741  1.00  0.00     0.012 C 
HETATM   57  C28 UNL     1     -20.904  -1.455 -16.854  1.00  0.00     0.012 C 
ENDBRANCH  22  55
TORSDOF 13
ENDMDL
MODEL 3
REMARK VINA RESULT: -5.520653403      2.376      7.714
REMARK  13 active torsions:
REMARK  status: ('A' for Active; 'I' for Inactive)
REMARK    1  A    between atoms: C2_2  and  C4_4 
REMARK    2  A    between atoms: C4_4  and  C5_5 
REMARK    3  A    between atoms: C7_10  and  C8_11 
REMARK    4  A    between atoms: C8_11  and  C9_12 
REMARK    5  A    between atoms: C9_12  and  C10_13 
REMARK    6  A    between atoms: C10_13  and  C11_14 
REMARK    7  A    between atoms: C11_14  and  N2_15 
REMARK    8  A    between atoms: C13_23  and  C14_24 
REMARK    9  A    between atoms: C19_32  and  C20_33 
REMARK   10  A    between atoms: C20_33  and  C21_34 
REMARK   11  A    between atoms: C25_41  and  C26_42 
REMARK   12  A    between atoms: C30_49  and  C31_50 
REMARK   13  A    between atoms: C31_50  and  C32_51 
ROOT
HETATM    1  C5  UNL     1     -19.776   5.741 -18.280  1.00  0.00     0.177 C 
HETATM    2  N1  UNL     1     -18.650   5.119 -18.942  1.00  0.00    -0.346 N 
ATOM      3  H1  UNL     1     -17.909   5.756 -19.237  1.00  0.00     0.163 HD
HETATM    4  C6  UNL     1     -18.434   3.777 -19.232  1.00  0.00     0.241 C 
HETATM    5  O1  UNL     1     -17.353   3.263 -18.747  1.00  0.00    -0.271 OA
HETATM    6  C7  UNL     1     -19.295   2.868 -20.031  1.00  0.00     0.176 C 
HETATM    7  N3  UNL     1     -20.691   2.916 -19.719  1.00  0.00    -0.347 N 
ATOM      8  H3  UNL     1     -21.200   3.642 -20.222  1.00  0.00     0.163 HD
HETATM    9  C12 UNL     1     -21.492   2.159 -18.859  1.00  0.00     0.224 C 
HETATM   10  O2  UNL     1     -22.450   1.469 -19.395  1.00  0.00    -0.273 OA
HETATM   11  C13 UNL     1     -21.448   1.999 -17.400  1.00  0.00     0.100 C 
HETATM   12  C17 UNL     1     -20.136   1.790 -16.753  1.00  0.00     0.137 C 
HETATM   13  N4  UNL     1     -19.417   0.656 -17.286  1.00  0.00    -0.358 N 
ATOM     14  H4  UNL     1     -19.825   0.157 -18.077  1.00  0.00     0.162 HD
HETATM   15  C18 UNL     1     -18.189   0.200 -16.778  1.00  0.00     0.240 C 
HETATM   16  O3  UNL     1     -17.581  -0.698 -17.411  1.00  0.00    -0.271 OA
HETATM   17  C19 UNL     1     -17.587   0.746 -15.513  1.00  0.00     0.177 C 
HETATM   18  N5  UNL     1     -16.389   1.508 -15.807  1.00  0.00    -0.346 N 
ATOM     19  H5  UNL     1     -15.822   1.182 -16.590  1.00  0.00     0.163 HD
HETATM   20  C24 UNL     1     -15.930   2.639 -15.134  1.00  0.00     0.241 C 
HETATM   21  O4  UNL     1     -14.671   2.749 -14.966  1.00  0.00    -0.271 OA
HETATM   22  C25 UNL     1     -16.749   3.748 -14.581  1.00  0.00     0.180 C 
HETATM   23  N6  UNL     1     -15.981   4.994 -14.542  1.00  0.00    -0.346 N 
ATOM     24  H6  UNL     1     -15.066   4.964 -14.094  1.00  0.00     0.163 HD
HETATM   25  C29 UNL     1     -16.398   6.221 -15.067  1.00  0.00     0.241 C 
HETATM   26  O5  UNL     1     -16.188   7.268 -14.400  1.00  0.00    -0.271 OA
HETATM   27  C30 UNL     1     -17.094   6.409 -16.392  1.00  0.00     0.177 C 
HETATM   28  N7  UNL     1     -18.512   6.600 -16.199  1.00  0.00    -0.346 N 
ATOM     29  H7  UNL     1     -18.776   7.316 -15.522  1.00  0.00     0.163 HD
HETATM   30  C35 UNL     1     -19.572   5.930 -16.821  1.00  0.00     0.241 C 
HETATM   31  O6  UNL     1     -20.480   5.418 -16.070  1.00  0.00    -0.271 OA
ENDROOT
BRANCH   6  32
HETATM   32  C8  UNL     1     -19.086   3.208 -21.540  1.00  0.00     0.035 C 
BRANCH  32  33
HETATM   33  C9  UNL     1     -19.735   2.150 -22.381  1.00  0.00     0.004 C 
BRANCH  33  34
HETATM   34  C10 UNL     1     -19.865   2.463 -23.822  1.00  0.00     0.027 C 
BRANCH  34  35
HETATM   35  C11 UNL     1     -18.662   3.247 -24.285  1.00  0.00     0.229 C 
BRANCH  35  36
HETATM   36  N2  UNL     1     -19.101   4.372 -25.113  1.00  0.00    -0.079 N 
ATOM     37  H23 UNL     1     -19.838   4.105 -25.766  1.00  0.00     0.274 HD
ATOM     38  H22 UNL     1     -19.626   5.064 -24.576  1.00  0.00     0.274 HD
ATOM     39  H21 UNL     1     -18.295   4.781 -25.586  1.00  0.00     0.274 HD
ENDBRANCH  35  36
ENDBRANCH  34  35
ENDBRANCH  33  34
ENDBRANCH  32  33
ENDBRANCH   6  32
BRANCH   1  40
HETATM   40  C4  UNL     1     -20.026   7.098 -18.965  1.00  0.00     0.038 C 
BRANCH  40  41
HETATM   41  C2  UNL     1     -21.451   7.535 -18.825  1.00  0.00    -0.020 C 
HETATM   42  C1  UNL     1     -21.819   8.310 -20.076  1.00  0.00     0.009 C 
HETATM   43  C3  UNL     1     -21.530   8.432 -17.610  1.00  0.00     0.009 C 
ENDBRANCH  40  41
ENDBRANCH   1  40
BRANCH  11  44
HETATM   44  C14 UNL     1     -22.335   0.826 -16.983  1.00  0.00     0.000 A 
HETATM   45  C15 UNL     1     -23.585   1.108 -16.230  1.00  0.00     0.006 A 
HETATM   46  C16 UNL     1     -22.388   0.458 -15.570  1.00  0.00     0.006 A 
ENDBRANCH  11  44
BRANCH  27  47
HETATM   47  C31 UNL     1     -16.480   7.633 -17.093  1.00  0.00     0.038 C 
BRANCH  47  48
HETATM   48  C32 UNL     1     -17.519   8.754 -17.009  1.00  0.00    -0.020 C 
HETATM   49  C33 UNL     1     -17.863   9.233 -18.413  1.00  0.00     0.009 C 
HETATM   50  C34 UNL     1     -17.004   9.896 -16.159  1.00  0.00     0.009 C 
ENDBRANCH  47  48
ENDBRANCH  27  47
BRANCH  17  51
HETATM   51  C20 UNL     1     -17.165  -0.399 -14.631  1.00  0.00     0.038 C 
BRANCH  51  52
HETATM   52  C21 UNL     1     -18.272  -0.903 -13.744  1.00  0.00    -0.020 C 
HETATM   53  C22 UNL     1     -17.935  -0.854 -12.291  1.00  0.00     0.009 C 
HETATM   54  C23 UNL     1     -18.517  -2.353 -14.129  1.00  0.00     0.009 C 
ENDBRANCH  51  52
ENDBRANCH  17  51
BRANCH  22  55
HETATM   55  C26 UNL     1     -17.239   3.501 -13.182  1.00  0.00     0.009 C 
HETATM   56  C27 UNL     1     -16.175   2.670 -12.486  1.00  0.00     0.012 C 
HETATM   57  C28 UNL     1     -18.522   2.702 -13.136  1.00  0.00     0.012 C 
ENDBRANCH  22  55
TORSDOF 13
ENDMDL
MODEL 4
REMARK VINA RESULT: -5.475927496      2.506      8.089
REMARK  13 active torsions:
REMARK  status: ('A' for Active; 'I' for Inactive)
REMARK    1  A    between atoms: C2_2  and  C4_4 
REMARK    2  A    between atoms: C4_4  and  C5_5 
REMARK    3  A    between atoms: C7_10  and  C8_11 
REMARK    4  A    between atoms: C8_11  and  C9_12 
REMARK    5  A    between atoms: C9_12  and  C10_13 
REMARK    6  A    between atoms: C10_13  and  C11_14 
REMARK    7  A    between atoms: C11_14  and  N2_15 
REMARK    8  A    between atoms: C13_23  and  C14_24 
REMARK    9  A    between atoms: C19_32  and  C20_33 
REMARK   10  A    between atoms: C20_33  and  C21_34 
REMARK   11  A    between atoms: C25_41  and  C26_42 
REMARK   12  A    between atoms: C30_49  and  C31_50 
REMARK   13  A    between atoms: C31_50  and  C32_51 
ROOT
HETATM    1  C5  UNL     1     -19.640   5.074 -18.127  1.00  0.00     0.177 C 
HETATM    2  N1  UNL     1     -18.500   4.587 -18.873  1.00  0.00    -0.346 N 
ATOM      3  H1  UNL     1     -17.718   5.238 -18.951  1.00  0.00     0.163 HD
HETATM    4  C6  UNL     1     -18.320   3.359 -19.498  1.00  0.00     0.241 C 
HETATM    5  O1  UNL     1     -17.292   2.678 -19.113  1.00  0.00    -0.271 OA
HETATM    6  C7  UNL     1     -19.164   2.740 -20.551  1.00  0.00     0.176 C 
HETATM    7  N3  UNL     1     -20.574   2.780 -20.307  1.00  0.00    -0.347 N 
ATOM      8  H3  UNL     1     -21.021   3.640 -20.624  1.00  0.00     0.163 HD
HETATM    9  C12 UNL     1     -21.456   1.869 -19.720  1.00  0.00     0.224 C 
HETATM   10  O2  UNL     1     -22.406   1.397 -20.467  1.00  0.00    -0.273 OA
HETATM   11  C13 UNL     1     -21.510   1.329 -18.356  1.00  0.00     0.100 C 
HETATM   12  C17 UNL     1     -20.250   0.886 -17.723  1.00  0.00     0.137 C 
HETATM   13  N4  UNL     1     -19.545  -0.106 -18.502  1.00  0.00    -0.358 N 
ATOM     14  H4  UNL     1     -19.921  -0.356 -19.416  1.00  0.00     0.162 HD
HETATM   15  C18 UNL     1     -18.370  -0.745 -18.073  1.00  0.00     0.240 C 
HETATM   16  O3  UNL     1     -17.758  -1.477 -18.890  1.00  0.00    -0.271 OA
HETATM   17  C19 UNL     1     -17.826  -0.584 -16.680  1.00  0.00     0.177 C 
HETATM   18  N5  UNL     1     -16.584   0.162 -16.701  1.00  0.00    -0.346 N 
ATOM     19  H5  UNL     1     -15.982   0.023 -17.513  1.00  0.00     0.163 HD
HETATM   20  C24 UNL     1     -16.123   1.050 -15.729  1.00  0.00     0.241 C 
HETATM   21  O4  UNL     1     -14.874   1.043 -15.476  1.00  0.00    -0.271 OA
HETATM   22  C25 UNL     1     -16.931   2.017 -14.944  1.00  0.00     0.180 C 
HETATM   23  N6  UNL     1     -16.118   3.165 -14.538  1.00  0.00    -0.346 N 
ATOM     24  H6  UNL     1     -15.234   2.969 -14.069  1.00  0.00     0.163 HD
HETATM   25  C29 UNL     1     -16.453   4.508 -14.738  1.00  0.00     0.241 C 
HETATM   26  O5  UNL     1     -16.244   5.329 -13.807  1.00  0.00    -0.271 OA
HETATM   27  C30 UNL     1     -17.057   5.076 -15.998  1.00  0.00     0.177 C 
HETATM   28  N7  UNL     1     -18.475   5.286 -15.833  1.00  0.00    -0.346 N 
ATOM     29  H7  UNL     1     -18.752   5.812 -15.004  1.00  0.00     0.163 HD
HETATM   30  C35 UNL     1     -19.521   4.861 -16.662  1.00  0.00     0.241 C 
HETATM   31  O6  UNL     1     -20.492   4.220 -16.120  1.00  0.00    -0.271 OA
ENDROOT
BRANCH   6  32
HETATM   32  C8  UNL     1     -18.848   3.453 -21.903  1.00  0.00     0.035 C 
BRANCH  32  33
HETATM   33  C9  UNL     1     -19.529   2.721 -23.021  1.00  0.00     0.004 C 
BRANCH  33  34
HETATM   34  C10 UNL     1     -18.921   2.882 -24.361  1.00  0.00     0.027 C 
BRANCH  34  35
HETATM   35  C11 UNL     1     -19.860   3.647 -25.260  1.00  0.00     0.229 C 
BRANCH  35  36
HETATM   36  N2  UNL     1     -19.200   4.868 -25.728  1.00  0.00    -0.079 N 
ATOM     37  H23 UNL     1     -18.297   4.676 -26.160  1.00  0.00     0.274 HD
ATOM     38  H22 UNL     1     -19.668   5.273 -26.539  1.00  0.00     0.274 HD
ATOM     39  H21 UNL     1     -19.125   5.531 -24.955  1.00  0.00     0.274 HD
ENDBRANCH  35  36
ENDBRANCH  34  35
ENDBRANCH  33  34
ENDBRANCH  32  33
ENDBRANCH   6  32
BRANCH   1  40
HETATM   40  C4  UNL     1     -19.793   6.574 -18.438  1.00  0.00     0.038 C 
BRANCH  40  41
HETATM   41  C2  UNL     1     -21.231   6.990 -18.473  1.00  0.00    -0.020 C 
HETATM   42  C1  UNL     1     -21.399   7.973 -19.615  1.00  0.00     0.009 C 
HETATM   43  C3  UNL     1     -21.538   7.661 -17.153  1.00  0.00     0.009 C 
ENDBRANCH  40  41
ENDBRANCH   1  40
BRANCH  11  44
HETATM   44  C14 UNL     1     -22.467   0.138 -18.310  1.00  0.00     0.000 A 
HETATM   45  C15 UNL     1     -23.757   0.285 -17.587  1.00  0.00     0.006 A 
HETATM   46  C16 UNL     1     -22.634  -0.575 -17.045  1.00  0.00     0.006 A 
ENDBRANCH  11  44
BRANCH  27  47
HETATM   47  C31 UNL     1     -16.353   6.405 -16.317  1.00  0.00     0.038 C 
BRANCH  47  48
HETATM   48  C32 UNL     1     -16.944   7.453 -15.372  1.00  0.00    -0.020 C 
HETATM   49  C33 UNL     1     -18.001   8.264 -16.109  1.00  0.00     0.009 C 
HETATM   50  C34 UNL     1     -15.856   8.353 -14.826  1.00  0.00     0.009 C 
ENDBRANCH  47  48
ENDBRANCH  27  47
BRANCH  17  51
HETATM   51  C20 UNL     1     -17.506  -1.942 -16.114  1.00  0.00     0.038 C 
BRANCH  51  52
HETATM   52  C21 UNL     1     -18.386  -2.324 -14.954  1.00  0.00    -0.020 C 
HETATM   53  C22 UNL     1     -19.584  -1.448 -14.806  1.00  0.00     0.009 C 
HETATM   54  C23 UNL     1     -17.540  -2.193 -13.699  1.00  0.00     0.009 C 
ENDBRANCH  51  52
ENDBRANCH  17  51
BRANCH  22  55
HETATM   55  C26 UNL     1     -17.516   1.439 -13.687  1.00  0.00     0.009 C 
HETATM   56  C27 UNL     1     -18.918   2.009 -13.553  1.00  0.00     0.012 C 
HETATM   57  C28 UNL     1     -16.758   1.841 -12.442  1.00  0.00     0.012 C 
ENDBRANCH  22  55
TORSDOF 13
ENDMDL
MODEL 5
REMARK VINA RESULT: -5.445746733      3.027      7.126
REMARK  13 active torsions:
REMARK  status: ('A' for Active; 'I' for Inactive)
REMARK    1  A    between atoms: C2_2  and  C4_4 
REMARK    2  A    between atoms: C4_4  and  C5_5 
REMARK    3  A    between atoms: C7_10  and  C8_11 
REMARK    4  A    between atoms: C8_11  and  C9_12 
REMARK    5  A    between atoms: C9_12  and  C10_13 
REMARK    6  A    between atoms: C10_13  and  C11_14 
REMARK    7  A    between atoms: C11_14  and  N2_15 
REMARK    8  A    between atoms: C13_23  and  C14_24 
REMARK    9  A    between atoms: C19_32  and  C20_33 
REMARK   10  A    between atoms: C20_33  and  C21_34 
REMARK   11  A    between atoms: C25_41  and  C26_42 
REMARK   12  A    between atoms: C30_49  and  C31_50 
REMARK   13  A    between atoms: C31_50  and  C32_51 
ROOT
HETATM    1  C5  UNL     1     -20.239   1.840 -18.954  1.00  0.00     0.177 C 
HETATM    2  N1  UNL     1     -20.806   2.861 -18.101  1.00  0.00    -0.346 N 
ATOM      3  H1  UNL     1     -21.737   3.185 -18.365  1.00  0.00     0.163 HD
HETATM    4  C6  UNL     1     -20.262   3.464 -16.973  1.00  0.00     0.241 C 
HETATM    5  O1  UNL     1     -20.959   3.363 -15.889  1.00  0.00    -0.271 OA
HETATM    6  C7  UNL     1     -18.981   4.207 -16.865  1.00  0.00     0.176 C 
HETATM    7  N3  UNL     1     -17.852   3.573 -17.474  1.00  0.00    -0.347 N 
ATOM      8  H3  UNL     1     -17.750   3.781 -18.468  1.00  0.00     0.163 HD
HETATM    9  C12 UNL     1     -16.863   2.723 -16.972  1.00  0.00     0.224 C 
HETATM   10  O2  UNL     1     -15.638   3.149 -17.014  1.00  0.00    -0.273 OA
HETATM   11  C13 UNL     1     -16.958   1.381 -16.385  1.00  0.00     0.100 C 
HETATM   12  C17 UNL     1     -18.026   1.118 -15.398  1.00  0.00     0.137 C 
HETATM   13  N4  UNL     1     -17.992   2.027 -14.275  1.00  0.00    -0.358 N 
ATOM     14  H4  UNL     1     -17.310   2.785 -14.290  1.00  0.00     0.162 HD
HETATM   15  C18 UNL     1     -18.846   1.927 -13.164  1.00  0.00     0.240 C 
HETATM   16  O3  UNL     1     -18.833   2.856 -12.318  1.00  0.00    -0.271 OA
HETATM   17  C19 UNL     1     -19.764   0.755 -12.954  1.00  0.00     0.177 C 
HETATM   18  N5  UNL     1     -21.148   1.159 -13.105  1.00  0.00    -0.346 N 
ATOM     19  H5  UNL     1     -21.383   2.103 -12.798  1.00  0.00     0.163 HD
HETATM   20  C24 UNL     1     -22.192   0.395 -13.624  1.00  0.00     0.241 C 
HETATM   21  O4  UNL     1     -23.334   0.509 -13.068  1.00  0.00    -0.271 OA
HETATM   22  C25 UNL     1     -22.129  -0.551 -14.767  1.00  0.00     0.180 C 
HETATM   23  N6  UNL     1     -23.432  -0.664 -15.424  1.00  0.00    -0.346 N 
ATOM     24  H6  UNL     1     -24.237  -0.867 -14.831  1.00  0.00     0.163 HD
HETATM   25  C29 UNL     1     -23.667  -0.516 -16.794  1.00  0.00     0.241 C 
HETATM   26  O5  UNL     1     -24.455  -1.316 -17.363  1.00  0.00    -0.271 OA
HETATM   27  C30 UNL     1     -23.046   0.540 -17.674  1.00  0.00     0.177 C 
HETATM   28  N7  UNL     1     -21.961  -0.016 -18.447  1.00  0.00    -0.346 N 
ATOM     29  H7  UNL     1     -22.176  -0.868 -18.964  1.00  0.00     0.163 HD
HETATM   30  C35 UNL     1     -20.652   0.463 -18.580  1.00  0.00     0.241 C 
HETATM   31  O6  UNL     1     -19.689  -0.358 -18.363  1.00  0.00    -0.271 OA
ENDROOT
BRANCH   6  32
HETATM   32  C8  UNL     1     -19.188   5.620 -17.496  1.00  0.00     0.035 C 
BRANCH  32  33
HETATM   33  C9  UNL     1     -19.619   6.582 -16.429  1.00  0.00     0.004 C 
BRANCH  33  34
HETATM   34  C10 UNL     1     -20.996   7.110 -16.556  1.00  0.00     0.027 C 
BRANCH  34  35
HETATM   35  C11 UNL     1     -21.232   8.175 -15.515  1.00  0.00     0.229 C 
BRANCH  35  36
HETATM   36  N2  UNL     1     -19.970   8.856 -15.219  1.00  0.00    -0.079 N 
ATOM     37  H23 UNL     1     -19.402   8.995 -16.055  1.00  0.00     0.274 HD
ATOM     38  H22 UNL     1     -20.109   9.837 -14.973  1.00  0.00     0.274 HD
ATOM     39  H21 UNL     1     -19.469   8.343 -14.493  1.00  0.00     0.274 HD
ENDBRANCH  35  36
ENDBRANCH  34  35
ENDBRANCH  33  34
ENDBRANCH  32  33
ENDBRANCH   6  32
BRANCH   1  40
HETATM   40  C4  UNL     1     -20.667   2.152 -20.400  1.00  0.00     0.038 C 
BRANCH  40  41
HETATM   41  C2  UNL     1     -19.488   2.251 -21.318  1.00  0.00    -0.020 C 
HETATM   42  C1  UNL     1     -18.845   3.607 -21.095  1.00  0.00     0.009 C 
HETATM   43  C3  UNL     1     -20.009   2.144 -22.734  1.00  0.00     0.009 C 
ENDBRANCH  40  41
ENDBRANCH   1  40
BRANCH  11  44
HETATM   44  C14 UNL     1     -15.635   1.017 -15.710  1.00  0.00     0.000 A 
HETATM   45  C15 UNL     1     -14.917  -0.204 -16.159  1.00  0.00     0.006 A 
HETATM   46  C16 UNL     1     -15.604  -0.134 -14.811  1.00  0.00     0.006 A 
ENDBRANCH  11  44
BRANCH  27  47
HETATM   47  C31 UNL     1     -24.136   1.098 -18.605  1.00  0.00     0.038 C 
BRANCH  47  48
HETATM   48  C32 UNL     1     -25.021   2.007 -17.748  1.00  0.00    -0.020 C 
HETATM   49  C33 UNL     1     -26.248   2.421 -18.549  1.00  0.00     0.009 C 
HETATM   50  C34 UNL     1     -24.245   3.220 -17.281  1.00  0.00     0.009 C 
ENDBRANCH  47  48
ENDBRANCH  27  47
BRANCH  17  51
HETATM   51  C20 UNL     1     -19.612   0.252 -11.543  1.00  0.00     0.038 C 
BRANCH  51  52
HETATM   52  C21 UNL     1     -19.032  -1.135 -11.467  1.00  0.00    -0.020 C 
HETATM   53  C22 UNL     1     -18.449  -1.605 -12.757  1.00  0.00     0.009 C 
HETATM   54  C23 UNL     1     -20.171  -2.067 -11.090  1.00  0.00     0.009 C 
ENDBRANCH  51  52
ENDBRANCH  17  51
BRANCH  22  55
HETATM   55  C26 UNL     1     -21.721  -1.944 -14.380  1.00  0.00     0.009 C 
HETATM   56  C27 UNL     1     -20.890  -2.493 -15.527  1.00  0.00     0.012 C 
HETATM   57  C28 UNL     1     -22.898  -2.878 -14.204  1.00  0.00     0.012 C 
ENDBRANCH  22  55
TORSDOF 13
ENDMDL
