MODEL 1
REMARK VINA RESULT: -8.926522670      0.000      0.000
REMARK  15 active torsions:
REMARK  status: ('A' for Active; 'I' for Inactive)
REMARK    1  A    between atoms: O1_2  and  C2_3 
REMARK    2  A    between atoms: C5_6  and  N1_7 
REMARK    3  A    between atoms: C6_12  and  N3_13 
REMARK    4  A    between atoms: N3_13  and  C7_15 
REMARK    5  A    between atoms: C7_15  and  C8_16 
REMARK    6  A    between atoms: C8_16  and  C9_17 
REMARK    7  A    between atoms: C9_17  and  C10_18 
REMARK    8  A    between atoms: C10_18  and  S1_19 
REMARK    9  A    between atoms: S1_19  and  N4_22 
REMARK   10  A    between atoms: C18_32  and  O4_33 
REMARK   11  A    between atoms: O4_33  and  C19_34 
REMARK   12  A    between atoms: C19_34  and  C20_35 
REMARK   13  A    between atoms: C20_35  and  N6_36 
REMARK   14  A    between atoms: N6_36  and  O5_37 
REMARK   15  A    between atoms: N6_36  and  C21_39 
ROOT
HETATM    1  C2  UNL     1     -16.277  12.761 -19.183  1.00  0.00     0.102 A 
HETATM    2  C3  UNL     1     -15.461  12.178 -18.236  1.00  0.00     0.057 A 
HETATM    3  C4  UNL     1     -15.390  10.798 -18.069  1.00  0.00     0.038 A 
HETATM    4  C5  UNL     1     -14.577  10.203 -17.129  1.00  0.00     0.127 A 
HETATM    5  N2  UNL     1     -14.535   8.843 -16.999  1.00  0.00    -0.176 N 
ATOM      6  H2  UNL     1     -13.922   8.435 -16.293  1.00  0.00     0.186 HD
HETATM    7  C6  UNL     1     -15.267   8.033 -17.763  1.00  0.00     0.683 A 
HETATM    8  N5  UNL     1     -16.072   8.630 -18.694  1.00  0.00    -0.191 N 
ATOM      9  H5  UNL     1     -16.644   8.035 -19.294  1.00  0.00     0.184 HD
HETATM   10  C16 UNL     1     -16.145   9.957 -18.856  1.00  0.00     0.066 A 
HETATM   11  C17 UNL     1     -16.964  10.544 -19.806  1.00  0.00     0.070 A 
HETATM   12  C18 UNL     1     -17.034  11.911 -19.973  1.00  0.00     0.104 A 
ENDROOT
BRANCH   7  13
HETATM   13  N3  UNL     1     -15.284   6.772 -17.709  1.00  0.00    -0.205 N 
ATOM     14  H3  UNL     1     -14.879   6.318 -18.528  1.00  0.00     0.183 HD
BRANCH  13  15
HETATM   15  C7  UNL     1     -15.754   5.875 -16.733  1.00  0.00     0.079 C 
BRANCH  15  16
HETATM   16  C8  UNL     1     -17.249   5.826 -16.541  1.00  0.00     0.046 C 
BRANCH  16  17
HETATM   17  C9  UNL     1     -17.661   6.824 -15.519  1.00  0.00     0.022 C 
BRANCH  17  18
HETATM   18  C10 UNL     1     -18.704   7.802 -15.911  1.00  0.00     0.163 C 
BRANCH  18  19
HETATM   19  S1  UNL     1     -20.360   7.227 -15.839  1.00  0.00     0.228 S 
HETATM   20  O2  UNL     1     -20.527   5.856 -15.309  1.00  0.00    -0.206 OA
HETATM   21  O3  UNL     1     -21.136   8.147 -14.898  1.00  0.00    -0.206 OA
BRANCH  19  22
HETATM   22  N4  UNL     1     -21.059   7.383 -17.391  1.00  0.00    -0.311 N 
HETATM   23  C11 UNL     1     -20.353   6.730 -18.438  1.00  0.00     0.135 C 
HETATM   24  C12 UNL     1     -19.405   7.671 -19.186  1.00  0.00     0.021 C 
HETATM   25  C13 UNL     1     -20.334   8.702 -19.840  1.00  0.00     0.003 C 
HETATM   26  C14 UNL     1     -20.956   9.479 -18.708  1.00  0.00     0.021 C 
HETATM   27  C15 UNL     1     -21.642   8.641 -17.685  1.00  0.00     0.135 C 
ENDBRANCH  19  22
ENDBRANCH  18  19
ENDBRANCH  17  18
ENDBRANCH  16  17
ENDBRANCH  15  16
ENDBRANCH  13  15
ENDBRANCH   7  13
BRANCH   4  28
HETATM   28  N1  UNL     1     -13.841  10.899 -16.353  1.00  0.00    -0.384 N 
ATOM     29  H12 UNL     1     -14.194  11.805 -16.047  1.00  0.00     0.157 HD
ATOM     30  H11 UNL     1     -12.928  10.563 -16.045  1.00  0.00     0.157 HD
ENDBRANCH   4  28
BRANCH  12  31
HETATM   31  O4  UNL     1     -17.870  12.496 -20.943  1.00  0.00    -0.347 OA
BRANCH  31  32
HETATM   32  C19 UNL     1     -17.377  12.522 -22.263  1.00  0.00     0.192 C 
BRANCH  32  33
HETATM   33  C20 UNL     1     -17.150  13.942 -22.759  1.00  0.00     0.147 C 
BRANCH  33  34
HETATM   34  N6  UNL     1     -18.347  14.688 -22.499  1.00  0.00    -0.193 NA
BRANCH  34  35
HETATM   35  O5  UNL     1     -18.395  15.167 -21.248  1.00  0.00    -0.313 OA
ATOM     36  H5  UNL     1     -19.283  15.326 -20.952  1.00  0.00     0.237 HD
ENDBRANCH  34  35
BRANCH  34  37
HETATM   37  C21 UNL     1     -18.683  15.655 -23.497  1.00  0.00     0.086 C 
HETATM   38  C22 UNL     1     -18.100  15.297 -24.846  1.00  0.00     0.022 C 
HETATM   39  C23 UNL     1     -18.303  16.450 -25.814  1.00  0.00     0.002 C 
HETATM   40  C24 UNL     1     -19.778  16.792 -25.948  1.00  0.00     0.000 C 
HETATM   41  C25 UNL     1     -20.451  16.921 -24.618  1.00  0.00     0.002 C 
HETATM   42  C26 UNL     1     -20.186  15.759 -23.705  1.00  0.00     0.022 C 
ENDBRANCH  34  37
ENDBRANCH  33  34
ENDBRANCH  32  33
ENDBRANCH  31  32
ENDBRANCH  12  31
BRANCH   1  43
HETATM   43  O1  UNL     1     -16.362  14.143 -19.363  1.00  0.00    -0.353 OA
HETATM   44  C1  UNL     1     -15.244  14.912 -19.766  1.00  0.00     0.210 C 
ENDBRANCH   1  43
TORSDOF 15
ENDMDL
MODEL 2
REMARK VINA RESULT: -8.919411844      1.756      2.112
REMARK  15 active torsions:
REMARK  status: ('A' for Active; 'I' for Inactive)
REMARK    1  A    between atoms: O1_2  and  C2_3 
REMARK    2  A    between atoms: C5_6  and  N1_7 
REMARK    3  A    between atoms: C6_12  and  N3_13 
REMARK    4  A    between atoms: N3_13  and  C7_15 
REMARK    5  A    between atoms: C7_15  and  C8_16 
REMARK    6  A    between atoms: C8_16  and  C9_17 
REMARK    7  A    between atoms: C9_17  and  C10_18 
REMARK    8  A    between atoms: C10_18  and  S1_19 
REMARK    9  A    between atoms: S1_19  and  N4_22 
REMARK   10  A    between atoms: C18_32  and  O4_33 
REMARK   11  A    between atoms: O4_33  and  C19_34 
REMARK   12  A    between atoms: C19_34  and  C20_35 
REMARK   13  A    between atoms: C20_35  and  N6_36 
REMARK   14  A    between atoms: N6_36  and  O5_37 
REMARK   15  A    between atoms: N6_36  and  C21_39 
ROOT
HETATM    1  C2  UNL     1     -15.021  12.539 -20.363  1.00  0.00     0.102 A 
HETATM    2  C3  UNL     1     -14.693  12.013 -19.131  1.00  0.00     0.057 A 
HETATM    3  C4  UNL     1     -15.208  10.801 -18.682  1.00  0.00     0.038 A 
HETATM    4  C5  UNL     1     -14.885  10.265 -17.454  1.00  0.00     0.127 A 
HETATM    5  N2  UNL     1     -15.411   9.070 -17.051  1.00  0.00    -0.176 N 
ATOM      6  H2  UNL     1     -15.151   8.701 -16.137  1.00  0.00     0.186 HD
HETATM    7  C6  UNL     1     -16.251   8.370 -17.813  1.00  0.00     0.683 A 
HETATM    8  N5  UNL     1     -16.568   8.908 -19.030  1.00  0.00    -0.191 N 
ATOM      9  H5  UNL     1     -17.209   8.394 -19.636  1.00  0.00     0.184 HD
HETATM   10  C16 UNL     1     -16.077  10.075 -19.466  1.00  0.00     0.066 A 
HETATM   11  C17 UNL     1     -16.406  10.603 -20.703  1.00  0.00     0.070 A 
HETATM   12  C18 UNL     1     -15.896  11.804 -21.149  1.00  0.00     0.104 A 
ENDROOT
BRANCH   7  13
HETATM   13  N3  UNL     1     -16.777   7.261 -17.518  1.00  0.00    -0.205 N 
ATOM     14  H3  UNL     1     -16.947   6.657 -18.322  1.00  0.00     0.183 HD
BRANCH  13  15
HETATM   15  C7  UNL     1     -17.172   6.701 -16.289  1.00  0.00     0.079 C 
BRANCH  15  16
HETATM   16  C8  UNL     1     -18.173   7.496 -15.488  1.00  0.00     0.046 C 
BRANCH  16  17
HETATM   17  C9  UNL     1     -19.554   7.114 -15.882  1.00  0.00     0.022 C 
BRANCH  17  18
HETATM   18  C10 UNL     1     -20.348   8.121 -16.625  1.00  0.00     0.163 C 
BRANCH  18  19
HETATM   19  S1  UNL     1     -20.477   7.867 -18.358  1.00  0.00     0.228 S 
HETATM   20  O2  UNL     1     -19.217   7.488 -19.033  1.00  0.00    -0.206 OA
HETATM   21  O3  UNL     1     -21.452   6.715 -18.592  1.00  0.00    -0.206 OA
BRANCH  19  22
HETATM   22  N4  UNL     1     -21.165   9.265 -19.063  1.00  0.00    -0.311 N 
HETATM   23  C11 UNL     1     -21.482   9.148 -20.444  1.00  0.00     0.135 C 
HETATM   24  C12 UNL     1     -20.377   9.696 -21.350  1.00  0.00     0.021 C 
HETATM   25  C13 UNL     1     -20.326  11.194 -21.021  1.00  0.00     0.003 C 
HETATM   26  C14 UNL     1     -19.843  11.291 -19.596  1.00  0.00     0.021 C 
HETATM   27  C15 UNL     1     -20.644  10.504 -18.616  1.00  0.00     0.135 C 
ENDBRANCH  19  22
ENDBRANCH  18  19
ENDBRANCH  17  18
ENDBRANCH  16  17
ENDBRANCH  15  16
ENDBRANCH  13  15
ENDBRANCH   7  13
BRANCH   4  28
HETATM   28  N1  UNL     1     -14.089  10.864 -16.657  1.00  0.00    -0.384 N 
ATOM     29  H12 UNL     1     -13.620  11.704 -16.995  1.00  0.00     0.157 HD
ATOM     30  H11 UNL     1     -13.923  10.517 -15.712  1.00  0.00     0.157 HD
ENDBRANCH   4  28
BRANCH  12  31
HETATM   31  O4  UNL     1     -16.237  12.330 -22.409  1.00  0.00    -0.347 OA
BRANCH  31  32
HETATM   32  C19 UNL     1     -17.569  12.761 -22.570  1.00  0.00     0.192 C 
BRANCH  32  33
HETATM   33  C20 UNL     1     -17.819  14.104 -21.903  1.00  0.00     0.147 C 
BRANCH  33  34
HETATM   34  N6  UNL     1     -17.308  15.123 -22.775  1.00  0.00    -0.193 NA
BRANCH  34  35
HETATM   35  O5  UNL     1     -16.017  14.938 -23.084  1.00  0.00    -0.313 OA
ATOM     36  H5  UNL     1     -15.468  15.662 -22.809  1.00  0.00     0.237 HD
ENDBRANCH  34  35
BRANCH  34  37
HETATM   37  C21 UNL     1     -18.133  15.419 -23.905  1.00  0.00     0.086 C 
HETATM   38  C22 UNL     1     -19.578  15.625 -23.508  1.00  0.00     0.022 C 
HETATM   39  C23 UNL     1     -20.441  15.725 -24.753  1.00  0.00     0.002 C 
HETATM   40  C24 UNL     1     -19.971  16.859 -25.650  1.00  0.00     0.000 C 
HETATM   41  C25 UNL     1     -18.492  16.825 -25.874  1.00  0.00     0.002 C 
HETATM   42  C26 UNL     1     -17.702  16.699 -24.603  1.00  0.00     0.022 C 
ENDBRANCH  34  37
ENDBRANCH  33  34
ENDBRANCH  32  33
ENDBRANCH  31  32
ENDBRANCH  12  31
BRANCH   1  43
HETATM   43  O1  UNL     1     -14.516  13.753 -20.830  1.00  0.00    -0.353 OA
HETATM   44  C1  UNL     1     -13.177  13.884 -21.271  1.00  0.00     0.210 C 
ENDBRANCH   1  43
TORSDOF 15
ENDMDL
MODEL 3
REMARK VINA RESULT: -8.800327932      2.870      5.120
REMARK  15 active torsions:
REMARK  status: ('A' for Active; 'I' for Inactive)
REMARK    1  A    between atoms: O1_2  and  C2_3 
REMARK    2  A    between atoms: C5_6  and  N1_7 
REMARK    3  A    between atoms: C6_12  and  N3_13 
REMARK    4  A    between atoms: N3_13  and  C7_15 
REMARK    5  A    between atoms: C7_15  and  C8_16 
REMARK    6  A    between atoms: C8_16  and  C9_17 
REMARK    7  A    between atoms: C9_17  and  C10_18 
REMARK    8  A    between atoms: C10_18  and  S1_19 
REMARK    9  A    between atoms: S1_19  and  N4_22 
REMARK   10  A    between atoms: C18_32  and  O4_33 
REMARK   11  A    between atoms: O4_33  and  C19_34 
REMARK   12  A    between atoms: C19_34  and  C20_35 
REMARK   13  A    between atoms: C20_35  and  N6_36 
REMARK   14  A    between atoms: N6_36  and  O5_37 
REMARK   15  A    between atoms: N6_36  and  C21_39 
ROOT
HETATM    1  C2  UNL     1     -18.371  13.336 -21.047  1.00  0.00     0.102 A 
HETATM    2  C3  UNL     1     -19.281  12.338 -21.328  1.00  0.00     0.057 A 
HETATM    3  C4  UNL     1     -19.663  11.395 -20.379  1.00  0.00     0.038 A 
HETATM    4  C5  UNL     1     -20.573  10.396 -20.647  1.00  0.00     0.127 A 
HETATM    5  N2  UNL     1     -20.923   9.490 -19.685  1.00  0.00    -0.176 N 
ATOM      6  H2  UNL     1     -21.599   8.763 -19.916  1.00  0.00     0.186 HD
HETATM    7  C6  UNL     1     -20.409   9.525 -18.456  1.00  0.00     0.683 A 
HETATM    8  N5  UNL     1     -19.506  10.519 -18.196  1.00  0.00    -0.191 N 
ATOM      9  H5  UNL     1     -19.096  10.571 -17.263  1.00  0.00     0.184 HD
HETATM   10  C16 UNL     1     -19.134  11.427 -19.107  1.00  0.00     0.066 A 
HETATM   11  C17 UNL     1     -18.221  12.429 -18.826  1.00  0.00     0.070 A 
HETATM   12  C18 UNL     1     -17.843  13.365 -19.766  1.00  0.00     0.104 A 
ENDROOT
BRANCH   7  13
HETATM   13  N3  UNL     1     -20.680   8.731 -17.513  1.00  0.00    -0.205 N 
ATOM     14  H3  UNL     1     -21.244   9.147 -16.772  1.00  0.00     0.183 HD
BRANCH  13  15
HETATM   15  C7  UNL     1     -20.352   7.381 -17.292  1.00  0.00     0.079 C 
BRANCH  15  16
HETATM   16  C8  UNL     1     -18.880   7.052 -17.259  1.00  0.00     0.046 C 
BRANCH  16  17
HETATM   17  C9  UNL     1     -18.341   7.279 -15.892  1.00  0.00     0.022 C 
BRANCH  17  18
HETATM   18  C10 UNL     1     -17.437   8.439 -15.706  1.00  0.00     0.163 C 
BRANCH  18  19
HETATM   19  S1  UNL     1     -15.755   8.054 -15.383  1.00  0.00     0.228 S 
HETATM   20  O2  UNL     1     -15.216   8.603 -14.118  1.00  0.00    -0.206 OA
HETATM   21  O3  UNL     1     -15.633   6.536 -15.277  1.00  0.00    -0.206 OA
BRANCH  19  22
HETATM   22  N4  UNL     1     -14.816   8.546 -16.724  1.00  0.00    -0.311 N 
HETATM   23  C11 UNL     1     -14.355   9.890 -16.675  1.00  0.00     0.135 C 
HETATM   24  C12 UNL     1     -15.265  10.854 -17.440  1.00  0.00     0.021 C 
HETATM   25  C13 UNL     1     -15.164  10.392 -18.900  1.00  0.00     0.003 C 
HETATM   26  C14 UNL     1     -15.796   9.025 -18.948  1.00  0.00     0.021 C 
HETATM   27  C15 UNL     1     -15.225   8.044 -17.985  1.00  0.00     0.135 C 
ENDBRANCH  19  22
ENDBRANCH  18  19
ENDBRANCH  17  18
ENDBRANCH  16  17
ENDBRANCH  15  16
ENDBRANCH  13  15
ENDBRANCH   7  13
BRANCH   4  28
HETATM   28  N1  UNL     1     -21.116  10.284 -21.796  1.00  0.00    -0.384 N 
ATOM     29  H12 UNL     1     -21.202  11.125 -22.366  1.00  0.00     0.157 HD
ATOM     30  H11 UNL     1     -21.456   9.385 -22.137  1.00  0.00     0.157 HD
ENDBRANCH   4  28
BRANCH  12  31
HETATM   31  O4  UNL     1     -16.914  14.379 -19.467  1.00  0.00    -0.347 OA
BRANCH  31  32
HETATM   32  C19 UNL     1     -15.554  14.011 -19.486  1.00  0.00     0.192 C 
BRANCH  32  33
HETATM   33  C20 UNL     1     -14.694  15.038 -20.205  1.00  0.00     0.147 C 
BRANCH  33  34
HETATM   34  N6  UNL     1     -14.333  14.485 -21.479  1.00  0.00    -0.193 NA
BRANCH  34  35
HETATM   35  O5  UNL     1     -15.087  13.429 -21.816  1.00  0.00    -0.313 OA
ATOM     36  H5  UNL     1     -15.651  13.606 -22.559  1.00  0.00     0.237 HD
ENDBRANCH  34  35
BRANCH  34  37
HETATM   37  C21 UNL     1     -14.180  15.442 -22.531  1.00  0.00     0.086 C 
HETATM   38  C22 UNL     1     -14.907  16.733 -22.225  1.00  0.00     0.022 C 
HETATM   39  C23 UNL     1     -14.894  17.629 -23.451  1.00  0.00     0.002 C 
HETATM   40  C24 UNL     1     -13.470  17.916 -23.898  1.00  0.00     0.000 C 
HETATM   41  C25 UNL     1     -12.644  16.671 -23.983  1.00  0.00     0.002 C 
HETATM   42  C26 UNL     1     -12.724  15.821 -22.748  1.00  0.00     0.022 C 
ENDBRANCH  34  37
ENDBRANCH  33  34
ENDBRANCH  32  33
ENDBRANCH  31  32
ENDBRANCH  12  31
BRANCH   1  43
HETATM   43  O1  UNL     1     -17.976  14.290 -21.987  1.00  0.00    -0.353 OA
HETATM   44  C1  UNL     1     -18.917  14.990 -22.779  1.00  0.00     0.210 C 
ENDBRANCH   1  43
TORSDOF 15
ENDMDL
MODEL 4
REMARK VINA RESULT: -8.784697648      2.954      9.069
REMARK  15 active torsions:
REMARK  status: ('A' for Active; 'I' for Inactive)
REMARK    1  A    between atoms: O1_2  and  C2_3 
REMARK    2  A    between atoms: C5_6  and  N1_7 
REMARK    3  A    between atoms: C6_12  and  N3_13 
REMARK    4  A    between atoms: N3_13  and  C7_15 
REMARK    5  A    between atoms: C7_15  and  C8_16 
REMARK    6  A    between atoms: C8_16  and  C9_17 
REMARK    7  A    between atoms: C9_17  and  C10_18 
REMARK    8  A    between atoms: C10_18  and  S1_19 
REMARK    9  A    between atoms: S1_19  and  N4_22 
REMARK   10  A    between atoms: C18_32  and  O4_33 
REMARK   11  A    between atoms: O4_33  and  C19_34 
REMARK   12  A    between atoms: C19_34  and  C20_35 
REMARK   13  A    between atoms: C20_35  and  N6_36 
REMARK   14  A    between atoms: N6_36  and  O5_37 
REMARK   15  A    between atoms: N6_36  and  C21_39 
ROOT
HETATM    1  C2  UNL     1     -20.524   7.706 -17.587  1.00  0.00     0.102 A 
HETATM    2  C3  UNL     1     -21.106   8.274 -18.701  1.00  0.00     0.057 A 
HETATM    3  C4  UNL     1     -20.393   9.092 -19.573  1.00  0.00     0.038 A 
HETATM    4  C5  UNL     1     -20.963   9.663 -20.690  1.00  0.00     0.127 A 
HETATM    5  N2  UNL     1     -20.227  10.459 -21.522  1.00  0.00    -0.176 N 
ATOM      6  H2  UNL     1     -20.679  10.866 -22.341  1.00  0.00     0.186 HD
HETATM    7  C6  UNL     1     -18.939  10.721 -21.300  1.00  0.00     0.683 A 
HETATM    8  N5  UNL     1     -18.381  10.152 -20.189  1.00  0.00    -0.191 N 
ATOM      9  H5  UNL     1     -17.396  10.335 -19.993  1.00  0.00     0.184 HD
HETATM   10  C16 UNL     1     -19.063   9.366 -19.347  1.00  0.00     0.066 A 
HETATM   11  C17 UNL     1     -18.480   8.796 -18.228  1.00  0.00     0.070 A 
HETATM   12  C18 UNL     1     -19.185   7.984 -17.364  1.00  0.00     0.104 A 
ENDROOT
BRANCH   7  13
HETATM   13  N3  UNL     1     -18.192  11.441 -22.018  1.00  0.00    -0.205 N 
ATOM     14  H3  UNL     1     -17.419  10.932 -22.449  1.00  0.00     0.183 HD
BRANCH  13  15
HETATM   15  C7  UNL     1     -18.222  12.811 -22.337  1.00  0.00     0.079 C 
BRANCH  15  16
HETATM   16  C8  UNL     1     -19.145  13.666 -21.505  1.00  0.00     0.046 C 
BRANCH  16  17
HETATM   17  C9  UNL     1     -18.354  14.468 -20.536  1.00  0.00     0.022 C 
BRANCH  17  18
HETATM   18  C10 UNL     1     -17.755  13.745 -19.388  1.00  0.00     0.163 C 
BRANCH  18  19
HETATM   19  S1  UNL     1     -16.044  13.378 -19.524  1.00  0.00     0.228 S 
HETATM   20  O2  UNL     1     -15.299  13.375 -18.246  1.00  0.00    -0.206 OA
HETATM   21  O3  UNL     1     -15.911  11.970 -20.100  1.00  0.00    -0.206 OA
BRANCH  19  22
HETATM   22  N4  UNL     1     -15.343  14.456 -20.650  1.00  0.00    -0.311 N 
HETATM   23  C11 UNL     1     -14.502  13.848 -21.621  1.00  0.00     0.135 C 
HETATM   24  C12 UNL     1     -13.023  13.893 -21.231  1.00  0.00     0.021 C 
HETATM   25  C13 UNL     1     -12.683  15.389 -21.208  1.00  0.00     0.003 C 
HETATM   26  C14 UNL     1     -13.477  15.979 -20.072  1.00  0.00     0.021 C 
HETATM   27  C15 UNL     1     -14.941  15.714 -20.136  1.00  0.00     0.135 C 
ENDBRANCH  19  22
ENDBRANCH  18  19
ENDBRANCH  17  18
ENDBRANCH  16  17
ENDBRANCH  15  16
ENDBRANCH  13  15
ENDBRANCH   7  13
BRANCH   4  28
HETATM   28  N1  UNL     1     -22.189   9.468 -20.983  1.00  0.00    -0.384 N 
ATOM     29  H12 UNL     1     -22.730   8.849 -20.380  1.00  0.00     0.157 HD
ATOM     30  H11 UNL     1     -22.619   9.914 -21.793  1.00  0.00     0.157 HD
ENDBRANCH   4  28
BRANCH  12  31
HETATM   31  O4  UNL     1     -18.580   7.409 -16.230  1.00  0.00    -0.347 OA
BRANCH  31  32
HETATM   32  C19 UNL     1     -18.013   6.131 -16.401  1.00  0.00     0.192 C 
BRANCH  32  33
HETATM   33  C20 UNL     1     -16.795   5.924 -15.514  1.00  0.00     0.147 C 
BRANCH  33  34
HETATM   34  N6  UNL     1     -15.636   6.280 -16.279  1.00  0.00    -0.193 NA
BRANCH  34  35
HETATM   35  O5  UNL     1     -15.591   5.660 -17.467  1.00  0.00    -0.313 OA
ATOM     36  H5  UNL     1     -15.997   6.168 -18.159  1.00  0.00     0.237 HD
ENDBRANCH  34  35
BRANCH  34  37
HETATM   37  C21 UNL     1     -15.368   7.683 -16.353  1.00  0.00     0.086 C 
HETATM   38  C22 UNL     1     -14.252   8.092 -15.417  1.00  0.00     0.022 C 
HETATM   39  C23 UNL     1     -14.150   9.606 -15.374  1.00  0.00     0.002 C 
HETATM   40  C24 UNL     1     -13.911  10.173 -16.764  1.00  0.00     0.000 C 
HETATM   41  C25 UNL     1     -14.856   9.604 -17.776  1.00  0.00     0.002 C 
HETATM   42  C26 UNL     1     -14.925   8.105 -17.745  1.00  0.00     0.022 C 
ENDBRANCH  34  37
ENDBRANCH  33  34
ENDBRANCH  32  33
ENDBRANCH  31  32
ENDBRANCH  12  31
BRANCH   1  43
HETATM   43  O1  UNL     1     -21.223   6.884 -16.701  1.00  0.00    -0.353 OA
HETATM   44  C1  UNL     1     -22.356   7.347 -15.990  1.00  0.00     0.210 C 
ENDBRANCH   1  43
TORSDOF 15
ENDMDL
MODEL 5
REMARK VINA RESULT: -8.783905815      2.575      5.288
REMARK  15 active torsions:
REMARK  status: ('A' for Active; 'I' for Inactive)
REMARK    1  A    between atoms: O1_2  and  C2_3 
REMARK    2  A    between atoms: C5_6  and  N1_7 
REMARK    3  A    between atoms: C6_12  and  N3_13 
REMARK    4  A    between atoms: N3_13  and  C7_15 
REMARK    5  A    between atoms: C7_15  and  C8_16 
REMARK    6  A    between atoms: C8_16  and  C9_17 
REMARK    7  A    between atoms: C9_17  and  C10_18 
REMARK    8  A    between atoms: C10_18  and  S1_19 
REMARK    9  A    between atoms: S1_19  and  N4_22 
REMARK   10  A    between atoms: C18_32  and  O4_33 
REMARK   11  A    between atoms: O4_33  and  C19_34 
REMARK   12  A    between atoms: C19_34  and  C20_35 
REMARK   13  A    between atoms: C20_35  and  N6_36 
REMARK   14  A    between atoms: N6_36  and  O5_37 
REMARK   15  A    between atoms: N6_36  and  C21_39 
ROOT
HETATM    1  C2  UNL     1     -18.776  12.243 -20.835  1.00  0.00     0.102 A 
HETATM    2  C3  UNL     1     -19.819  11.358 -21.012  1.00  0.00     0.057 A 
HETATM    3  C4  UNL     1     -20.225  10.482 -20.009  1.00  0.00     0.038 A 
HETATM    4  C5  UNL     1     -21.267   9.595 -20.173  1.00  0.00     0.127 A 
HETATM    5  N2  UNL     1     -21.635   8.753 -19.162  1.00  0.00    -0.176 N 
ATOM      6  H2  UNL     1     -22.411   8.109 -19.316  1.00  0.00     0.186 HD
HETATM    7  C6  UNL     1     -21.015   8.744 -17.982  1.00  0.00     0.683 A 
HETATM    8  N5  UNL     1     -19.982   9.626 -17.827  1.00  0.00    -0.191 N 
ATOM      9  H5  UNL     1     -19.488   9.643 -16.934  1.00  0.00     0.184 HD
HETATM   10  C16 UNL     1     -19.586  10.469 -18.789  1.00  0.00     0.066 A 
HETATM   11  C17 UNL     1     -18.539  11.358 -18.613  1.00  0.00     0.070 A 
HETATM   12  C18 UNL     1     -18.137  12.227 -19.606  1.00  0.00     0.104 A 
ENDROOT
BRANCH   7  13
HETATM   13  N3  UNL     1     -21.295   8.004 -17.000  1.00  0.00    -0.205 N 
ATOM     14  H3  UNL     1     -22.085   7.380 -17.164  1.00  0.00     0.183 HD
BRANCH  13  15
HETATM   15  C7  UNL     1     -20.721   7.875 -15.721  1.00  0.00     0.079 C 
BRANCH  15  16
HETATM   16  C8  UNL     1     -19.709   6.768 -15.556  1.00  0.00     0.046 C 
BRANCH  16  17
HETATM   17  C9  UNL     1     -18.334   7.323 -15.648  1.00  0.00     0.022 C 
BRANCH  17  18
HETATM   18  C10 UNL     1     -17.482   6.837 -16.760  1.00  0.00     0.163 C 
BRANCH  18  19
HETATM   19  S1  UNL     1     -16.011   6.003 -16.290  1.00  0.00     0.228 S 
HETATM   20  O2  UNL     1     -15.977   5.528 -14.889  1.00  0.00    -0.206 OA
HETATM   21  O3  UNL     1     -15.875   4.760 -17.167  1.00  0.00    -0.206 OA
BRANCH  19  22
HETATM   22  N4  UNL     1     -14.677   7.016 -16.635  1.00  0.00    -0.311 N 
HETATM   23  C11 UNL     1     -14.069   7.618 -15.499  1.00  0.00     0.135 C 
HETATM   24  C12 UNL     1     -14.589   9.032 -15.232  1.00  0.00     0.021 C 
HETATM   25  C13 UNL     1     -14.149   9.836 -16.462  1.00  0.00     0.003 C 
HETATM   26  C14 UNL     1     -14.923   9.273 -17.626  1.00  0.00     0.021 C 
HETATM   27  C15 UNL     1     -14.783   7.801 -17.810  1.00  0.00     0.135 C 
ENDBRANCH  19  22
ENDBRANCH  18  19
ENDBRANCH  17  18
ENDBRANCH  16  17
ENDBRANCH  15  16
ENDBRANCH  13  15
ENDBRANCH   7  13
BRANCH   4  28
HETATM   28  N1  UNL     1     -21.919   9.532 -21.268  1.00  0.00    -0.384 N 
ATOM     29  H12 UNL     1     -22.704  10.171 -21.392  1.00  0.00     0.157 HD
ATOM     30  H11 UNL     1     -21.667   8.866 -21.998  1.00  0.00     0.157 HD
ENDBRANCH   4  28
BRANCH  12  31
HETATM   31  O4  UNL     1     -17.072  13.126 -19.414  1.00  0.00    -0.347 OA
BRANCH  31  32
HETATM   32  C19 UNL     1     -15.772  12.590 -19.503  1.00  0.00     0.192 C 
BRANCH  32  33
HETATM   33  C20 UNL     1     -14.772  13.601 -20.041  1.00  0.00     0.147 C 
BRANCH  33  34
HETATM   34  N6  UNL     1     -14.638  13.372 -21.450  1.00  0.00    -0.193 NA
BRANCH  34  35
HETATM   35  O5  UNL     1     -15.540  12.499 -21.919  1.00  0.00    -0.313 OA
ATOM     36  H5  UNL     1     -15.354  12.224 -22.809  1.00  0.00     0.237 HD
ENDBRANCH  34  35
BRANCH  34  37
HETATM   37  C21 UNL     1     -14.515  14.555 -22.245  1.00  0.00     0.086 C 
HETATM   38  C22 UNL     1     -15.448  15.648 -21.773  1.00  0.00     0.022 C 
HETATM   39  C23 UNL     1     -15.436  16.796 -22.767  1.00  0.00     0.002 C 
HETATM   40  C24 UNL     1     -14.029  17.341 -22.948  1.00  0.00     0.000 C 
HETATM   41  C25 UNL     1     -13.028  16.254 -23.183  1.00  0.00     0.002 C 
HETATM   42  C26 UNL     1     -13.114  15.142 -22.178  1.00  0.00     0.022 C 
ENDBRANCH  34  37
ENDBRANCH  33  34
ENDBRANCH  32  33
ENDBRANCH  31  32
ENDBRANCH  12  31
BRANCH   1  43
HETATM   43  O1  UNL     1     -18.355  13.127 -21.830  1.00  0.00    -0.353 OA
HETATM   44  C1  UNL     1     -18.977  14.383 -22.023  1.00  0.00     0.210 C 
ENDBRANCH   1  43
TORSDOF 15
ENDMDL
