MODEL 1
REMARK VINA RESULT: -8.834756782      0.000      0.000
REMARK  12 active torsions:
REMARK  status: ('A' for Active; 'I' for Inactive)
REMARK    1  A    between atoms: C7_7  and  O1_8 
REMARK    2  A    between atoms: O1_8  and  C8_9 
REMARK    3  A    between atoms: C8_9  and  C9_10 
REMARK    4  A    between atoms: C9_10  and  C11_13 
REMARK    5  A    between atoms: C9_10  and  N2_16 
REMARK    6  A    between atoms: C11_13  and  O2_14 
REMARK       I    between atoms: N2_16  and  C12_18 
REMARK       I    between atoms: C12_18  and  N3_20 
REMARK    7  A    between atoms: N3_20  and  C13_21 
REMARK    8  A    between atoms: N3_20  and  C18_27 
REMARK    9  A    between atoms: C13_21  and  C14_22 
REMARK   10  A    between atoms: C14_22  and  C15_23 
REMARK   11  A    between atoms: C15_23  and  N4_24 
REMARK   12  A    between atoms: N5_30  and  C21_31 
ROOT
HETATM    1  C1  UNL     1     -17.467  11.886 -22.696  1.00  0.00     0.012 C 
HETATM    2  C2  UNL     1     -17.617  13.065 -22.583  1.00  0.00    -0.110 C 
HETATM    3  C3  UNL     1     -17.825  14.485 -22.460  1.00  0.00     0.093 C 
HETATM    4  C4  UNL     1     -19.086  14.888 -23.247  1.00  0.00     0.020 C 
HETATM    5  C5  UNL     1     -18.861  16.347 -23.626  1.00  0.00     0.004 C 
HETATM    6  C6  UNL     1     -17.556  16.728 -22.972  1.00  0.00     0.033 C 
HETATM    7  C7  UNL     1     -16.778  15.351 -23.143  1.00  0.00     0.137 C 
ENDROOT
BRANCH   7   8
HETATM    8  O1  UNL     1     -15.642  15.407 -22.555  1.00  0.00    -0.381 OA
BRANCH   8   9
HETATM    9  C8  UNL     1     -14.599  14.863 -22.138  1.00  0.00     0.217 C 
BRANCH   9  10
HETATM   10  C9  UNL     1     -14.064  14.867 -20.700  1.00  0.00     0.166 C 
HETATM   11  C10 UNL     1     -12.636  14.723 -20.721  1.00  0.00     0.095 C 
HETATM   12  N1  UNL     1     -11.491  14.586 -20.725  1.00  0.00    -0.194 NA
BRANCH  10  13
HETATM   13  C11 UNL     1     -14.505  16.088 -19.967  1.00  0.00     0.213 C 
BRANCH  13  14
HETATM   14  O2  UNL     1     -14.777  17.183 -20.726  1.00  0.00    -0.397 OA
ATOM     15  H2  UNL     1     -15.336  17.842 -20.332  1.00  0.00     0.209 HD
ENDBRANCH  13  14
ENDBRANCH  10  13
BRANCH  10  16
HETATM   16  N2  UNL     1     -14.675  13.670 -20.058  1.00  0.00    -0.317 N 
HETATM   17  C12 UNL     1     -15.940  13.690 -19.488  1.00  0.00     0.320 C 
HETATM   18  O3  UNL     1     -16.585  14.795 -19.519  1.00  0.00    -0.247 OA
HETATM   19  N3  UNL     1     -16.597  12.600 -18.871  1.00  0.00    -0.328 N 
ATOM     20  H2  UNL     1     -14.143  12.800 -20.037  1.00  0.00     0.166 HD
BRANCH  19  21
HETATM   21  C13 UNL     1     -17.961  12.866 -18.356  1.00  0.00     0.130 C 
BRANCH  21  22
HETATM   22  C14 UNL     1     -18.990  12.443 -19.395  1.00  0.00     0.050 C 
BRANCH  22  23
HETATM   23  C15 UNL     1     -19.834  11.366 -18.749  1.00  0.00     0.273 C 
BRANCH  23  24
HETATM   24  N4  UNL     1     -20.096  10.257 -19.654  1.00  0.00     0.080 N 
HETATM   25  C16 UNL     1     -20.416  10.842 -20.943  1.00  0.00     0.309 C 
HETATM   26  C17 UNL     1     -21.280   9.566 -19.182  1.00  0.00     0.309 C 
ENDBRANCH  23  24
ENDBRANCH  22  23
ENDBRANCH  21  22
ENDBRANCH  19  21
BRANCH  19  27
HETATM   27  C18 UNL     1     -16.102  11.285 -18.670  1.00  0.00     0.108 C 
HETATM   28  C19 UNL     1     -16.523  10.265 -19.705  1.00  0.00     0.047 C 
HETATM   29  C20 UNL     1     -16.112   8.974 -18.950  1.00  0.00     0.126 C 
HETATM   30  N5  UNL     1     -16.751   9.230 -17.693  1.00  0.00    -0.364 N 
HETATM   31  C29 UNL     1     -16.409  10.630 -17.374  1.00  0.00     0.150 C 
BRANCH  30  32
HETATM   32  C21 UNL     1     -17.541   8.342 -16.951  1.00  0.00     0.118 A 
HETATM   33  N6  UNL     1     -18.850   8.679 -16.778  1.00  0.00    -0.338 N 
HETATM   34  C22 UNL     1     -19.730   7.917 -16.123  1.00  0.00     0.183 A 
ATOM     35  H6  UNL     1     -19.176   9.563 -17.169  1.00  0.00     0.168 HD
HETATM   36  N7  UNL     1     -19.364   6.750 -15.587  1.00  0.00    -0.338 N 
HETATM   37  C23 UNL     1     -18.091   6.370 -15.726  1.00  0.00     0.121 A 
ATOM     38  H7  UNL     1     -20.035   6.167 -15.087  1.00  0.00     0.168 HD
HETATM   39  N8  UNL     1     -17.450   5.264 -15.288  1.00  0.00    -0.345 N 
HETATM   40  C28 UNL     1     -17.153   7.146 -16.404  1.00  0.00     0.060 A 
HETATM   41  C24 UNL     1     -16.165   5.313 -15.657  1.00  0.00     0.014 A 
ATOM     42  H8  UNL     1     -17.881   4.507 -14.757  1.00  0.00     0.167 HD
HETATM   43  C25 UNL     1     -15.119   4.301 -15.378  1.00  0.00     0.068 C 
HETATM   44  C26 UNL     1     -15.958   6.488 -16.358  1.00  0.00    -0.022 A 
HETATM   45  C27 UNL     1     -14.689   6.950 -16.931  1.00  0.00     0.051 C 
ENDBRANCH  30  32
ENDBRANCH  19  27
ENDBRANCH  10  16
ENDBRANCH   9  10
ENDBRANCH   8   9
ENDBRANCH   7   8
TORSDOF 12
ENDMDL
MODEL 2
REMARK VINA RESULT: -8.714487077      1.750      2.905
REMARK  12 active torsions:
REMARK  status: ('A' for Active; 'I' for Inactive)
REMARK    1  A    between atoms: C7_7  and  O1_8 
REMARK    2  A    between atoms: O1_8  and  C8_9 
REMARK    3  A    between atoms: C8_9  and  C9_10 
REMARK    4  A    between atoms: C9_10  and  C11_13 
REMARK    5  A    between atoms: C9_10  and  N2_16 
REMARK    6  A    between atoms: C11_13  and  O2_14 
REMARK       I    between atoms: N2_16  and  C12_18 
REMARK       I    between atoms: C12_18  and  N3_20 
REMARK    7  A    between atoms: N3_20  and  C13_21 
REMARK    8  A    between atoms: N3_20  and  C18_27 
REMARK    9  A    between atoms: C13_21  and  C14_22 
REMARK   10  A    between atoms: C14_22  and  C15_23 
REMARK   11  A    between atoms: C15_23  and  N4_24 
REMARK   12  A    between atoms: N5_30  and  C21_31 
ROOT
HETATM    1  C1  UNL     1     -17.213  18.270 -26.791  1.00  0.00     0.012 C 
HETATM    2  C2  UNL     1     -17.809  17.443 -26.169  1.00  0.00    -0.110 C 
HETATM    3  C3  UNL     1     -18.554  16.456 -25.431  1.00  0.00     0.093 C 
HETATM    4  C4  UNL     1     -20.061  16.736 -25.580  1.00  0.00     0.020 C 
HETATM    5  C5  UNL     1     -20.694  16.148 -24.324  1.00  0.00     0.004 C 
HETATM    6  C6  UNL     1     -19.557  15.492 -23.579  1.00  0.00     0.033 C 
HETATM    7  C7  UNL     1     -18.402  16.531 -23.920  1.00  0.00     0.137 C 
ENDROOT
BRANCH   7   8
HETATM    8  O1  UNL     1     -17.282  16.115 -23.459  1.00  0.00    -0.381 OA
BRANCH   8   9
HETATM    9  C8  UNL     1     -16.508  15.189 -23.138  1.00  0.00     0.217 C 
BRANCH   9  10
HETATM   10  C9  UNL     1     -15.403  15.232 -22.074  1.00  0.00     0.166 C 
HETATM   11  C10 UNL     1     -14.122  15.296 -22.718  1.00  0.00     0.095 C 
HETATM   12  N1  UNL     1     -13.086  15.324 -23.225  1.00  0.00    -0.194 NA
BRANCH  10  13
HETATM   13  C11 UNL     1     -15.620  16.358 -21.122  1.00  0.00     0.213 C 
BRANCH  13  14
HETATM   14  O2  UNL     1     -15.582  17.611 -21.648  1.00  0.00    -0.397 OA
ATOM     15  H2  UNL     1     -16.207  18.236 -21.299  1.00  0.00     0.209 HD
ENDBRANCH  13  14
ENDBRANCH  10  13
BRANCH  10  16
HETATM   16  N2  UNL     1     -15.527  13.944 -21.338  1.00  0.00    -0.317 N 
HETATM   17  C12 UNL     1     -16.670  13.590 -20.637  1.00  0.00     0.320 C 
HETATM   18  O3  UNL     1     -17.641  14.424 -20.629  1.00  0.00    -0.247 OA
HETATM   19  N3  UNL     1     -16.875  12.387 -19.922  1.00  0.00    -0.328 N 
ATOM     20  H2  UNL     1     -14.740  13.295 -21.350  1.00  0.00     0.166 HD
BRANCH  19  21
HETATM   21  C13 UNL     1     -18.198  12.229 -19.272  1.00  0.00     0.130 C 
BRANCH  21  22
HETATM   22  C14 UNL     1     -19.275  12.078 -20.336  1.00  0.00     0.050 C 
BRANCH  22  23
HETATM   23  C15 UNL     1     -20.314  11.138 -19.764  1.00  0.00     0.273 C 
BRANCH  23  24
HETATM   24  N4  UNL     1     -20.242   9.812 -20.360  1.00  0.00     0.080 N 
HETATM   25  C16 UNL     1     -20.020  10.009 -21.780  1.00  0.00     0.309 C 
HETATM   26  C17 UNL     1     -21.539   9.182 -20.204  1.00  0.00     0.309 C 
ENDBRANCH  23  24
ENDBRANCH  22  23
ENDBRANCH  21  22
ENDBRANCH  19  21
BRANCH  19  27
HETATM   27  C18 UNL     1     -15.961  11.316 -19.739  1.00  0.00     0.108 C 
HETATM   28  C19 UNL     1     -16.482   9.944 -20.107  1.00  0.00     0.047 C 
HETATM   29  C20 UNL     1     -15.380   9.082 -19.438  1.00  0.00     0.126 C 
HETATM   30  N5  UNL     1     -15.382   9.676 -18.134  1.00  0.00    -0.364 N 
HETATM   31  C29 UNL     1     -15.388  11.131 -18.383  1.00  0.00     0.150 C 
BRANCH  30  32
HETATM   32  C21 UNL     1     -15.398   9.008 -16.903  1.00  0.00     0.118 A 
HETATM   33  N6  UNL     1     -14.233   8.995 -16.194  1.00  0.00    -0.338 N 
HETATM   34  C22 UNL     1     -14.105   8.427 -14.992  1.00  0.00     0.183 A 
ATOM     35  H6  UNL     1     -13.414   9.443 -16.605  1.00  0.00     0.168 HD
HETATM   36  N7  UNL     1     -15.140   7.823 -14.403  1.00  0.00    -0.338 N 
HETATM   37  C23 UNL     1     -16.306   7.806 -15.053  1.00  0.00     0.121 A 
ATOM     38  H7  UNL     1     -15.043   7.389 -13.486  1.00  0.00     0.168 HD
HETATM   39  N8  UNL     1     -17.497   7.269 -14.709  1.00  0.00    -0.345 N 
HETATM   40  C28 UNL     1     -16.467   8.391 -16.308  1.00  0.00     0.060 A 
HETATM   41  C24 UNL     1     -18.388   7.490 -15.683  1.00  0.00     0.014 A 
ATOM     42  H8  UNL     1     -17.689   6.772 -13.839  1.00  0.00     0.167 HD
HETATM   43  C25 UNL     1     -19.809   7.067 -15.703  1.00  0.00     0.068 C 
HETATM   44  C26 UNL     1     -17.760   8.191 -16.696  1.00  0.00    -0.022 A 
HETATM   45  C27 UNL     1     -18.365   8.626 -17.960  1.00  0.00     0.051 C 
ENDBRANCH  30  32
ENDBRANCH  19  27
ENDBRANCH  10  16
ENDBRANCH   9  10
ENDBRANCH   8   9
ENDBRANCH   7   8
TORSDOF 12
ENDMDL
MODEL 3
REMARK VINA RESULT: -8.617383384      0.597      1.595
REMARK  12 active torsions:
REMARK  status: ('A' for Active; 'I' for Inactive)
REMARK    1  A    between atoms: C7_7  and  O1_8 
REMARK    2  A    between atoms: O1_8  and  C8_9 
REMARK    3  A    between atoms: C8_9  and  C9_10 
REMARK    4  A    between atoms: C9_10  and  C11_13 
REMARK    5  A    between atoms: C9_10  and  N2_16 
REMARK    6  A    between atoms: C11_13  and  O2_14 
REMARK       I    between atoms: N2_16  and  C12_18 
REMARK       I    between atoms: C12_18  and  N3_20 
REMARK    7  A    between atoms: N3_20  and  C13_21 
REMARK    8  A    between atoms: N3_20  and  C18_27 
REMARK    9  A    between atoms: C13_21  and  C14_22 
REMARK   10  A    between atoms: C14_22  and  C15_23 
REMARK   11  A    between atoms: C15_23  and  N4_24 
REMARK   12  A    between atoms: N5_30  and  C21_31 
ROOT
HETATM    1  C1  UNL     1     -17.195  18.622 -24.245  1.00  0.00     0.012 C 
HETATM    2  C2  UNL     1     -17.342  17.446 -24.093  1.00  0.00    -0.110 C 
HETATM    3  C3  UNL     1     -17.550  16.033 -23.910  1.00  0.00     0.093 C 
HETATM    4  C4  UNL     1     -19.044  15.765 -23.649  1.00  0.00     0.020 C 
HETATM    5  C5  UNL     1     -19.073  14.474 -22.839  1.00  0.00     0.004 C 
HETATM    6  C6  UNL     1     -17.635  14.025 -22.758  1.00  0.00     0.033 C 
HETATM    7  C7  UNL     1     -16.934  15.449 -22.649  1.00  0.00     0.137 C 
ENDROOT
BRANCH   7   8
HETATM    8  O1  UNL     1     -15.660  15.319 -22.668  1.00  0.00    -0.381 OA
BRANCH   8   9
HETATM    9  C8  UNL     1     -14.608  14.803 -22.238  1.00  0.00     0.217 C 
BRANCH   9  10
HETATM   10  C9  UNL     1     -14.075  14.849 -20.800  1.00  0.00     0.166 C 
HETATM   11  C10 UNL     1     -12.645  14.713 -20.815  1.00  0.00     0.095 C 
HETATM   12  N1  UNL     1     -11.500  14.582 -20.815  1.00  0.00    -0.194 NA
BRANCH  10  13
HETATM   13  C11 UNL     1     -14.523  16.088 -20.101  1.00  0.00     0.213 C 
BRANCH  13  14
HETATM   14  O2  UNL     1     -14.789  17.163 -20.889  1.00  0.00    -0.397 OA
ATOM     15  H2  UNL     1     -14.163  17.877 -20.856  1.00  0.00     0.209 HD
ENDBRANCH  13  14
ENDBRANCH  10  13
BRANCH  10  16
HETATM   16  N2  UNL     1     -14.680  13.667 -20.126  1.00  0.00    -0.317 N 
HETATM   17  C12 UNL     1     -15.929  13.707 -19.525  1.00  0.00     0.320 C 
HETATM   18  O3  UNL     1     -16.565  14.817 -19.555  1.00  0.00    -0.247 OA
HETATM   19  N3  UNL     1     -16.580  12.632 -18.876  1.00  0.00    -0.328 N 
ATOM     20  H2  UNL     1     -14.155  12.793 -20.107  1.00  0.00     0.166 HD
BRANCH  19  21
HETATM   21  C13 UNL     1     -17.929  12.917 -18.331  1.00  0.00     0.130 C 
BRANCH  21  22
HETATM   22  C14 UNL     1     -18.968  12.758 -19.431  1.00  0.00     0.050 C 
BRANCH  22  23
HETATM   23  C15 UNL     1     -19.691  11.458 -19.153  1.00  0.00     0.273 C 
BRANCH  23  24
HETATM   24  N4  UNL     1     -20.459  11.001 -20.301  1.00  0.00     0.080 N 
HETATM   25  C16 UNL     1     -20.818   9.620 -20.034  1.00  0.00     0.309 C 
HETATM   26  C17 UNL     1     -19.582  11.008 -21.456  1.00  0.00     0.309 C 
ENDBRANCH  23  24
ENDBRANCH  22  23
ENDBRANCH  21  22
ENDBRANCH  19  21
BRANCH  19  27
HETATM   27  C18 UNL     1     -16.093  11.315 -18.670  1.00  0.00     0.108 C 
HETATM   28  C19 UNL     1     -16.426  10.319 -19.758  1.00  0.00     0.047 C 
HETATM   29  C20 UNL     1     -16.065   9.011 -19.006  1.00  0.00     0.126 C 
HETATM   30  N5  UNL     1     -16.799   9.233 -17.796  1.00  0.00    -0.364 N 
HETATM   31  C29 UNL     1     -16.493  10.626 -17.418  1.00  0.00     0.150 C 
BRANCH  30  32
HETATM   32  C21 UNL     1     -17.637   8.322 -17.139  1.00  0.00     0.118 A 
HETATM   33  N6  UNL     1     -18.971   8.606 -17.132  1.00  0.00    -0.338 N 
HETATM   34  C22 UNL     1     -19.892   7.816 -16.574  1.00  0.00     0.183 A 
ATOM     35  H6  UNL     1     -19.282   9.469 -17.577  1.00  0.00     0.168 HD
HETATM   36  N7  UNL     1     -19.547   6.673 -15.976  1.00  0.00    -0.338 N 
HETATM   37  C23 UNL     1     -18.253   6.346 -15.952  1.00  0.00     0.121 A 
ATOM     38  H7  UNL     1     -20.250   6.070 -15.550  1.00  0.00     0.168 HD
HETATM   39  N8  UNL     1     -17.626   5.275 -15.418  1.00  0.00    -0.345 N 
HETATM   40  C28 UNL     1     -17.271   7.152 -16.526  1.00  0.00     0.060 A 
HETATM   41  C24 UNL     1     -16.308   5.373 -15.630  1.00  0.00     0.014 A 
ATOM     42  H8  UNL     1     -18.087   4.508 -14.929  1.00  0.00     0.167 HD
HETATM   43  C25 UNL     1     -15.264   4.411 -15.207  1.00  0.00     0.068 C 
HETATM   44  C26 UNL     1     -16.065   6.546 -16.323  1.00  0.00    -0.022 A 
HETATM   45  C27 UNL     1     -14.756   7.053 -16.746  1.00  0.00     0.051 C 
ENDBRANCH  30  32
ENDBRANCH  19  27
ENDBRANCH  10  16
ENDBRANCH   9  10
ENDBRANCH   8   9
ENDBRANCH   7   8
TORSDOF 12
ENDMDL
MODEL 4
REMARK VINA RESULT: -8.535418247      3.151     10.013
REMARK  12 active torsions:
REMARK  status: ('A' for Active; 'I' for Inactive)
REMARK    1  A    between atoms: C7_7  and  O1_8 
REMARK    2  A    between atoms: O1_8  and  C8_9 
REMARK    3  A    between atoms: C8_9  and  C9_10 
REMARK    4  A    between atoms: C9_10  and  C11_13 
REMARK    5  A    between atoms: C9_10  and  N2_16 
REMARK    6  A    between atoms: C11_13  and  O2_14 
REMARK       I    between atoms: N2_16  and  C12_18 
REMARK       I    between atoms: C12_18  and  N3_20 
REMARK    7  A    between atoms: N3_20  and  C13_21 
REMARK    8  A    between atoms: N3_20  and  C18_27 
REMARK    9  A    between atoms: C13_21  and  C14_22 
REMARK   10  A    between atoms: C14_22  and  C15_23 
REMARK   11  A    between atoms: C15_23  and  N4_24 
REMARK   12  A    between atoms: N5_30  and  C21_31 
ROOT
HETATM    1  C1  UNL     1     -17.875   2.247 -18.754  1.00  0.00     0.012 C 
HETATM    2  C2  UNL     1     -17.215   2.873 -17.979  1.00  0.00    -0.110 C 
HETATM    3  C3  UNL     1     -16.403   3.603 -17.041  1.00  0.00     0.093 C 
HETATM    4  C4  UNL     1     -15.466   2.625 -16.307  1.00  0.00     0.020 C 
HETATM    5  C5  UNL     1     -15.177   3.291 -14.967  1.00  0.00     0.004 C 
HETATM    6  C6  UNL     1     -15.871   4.630 -15.033  1.00  0.00     0.033 C 
HETATM    7  C7  UNL     1     -17.158   4.204 -15.866  1.00  0.00     0.137 C 
ENDROOT
BRANCH   7   8
HETATM    8  O1  UNL     1     -17.870   5.233 -16.138  1.00  0.00    -0.381 OA
BRANCH   8   9
HETATM    9  C8  UNL     1     -17.977   6.445 -16.419  1.00  0.00     0.217 C 
BRANCH   9  10
HETATM   10  C9  UNL     1     -19.221   7.165 -16.954  1.00  0.00     0.166 C 
HETATM   11  C10 UNL     1     -19.949   6.282 -17.821  1.00  0.00     0.095 C 
HETATM   12  N1  UNL     1     -20.529   5.588 -18.537  1.00  0.00    -0.194 NA
BRANCH  10  13
HETATM   13  C11 UNL     1     -20.060   7.688 -15.837  1.00  0.00     0.213 C 
BRANCH  13  14
HETATM   14  O2  UNL     1     -20.367   6.808 -14.848  1.00  0.00    -0.397 OA
ATOM     15  H2  UNL     1     -19.859   6.876 -14.049  1.00  0.00     0.209 HD
ENDBRANCH  13  14
ENDBRANCH  10  13
BRANCH  10  16
HETATM   16  N2  UNL     1     -18.693   8.313 -17.742  1.00  0.00    -0.317 N 
HETATM   17  C12 UNL     1     -17.740   9.188 -17.243  1.00  0.00     0.320 C 
HETATM   18  O3  UNL     1     -17.318   8.986 -16.051  1.00  0.00    -0.247 OA
HETATM   19  N3  UNL     1     -17.178  10.292 -17.925  1.00  0.00    -0.328 N 
ATOM     20  H2  UNL     1     -19.047   8.461 -18.687  1.00  0.00     0.166 HD
BRANCH  19  21
HETATM   21  C13 UNL     1     -16.154  11.066 -17.185  1.00  0.00     0.130 C 
BRANCH  21  22
HETATM   22  C14 UNL     1     -14.766  10.570 -17.565  1.00  0.00     0.050 C 
BRANCH  22  23
HETATM   23  C15 UNL     1     -14.151  10.008 -16.302  1.00  0.00     0.273 C 
BRANCH  23  24
HETATM   24  N4  UNL     1     -13.628   8.664 -16.497  1.00  0.00     0.080 N 
HETATM   25  C16 UNL     1     -14.380   8.083 -17.592  1.00  0.00     0.309 C 
HETATM   26  C17 UNL     1     -13.924   7.893 -15.305  1.00  0.00     0.309 C 
ENDBRANCH  23  24
ENDBRANCH  22  23
ENDBRANCH  21  22
ENDBRANCH  19  21
BRANCH  19  27
HETATM   27  C18 UNL     1     -17.488  10.759 -19.230  1.00  0.00     0.108 C 
HETATM   28  C19 UNL     1     -16.742  10.083 -20.358  1.00  0.00     0.047 C 
HETATM   29  C20 UNL     1     -17.069  11.085 -21.496  1.00  0.00     0.126 C 
HETATM   30  N5  UNL     1     -16.702  12.305 -20.840  1.00  0.00    -0.364 N 
HETATM   31  C29 UNL     1     -17.308  12.208 -19.498  1.00  0.00     0.150 C 
BRANCH  30  32
HETATM   32  C21 UNL     1     -15.921  13.343 -21.364  1.00  0.00     0.118 A 
HETATM   33  N6  UNL     1     -14.573  13.256 -21.175  1.00  0.00    -0.338 N 
HETATM   34  C22 UNL     1     -13.702  14.152 -21.645  1.00  0.00     0.183 A 
ATOM     35  H6  UNL     1     -14.211  12.462 -20.647  1.00  0.00     0.168 HD
HETATM   36  N7  UNL     1     -14.114  15.213 -22.343  1.00  0.00    -0.338 N 
HETATM   37  C23 UNL     1     -15.426  15.349 -22.557  1.00  0.00     0.121 A 
ATOM     38  H7  UNL     1     -13.449  15.897 -22.702  1.00  0.00     0.168 HD
HETATM   39  N8  UNL     1     -16.115  16.310 -23.210  1.00  0.00    -0.345 N 
HETATM   40  C28 UNL     1     -16.356  14.429 -22.078  1.00  0.00     0.060 A 
HETATM   41  C24 UNL     1     -17.424  16.035 -23.161  1.00  0.00     0.014 A 
ATOM     42  H8  UNL     1     -15.702  17.121 -23.670  1.00  0.00     0.167 HD
HETATM   43  C25 UNL     1     -18.524  16.834 -23.752  1.00  0.00     0.068 C 
HETATM   44  C26 UNL     1     -17.596  14.859 -22.454  1.00  0.00    -0.022 A 
HETATM   45  C27 UNL     1     -18.872  14.203 -22.149  1.00  0.00     0.051 C 
ENDBRANCH  30  32
ENDBRANCH  19  27
ENDBRANCH  10  16
ENDBRANCH   9  10
ENDBRANCH   8   9
ENDBRANCH   7   8
TORSDOF 12
ENDMDL
MODEL 5
REMARK VINA RESULT: -8.380819484      3.572      9.960
REMARK  12 active torsions:
REMARK  status: ('A' for Active; 'I' for Inactive)
REMARK    1  A    between atoms: C7_7  and  O1_8 
REMARK    2  A    between atoms: O1_8  and  C8_9 
REMARK    3  A    between atoms: C8_9  and  C9_10 
REMARK    4  A    between atoms: C9_10  and  C11_13 
REMARK    5  A    between atoms: C9_10  and  N2_16 
REMARK    6  A    between atoms: C11_13  and  O2_14 
REMARK       I    between atoms: N2_16  and  C12_18 
REMARK       I    between atoms: C12_18  and  N3_20 
REMARK    7  A    between atoms: N3_20  and  C13_21 
REMARK    8  A    between atoms: N3_20  and  C18_27 
REMARK    9  A    between atoms: C13_21  and  C14_22 
REMARK   10  A    between atoms: C14_22  and  C15_23 
REMARK   11  A    between atoms: C15_23  and  N4_24 
REMARK   12  A    between atoms: N5_30  and  C21_31 
ROOT
HETATM    1  C1  UNL     1     -18.895   2.865 -20.558  1.00  0.00     0.012 C 
HETATM    2  C2  UNL     1     -19.241   3.080 -19.435  1.00  0.00    -0.110 C 
HETATM    3  C3  UNL     1     -19.660   3.308 -18.077  1.00  0.00     0.093 C 
HETATM    4  C4  UNL     1     -20.052   1.967 -17.430  1.00  0.00     0.020 C 
HETATM    5  C5  UNL     1     -21.058   2.335 -16.346  1.00  0.00     0.004 C 
HETATM    6  C6  UNL     1     -21.121   3.843 -16.361  1.00  0.00     0.033 C 
HETATM    7  C7  UNL     1     -20.958   4.085 -17.924  1.00  0.00     0.137 C 
ENDROOT
BRANCH   7   8
HETATM    8  O1  UNL     1     -20.881   5.339 -18.173  1.00  0.00    -0.381 OA
BRANCH   8   9
HETATM    9  C8  UNL     1     -20.215   6.384 -18.325  1.00  0.00     0.217 C 
BRANCH   9  10
HETATM   10  C9  UNL     1     -19.467   7.172 -17.242  1.00  0.00     0.166 C 
HETATM   11  C10 UNL     1     -20.389   7.567 -16.215  1.00  0.00     0.095 C 
HETATM   12  N1  UNL     1     -21.126   7.910 -15.397  1.00  0.00    -0.194 NA
BRANCH  10  13
HETATM   13  C11 UNL     1     -18.318   6.387 -16.706  1.00  0.00     0.213 C 
BRANCH  13  14
HETATM   14  O2  UNL     1     -18.335   6.125 -15.372  1.00  0.00    -0.397 OA
ATOM     15  H2  UNL     1     -18.218   6.869 -14.793  1.00  0.00     0.209 HD
ENDBRANCH  13  14
ENDBRANCH  10  13
BRANCH  10  16
HETATM   16  N2  UNL     1     -18.945   8.382 -17.936  1.00  0.00    -0.317 N 
HETATM   17  C12 UNL     1     -17.944   9.178 -17.401  1.00  0.00     0.320 C 
HETATM   18  O3  UNL     1     -17.471   8.846 -16.259  1.00  0.00    -0.247 OA
HETATM   19  N3  UNL     1     -17.386  10.333 -17.996  1.00  0.00    -0.328 N 
ATOM     20  H2  UNL     1     -19.340   8.634 -18.842  1.00  0.00     0.166 HD
BRANCH  19  21
HETATM   21  C13 UNL     1     -16.305  11.003 -17.235  1.00  0.00     0.130 C 
BRANCH  21  22
HETATM   22  C14 UNL     1     -14.953  10.480 -17.699  1.00  0.00     0.050 C 
BRANCH  22  23
HETATM   23  C15 UNL     1     -14.269   9.913 -16.474  1.00  0.00     0.273 C 
BRANCH  23  24
HETATM   24  N4  UNL     1     -13.770   8.565 -16.699  1.00  0.00     0.080 N 
HETATM   25  C16 UNL     1     -14.487   8.045 -17.849  1.00  0.00     0.309 C 
HETATM   26  C17 UNL     1     -14.138   7.755 -15.554  1.00  0.00     0.309 C 
ENDBRANCH  23  24
ENDBRANCH  22  23
ENDBRANCH  21  22
ENDBRANCH  19  21
BRANCH  19  27
HETATM   27  C18 UNL     1     -17.745  10.939 -19.229  1.00  0.00     0.108 C 
HETATM   28  C19 UNL     1     -17.203  10.263 -20.468  1.00  0.00     0.047 C 
HETATM   29  C20 UNL     1     -17.491  11.386 -21.499  1.00  0.00     0.126 C 
HETATM   30  N5  UNL     1     -16.905  12.493 -20.802  1.00  0.00    -0.364 N 
HETATM   31  C29 UNL     1     -17.395  12.369 -19.416  1.00  0.00     0.150 C 
BRANCH  30  32
HETATM   32  C21 UNL     1     -16.040  13.460 -21.331  1.00  0.00     0.118 A 
HETATM   33  N6  UNL     1     -14.703  13.246 -21.168  1.00  0.00    -0.338 N 
HETATM   34  C22 UNL     1     -13.760  14.063 -21.646  1.00  0.00     0.183 A 
ATOM     35  H6  UNL     1     -14.407  12.417 -20.653  1.00  0.00     0.168 HD
HETATM   36  N7  UNL     1     -14.085  15.164 -22.327  1.00  0.00    -0.338 N 
HETATM   37  C23 UNL     1     -15.381  15.423 -22.516  1.00  0.00     0.121 A 
ATOM     38  H7  UNL     1     -13.366  15.788 -22.692  1.00  0.00     0.168 HD
HETATM   39  N8  UNL     1     -15.991  16.450 -23.148  1.00  0.00    -0.345 N 
HETATM   40  C28 UNL     1     -16.385  14.588 -22.028  1.00  0.00     0.060 A 
HETATM   41  C24 UNL     1     -17.318  16.297 -23.078  1.00  0.00     0.014 A 
ATOM     42  H8  UNL     1     -15.511  17.224 -23.608  1.00  0.00     0.167 HD
HETATM   43  C25 UNL     1     -18.349  17.200 -23.642  1.00  0.00     0.068 C 
HETATM   44  C26 UNL     1     -17.586  15.135 -22.378  1.00  0.00    -0.022 A 
HETATM   45  C27 UNL     1     -18.912  14.597 -22.056  1.00  0.00     0.051 C 
ENDBRANCH  30  32
ENDBRANCH  19  27
ENDBRANCH  10  16
ENDBRANCH   9  10
ENDBRANCH   8   9
ENDBRANCH   7   8
TORSDOF 12
ENDMDL
