MODEL 1
REMARK VINA RESULT: -6.745533053      0.000      0.000
REMARK  12 active torsions:
REMARK  status: ('A' for Active; 'I' for Inactive)
REMARK    1  A    between atoms: C2_2  and  C3_3 
REMARK    2  A    between atoms: C3_3  and  O1_4 
REMARK    3  A    between atoms: O1_4  and  C4_5 
REMARK    4  A    between atoms: C8_9  and  N1_10 
REMARK    5  A    between atoms: N1_10  and  S1_12 
REMARK    6  A    between atoms: C10_16  and  O4_17 
REMARK    7  A    between atoms: C12_19  and  C13_20 
REMARK    8  A    between atoms: C16_23  and  N2_24 
REMARK    9  A    between atoms: N2_24  and  C17_26 
REMARK   10  A    between atoms: C17_26  and  C18_27 
REMARK   11  A    between atoms: C18_27  and  N3_28 
REMARK   12  A    between atoms: C22_38  and  C23_39 
ROOT
HETATM    1  C13 UNL     1     -18.910   7.921 -17.737  1.00  0.00     0.003 A 
HETATM    2  C14 UNL     1     -18.562   8.619 -18.906  1.00  0.00     0.033 A 
HETATM    3  C15 UNL     1     -19.304   9.686 -19.313  1.00  0.00     0.056 A 
HETATM    4  C16 UNL     1     -19.241  10.590 -20.402  1.00  0.00     0.133 A 
HETATM    5  N4  UNL     1     -20.266  11.446 -20.261  1.00  0.00    -0.283 N 
ATOM      6  H4  UNL     1     -20.498  12.220 -20.884  1.00  0.00     0.188 HD
HETATM    7  N5  UNL     1     -20.919  11.099 -19.164  1.00  0.00    -0.283 N 
ATOM      8  H5  UNL     1     -21.746  11.586 -18.821  1.00  0.00     0.188 HD
HETATM    9  C21 UNL     1     -20.378  10.043 -18.554  1.00  0.00     0.134 A 
HETATM   10  N6  UNL     1     -20.712   9.362 -17.422  1.00  0.00    -0.343 N 
ATOM     11  H6  UNL     1     -21.524   9.660 -16.882  1.00  0.00     0.167 HD
HETATM   12  C22 UNL     1     -19.989   8.295 -16.998  1.00  0.00     0.021 A 
ENDROOT
BRANCH   1  13
HETATM   13  C12 UNL     1     -17.952   6.882 -17.370  1.00  0.00     0.046 A 
HETATM   14  C4  UNL     1     -18.192   5.536 -17.431  1.00  0.00     0.088 A 
HETATM   15  C5  UNL     1     -17.106   4.672 -17.056  1.00  0.00    -0.025 A 
HETATM   16  C6  UNL     1     -17.335   3.217 -17.111  1.00  0.00     0.051 C 
HETATM   17  C7  UNL     1     -15.901   5.162 -16.664  1.00  0.00     0.042 A 
HETATM   18  C8  UNL     1     -15.660   6.488 -16.607  1.00  0.00     0.077 A 
HETATM   19  C10 UNL     1     -16.693   7.376 -16.965  1.00  0.00     0.109 A 
BRANCH  14  20
HETATM   20  O1  UNL     1     -19.307   4.987 -17.798  1.00  0.00    -0.350 OA
BRANCH  20  21
HETATM   21  C3  UNL     1     -20.410   4.443 -18.155  1.00  0.00     0.175 C 
BRANCH  21  22
HETATM   22  C2  UNL     1     -21.606   4.126 -17.354  1.00  0.00     0.022 C 
HETATM   23  C1  UNL     1     -22.927   4.583 -17.815  1.00  0.00     0.007 C 
ENDBRANCH  21  22
ENDBRANCH  20  21
ENDBRANCH  14  20
BRANCH  18  24
HETATM   24  N1  UNL     1     -14.408   7.034 -16.202  1.00  0.00    -0.282 N 
ATOM     25  H1  UNL     1     -13.686   7.206 -16.902  1.00  0.00     0.178 HD
BRANCH  24  26
HETATM   26  S1  UNL     1     -14.094   7.408 -14.563  1.00  0.00     0.227 S 
HETATM   27  C9  UNL     1     -14.198   5.898 -13.633  1.00  0.00     0.186 C 
HETATM   28  O2  UNL     1     -12.770   8.093 -14.359  1.00  0.00    -0.206 OA
HETATM   29  O3  UNL     1     -15.131   8.348 -13.998  1.00  0.00    -0.206 OA
ENDBRANCH  24  26
ENDBRANCH  18  24
BRANCH  19  30
HETATM   30  O4  UNL     1     -16.428   8.707 -16.924  1.00  0.00    -0.353 OA
HETATM   31  C11 UNL     1     -15.548   9.555 -17.519  1.00  0.00     0.210 C 
ENDBRANCH  19  30
ENDBRANCH   1  13
BRANCH  12  32
HETATM   32  C23 UNL     1     -20.446   7.553 -15.833  1.00  0.00     0.053 C 
HETATM   33  C24 UNL     1     -21.919   7.437 -15.674  1.00  0.00     0.011 C 
ENDBRANCH  12  32
BRANCH   4  34
HETATM   34  N2  UNL     1     -18.334  10.473 -21.251  1.00  0.00    -0.352 N 
ATOM     35  H2  UNL     1     -18.373   9.569 -21.721  1.00  0.00     0.166 HD
BRANCH  34  36
HETATM   36  C17 UNL     1     -17.287  11.255 -21.721  1.00  0.00     0.092 C 
BRANCH  36  37
HETATM   37  C18 UNL     1     -16.078  11.370 -20.843  1.00  0.00     0.315 C 
BRANCH  37  38
HETATM   38  N3  UNL     1     -15.789  12.790 -20.653  1.00  0.00     0.084 N 
HETATM   39  C19 UNL     1     -14.343  12.963 -20.504  1.00  0.00     0.309 C 
HETATM   40  C20 UNL     1     -16.345  13.114 -19.327  1.00  0.00     0.309 C 
ENDBRANCH  37  38
ENDBRANCH  36  37
ENDBRANCH  34  36
ENDBRANCH   4  34
TORSDOF 12
ENDMDL
MODEL 2
REMARK VINA RESULT: -6.724907249      2.810      6.911
REMARK  12 active torsions:
REMARK  status: ('A' for Active; 'I' for Inactive)
REMARK    1  A    between atoms: C2_2  and  C3_3 
REMARK    2  A    between atoms: C3_3  and  O1_4 
REMARK    3  A    between atoms: O1_4  and  C4_5 
REMARK    4  A    between atoms: C8_9  and  N1_10 
REMARK    5  A    between atoms: N1_10  and  S1_12 
REMARK    6  A    between atoms: C10_16  and  O4_17 
REMARK    7  A    between atoms: C12_19  and  C13_20 
REMARK    8  A    between atoms: C16_23  and  N2_24 
REMARK    9  A    between atoms: N2_24  and  C17_26 
REMARK   10  A    between atoms: C17_26  and  C18_27 
REMARK   11  A    between atoms: C18_27  and  N3_28 
REMARK   12  A    between atoms: C22_38  and  C23_39 
ROOT
HETATM    1  C13 UNL     1     -16.339   6.818 -16.460  1.00  0.00     0.003 A 
HETATM    2  C14 UNL     1     -16.394   5.513 -16.979  1.00  0.00     0.033 A 
HETATM    3  C15 UNL     1     -15.812   4.482 -16.303  1.00  0.00     0.056 A 
HETATM    4  C16 UNL     1     -15.683   3.089 -16.525  1.00  0.00     0.133 A 
HETATM    5  N4  UNL     1     -14.992   2.590 -15.486  1.00  0.00    -0.283 N 
ATOM      6  H4  UNL     1     -14.731   1.614 -15.347  1.00  0.00     0.188 HD
HETATM    7  N5  UNL     1     -14.712   3.600 -14.680  1.00  0.00    -0.283 N 
ATOM      8  H5  UNL     1     -14.191   3.500 -13.809  1.00  0.00     0.188 HD
HETATM    9  C21 UNL     1     -15.186   4.764 -15.127  1.00  0.00     0.134 A 
HETATM   10  N6  UNL     1     -15.133   6.032 -14.629  1.00  0.00    -0.343 N 
ATOM     11  H6  UNL     1     -14.653   6.201 -13.745  1.00  0.00     0.167 HD
HETATM   12  C22 UNL     1     -15.704   7.074 -15.284  1.00  0.00     0.021 A 
ENDROOT
BRANCH   1  13
HETATM   13  C12 UNL     1     -17.108   7.787 -17.235  1.00  0.00     0.046 A 
HETATM   14  C4  UNL     1     -18.466   7.937 -17.178  1.00  0.00     0.088 A 
HETATM   15  C5  UNL     1     -19.033   8.973 -17.998  1.00  0.00    -0.025 A 
HETATM   16  C6  UNL     1     -20.495   9.157 -17.959  1.00  0.00     0.051 C 
HETATM   17  C7  UNL     1     -18.263   9.767 -18.787  1.00  0.00     0.042 A 
HETATM   18  C8  UNL     1     -16.923   9.625 -18.841  1.00  0.00     0.077 A 
HETATM   19  C10 UNL     1     -16.319   8.624 -18.055  1.00  0.00     0.109 A 
BRANCH  14  20
HETATM   20  O1  UNL     1     -19.272   7.227 -16.451  1.00  0.00    -0.350 OA
BRANCH  20  21
HETATM   21  C3  UNL     1     -20.063   6.525 -15.730  1.00  0.00     0.175 C 
BRANCH  21  22
HETATM   22  C2  UNL     1     -21.536   6.489 -15.710  1.00  0.00     0.022 C 
HETATM   23  C1  UNL     1     -22.257   5.828 -16.809  1.00  0.00     0.007 C 
ENDBRANCH  21  22
ENDBRANCH  20  21
ENDBRANCH  14  20
BRANCH  18  24
HETATM   24  N1  UNL     1     -16.087  10.442 -19.656  1.00  0.00    -0.282 N 
ATOM     25  H1  UNL     1     -15.646  10.039 -20.483  1.00  0.00     0.178 HD
BRANCH  24  26
HETATM   26  S1  UNL     1     -15.807  12.084 -19.272  1.00  0.00     0.227 S 
HETATM   27  C9  UNL     1     -17.115  13.042 -19.999  1.00  0.00     0.186 C 
HETATM   28  O2  UNL     1     -15.697  12.333 -17.793  1.00  0.00    -0.206 OA
HETATM   29  O3  UNL     1     -14.512  12.581 -19.867  1.00  0.00    -0.206 OA
ENDBRANCH  24  26
ENDBRANCH  18  24
BRANCH  19  30
HETATM   30  O4  UNL     1     -14.968   8.508 -18.104  1.00  0.00    -0.353 OA
HETATM   31  C11 UNL     1     -14.061   7.897 -18.910  1.00  0.00     0.210 C 
ENDBRANCH  19  30
ENDBRANCH   1  13
BRANCH  12  32
HETATM   32  C23 UNL     1     -15.538   8.417 -14.750  1.00  0.00     0.053 C 
HETATM   33  C24 UNL     1     -14.164   8.979 -14.821  1.00  0.00     0.011 C 
ENDBRANCH  12  32
BRANCH   4  34
HETATM   34  N2  UNL     1     -16.179   2.578 -17.548  1.00  0.00    -0.352 N 
ATOM     35  H2  UNL     1     -15.867   3.051 -18.396  1.00  0.00     0.166 HD
BRANCH  34  36
HETATM   36  C17 UNL     1     -17.045   1.529 -17.832  1.00  0.00     0.092 C 
BRANCH  36  37
HETATM   37  C18 UNL     1     -18.383   1.890 -18.404  1.00  0.00     0.315 C 
BRANCH  37  38
HETATM   38  N3  UNL     1     -18.279   3.222 -18.995  1.00  0.00     0.084 N 
HETATM   39  C19 UNL     1     -19.375   4.050 -18.492  1.00  0.00     0.309 C 
HETATM   40  C20 UNL     1     -18.582   3.025 -20.424  1.00  0.00     0.309 C 
ENDBRANCH  37  38
ENDBRANCH  36  37
ENDBRANCH  34  36
ENDBRANCH   4  34
TORSDOF 12
ENDMDL
MODEL 3
REMARK VINA RESULT: -6.679534341      6.795     11.546
REMARK  12 active torsions:
REMARK  status: ('A' for Active; 'I' for Inactive)
REMARK    1  A    between atoms: C2_2  and  C3_3 
REMARK    2  A    between atoms: C3_3  and  O1_4 
REMARK    3  A    between atoms: O1_4  and  C4_5 
REMARK    4  A    between atoms: C8_9  and  N1_10 
REMARK    5  A    between atoms: N1_10  and  S1_12 
REMARK    6  A    between atoms: C10_16  and  O4_17 
REMARK    7  A    between atoms: C12_19  and  C13_20 
REMARK    8  A    between atoms: C16_23  and  N2_24 
REMARK    9  A    between atoms: N2_24  and  C17_26 
REMARK   10  A    between atoms: C17_26  and  C18_27 
REMARK   11  A    between atoms: C18_27  and  N3_28 
REMARK   12  A    between atoms: C22_38  and  C23_39 
ROOT
HETATM    1  C13 UNL     1     -14.952  17.579 -23.292  1.00  0.00     0.003 A 
HETATM    2  C14 UNL     1     -13.992  17.043 -24.167  1.00  0.00     0.033 A 
HETATM    3  C15 UNL     1     -12.986  17.829 -24.645  1.00  0.00     0.056 A 
HETATM    4  C16 UNL     1     -11.885  17.624 -25.511  1.00  0.00     0.133 A 
HETATM    5  N4  UNL     1     -11.235  18.796 -25.603  1.00  0.00    -0.283 N 
ATOM      6  H4  UNL     1     -10.396  18.981 -26.152  1.00  0.00     0.188 HD
HETATM    7  N5  UNL     1     -11.886  19.665 -24.848  1.00  0.00    -0.283 N 
ATOM      8  H5  UNL     1     -11.605  20.639 -24.737  1.00  0.00     0.188 HD
HETATM    9  C21 UNL     1     -12.951  19.131 -24.247  1.00  0.00     0.134 A 
HETATM   10  N6  UNL     1     -13.886  19.647 -23.400  1.00  0.00    -0.343 N 
ATOM     11  H6  UNL     1     -13.825  20.627 -23.127  1.00  0.00     0.167 HD
HETATM   12  C22 UNL     1     -14.896  18.884 -22.912  1.00  0.00     0.021 A 
ENDROOT
BRANCH   1  13
HETATM   13  C12 UNL     1     -15.890  16.587 -22.775  1.00  0.00     0.046 A 
HETATM   14  C4  UNL     1     -17.160  16.388 -23.244  1.00  0.00     0.088 A 
HETATM   15  C5  UNL     1     -17.918  15.337 -22.622  1.00  0.00    -0.025 A 
HETATM   16  C6  UNL     1     -19.290  15.100 -23.105  1.00  0.00     0.051 C 
HETATM   17  C7  UNL     1     -17.402  14.575 -21.622  1.00  0.00     0.042 A 
HETATM   18  C8  UNL     1     -16.149  14.766 -21.161  1.00  0.00     0.077 A 
HETATM   19  C10 UNL     1     -15.366  15.784 -21.739  1.00  0.00     0.109 A 
BRANCH  14  20
HETATM   20  O1  UNL     1     -17.725  17.064 -24.195  1.00  0.00    -0.350 OA
BRANCH  20  21
HETATM   21  C3  UNL     1     -18.283  17.737 -25.131  1.00  0.00     0.175 C 
BRANCH  21  22
HETATM   22  C2  UNL     1     -19.193  17.287 -26.199  1.00  0.00     0.022 C 
HETATM   23  C1  UNL     1     -20.571  16.897 -25.859  1.00  0.00     0.007 C 
ENDBRANCH  21  22
ENDBRANCH  20  21
ENDBRANCH  14  20
BRANCH  18  24
HETATM   24  N1  UNL     1     -15.578  13.984 -20.115  1.00  0.00    -0.282 N 
ATOM     25  H1  UNL     1     -15.093  14.451 -19.349  1.00  0.00     0.178 HD
BRANCH  24  26
HETATM   26  S1  UNL     1     -15.689  12.278 -20.122  1.00  0.00     0.227 S 
HETATM   27  C9  UNL     1     -17.178  11.828 -19.264  1.00  0.00     0.186 C 
HETATM   28  O2  UNL     1     -15.651  11.690 -21.506  1.00  0.00    -0.206 OA
HETATM   29  O3  UNL     1     -14.540  11.643 -19.377  1.00  0.00    -0.206 OA
ENDBRANCH  24  26
ENDBRANCH  18  24
BRANCH  19  30
HETATM   30  O4  UNL     1     -14.100  15.948 -21.279  1.00  0.00    -0.353 OA
HETATM   31  C11 UNL     1     -13.514  16.498 -20.183  1.00  0.00     0.210 C 
ENDBRANCH  19  30
ENDBRANCH   1  13
BRANCH  12  32
HETATM   32  C23 UNL     1     -15.915  19.512 -22.084  1.00  0.00     0.053 C 
HETATM   33  C24 UNL     1     -15.421  20.475 -21.066  1.00  0.00     0.011 C 
ENDBRANCH  12  32
BRANCH   4  34
HETATM   34  N2  UNL     1     -11.695  16.499 -26.015  1.00  0.00    -0.352 N 
ATOM     35  H2  UNL     1     -12.344  15.805 -25.645  1.00  0.00     0.166 HD
BRANCH  34  36
HETATM   36  C17 UNL     1     -10.828  15.946 -26.949  1.00  0.00     0.092 C 
BRANCH  36  37
HETATM   37  C18 UNL     1     -11.011  14.494 -27.270  1.00  0.00     0.315 C 
BRANCH  37  38
HETATM   38  N3  UNL     1      -9.800  14.021 -27.937  1.00  0.00     0.084 N 
HETATM   39  C19 UNL     1      -9.218  12.934 -27.148  1.00  0.00     0.309 C 
HETATM   40  C20 UNL     1      -8.841  15.133 -27.810  1.00  0.00     0.309 C 
ENDBRANCH  37  38
ENDBRANCH  36  37
ENDBRANCH  34  36
ENDBRANCH   4  34
TORSDOF 12
ENDMDL
MODEL 4
REMARK VINA RESULT: -6.663237867      3.452      5.913
REMARK  12 active torsions:
REMARK  status: ('A' for Active; 'I' for Inactive)
REMARK    1  A    between atoms: C2_2  and  C3_3 
REMARK    2  A    between atoms: C3_3  and  O1_4 
REMARK    3  A    between atoms: O1_4  and  C4_5 
REMARK    4  A    between atoms: C8_9  and  N1_10 
REMARK    5  A    between atoms: N1_10  and  S1_12 
REMARK    6  A    between atoms: C10_16  and  O4_17 
REMARK    7  A    between atoms: C12_19  and  C13_20 
REMARK    8  A    between atoms: C16_23  and  N2_24 
REMARK    9  A    between atoms: N2_24  and  C17_26 
REMARK   10  A    between atoms: C17_26  and  C18_27 
REMARK   11  A    between atoms: C18_27  and  N3_28 
REMARK   12  A    between atoms: C22_38  and  C23_39 
ROOT
HETATM    1  C13 UNL     1     -19.100   5.805 -17.257  1.00  0.00     0.003 A 
HETATM    2  C14 UNL     1     -18.956   4.812 -18.243  1.00  0.00     0.033 A 
HETATM    3  C15 UNL     1     -19.867   3.803 -18.337  1.00  0.00     0.056 A 
HETATM    4  C16 UNL     1     -20.026   2.678 -19.182  1.00  0.00     0.133 A 
HETATM    5  N4  UNL     1     -21.138   2.041 -18.780  1.00  0.00    -0.283 N 
ATOM      6  H4  UNL     1     -21.528   1.190 -19.187  1.00  0.00     0.188 HD
HETATM    7  N5  UNL     1     -21.633   2.721 -17.760  1.00  0.00    -0.283 N 
ATOM      8  H5  UNL     1     -22.481   2.454 -17.261  1.00  0.00     0.188 HD
HETATM    9  C21 UNL     1     -20.903   3.795 -17.453  1.00  0.00     0.134 A 
HETATM   10  N6  UNL     1     -21.037   4.757 -16.497  1.00  0.00    -0.343 N 
ATOM     11  H6  UNL     1     -21.827   4.715 -15.854  1.00  0.00     0.167 HD
HETATM   12  C22 UNL     1     -20.143   5.772 -16.384  1.00  0.00     0.021 A 
ENDROOT
BRANCH   1  13
HETATM   13  C12 UNL     1     -18.117   6.878 -17.361  1.00  0.00     0.046 A 
HETATM   14  C4  UNL     1     -18.355   8.112 -17.902  1.00  0.00     0.088 A 
HETATM   15  C5  UNL     1     -17.262   9.045 -17.881  1.00  0.00    -0.025 A 
HETATM   16  C6  UNL     1     -17.488  10.382 -18.458  1.00  0.00     0.051 C 
HETATM   17  C7  UNL     1     -16.053   8.724 -17.350  1.00  0.00     0.042 A 
HETATM   18  C8  UNL     1     -15.816   7.510 -16.812  1.00  0.00     0.077 A 
HETATM   19  C10 UNL     1     -16.857   6.560 -16.808  1.00  0.00     0.109 A 
BRANCH  14  20
HETATM   20  O1  UNL     1     -19.477   8.501 -18.423  1.00  0.00    -0.350 OA
BRANCH  20  21
HETATM   21  C3  UNL     1     -20.582   8.885 -18.943  1.00  0.00     0.175 C 
BRANCH  21  22
HETATM   22  C2  UNL     1     -20.822   9.723 -20.131  1.00  0.00     0.022 C 
HETATM   23  C1  UNL     1     -19.859   9.691 -21.244  1.00  0.00     0.007 C 
ENDBRANCH  21  22
ENDBRANCH  20  21
ENDBRANCH  14  20
BRANCH  18  24
HETATM   24  N1  UNL     1     -14.562   7.141 -16.246  1.00  0.00    -0.282 N 
ATOM     25  H1  UNL     1     -13.882   6.640 -16.819  1.00  0.00     0.178 HD
BRANCH  24  26
HETATM   26  S1  UNL     1     -14.175   7.522 -14.625  1.00  0.00     0.227 S 
HETATM   27  C9  UNL     1     -14.321   6.033 -13.667  1.00  0.00     0.186 C 
HETATM   28  O2  UNL     1     -12.815   8.145 -14.474  1.00  0.00    -0.206 OA
HETATM   29  O3  UNL     1     -15.147   8.519 -14.041  1.00  0.00    -0.206 OA
ENDBRANCH  24  26
ENDBRANCH  18  24
BRANCH  19  30
HETATM   30  O4  UNL     1     -16.609   5.351 -16.243  1.00  0.00    -0.353 OA
HETATM   31  C11 UNL     1     -15.933   4.224 -16.586  1.00  0.00     0.210 C 
ENDBRANCH  19  30
ENDBRANCH   1  13
BRANCH  12  32
HETATM   32  C23 UNL     1     -20.288   6.719 -15.289  1.00  0.00     0.053 C 
HETATM   33  C24 UNL     1     -21.340   7.754 -15.461  1.00  0.00     0.011 C 
ENDBRANCH  12  32
BRANCH   4  34
HETATM   34  N2  UNL     1     -19.195   2.461 -20.086  1.00  0.00    -0.352 N 
ATOM     35  H2  UNL     1     -18.507   1.762 -19.807  1.00  0.00     0.166 HD
BRANCH  34  36
HETATM   36  C17 UNL     1     -18.963   2.925 -21.375  1.00  0.00     0.092 C 
BRANCH  36  37
HETATM   37  C18 UNL     1     -19.794   2.330 -22.471  1.00  0.00     0.315 C 
BRANCH  37  38
HETATM   38  N3  UNL     1     -19.129   2.601 -23.743  1.00  0.00     0.084 N 
HETATM   39  C19 UNL     1     -18.152   3.673 -23.547  1.00  0.00     0.309 C 
HETATM   40  C20 UNL     1     -20.174   3.196 -24.595  1.00  0.00     0.309 C 
ENDBRANCH  37  38
ENDBRANCH  36  37
ENDBRANCH  34  36
ENDBRANCH   4  34
TORSDOF 12
ENDMDL
MODEL 5
REMARK VINA RESULT: -6.633865065      8.382     13.363
REMARK  12 active torsions:
REMARK  status: ('A' for Active; 'I' for Inactive)
REMARK    1  A    between atoms: C2_2  and  C3_3 
REMARK    2  A    between atoms: C3_3  and  O1_4 
REMARK    3  A    between atoms: O1_4  and  C4_5 
REMARK    4  A    between atoms: C8_9  and  N1_10 
REMARK    5  A    between atoms: N1_10  and  S1_12 
REMARK    6  A    between atoms: C10_16  and  O4_17 
REMARK    7  A    between atoms: C12_19  and  C13_20 
REMARK    8  A    between atoms: C16_23  and  N2_24 
REMARK    9  A    between atoms: N2_24  and  C17_26 
REMARK   10  A    between atoms: C17_26  and  C18_27 
REMARK   11  A    between atoms: C18_27  and  N3_28 
REMARK   12  A    between atoms: C22_38  and  C23_39 
ROOT
HETATM    1  C13 UNL     1     -14.791  17.818 -23.453  1.00  0.00     0.003 A 
HETATM    2  C14 UNL     1     -15.099  16.468 -23.212  1.00  0.00     0.033 A 
HETATM    3  C15 UNL     1     -15.076  15.976 -21.941  1.00  0.00     0.056 A 
HETATM    4  C16 UNL     1     -15.327  14.711 -21.355  1.00  0.00     0.133 A 
HETATM    5  N4  UNL     1     -15.142  14.850 -20.031  1.00  0.00    -0.283 N 
ATOM      6  H4  UNL     1     -15.246  14.119 -19.327  1.00  0.00     0.188 HD
HETATM    7  N5  UNL     1     -14.802  16.109 -19.812  1.00  0.00    -0.283 N 
ATOM      8  H5  UNL     1     -14.602  16.487 -18.887  1.00  0.00     0.188 HD
HETATM    9  C21 UNL     1     -14.749  16.831 -20.933  1.00  0.00     0.134 A 
HETATM   10  N6  UNL     1     -14.448  18.139 -21.171  1.00  0.00    -0.343 N 
ATOM     11  H6  UNL     1     -14.207  18.746 -20.389  1.00  0.00     0.167 HD
HETATM   12  C22 UNL     1     -14.464  18.651 -22.428  1.00  0.00     0.021 A 
ENDROOT
BRANCH   1  13
HETATM   13  C12 UNL     1     -14.975  18.220 -24.844  1.00  0.00     0.046 A 
HETATM   14  C4  UNL     1     -16.181  18.492 -25.429  1.00  0.00     0.088 A 
HETATM   15  C5  UNL     1     -16.149  18.905 -26.806  1.00  0.00    -0.025 A 
HETATM   16  C6  UNL     1     -17.433  19.205 -27.464  1.00  0.00     0.051 C 
HETATM   17  C7  UNL     1     -14.983  19.022 -27.494  1.00  0.00     0.042 A 
HETATM   18  C8  UNL     1     -13.792  18.758 -26.918  1.00  0.00     0.077 A 
HETATM   19  C10 UNL     1     -13.771  18.351 -25.569  1.00  0.00     0.109 A 
BRANCH  14  20
HETATM   20  O1  UNL     1     -17.336  18.411 -24.846  1.00  0.00    -0.350 OA
BRANCH  20  21
HETATM   21  C3  UNL     1     -18.479  18.329 -24.275  1.00  0.00     0.175 C 
BRANCH  21  22
HETATM   22  C2  UNL     1     -19.685  17.588 -24.685  1.00  0.00     0.022 C 
HETATM   23  C1  UNL     1     -19.621  16.690 -25.850  1.00  0.00     0.007 C 
ENDBRANCH  21  22
ENDBRANCH  20  21
ENDBRANCH  14  20
BRANCH  18  24
HETATM   24  N1  UNL     1     -12.551  18.873 -27.609  1.00  0.00    -0.282 N 
ATOM     25  H1  UNL     1     -12.201  18.077 -28.144  1.00  0.00     0.178 HD
BRANCH  24  26
HETATM   26  S1  UNL     1     -11.639  20.317 -27.558  1.00  0.00     0.227 S 
HETATM   27  C9  UNL     1     -11.164  20.718 -29.222  1.00  0.00     0.186 C 
HETATM   28  O2  UNL     1     -12.372  21.455 -26.904  1.00  0.00    -0.206 OA
HETATM   29  O3  UNL     1     -10.366  20.143 -26.765  1.00  0.00    -0.206 OA
ENDBRANCH  24  26
ENDBRANCH  18  24
BRANCH  19  30
HETATM   30  O4  UNL     1     -12.563  18.111 -24.998  1.00  0.00    -0.353 OA
HETATM   31  C11 UNL     1     -11.704  17.061 -24.917  1.00  0.00     0.210 C 
ENDBRANCH  19  30
ENDBRANCH   1  13
BRANCH  12  32
HETATM   32  C23 UNL     1     -14.047  20.030 -22.631  1.00  0.00     0.053 C 
HETATM   33  C24 UNL     1     -13.180  20.609 -21.573  1.00  0.00     0.011 C 
ENDBRANCH  12  32
BRANCH   4  34
HETATM   34  N2  UNL     1     -15.650  13.748 -22.078  1.00  0.00    -0.352 N 
ATOM     35  H2  UNL     1     -15.008  13.633 -22.862  1.00  0.00     0.166 HD
BRANCH  34  36
HETATM   36  C17 UNL     1     -16.657  12.791 -22.092  1.00  0.00     0.092 C 
BRANCH  36  37
HETATM   37  C18 UNL     1     -18.069  13.290 -22.046  1.00  0.00     0.315 C 
BRANCH  37  38
HETATM   38  N3  UNL     1     -18.798  12.500 -21.056  1.00  0.00     0.084 N 
HETATM   39  C19 UNL     1     -18.186  12.706 -19.742  1.00  0.00     0.309 C 
HETATM   40  C20 UNL     1     -18.495  11.098 -21.396  1.00  0.00     0.309 C 
ENDBRANCH  37  38
ENDBRANCH  36  37
ENDBRANCH  34  36
ENDBRANCH   4  34
TORSDOF 12
ENDMDL
