MODEL 1
REMARK VINA RESULT: -7.957792402      0.000      0.000
REMARK  17 active torsions:
REMARK  status: ('A' for Active; 'I' for Inactive)
REMARK    1  A    between atoms: C2_2  and  C3_3 
REMARK    2  A    between atoms: C3_3  and  C4_4 
REMARK    3  A    between atoms: C6_7  and  N1_8 
REMARK    4  A    between atoms: C9_11  and  N2_12 
REMARK       I    between atoms: N2_12  and  C10_13 
REMARK    5  A    between atoms: C10_13  and  C11_15 
REMARK    6  A    between atoms: C11_15  and  C12_16 
REMARK    7  A    between atoms: C12_16  and  C13_17 
REMARK    8  A    between atoms: C13_17  and  C14_18 
REMARK    9  A    between atoms: C14_18  and  C15_19 
REMARK   10  A    between atoms: C15_19  and  C16_20 
REMARK   11  A    between atoms: C17_21  and  C18_22 
REMARK   12  A    between atoms: C21_27  and  N4_28 
REMARK   13  A    between atoms: N4_28  and  O3_30 
REMARK   14  A    between atoms: O3_30  and  C22_31 
REMARK   15  A    between atoms: C22_31  and  C23_32 
REMARK   16  A    between atoms: C27_36  and  O4_37 
REMARK   17  A    between atoms: C28_39  and  O5_40 
ROOT
HETATM    1  C18 UNL     1     -22.593   5.218 -17.376  1.00  0.00    -0.015 C 
HETATM    2  C19 UNL     1     -23.556   4.493 -17.562  1.00  0.00    -0.097 C 
HETATM    3  C20 UNL     1     -24.728   3.643 -17.776  1.00  0.00     0.113 C 
ENDROOT
BRANCH   1   4
HETATM    4  C17 UNL     1     -21.493   6.083 -17.161  1.00  0.00    -0.015 C 
HETATM    5  C16 UNL     1     -20.537   6.831 -16.997  1.00  0.00    -0.092 C 
BRANCH   5   6
HETATM    6  C15 UNL     1     -19.384   7.670 -16.790  1.00  0.00     0.095 C 
BRANCH   6   7
HETATM    7  C14 UNL     1     -18.084   7.213 -17.297  1.00  0.00     0.012 C 
BRANCH   7   8
HETATM    8  C13 UNL     1     -17.133   6.555 -16.390  1.00  0.00     0.001 C 
BRANCH   8   9
HETATM    9  C12 UNL     1     -15.715   6.523 -16.787  1.00  0.00     0.010 C 
BRANCH   9  10
HETATM   10  C11 UNL     1     -14.734   7.207 -15.931  1.00  0.00     0.119 C 
BRANCH  10  11
HETATM   11  C10 UNL     1     -15.124   8.626 -15.629  1.00  0.00     0.293 C 
HETATM   12  N2  UNL     1     -15.452   9.544 -16.506  1.00  0.00    -0.351 NA
HETATM   13  O2  UNL     1     -15.125   8.909 -14.366  1.00  0.00    -0.257 OA
BRANCH  12  14
HETATM   14  C9  UNL     1     -15.869  10.258 -17.362  1.00  0.00     0.198 A 
HETATM   15  C8  UNL     1     -15.060  10.530 -18.496  1.00  0.00     0.082 A 
HETATM   16  C7  UNL     1     -15.567  11.338 -19.456  1.00  0.00     0.114 A 
HETATM   17  N1  UNL     1     -16.812  11.889 -19.366  1.00  0.00    -0.182 N 
HETATM   18  C21 UNL     1     -17.596  11.647 -18.304  1.00  0.00     0.707 A 
HETATM   19  N3  UNL     1     -17.110  10.837 -17.322  1.00  0.00    -0.162 N 
ATOM     20  H3  UNL     1     -17.703  10.650 -16.513  1.00  0.00     0.187 HD
BRANCH  17  21
HETATM   21  C6  UNL     1     -17.266  12.752 -20.426  1.00  0.00     0.162 C 
HETATM   22  C5  UNL     1     -16.727  12.318 -21.784  1.00  0.00     0.197 C 
HETATM   23  O1  UNL     1     -17.343  13.108 -22.765  1.00  0.00    -0.381 OA
HETATM   24  C4  UNL     1     -16.798  14.394 -22.757  1.00  0.00     0.156 C 
HETATM   25  C28 UNL     1     -16.218  14.799 -21.449  1.00  0.00     0.178 C 
HETATM   26  C27 UNL     1     -16.831  14.182 -20.235  1.00  0.00     0.175 C 
BRANCH  24  27
HETATM   27  C3  UNL     1     -17.805  15.365 -23.281  1.00  0.00     0.061 C 
BRANCH  27  28
HETATM   28  C2  UNL     1     -18.980  14.632 -23.854  1.00  0.00    -0.034 C 
HETATM   29  C1  UNL     1     -19.574  15.140 -24.915  1.00  0.00     0.007 C 
ENDBRANCH  27  28
ENDBRANCH  24  27
BRANCH  25  30
HETATM   30  O5  UNL     1     -14.825  14.676 -21.410  1.00  0.00    -0.390 OA
ATOM     31  H5  UNL     1     -14.525  14.092 -20.723  1.00  0.00     0.210 HD
ENDBRANCH  25  30
BRANCH  26  32
HETATM   32  O4  UNL     1     -15.940  14.243 -19.144  1.00  0.00    -0.391 OA
ATOM     33  H4  UNL     1     -15.413  15.029 -19.224  1.00  0.00     0.210 HD
ENDBRANCH  26  32
ENDBRANCH  17  21
BRANCH  18  34
HETATM   34  N4  UNL     1     -18.772  12.076 -18.125  1.00  0.00    -0.096 N 
ATOM     35  H4  UNL     1     -18.776  12.801 -17.408  1.00  0.00     0.213 HD
BRANCH  34  36
HETATM   36  O3  UNL     1     -19.980  11.879 -18.571  1.00  0.00    -0.266 OA
BRANCH  36  37
HETATM   37  C22 UNL     1     -20.708  10.647 -18.489  1.00  0.00     0.206 C 
BRANCH  37  38
HETATM   38  C23 UNL     1     -20.770  10.038 -19.853  1.00  0.00     0.012 C 
HETATM   39  C24 UNL     1     -20.328  10.972 -20.980  1.00  0.00     0.007 C 
HETATM   40  C25 UNL     1     -19.676   9.759 -21.609  1.00  0.00     0.001 C 
HETATM   41  C26 UNL     1     -19.520   9.208 -20.206  1.00  0.00     0.007 C 
ENDBRANCH  37  38
ENDBRANCH  36  37
ENDBRANCH  34  36
ENDBRANCH  18  34
ENDBRANCH  12  14
ENDBRANCH  10  11
ENDBRANCH   9  10
ENDBRANCH   8   9
ENDBRANCH   7   8
ENDBRANCH   6   7
ENDBRANCH   5   6
ENDBRANCH   1   4
TORSDOF 17
ENDMDL
MODEL 2
REMARK VINA RESULT: -7.868053842      2.414      9.275
REMARK  17 active torsions:
REMARK  status: ('A' for Active; 'I' for Inactive)
REMARK    1  A    between atoms: C2_2  and  C3_3 
REMARK    2  A    between atoms: C3_3  and  C4_4 
REMARK    3  A    between atoms: C6_7  and  N1_8 
REMARK    4  A    between atoms: C9_11  and  N2_12 
REMARK       I    between atoms: N2_12  and  C10_13 
REMARK    5  A    between atoms: C10_13  and  C11_15 
REMARK    6  A    between atoms: C11_15  and  C12_16 
REMARK    7  A    between atoms: C12_16  and  C13_17 
REMARK    8  A    between atoms: C13_17  and  C14_18 
REMARK    9  A    between atoms: C14_18  and  C15_19 
REMARK   10  A    between atoms: C15_19  and  C16_20 
REMARK   11  A    between atoms: C17_21  and  C18_22 
REMARK   12  A    between atoms: C21_27  and  N4_28 
REMARK   13  A    between atoms: N4_28  and  O3_30 
REMARK   14  A    between atoms: O3_30  and  C22_31 
REMARK   15  A    between atoms: C22_31  and  C23_32 
REMARK   16  A    between atoms: C27_36  and  O4_37 
REMARK   17  A    between atoms: C28_39  and  O5_40 
ROOT
HETATM    1  C18 UNL     1     -18.722  17.949 -24.584  1.00  0.00    -0.015 C 
HETATM    2  C19 UNL     1     -19.683  17.420 -25.119  1.00  0.00    -0.097 C 
HETATM    3  C20 UNL     1     -20.818  16.770 -25.776  1.00  0.00     0.113 C 
ENDROOT
BRANCH   1   4
HETATM    4  C17 UNL     1     -17.591  18.539 -23.971  1.00  0.00    -0.015 C 
HETATM    5  C16 UNL     1     -16.599  19.035 -23.451  1.00  0.00    -0.092 C 
BRANCH   5   6
HETATM    6  C15 UNL     1     -15.442  19.591 -22.797  1.00  0.00     0.095 C 
BRANCH   6   7
HETATM    7  C14 UNL     1     -14.245  18.752 -22.657  1.00  0.00     0.012 C 
BRANCH   7   8
HETATM    8  C13 UNL     1     -13.976  18.063 -21.387  1.00  0.00     0.001 C 
BRANCH   8   9
HETATM    9  C12 UNL     1     -14.241  16.616 -21.321  1.00  0.00     0.010 C 
BRANCH   9  10
HETATM   10  C11 UNL     1     -14.635  15.921 -22.557  1.00  0.00     0.119 C 
BRANCH  10  11
HETATM   11  C10 UNL     1     -15.810  15.008 -22.354  1.00  0.00     0.293 C 
HETATM   12  N2  UNL     1     -15.880  14.011 -21.506  1.00  0.00    -0.351 NA
HETATM   13  O2  UNL     1     -16.822  15.284 -23.112  1.00  0.00    -0.257 OA
BRANCH  12  14
HETATM   14  C9  UNL     1     -15.897  13.226 -20.611  1.00  0.00     0.198 A 
HETATM   15  C8  UNL     1     -14.719  12.494 -20.307  1.00  0.00     0.082 A 
HETATM   16  C7  UNL     1     -14.768  11.616 -19.278  1.00  0.00     0.114 A 
HETATM   17  N1  UNL     1     -15.897  11.418 -18.538  1.00  0.00    -0.182 N 
HETATM   18  C21 UNL     1     -17.023  12.098 -18.805  1.00  0.00     0.707 A 
HETATM   19  N3  UNL     1     -17.002  12.988 -19.837  1.00  0.00    -0.162 N 
ATOM     20  H3  UNL     1     -17.856  13.506 -20.044  1.00  0.00     0.187 HD
BRANCH  17  21
HETATM   21  C6  UNL     1     -15.865  10.451 -17.471  1.00  0.00     0.162 C 
HETATM   22  C5  UNL     1     -14.475  10.323 -16.860  1.00  0.00     0.197 C 
HETATM   23  O1  UNL     1     -14.572   9.490 -15.736  1.00  0.00    -0.381 OA
HETATM   24  C4  UNL     1     -14.716   8.160 -16.137  1.00  0.00     0.156 C 
HETATM   25  C28 UNL     1     -15.316   7.994 -17.487  1.00  0.00     0.178 C 
HETATM   26  C27 UNL     1     -16.254   9.070 -17.929  1.00  0.00     0.175 C 
BRANCH  24  27
HETATM   27  C3  UNL     1     -15.435   7.394 -15.076  1.00  0.00     0.061 C 
BRANCH  27  28
HETATM   28  C2  UNL     1     -14.490   6.458 -14.383  1.00  0.00    -0.034 C 
HETATM   29  C1  UNL     1     -14.972   5.331 -13.900  1.00  0.00     0.007 C 
ENDBRANCH  27  28
ENDBRANCH  24  27
BRANCH  25  30
HETATM   30  O5  UNL     1     -14.363   7.739 -18.479  1.00  0.00    -0.390 OA
ATOM     31  H5  UNL     1     -14.624   8.059 -19.335  1.00  0.00     0.210 HD
ENDBRANCH  25  30
BRANCH  26  32
HETATM   32  O4  UNL     1     -16.375   9.075 -19.334  1.00  0.00    -0.391 OA
ATOM     33  H4  UNL     1     -15.846   8.370 -19.689  1.00  0.00     0.210 HD
ENDBRANCH  26  32
ENDBRANCH  17  21
BRANCH  18  34
HETATM   34  N4  UNL     1     -18.116  12.020 -18.174  1.00  0.00    -0.096 N 
ATOM     35  H4  UNL     1     -17.952  11.672 -17.229  1.00  0.00     0.213 HD
BRANCH  34  36
HETATM   36  O3  UNL     1     -19.385  12.245 -18.356  1.00  0.00    -0.266 OA
BRANCH  36  37
HETATM   37  C22 UNL     1     -20.344  11.286 -18.819  1.00  0.00     0.206 C 
BRANCH  37  38
HETATM   38  C23 UNL     1     -19.726   9.926 -18.755  1.00  0.00     0.012 C 
HETATM   39  C24 UNL     1     -20.500   8.921 -17.901  1.00  0.00     0.007 C 
HETATM   40  C25 UNL     1     -20.143   7.889 -18.949  1.00  0.00     0.001 C 
HETATM   41  C26 UNL     1     -20.104   9.028 -19.948  1.00  0.00     0.007 C 
ENDBRANCH  37  38
ENDBRANCH  36  37
ENDBRANCH  34  36
ENDBRANCH  18  34
ENDBRANCH  12  14
ENDBRANCH  10  11
ENDBRANCH   9  10
ENDBRANCH   8   9
ENDBRANCH   7   8
ENDBRANCH   6   7
ENDBRANCH   5   6
ENDBRANCH   1   4
TORSDOF 17
ENDMDL
MODEL 3
REMARK VINA RESULT: -7.843012532      1.656      2.338
REMARK  17 active torsions:
REMARK  status: ('A' for Active; 'I' for Inactive)
REMARK    1  A    between atoms: C2_2  and  C3_3 
REMARK    2  A    between atoms: C3_3  and  C4_4 
REMARK    3  A    between atoms: C6_7  and  N1_8 
REMARK    4  A    between atoms: C9_11  and  N2_12 
REMARK       I    between atoms: N2_12  and  C10_13 
REMARK    5  A    between atoms: C10_13  and  C11_15 
REMARK    6  A    between atoms: C11_15  and  C12_16 
REMARK    7  A    between atoms: C12_16  and  C13_17 
REMARK    8  A    between atoms: C13_17  and  C14_18 
REMARK    9  A    between atoms: C14_18  and  C15_19 
REMARK   10  A    between atoms: C15_19  and  C16_20 
REMARK   11  A    between atoms: C17_21  and  C18_22 
REMARK   12  A    between atoms: C21_27  and  N4_28 
REMARK   13  A    between atoms: N4_28  and  O3_30 
REMARK   14  A    between atoms: O3_30  and  C22_31 
REMARK   15  A    between atoms: C22_31  and  C23_32 
REMARK   16  A    between atoms: C27_36  and  O4_37 
REMARK   17  A    between atoms: C28_39  and  O5_40 
ROOT
HETATM    1  C18 UNL     1     -19.409   6.477 -15.680  1.00  0.00    -0.015 C 
HETATM    2  C19 UNL     1     -20.535   6.944 -15.727  1.00  0.00    -0.097 C 
HETATM    3  C20 UNL     1     -21.894   7.484 -15.799  1.00  0.00     0.113 C 
ENDROOT
BRANCH   1   4
HETATM    4  C17 UNL     1     -18.114   5.908 -15.632  1.00  0.00    -0.015 C 
HETATM    5  C16 UNL     1     -16.997   5.408 -15.569  1.00  0.00    -0.092 C 
BRANCH   5   6
HETATM    6  C15 UNL     1     -15.665   4.866 -15.483  1.00  0.00     0.095 C 
BRANCH   6   7
HETATM    7  C14 UNL     1     -14.795   5.313 -14.388  1.00  0.00     0.012 C 
BRANCH   7   8
HETATM    8  C13 UNL     1     -14.767   6.732 -14.006  1.00  0.00     0.001 C 
BRANCH   8   9
HETATM    9  C12 UNL     1     -13.880   7.630 -14.766  1.00  0.00     0.010 C 
BRANCH   9  10
HETATM   10  C11 UNL     1     -14.367   8.177 -16.043  1.00  0.00     0.119 C 
BRANCH  10  11
HETATM   11  C10 UNL     1     -14.184   9.665 -16.138  1.00  0.00     0.293 C 
HETATM   12  N2  UNL     1     -14.676  10.449 -17.066  1.00  0.00    -0.351 NA
HETATM   13  O2  UNL     1     -13.469  10.164 -15.182  1.00  0.00    -0.257 OA
BRANCH  12  14
HETATM   14  C9  UNL     1     -15.282  11.090 -17.866  1.00  0.00     0.198 A 
HETATM   15  C8  UNL     1     -14.669  11.412 -19.106  1.00  0.00     0.082 A 
HETATM   16  C7  UNL     1     -15.387  12.133 -19.997  1.00  0.00     0.114 A 
HETATM   17  N1  UNL     1     -16.661  12.552 -19.743  1.00  0.00    -0.182 N 
HETATM   18  C21 UNL     1     -17.261  12.260 -18.579  1.00  0.00     0.707 A 
HETATM   19  N3  UNL     1     -16.561  11.535 -17.663  1.00  0.00    -0.162 N 
ATOM     20  H3  UNL     1     -17.014  11.312 -16.776  1.00  0.00     0.187 HD
BRANCH  17  21
HETATM   21  C6  UNL     1     -17.346  13.331 -20.743  1.00  0.00     0.162 C 
HETATM   22  C5  UNL     1     -16.972  12.898 -22.156  1.00  0.00     0.197 C 
HETATM   23  O1  UNL     1     -17.799  13.592 -23.052  1.00  0.00    -0.381 OA
HETATM   24  C4  UNL     1     -17.385  14.922 -23.154  1.00  0.00     0.156 C 
HETATM   25  C28 UNL     1     -16.661  15.427 -21.957  1.00  0.00     0.178 C 
HETATM   26  C27 UNL     1     -17.027  14.800 -20.651  1.00  0.00     0.175 C 
BRANCH  24  27
HETATM   27  C3  UNL     1     -18.545  15.777 -23.543  1.00  0.00     0.061 C 
BRANCH  27  28
HETATM   28  C2  UNL     1     -19.551  14.967 -24.306  1.00  0.00    -0.034 C 
HETATM   29  C1  UNL     1     -20.383  15.602 -25.108  1.00  0.00     0.007 C 
ENDBRANCH  27  28
ENDBRANCH  24  27
BRANCH  25  30
HETATM   30  O5  UNL     1     -15.272  15.433 -22.124  1.00  0.00    -0.390 OA
ATOM     31  H5  UNL     1     -14.833  14.775 -21.596  1.00  0.00     0.210 HD
ENDBRANCH  25  30
BRANCH  26  32
HETATM   32  O4  UNL     1     -15.995  14.983 -19.708  1.00  0.00    -0.391 OA
ATOM     33  H4  UNL     1     -15.294  14.372 -19.900  1.00  0.00     0.210 HD
ENDBRANCH  26  32
ENDBRANCH  17  21
BRANCH  18  34
HETATM   34  N4  UNL     1     -18.441  12.568 -18.245  1.00  0.00    -0.096 N 
ATOM     35  H4  UNL     1     -18.435  13.405 -17.662  1.00  0.00     0.213 HD
BRANCH  34  36
HETATM   36  O3  UNL     1     -19.663  12.148 -18.413  1.00  0.00    -0.266 OA
BRANCH  36  37
HETATM   37  C22 UNL     1     -20.103  11.259 -19.446  1.00  0.00     0.206 C 
BRANCH  37  38
HETATM   38  C23 UNL     1     -20.315   9.904 -18.850  1.00  0.00     0.012 C 
HETATM   39  C24 UNL     1     -20.746   8.834 -19.854  1.00  0.00     0.007 C 
HETATM   40  C25 UNL     1     -19.852   7.882 -19.088  1.00  0.00     0.001 C 
HETATM   41  C26 UNL     1     -19.015   9.088 -18.712  1.00  0.00     0.007 C 
ENDBRANCH  37  38
ENDBRANCH  36  37
ENDBRANCH  34  36
ENDBRANCH  18  34
ENDBRANCH  12  14
ENDBRANCH  10  11
ENDBRANCH   9  10
ENDBRANCH   8   9
ENDBRANCH   7   8
ENDBRANCH   6   7
ENDBRANCH   5   6
ENDBRANCH   1   4
TORSDOF 17
ENDMDL
MODEL 4
REMARK VINA RESULT: -7.831958764      4.711     11.288
REMARK  17 active torsions:
REMARK  status: ('A' for Active; 'I' for Inactive)
REMARK    1  A    between atoms: C2_2  and  C3_3 
REMARK    2  A    between atoms: C3_3  and  C4_4 
REMARK    3  A    between atoms: C6_7  and  N1_8 
REMARK    4  A    between atoms: C9_11  and  N2_12 
REMARK       I    between atoms: N2_12  and  C10_13 
REMARK    5  A    between atoms: C10_13  and  C11_15 
REMARK    6  A    between atoms: C11_15  and  C12_16 
REMARK    7  A    between atoms: C12_16  and  C13_17 
REMARK    8  A    between atoms: C13_17  and  C14_18 
REMARK    9  A    between atoms: C14_18  and  C15_19 
REMARK   10  A    between atoms: C15_19  and  C16_20 
REMARK   11  A    between atoms: C17_21  and  C18_22 
REMARK   12  A    between atoms: C21_27  and  N4_28 
REMARK   13  A    between atoms: N4_28  and  O3_30 
REMARK   14  A    between atoms: O3_30  and  C22_31 
REMARK   15  A    between atoms: C22_31  and  C23_32 
REMARK   16  A    between atoms: C27_36  and  O4_37 
REMARK   17  A    between atoms: C28_39  and  O5_40 
ROOT
HETATM    1  C18 UNL     1     -11.457  15.952 -26.945  1.00  0.00    -0.015 C 
HETATM    2  C19 UNL     1     -10.743  15.000 -27.210  1.00  0.00    -0.097 C 
HETATM    3  C20 UNL     1      -9.876  13.857 -27.501  1.00  0.00     0.113 C 
ENDROOT
BRANCH   1   4
HETATM    4  C17 UNL     1     -12.286  17.050 -26.610  1.00  0.00    -0.015 C 
HETATM    5  C16 UNL     1     -13.022  17.987 -26.321  1.00  0.00    -0.092 C 
BRANCH   5   6
HETATM    6  C15 UNL     1     -13.884  19.103 -26.031  1.00  0.00     0.095 C 
BRANCH   6   7
HETATM    7  C14 UNL     1     -15.304  18.841 -25.762  1.00  0.00     0.012 C 
BRANCH   7   8
HETATM    8  C13 UNL     1     -16.261  18.777 -26.875  1.00  0.00     0.001 C 
BRANCH   8   9
HETATM    9  C12 UNL     1     -17.600  18.227 -26.599  1.00  0.00     0.010 C 
BRANCH   9  10
HETATM   10  C11 UNL     1     -18.385  18.817 -25.504  1.00  0.00     0.119 C 
BRANCH  10  11
HETATM   11  C10 UNL     1     -19.108  17.781 -24.690  1.00  0.00     0.293 C 
HETATM   12  N2  UNL     1     -18.561  16.770 -24.060  1.00  0.00    -0.351 NA
HETATM   13  O2  UNL     1     -20.389  17.960 -24.638  1.00  0.00    -0.257 OA
BRANCH  12  14
HETATM   14  C9  UNL     1     -17.960  15.974 -23.410  1.00  0.00     0.198 A 
HETATM   15  C8  UNL     1     -18.668  14.923 -22.769  1.00  0.00     0.082 A 
HETATM   16  C7  UNL     1     -17.955  14.030 -22.045  1.00  0.00     0.114 A 
HETATM   17  N1  UNL     1     -16.599  14.109 -21.915  1.00  0.00    -0.182 N 
HETATM   18  C21 UNL     1     -15.908  15.093 -22.511  1.00  0.00     0.707 A 
HETATM   19  N3  UNL     1     -16.601  16.007 -23.246  1.00  0.00    -0.162 N 
ATOM     20  H3  UNL     1     -16.079  16.756 -23.700  1.00  0.00     0.187 HD
BRANCH  17  21
HETATM   21  C6  UNL     1     -15.922  13.125 -21.110  1.00  0.00     0.162 C 
HETATM   22  C5  UNL     1     -16.763  11.868 -20.922  1.00  0.00     0.197 C 
HETATM   23  O1  UNL     1     -15.969  10.912 -20.271  1.00  0.00    -0.381 OA
HETATM   24  C4  UNL     1     -15.831  11.243 -18.921  1.00  0.00     0.156 C 
HETATM   25  C28 UNL     1     -15.986  12.693 -18.632  1.00  0.00     0.178 C 
HETATM   26  C27 UNL     1     -15.598  13.630 -19.729  1.00  0.00     0.175 C 
BRANCH  24  27
HETATM   27  C3  UNL     1     -14.556  10.671 -18.395  1.00  0.00     0.061 C 
BRANCH  27  28
HETATM   28  C2  UNL     1     -14.728  10.254 -16.964  1.00  0.00    -0.034 C 
HETATM   29  C1  UNL     1     -13.663  10.234 -16.189  1.00  0.00     0.007 C 
ENDBRANCH  27  28
ENDBRANCH  24  27
BRANCH  25  30
HETATM   30  O5  UNL     1     -17.254  13.018 -18.137  1.00  0.00    -0.390 OA
ATOM     31  H5  UNL     1     -17.367  13.950 -17.992  1.00  0.00     0.210 HD
ENDBRANCH  25  30
BRANCH  26  32
HETATM   32  O4  UNL     1     -16.214  14.886 -19.549  1.00  0.00    -0.391 OA
ATOM     33  H4  UNL     1     -16.465  14.975 -18.637  1.00  0.00     0.210 HD
ENDBRANCH  26  32
ENDBRANCH  17  21
BRANCH  18  34
HETATM   34  N4  UNL     1     -14.653  15.251 -22.486  1.00  0.00    -0.096 N 
ATOM     35  H4  UNL     1     -14.187  14.435 -22.882  1.00  0.00     0.213 HD
BRANCH  34  36
HETATM   36  O3  UNL     1     -13.771  16.133 -22.111  1.00  0.00    -0.266 OA
BRANCH  36  37
HETATM   37  C22 UNL     1     -13.645  17.460 -22.636  1.00  0.00     0.206 C 
BRANCH  37  38
HETATM   38  C23 UNL     1     -14.280  18.415 -21.677  1.00  0.00     0.012 C 
HETATM   39  C24 UNL     1     -13.658  19.812 -21.674  1.00  0.00     0.007 C 
HETATM   40  C25 UNL     1     -15.067  20.343 -21.512  1.00  0.00     0.001 C 
HETATM   41  C26 UNL     1     -15.537  19.102 -22.244  1.00  0.00     0.007 C 
ENDBRANCH  37  38
ENDBRANCH  36  37
ENDBRANCH  34  36
ENDBRANCH  18  34
ENDBRANCH  12  14
ENDBRANCH  10  11
ENDBRANCH   9  10
ENDBRANCH   8   9
ENDBRANCH   7   8
ENDBRANCH   6   7
ENDBRANCH   5   6
ENDBRANCH   1   4
TORSDOF 17
ENDMDL
MODEL 5
REMARK VINA RESULT: -7.728599821      3.936     10.946
REMARK  17 active torsions:
REMARK  status: ('A' for Active; 'I' for Inactive)
REMARK    1  A    between atoms: C2_2  and  C3_3 
REMARK    2  A    between atoms: C3_3  and  C4_4 
REMARK    3  A    between atoms: C6_7  and  N1_8 
REMARK    4  A    between atoms: C9_11  and  N2_12 
REMARK       I    between atoms: N2_12  and  C10_13 
REMARK    5  A    between atoms: C10_13  and  C11_15 
REMARK    6  A    between atoms: C11_15  and  C12_16 
REMARK    7  A    between atoms: C12_16  and  C13_17 
REMARK    8  A    between atoms: C13_17  and  C14_18 
REMARK    9  A    between atoms: C14_18  and  C15_19 
REMARK   10  A    between atoms: C15_19  and  C16_20 
REMARK   11  A    between atoms: C17_21  and  C18_22 
REMARK   12  A    between atoms: C21_27  and  N4_28 
REMARK   13  A    between atoms: N4_28  and  O3_30 
REMARK   14  A    between atoms: O3_30  and  C22_31 
REMARK   15  A    between atoms: C22_31  and  C23_32 
REMARK   16  A    between atoms: C27_36  and  O4_37 
REMARK   17  A    between atoms: C28_39  and  O5_40 
ROOT
HETATM    1  C18 UNL     1     -13.694  20.096 -23.076  1.00  0.00    -0.015 C 
HETATM    2  C19 UNL     1     -13.348  20.475 -21.970  1.00  0.00    -0.097 C 
HETATM    3  C20 UNL     1     -12.905  20.928 -20.650  1.00  0.00     0.113 C 
ENDROOT
BRANCH   1   4
HETATM    4  C17 UNL     1     -14.071  19.663 -24.371  1.00  0.00    -0.015 C 
HETATM    5  C16 UNL     1     -14.418  19.288 -25.484  1.00  0.00    -0.092 C 
BRANCH   5   6
HETATM    6  C15 UNL     1     -14.814  18.800 -26.780  1.00  0.00     0.095 C 
BRANCH   6   7
HETATM    7  C14 UNL     1     -15.864  19.521 -27.511  1.00  0.00     0.012 C 
BRANCH   7   8
HETATM    8  C13 UNL     1     -17.273  19.139 -27.336  1.00  0.00     0.001 C 
BRANCH   8   9
HETATM    9  C12 UNL     1     -17.582  18.084 -26.355  1.00  0.00     0.010 C 
BRANCH   9  10
HETATM   10  C11 UNL     1     -17.950  18.487 -24.989  1.00  0.00     0.119 C 
BRANCH  10  11
HETATM   11  C10 UNL     1     -18.889  17.513 -24.335  1.00  0.00     0.293 C 
HETATM   12  N2  UNL     1     -18.550  16.434 -23.673  1.00  0.00    -0.351 NA
HETATM   13  O2  UNL     1     -20.138  17.825 -24.467  1.00  0.00    -0.257 OA
BRANCH  12  14
HETATM   14  C9  UNL     1     -18.138  15.563 -22.974  1.00  0.00     0.198 A 
HETATM   15  C8  UNL     1     -18.269  14.213 -23.397  1.00  0.00     0.082 A 
HETATM   16  C7  UNL     1     -17.783  13.247 -22.583  1.00  0.00     0.114 A 
HETATM   17  N1  UNL     1     -17.181  13.527 -21.392  1.00  0.00    -0.182 N 
HETATM   18  C21 UNL     1     -17.045  14.794 -20.972  1.00  0.00     0.707 A 
HETATM   19  N3  UNL     1     -17.526  15.788 -21.770  1.00  0.00    -0.162 N 
ATOM     20  H3  UNL     1     -17.425  16.752 -21.454  1.00  0.00     0.187 HD
BRANCH  17  21
HETATM   21  C6  UNL     1     -16.707  12.435 -20.581  1.00  0.00     0.162 C 
HETATM   22  C5  UNL     1     -16.658  11.126 -21.362  1.00  0.00     0.197 C 
HETATM   23  O1  UNL     1     -16.039  10.164 -20.551  1.00  0.00    -0.381 OA
HETATM   24  C4  UNL     1     -16.917   9.744 -19.549  1.00  0.00     0.156 C 
HETATM   25  C28 UNL     1     -17.957  10.746 -19.194  1.00  0.00     0.178 C 
HETATM   26  C27 UNL     1     -17.583  12.181 -19.382  1.00  0.00     0.175 C 
BRANCH  24  27
HETATM   27  C3  UNL     1     -16.136   9.264 -18.371  1.00  0.00     0.061 C 
BRANCH  27  28
HETATM   28  C2  UNL     1     -14.796   9.936 -18.331  1.00  0.00    -0.034 C 
HETATM   29  C1  UNL     1     -14.597  10.875 -17.428  1.00  0.00     0.007 C 
ENDBRANCH  27  28
ENDBRANCH  24  27
BRANCH  25  30
HETATM   30  O5  UNL     1     -19.194  10.481 -19.791  1.00  0.00    -0.390 OA
ATOM     31  H5  UNL     1     -19.851  10.191 -19.168  1.00  0.00     0.210 HD
ENDBRANCH  25  30
BRANCH  26  32
HETATM   32  O4  UNL     1     -18.737  12.984 -19.486  1.00  0.00    -0.391 OA
ATOM     33  H4  UNL     1     -19.224  12.721 -20.258  1.00  0.00     0.210 HD
ENDBRANCH  26  32
ENDBRANCH  17  21
BRANCH  18  34
HETATM   34  N4  UNL     1     -16.482  15.176 -19.905  1.00  0.00    -0.096 N 
ATOM     35  H4  UNL     1     -17.183  15.447 -19.215  1.00  0.00     0.213 HD
BRANCH  34  36
HETATM   36  O3  UNL     1     -15.286  15.331 -19.414  1.00  0.00    -0.266 OA
BRANCH  36  37
HETATM   37  C22 UNL     1     -14.194  15.986 -20.072  1.00  0.00     0.206 C 
BRANCH  37  38
HETATM   38  C23 UNL     1     -14.022  15.379 -21.428  1.00  0.00     0.012 C 
HETATM   39  C24 UNL     1     -14.099  16.380 -22.581  1.00  0.00     0.007 C 
HETATM   40  C25 UNL     1     -12.988  15.583 -23.231  1.00  0.00     0.001 C 
HETATM   41  C26 UNL     1     -12.546  15.201 -21.832  1.00  0.00     0.007 C 
ENDBRANCH  37  38
ENDBRANCH  36  37
ENDBRANCH  34  36
ENDBRANCH  18  34
ENDBRANCH  12  14
ENDBRANCH  10  11
ENDBRANCH   9  10
ENDBRANCH   8   9
ENDBRANCH   7   8
ENDBRANCH   6   7
ENDBRANCH   5   6
ENDBRANCH   1   4
TORSDOF 17
ENDMDL
