MODEL 1
REMARK VINA RESULT: -8.736732171      0.000      0.000
REMARK  12 active torsions:
REMARK  status: ('A' for Active; 'I' for Inactive)
REMARK    1  A    between atoms: C2_2  and  C3_3 
REMARK    2  A    between atoms: C3_3  and  C4_4 
REMARK    3  A    between atoms: C4_4  and  C5_5 
REMARK    4  A    between atoms: C5_5  and  O1_6 
REMARK    5  A    between atoms: C5_5  and  C6_8 
REMARK    6  A    between atoms: C6_8  and  N1_9 
REMARK       I    between atoms: N2_17  and  C14_18 
REMARK    7  A    between atoms: C14_18  and  C15_20 
REMARK    8  A    between atoms: N5_29  and  C21_30 
REMARK    9  A    between atoms: C21_30  and  C22_31 
REMARK   10  A    between atoms: C22_31  and  C23_32 
REMARK   11  A    between atoms: C23_32  and  N6_33 
REMARK   12  A    between atoms: C28_38  and  N7_39 
ROOT
HETATM    1  C15 UNL     1     -16.045  13.870 -21.484  1.00  0.00     0.079 A 
HETATM    2  C16 UNL     1     -17.197  13.899 -22.213  1.00  0.00     0.054 A 
HETATM    3  C17 UNL     1     -17.537  15.065 -22.869  1.00  0.00     0.081 A 
HETATM    4  C18 UNL     1     -16.687  16.142 -22.748  1.00  0.00     0.137 A 
HETATM    5  N3  UNL     1     -17.251  17.136 -23.477  1.00  0.00    -0.336 N 
ATOM      6  H3  UNL     1     -16.861  18.072 -23.590  1.00  0.00     0.168 HD
HETATM    7  C19 UNL     1     -18.406  16.704 -24.032  1.00  0.00     0.184 A 
HETATM    8  N4  UNL     1     -18.578  15.429 -23.656  1.00  0.00    -0.344 N 
HETATM    9  C20 UNL     1     -19.688  14.586 -24.024  1.00  0.00     0.157 C 
HETATM   10  N5  UNL     1     -15.559  16.132 -22.040  1.00  0.00    -0.317 N 
HETATM   11  C28 UNL     1     -15.231  14.979 -21.398  1.00  0.00     0.118 A 
ENDROOT
BRANCH   1  12
HETATM   12  C14 UNL     1     -15.609  12.659 -20.753  1.00  0.00     0.272 C 
HETATM   13  N2  UNL     1     -16.484  11.974 -19.924  1.00  0.00    -0.275 N 
HETATM   14  N1  UNL     1     -16.340  10.833 -19.132  1.00  0.00    -0.223 NA
HETATM   15  C13 UNL     1     -17.919  12.392 -19.738  1.00  0.00     0.157 C 
HETATM   16  C7  UNL     1     -17.549  10.091 -19.396  1.00  0.00     0.125 C 
HETATM   17  C8  UNL     1     -18.564  11.040 -19.931  1.00  0.00    -0.009 C 
HETATM   18  C9  UNL     1     -18.897  10.794 -21.387  1.00  0.00     0.012 C 
HETATM   19  C12 UNL     1     -19.903  10.954 -19.232  1.00  0.00     0.012 C 
HETATM   20  C10 UNL     1     -20.153   9.968 -21.433  1.00  0.00     0.001 C 
HETATM   21  C11 UNL     1     -20.904  10.442 -20.225  1.00  0.00     0.001 C 
HETATM   22  O2  UNL     1     -14.433  12.326 -20.942  1.00  0.00    -0.266 OA
BRANCH  14  23
HETATM   23  C6  UNL     1     -15.133  10.172 -19.362  1.00  0.00     0.145 C 
BRANCH  23  24
HETATM   24  C5  UNL     1     -14.610   9.335 -18.222  1.00  0.00     0.133 C 
BRANCH  24  25
HETATM   25  C4  UNL     1     -14.888   9.855 -16.857  1.00  0.00     0.033 C 
BRANCH  25  26
HETATM   26  C3  UNL     1     -13.664  10.258 -16.078  1.00  0.00     0.002 C 
BRANCH  26  27
HETATM   27  C2  UNL     1     -13.089   9.078 -15.314  1.00  0.00    -0.004 C 
HETATM   28  C1  UNL     1     -14.116   8.169 -14.730  1.00  0.00     0.005 C 
ENDBRANCH  26  27
ENDBRANCH  25  26
ENDBRANCH  24  25
BRANCH  24  29
HETATM   29  O1  UNL     1     -15.046   7.989 -18.354  1.00  0.00    -0.394 OA
ATOM     30  H1  UNL     1     -15.943   7.950 -18.663  1.00  0.00     0.210 HD
ENDBRANCH  24  29
ENDBRANCH  23  24
ENDBRANCH  14  23
ENDBRANCH   1  12
BRANCH  11  31
HETATM   31  N7  UNL     1     -14.135  14.929 -20.694  1.00  0.00    -0.384 N 
ATOM     32  H72 UNL     1     -13.770  14.023 -20.401  1.00  0.00     0.157 HD
ATOM     33  H71 UNL     1     -13.651  15.791 -20.444  1.00  0.00     0.157 HD
ENDBRANCH  11  31
BRANCH  10  34
HETATM   34  C21 UNL     1     -14.651  17.236 -21.892  1.00  0.00     0.134 C 
BRANCH  34  35
HETATM   35  C22 UNL     1     -13.717  17.276 -23.082  1.00  0.00     0.050 C 
BRANCH  35  36
HETATM   36  C23 UNL     1     -13.826  18.633 -23.746  1.00  0.00     0.274 C 
BRANCH  36  37
HETATM   37  N6  UNL     1     -12.939  18.824 -24.845  1.00  0.00     0.088 N 
HETATM   38  C24 UNL     1     -13.545  19.260 -26.057  1.00  0.00     0.272 C 
HETATM   39  C25 UNL     1     -13.257  18.235 -27.116  1.00  0.00     0.032 C 
HETATM   40  C26 UNL     1     -12.218  17.317 -26.533  1.00  0.00     0.032 C 
HETATM   41  C27 UNL     1     -12.039  17.754 -25.112  1.00  0.00     0.272 C 
ENDBRANCH  36  37
ENDBRANCH  35  36
ENDBRANCH  34  35
ENDBRANCH  10  34
TORSDOF 12
ENDMDL
MODEL 2
REMARK VINA RESULT: -8.677230038      2.621      5.073
REMARK  12 active torsions:
REMARK  status: ('A' for Active; 'I' for Inactive)
REMARK    1  A    between atoms: C2_2  and  C3_3 
REMARK    2  A    between atoms: C3_3  and  C4_4 
REMARK    3  A    between atoms: C4_4  and  C5_5 
REMARK    4  A    between atoms: C5_5  and  O1_6 
REMARK    5  A    between atoms: C5_5  and  C6_8 
REMARK    6  A    between atoms: C6_8  and  N1_9 
REMARK       I    between atoms: N2_17  and  C14_18 
REMARK    7  A    between atoms: C14_18  and  C15_20 
REMARK    8  A    between atoms: N5_29  and  C21_30 
REMARK    9  A    between atoms: C21_30  and  C22_31 
REMARK   10  A    between atoms: C22_31  and  C23_32 
REMARK   11  A    between atoms: C23_32  and  N6_33 
REMARK   12  A    between atoms: C28_38  and  N7_39 
ROOT
HETATM    1  C15 UNL     1     -17.819  13.131 -20.817  1.00  0.00     0.079 A 
HETATM    2  C16 UNL     1     -16.790  13.866 -20.304  1.00  0.00     0.054 A 
HETATM    3  C17 UNL     1     -16.159  14.782 -21.121  1.00  0.00     0.081 A 
HETATM    4  C18 UNL     1     -16.606  14.903 -22.418  1.00  0.00     0.137 A 
HETATM    5  N3  UNL     1     -15.826  15.854 -22.987  1.00  0.00    -0.336 N 
ATOM      6  H3  UNL     1     -15.905  16.176 -23.951  1.00  0.00     0.168 HD
HETATM    7  C19 UNL     1     -14.925  16.312 -22.088  1.00  0.00     0.184 A 
HETATM    8  N4  UNL     1     -15.134  15.650 -20.941  1.00  0.00    -0.344 N 
HETATM    9  C20 UNL     1     -14.391  15.829 -19.719  1.00  0.00     0.157 C 
HETATM   10  N5  UNL     1     -17.608  14.194 -22.935  1.00  0.00    -0.317 N 
HETATM   11  C28 UNL     1     -18.225  13.294 -22.124  1.00  0.00     0.118 A 
ENDROOT
BRANCH   1  12
HETATM   12  C14 UNL     1     -18.547  12.129 -20.007  1.00  0.00     0.272 C 
HETATM   13  N2  UNL     1     -17.947  10.933 -19.644  1.00  0.00    -0.275 N 
HETATM   14  N1  UNL     1     -18.393   9.836 -18.906  1.00  0.00    -0.223 NA
HETATM   15  C13 UNL     1     -16.529  10.593 -20.019  1.00  0.00     0.157 C 
HETATM   16  C7  UNL     1     -17.271   9.532 -18.051  1.00  0.00     0.125 C 
HETATM   17  C8  UNL     1     -16.052  10.131 -18.662  1.00  0.00    -0.009 C 
HETATM   18  C9  UNL     1     -15.490  11.281 -17.858  1.00  0.00     0.012 C 
HETATM   19  C12 UNL     1     -14.894   9.163 -18.775  1.00  0.00     0.012 C 
HETATM   20  C10 UNL     1     -14.374  10.739 -17.007  1.00  0.00     0.001 C 
HETATM   21  C11 UNL     1     -13.805   9.649 -17.865  1.00  0.00     0.001 C 
HETATM   22  O2  UNL     1     -19.701  12.446 -19.694  1.00  0.00    -0.266 OA
BRANCH  14  23
HETATM   23  C6  UNL     1     -19.616  10.078 -18.277  1.00  0.00     0.145 C 
BRANCH  23  24
HETATM   24  C5  UNL     1     -20.439   8.859 -17.943  1.00  0.00     0.133 C 
BRANCH  24  25
HETATM   25  C4  UNL     1     -20.111   7.627 -18.707  1.00  0.00     0.033 C 
BRANCH  25  26
HETATM   26  C3  UNL     1     -19.568   6.497 -17.873  1.00  0.00     0.002 C 
BRANCH  26  27
HETATM   27  C2  UNL     1     -20.419   5.248 -18.025  1.00  0.00    -0.004 C 
HETATM   28  C1  UNL     1     -21.846   5.429 -17.634  1.00  0.00     0.005 C 
ENDBRANCH  26  27
ENDBRANCH  25  26
ENDBRANCH  24  25
BRANCH  24  29
HETATM   29  O1  UNL     1     -20.416   8.612 -16.543  1.00  0.00    -0.394 OA
ATOM     30  H1  UNL     1     -19.534   8.428 -16.244  1.00  0.00     0.210 HD
ENDBRANCH  24  29
ENDBRANCH  23  24
ENDBRANCH  14  23
ENDBRANCH   1  12
BRANCH  11  31
HETATM   31  N7  UNL     1     -19.209  12.579 -22.593  1.00  0.00    -0.384 N 
ATOM     32  H72 UNL     1     -19.038  11.614 -22.872  1.00  0.00     0.157 HD
ATOM     33  H71 UNL     1     -20.140  12.988 -22.675  1.00  0.00     0.157 HD
ENDBRANCH  11  31
BRANCH  10  34
HETATM   34  C21 UNL     1     -18.099  14.293 -24.283  1.00  0.00     0.134 C 
BRANCH  34  35
HETATM   35  C22 UNL     1     -19.079  15.442 -24.372  1.00  0.00     0.050 C 
BRANCH  35  36
HETATM   36  C23 UNL     1     -18.945  16.098 -25.731  1.00  0.00     0.274 C 
BRANCH  36  37
HETATM   37  N6  UNL     1     -18.751  17.509 -25.687  1.00  0.00     0.088 N 
HETATM   38  C24 UNL     1     -17.829  18.033 -26.636  1.00  0.00     0.272 C 
HETATM   39  C25 UNL     1     -16.729  18.725 -25.883  1.00  0.00     0.032 C 
HETATM   40  C26 UNL     1     -17.199  18.821 -24.458  1.00  0.00     0.032 C 
HETATM   41  C27 UNL     1     -18.489  18.062 -24.402  1.00  0.00     0.272 C 
ENDBRANCH  36  37
ENDBRANCH  35  36
ENDBRANCH  34  35
ENDBRANCH  10  34
TORSDOF 12
ENDMDL
MODEL 3
REMARK VINA RESULT: -8.651584174      1.321      1.772
REMARK  12 active torsions:
REMARK  status: ('A' for Active; 'I' for Inactive)
REMARK    1  A    between atoms: C2_2  and  C3_3 
REMARK    2  A    between atoms: C3_3  and  C4_4 
REMARK    3  A    between atoms: C4_4  and  C5_5 
REMARK    4  A    between atoms: C5_5  and  O1_6 
REMARK    5  A    between atoms: C5_5  and  C6_8 
REMARK    6  A    between atoms: C6_8  and  N1_9 
REMARK       I    between atoms: N2_17  and  C14_18 
REMARK    7  A    between atoms: C14_18  and  C15_20 
REMARK    8  A    between atoms: N5_29  and  C21_30 
REMARK    9  A    between atoms: C21_30  and  C22_31 
REMARK   10  A    between atoms: C22_31  and  C23_32 
REMARK   11  A    between atoms: C23_32  and  N6_33 
REMARK   12  A    between atoms: C28_38  and  N7_39 
ROOT
HETATM    1  C15 UNL     1     -16.604  14.174 -22.055  1.00  0.00     0.079 A 
HETATM    2  C16 UNL     1     -17.714  14.017 -22.832  1.00  0.00     0.054 A 
HETATM    3  C17 UNL     1     -18.195  15.107 -23.529  1.00  0.00     0.081 A 
HETATM    4  C18 UNL     1     -17.521  16.302 -23.399  1.00  0.00     0.137 A 
HETATM    5  N3  UNL     1     -18.194  17.186 -24.174  1.00  0.00    -0.336 N 
ATOM      6  H3  UNL     1     -17.943  18.168 -24.293  1.00  0.00     0.168 HD
HETATM    7  C19 UNL     1     -19.246  16.577 -24.766  1.00  0.00     0.184 A 
HETATM    8  N4  UNL     1     -19.243  15.297 -24.366  1.00  0.00    -0.344 N 
HETATM    9  C20 UNL     1     -20.197  14.291 -24.759  1.00  0.00     0.157 C 
HETATM   10  N5  UNL     1     -16.437  16.473 -22.645  1.00  0.00    -0.317 N 
HETATM   11  C28 UNL     1     -15.969  15.394 -21.962  1.00  0.00     0.118 A 
ENDROOT
BRANCH   1  12
HETATM   12  C14 UNL     1     -16.026  13.055 -21.277  1.00  0.00     0.272 C 
HETATM   13  N2  UNL     1     -16.786  12.370 -20.342  1.00  0.00    -0.275 N 
HETATM   14  N1  UNL     1     -16.499  11.304 -19.487  1.00  0.00    -0.223 NA
HETATM   15  C13 UNL     1     -18.233  12.694 -20.081  1.00  0.00     0.157 C 
HETATM   16  C7  UNL     1     -17.661  10.457 -19.611  1.00  0.00     0.125 C 
HETATM   17  C8  UNL     1     -18.782  11.288 -20.134  1.00  0.00    -0.009 C 
HETATM   18  C9  UNL     1     -19.192  10.912 -21.540  1.00  0.00     0.012 C 
HETATM   19  C12 UNL     1     -20.059  11.154 -19.333  1.00  0.00     0.012 C 
HETATM   20  C10 UNL     1     -20.379   9.994 -21.438  1.00  0.00     0.001 C 
HETATM   21  C11 UNL     1     -21.081  10.499 -20.213  1.00  0.00     0.001 C 
HETATM   22  O2  UNL     1     -14.843  12.797 -21.530  1.00  0.00    -0.266 OA
BRANCH  14  23
HETATM   23  C6  UNL     1     -15.262  10.719 -19.760  1.00  0.00     0.145 C 
BRANCH  23  24
HETATM   24  C5  UNL     1     -14.695   9.834 -18.678  1.00  0.00     0.133 C 
BRANCH  24  25
HETATM   25  C4  UNL     1     -14.967  10.267 -17.282  1.00  0.00     0.033 C 
BRANCH  25  26
HETATM   26  C3  UNL     1     -13.737  10.459 -16.433  1.00  0.00     0.002 C 
BRANCH  26  27
HETATM   27  C2  UNL     1     -13.473   9.239 -15.570  1.00  0.00    -0.004 C 
HETATM   28  C1  UNL     1     -14.698   8.641 -14.965  1.00  0.00     0.005 C 
ENDBRANCH  26  27
ENDBRANCH  25  26
ENDBRANCH  24  25
BRANCH  24  29
HETATM   29  O1  UNL     1     -15.093   8.485 -18.880  1.00  0.00    -0.394 OA
ATOM     30  H1  UNL     1     -15.690   8.412 -19.615  1.00  0.00     0.210 HD
ENDBRANCH  24  29
ENDBRANCH  23  24
ENDBRANCH  14  23
ENDBRANCH   1  12
BRANCH  11  31
HETATM   31  N7  UNL     1     -14.910  15.521 -21.213  1.00  0.00    -0.384 N 
ATOM     32  H72 UNL     1     -14.796  14.914 -20.401  1.00  0.00     0.157 HD
ATOM     33  H71 UNL     1     -14.205  16.221 -21.443  1.00  0.00     0.157 HD
ENDBRANCH  11  31
BRANCH  10  34
HETATM   34  C21 UNL     1     -15.710  17.703 -22.486  1.00  0.00     0.134 C 
BRANCH  34  35
HETATM   35  C22 UNL     1     -14.928  17.987 -23.750  1.00  0.00     0.050 C 
BRANCH  35  36
HETATM   36  C23 UNL     1     -13.562  18.520 -23.373  1.00  0.00     0.274 C 
BRANCH  36  37
HETATM   37  N6  UNL     1     -13.497  19.939 -23.250  1.00  0.00     0.088 N 
HETATM   38  C24 UNL     1     -12.574  20.589 -24.117  1.00  0.00     0.272 C 
HETATM   39  C25 UNL     1     -11.583  21.332 -23.269  1.00  0.00     0.032 C 
HETATM   40  C26 UNL     1     -12.136  21.312 -21.871  1.00  0.00     0.032 C 
HETATM   41  C27 UNL     1     -13.355  20.444 -21.927  1.00  0.00     0.272 C 
ENDBRANCH  36  37
ENDBRANCH  35  36
ENDBRANCH  34  35
ENDBRANCH  10  34
TORSDOF 12
ENDMDL
MODEL 4
REMARK VINA RESULT: -8.606141853      3.042     10.144
REMARK  12 active torsions:
REMARK  status: ('A' for Active; 'I' for Inactive)
REMARK    1  A    between atoms: C2_2  and  C3_3 
REMARK    2  A    between atoms: C3_3  and  C4_4 
REMARK    3  A    between atoms: C4_4  and  C5_5 
REMARK    4  A    between atoms: C5_5  and  O1_6 
REMARK    5  A    between atoms: C5_5  and  C6_8 
REMARK    6  A    between atoms: C6_8  and  N1_9 
REMARK       I    between atoms: N2_17  and  C14_18 
REMARK    7  A    between atoms: C14_18  and  C15_20 
REMARK    8  A    between atoms: N5_29  and  C21_30 
REMARK    9  A    between atoms: C21_30  and  C22_31 
REMARK   10  A    between atoms: C22_31  and  C23_32 
REMARK   11  A    between atoms: C23_32  and  N6_33 
REMARK   12  A    between atoms: C28_38  and  N7_39 
ROOT
HETATM    1  C15 UNL     1     -17.775  11.897 -20.225  1.00  0.00     0.079 A 
HETATM    2  C16 UNL     1     -16.587  11.604 -19.621  1.00  0.00     0.054 A 
HETATM    3  C17 UNL     1     -16.593  10.778 -18.514  1.00  0.00     0.081 A 
HETATM    4  C18 UNL     1     -17.806  10.293 -18.079  1.00  0.00     0.137 A 
HETATM    5  N3  UNL     1     -17.526   9.525 -16.998  1.00  0.00    -0.336 N 
ATOM      6  H3  UNL     1     -18.218   9.021 -16.444  1.00  0.00     0.168 HD
HETATM    7  C19 UNL     1     -16.194   9.526 -16.762  1.00  0.00     0.184 A 
HETATM    8  N4  UNL     1     -15.624  10.298 -17.697  1.00  0.00    -0.344 N 
HETATM    9  C20 UNL     1     -14.214  10.575 -17.814  1.00  0.00     0.157 C 
HETATM   10  N5  UNL     1     -18.974  10.569 -18.656  1.00  0.00    -0.317 N 
HETATM   11  C28 UNL     1     -18.961  11.383 -19.745  1.00  0.00     0.118 A 
ENDROOT
BRANCH   1  12
HETATM   12  C14 UNL     1     -17.855  12.773 -21.414  1.00  0.00     0.272 C 
HETATM   13  N2  UNL     1     -17.201  13.995 -21.445  1.00  0.00    -0.275 N 
HETATM   14  N1  UNL     1     -17.113  14.997 -22.413  1.00  0.00    -0.223 NA
HETATM   15  C13 UNL     1     -16.358  14.490 -20.300  1.00  0.00     0.157 C 
HETATM   16  C7  UNL     1     -15.714  15.351 -22.397  1.00  0.00     0.125 C 
HETATM   17  C8  UNL     1     -15.142  14.909 -21.094  1.00  0.00    -0.009 C 
HETATM   18  C9  UNL     1     -14.159  13.769 -21.235  1.00  0.00     0.012 C 
HETATM   19  C12 UNL     1     -14.353  15.987 -20.383  1.00  0.00     0.012 C 
HETATM   20  C10 UNL     1     -12.776  14.359 -21.245  1.00  0.00     0.001 C 
HETATM   21  C11 UNL     1     -12.919  15.549 -20.345  1.00  0.00     0.001 C 
HETATM   22  O2  UNL     1     -18.536  12.329 -22.347  1.00  0.00    -0.266 OA
BRANCH  14  23
HETATM   23  C6  UNL     1     -17.647  14.602 -23.640  1.00  0.00     0.145 C 
BRANCH  23  24
HETATM   24  C5  UNL     1     -18.892  15.330 -24.083  1.00  0.00     0.133 C 
BRANCH  24  25
HETATM   25  C4  UNL     1     -19.000  15.597 -25.542  1.00  0.00     0.033 C 
BRANCH  25  26
HETATM   26  C3  UNL     1     -19.906  16.744 -25.905  1.00  0.00     0.002 C 
BRANCH  26  27
HETATM   27  C2  UNL     1     -19.624  17.959 -25.038  1.00  0.00    -0.004 C 
HETATM   28  C1  UNL     1     -18.467  18.781 -25.495  1.00  0.00     0.005 C 
ENDBRANCH  26  27
ENDBRANCH  25  26
ENDBRANCH  24  25
BRANCH  24  29
HETATM   29  O1  UNL     1     -20.053  14.668 -23.599  1.00  0.00    -0.394 OA
ATOM     30  H1  UNL     1     -20.129  14.759 -22.657  1.00  0.00     0.210 HD
ENDBRANCH  24  29
ENDBRANCH  23  24
ENDBRANCH  14  23
ENDBRANCH   1  12
BRANCH  11  31
HETATM   31  N7  UNL     1     -20.084  11.677 -20.337  1.00  0.00    -0.384 N 
ATOM     32  H72 UNL     1     -20.937  11.752 -19.784  1.00  0.00     0.157 HD
ATOM     33  H71 UNL     1     -20.102  11.832 -21.345  1.00  0.00     0.157 HD
ENDBRANCH  11  31
BRANCH  10  34
HETATM   34  C21 UNL     1     -20.258  10.082 -18.227  1.00  0.00     0.134 C 
BRANCH  34  35
HETATM   35  C22 UNL     1     -20.317   8.584 -18.436  1.00  0.00     0.050 C 
BRANCH  35  36
HETATM   36  C23 UNL     1     -20.850   7.934 -17.177  1.00  0.00     0.274 C 
BRANCH  36  37
HETATM   37  N6  UNL     1     -20.259   6.674 -16.869  1.00  0.00     0.088 N 
HETATM   38  C24 UNL     1     -19.755   6.538 -15.545  1.00  0.00     0.272 C 
HETATM   39  C25 UNL     1     -18.287   6.235 -15.634  1.00  0.00     0.032 C 
HETATM   40  C26 UNL     1     -18.015   5.924 -17.080  1.00  0.00     0.032 C 
HETATM   41  C27 UNL     1     -19.299   6.192 -17.803  1.00  0.00     0.272 C 
ENDBRANCH  36  37
ENDBRANCH  35  36
ENDBRANCH  34  35
ENDBRANCH  10  34
TORSDOF 12
ENDMDL
MODEL 5
REMARK VINA RESULT: -8.567941512      2.351      8.419
REMARK  12 active torsions:
REMARK  status: ('A' for Active; 'I' for Inactive)
REMARK    1  A    between atoms: C2_2  and  C3_3 
REMARK    2  A    between atoms: C3_3  and  C4_4 
REMARK    3  A    between atoms: C4_4  and  C5_5 
REMARK    4  A    between atoms: C5_5  and  O1_6 
REMARK    5  A    between atoms: C5_5  and  C6_8 
REMARK    6  A    between atoms: C6_8  and  N1_9 
REMARK       I    between atoms: N2_17  and  C14_18 
REMARK    7  A    between atoms: C14_18  and  C15_20 
REMARK    8  A    between atoms: N5_29  and  C21_30 
REMARK    9  A    between atoms: C21_30  and  C22_31 
REMARK   10  A    between atoms: C22_31  and  C23_32 
REMARK   11  A    between atoms: C23_32  and  N6_33 
REMARK   12  A    between atoms: C28_38  and  N7_39 
ROOT
HETATM    1  C15 UNL     1     -16.847  12.629 -19.929  1.00  0.00     0.079 A 
HETATM    2  C16 UNL     1     -18.163  12.430 -19.630  1.00  0.00     0.054 A 
HETATM    3  C17 UNL     1     -18.573  11.168 -19.246  1.00  0.00     0.081 A 
HETATM    4  C18 UNL     1     -17.622  10.174 -19.186  1.00  0.00     0.137 A 
HETATM    5  N3  UNL     1     -18.283   9.059 -18.791  1.00  0.00    -0.336 N 
ATOM      6  H3  UNL     1     -17.855   8.144 -18.650  1.00  0.00     0.168 HD
HETATM    7  C19 UNL     1     -19.594   9.339 -18.609  1.00  0.00     0.184 A 
HETATM    8  N4  UNL     1     -19.768  10.638 -18.891  1.00  0.00    -0.344 N 
HETATM    9  C20 UNL     1     -21.018  11.352 -18.828  1.00  0.00     0.157 C 
HETATM   10  N5  UNL     1     -16.334  10.350 -19.475  1.00  0.00    -0.317 N 
HETATM   11  C28 UNL     1     -15.938  11.595 -19.852  1.00  0.00     0.118 A 
ENDROOT
BRANCH   1  12
HETATM   12  C14 UNL     1     -16.328  13.949 -20.348  1.00  0.00     0.272 C 
HETATM   13  N2  UNL     1     -16.445  14.377 -21.662  1.00  0.00    -0.275 N 
HETATM   14  N1  UNL     1     -16.050  15.545 -22.315  1.00  0.00    -0.223 NA
HETATM   15  C13 UNL     1     -17.120  13.551 -22.724  1.00  0.00     0.157 C 
HETATM   16  C7  UNL     1     -17.193  15.871 -23.133  1.00  0.00     0.125 C 
HETATM   17  C8  UNL     1     -18.001  14.631 -23.308  1.00  0.00    -0.009 C 
HETATM   18  C9  UNL     1     -19.337  14.691 -22.603  1.00  0.00     0.012 C 
HETATM   19  C12 UNL     1     -18.361  14.342 -24.749  1.00  0.00     0.012 C 
HETATM   20  C10 UNL     1     -20.371  15.092 -23.619  1.00  0.00     0.001 C 
HETATM   21  C11 UNL     1     -19.849  14.473 -24.881  1.00  0.00     0.001 C 
HETATM   22  O2  UNL     1     -15.800  14.615 -19.449  1.00  0.00    -0.266 OA
BRANCH  14  23
HETATM   23  C6  UNL     1     -15.610  16.530 -21.429  1.00  0.00     0.145 C 
BRANCH  23  24
HETATM   24  C5  UNL     1     -14.249  17.113 -21.711  1.00  0.00     0.133 C 
BRANCH  24  25
HETATM   25  C4  UNL     1     -13.608  16.675 -22.978  1.00  0.00     0.033 C 
BRANCH  25  26
HETATM   26  C3  UNL     1     -12.774  15.425 -22.860  1.00  0.00     0.002 C 
BRANCH  26  27
HETATM   27  C2  UNL     1     -12.464  15.110 -21.408  1.00  0.00    -0.004 C 
HETATM   28  C1  UNL     1     -12.129  13.681 -21.150  1.00  0.00     0.005 C 
ENDBRANCH  26  27
ENDBRANCH  25  26
ENDBRANCH  24  25
BRANCH  24  29
HETATM   29  O1  UNL     1     -14.287  18.531 -21.624  1.00  0.00    -0.394 OA
ATOM     30  H1  UNL     1     -13.462  18.913 -21.898  1.00  0.00     0.210 HD
ENDBRANCH  24  29
ENDBRANCH  23  24
ENDBRANCH  14  23
ENDBRANCH   1  12
BRANCH  11  31
HETATM   31  N7  UNL     1     -14.686  11.808 -20.143  1.00  0.00    -0.384 N 
ATOM     32  H72 UNL     1     -14.238  12.668 -19.827  1.00  0.00     0.157 HD
ATOM     33  H71 UNL     1     -14.164  11.116 -20.680  1.00  0.00     0.157 HD
ENDBRANCH  11  31
BRANCH  10  34
HETATM   34  C21 UNL     1     -15.316   9.336 -19.425  1.00  0.00     0.134 C 
BRANCH  34  35
HETATM   35  C22 UNL     1     -15.215   8.801 -18.012  1.00  0.00     0.050 C 
BRANCH  35  36
HETATM   36  C23 UNL     1     -14.224   9.645 -17.238  1.00  0.00     0.274 C 
BRANCH  36  37
HETATM   37  N6  UNL     1     -14.265   9.455 -15.826  1.00  0.00     0.088 N 
HETATM   38  C24 UNL     1     -13.040   9.052 -15.223  1.00  0.00     0.272 C 
HETATM   39  C25 UNL     1     -13.268   7.734 -14.542  1.00  0.00     0.032 C 
HETATM   40  C26 UNL     1     -14.757   7.521 -14.538  1.00  0.00     0.032 C 
HETATM   41  C27 UNL     1     -15.332   8.650 -15.337  1.00  0.00     0.272 C 
ENDBRANCH  36  37
ENDBRANCH  35  36
ENDBRANCH  34  35
ENDBRANCH  10  34
TORSDOF 12
ENDMDL
