MODEL 1
REMARK VINA RESULT: -7.676414787      0.000      0.000
REMARK  13 active torsions:
REMARK  status: ('A' for Active; 'I' for Inactive)
REMARK    1  A    between atoms: C2_2  and  C3_3 
REMARK    2  A    between atoms: C3_3  and  C4_4 
REMARK    3  A    between atoms: C4_4  and  N1_5 
REMARK       I    between atoms: N1_5  and  C5_6 
REMARK    4  A    between atoms: N1_5  and  C13_20 
REMARK    5  A    between atoms: C5_6  and  C6_8 
REMARK    6  A    between atoms: C6_8  and  C7_9 
REMARK    7  A    between atoms: C7_9  and  C8_10 
REMARK       I    between atoms: C8_10  and  N2_12 
REMARK    8  A    between atoms: C14_21  and  N4_22 
REMARK    9  A    between atoms: N4_22  and  C15_24 
REMARK   10  A    between atoms: C15_24  and  C17_26 
REMARK   11  A    between atoms: N5_30  and  C21_31 
REMARK   12  A    between atoms: C21_31  and  C22_32 
REMARK   13  A    between atoms: C22_32  and  C23_33 
ROOT
HETATM    1  C13 UNL     1     -18.587  10.767 -18.951  1.00  0.00     0.150 A 
HETATM    2  C14 UNL     1     -17.974   9.652 -18.477  1.00  0.00     0.141 A 
HETATM    3  N5  UNL     1     -18.803   8.705 -17.873  1.00  0.00    -0.283 N 
HETATM    4  C25 UNL     1     -20.123   8.905 -17.780  1.00  0.00     0.331 A 
HETATM    5  O3  UNL     1     -20.855   8.005 -17.213  1.00  0.00    -0.246 OA
HETATM    6  N6  UNL     1     -20.735   9.999 -18.247  1.00  0.00    -0.273 N 
ATOM      7  H6  UNL     1     -21.744  10.111 -18.156  1.00  0.00     0.173 HD
HETATM    8  C26 UNL     1     -19.997  10.933 -18.831  1.00  0.00     0.280 A 
HETATM    9  O4  UNL     1     -20.591  11.946 -19.264  1.00  0.00    -0.265 OA
ENDROOT
BRANCH   1  10
HETATM   10  N1  UNL     1     -17.982  11.904 -19.545  1.00  0.00    -0.310 N 
HETATM   11  C5  UNL     1     -17.614  13.101 -18.909  1.00  0.00     0.225 C 
HETATM   12  O1  UNL     1     -17.720  13.157 -17.655  1.00  0.00    -0.273 OA
BRANCH  10  13
HETATM   13  C4  UNL     1     -17.537  11.744 -20.926  1.00  0.00     0.132 C 
BRANCH  13  14
HETATM   14  C3  UNL     1     -18.447  12.083 -22.019  1.00  0.00     0.020 C 
BRANCH  14  15
HETATM   15  C2  UNL     1     -18.002  13.302 -22.813  1.00  0.00    -0.003 C 
HETATM   16  C1  UNL     1     -19.083  14.359 -22.834  1.00  0.00     0.005 C 
ENDBRANCH  14  15
ENDBRANCH  13  14
ENDBRANCH  10  13
BRANCH  11  17
HETATM   17  C6  UNL     1     -17.111  14.299 -19.607  1.00  0.00     0.112 C 
BRANCH  17  18
HETATM   18  C7  UNL     1     -15.636  14.165 -19.918  1.00  0.00     0.112 C 
BRANCH  18  19
HETATM   19  C8  UNL     1     -14.989  15.487 -19.938  1.00  0.00     0.220 C 
HETATM   20  O2  UNL     1     -14.577  15.968 -18.853  1.00  0.00    -0.273 OA
HETATM   21  N2  UNL     1     -14.805  16.250 -21.115  1.00  0.00    -0.349 N 
HETATM   22  C9  UNL     1     -14.170  17.539 -21.089  1.00  0.00     0.153 C 
HETATM   23  C12 UNL     1     -15.264  15.718 -22.372  1.00  0.00     0.153 C 
HETATM   24  C10 UNL     1     -14.627  18.318 -22.302  1.00  0.00     0.252 C 
HETATM   25  N3  UNL     1     -16.042  17.981 -22.490  1.00  0.00    -0.072 N 
HETATM   26  C11 UNL     1     -16.042  16.704 -23.191  1.00  0.00     0.252 C 
ATOM     27  H32 UNL     1     -16.583  17.976 -21.625  1.00  0.00     0.277 HD
ATOM     28  H31 UNL     1     -16.580  18.709 -22.961  1.00  0.00     0.277 HD
ENDBRANCH  18  19
ENDBRANCH  17  18
ENDBRANCH  11  17
ENDBRANCH   1  10
BRANCH   2  29
HETATM   29  N4  UNL     1     -16.632   9.267 -18.603  1.00  0.00    -0.369 N 
ATOM     30  H4  UNL     1     -16.423   9.059 -19.580  1.00  0.00     0.161 HD
BRANCH  29  31
HETATM   31  C15 UNL     1     -15.482   9.074 -17.820  1.00  0.00     0.086 C 
HETATM   32  C16 UNL     1     -14.469   8.070 -18.276  1.00  0.00     0.033 C 
BRANCH  31  33
HETATM   33  C17 UNL     1     -14.645  10.394 -17.744  1.00  0.00    -0.031 C 
HETATM   34  C18 UNL     1     -13.297   9.985 -17.214  1.00  0.00     0.016 C 
HETATM   35  C19 UNL     1     -14.465  10.997 -19.094  1.00  0.00     0.016 C 
HETATM   36  C20 UNL     1     -15.262  11.319 -16.727  1.00  0.00     0.016 C 
ENDBRANCH  31  33
ENDBRANCH  29  31
ENDBRANCH   2  29
BRANCH   3  37
HETATM   37  C21 UNL     1     -18.323   7.458 -17.328  1.00  0.00     0.135 C 
BRANCH  37  38
HETATM   38  C22 UNL     1     -18.051   7.455 -15.871  1.00  0.00     0.020 C 
BRANCH  38  39
HETATM   39  C23 UNL     1     -16.900   6.527 -15.520  1.00  0.00    -0.003 C 
HETATM   40  C24 UNL     1     -15.821   7.214 -14.744  1.00  0.00     0.005 C 
ENDBRANCH  38  39
ENDBRANCH  37  38
ENDBRANCH   3  37
TORSDOF 13
ENDMDL
MODEL 2
REMARK VINA RESULT: -7.674282118      1.291      1.855
REMARK  13 active torsions:
REMARK  status: ('A' for Active; 'I' for Inactive)
REMARK    1  A    between atoms: C2_2  and  C3_3 
REMARK    2  A    between atoms: C3_3  and  C4_4 
REMARK    3  A    between atoms: C4_4  and  N1_5 
REMARK       I    between atoms: N1_5  and  C5_6 
REMARK    4  A    between atoms: N1_5  and  C13_20 
REMARK    5  A    between atoms: C5_6  and  C6_8 
REMARK    6  A    between atoms: C6_8  and  C7_9 
REMARK    7  A    between atoms: C7_9  and  C8_10 
REMARK       I    between atoms: C8_10  and  N2_12 
REMARK    8  A    between atoms: C14_21  and  N4_22 
REMARK    9  A    between atoms: N4_22  and  C15_24 
REMARK   10  A    between atoms: C15_24  and  C17_26 
REMARK   11  A    between atoms: N5_30  and  C21_31 
REMARK   12  A    between atoms: C21_31  and  C22_32 
REMARK   13  A    between atoms: C22_32  and  C23_33 
ROOT
HETATM    1  C13 UNL     1     -17.827   9.999 -18.150  1.00  0.00     0.150 A 
HETATM    2  C14 UNL     1     -17.627   9.049 -17.201  1.00  0.00     0.141 A 
HETATM    3  N5  UNL     1     -18.762   8.353 -16.779  1.00  0.00    -0.283 N 
HETATM    4  C25 UNL     1     -19.966   8.623 -17.295  1.00  0.00     0.331 A 
HETATM    5  O3  UNL     1     -20.990   7.958 -16.878  1.00  0.00    -0.246 OA
HETATM    6  N6  UNL     1     -20.171   9.555 -18.233  1.00  0.00    -0.273 N 
ATOM      7  H6  UNL     1     -21.107   9.728 -18.600  1.00  0.00     0.173 HD
HETATM    8  C26 UNL     1     -19.130  10.248 -18.672  1.00  0.00     0.280 A 
HETATM    9  O4  UNL     1     -19.344  11.112 -19.551  1.00  0.00    -0.265 OA
ENDROOT
BRANCH   1  10
HETATM   10  N1  UNL     1     -16.871  10.888 -18.704  1.00  0.00    -0.310 N 
HETATM   11  C5  UNL     1     -16.561  12.186 -18.263  1.00  0.00     0.225 C 
HETATM   12  O1  UNL     1     -17.096  12.588 -17.196  1.00  0.00    -0.273 OA
BRANCH  10  13
HETATM   13  C4  UNL     1     -15.996  10.330 -19.729  1.00  0.00     0.132 C 
BRANCH  13  14
HETATM   14  C3  UNL     1     -16.497  10.166 -21.092  1.00  0.00     0.020 C 
BRANCH  14  15
HETATM   15  C2  UNL     1     -16.323  11.413 -21.949  1.00  0.00    -0.003 C 
HETATM   16  C1  UNL     1     -17.656  12.068 -22.230  1.00  0.00     0.005 C 
ENDBRANCH  14  15
ENDBRANCH  13  14
ENDBRANCH  10  13
BRANCH  11  17
HETATM   17  C6  UNL     1     -15.652  13.112 -18.964  1.00  0.00     0.112 C 
BRANCH  17  18
HETATM   18  C7  UNL     1     -16.423  14.244 -19.606  1.00  0.00     0.112 C 
BRANCH  18  19
HETATM   19  C8  UNL     1     -15.513  15.331 -20.003  1.00  0.00     0.220 C 
HETATM   20  O2  UNL     1     -14.733  15.803 -19.138  1.00  0.00    -0.273 OA
HETATM   21  N2  UNL     1     -15.468  15.876 -21.307  1.00  0.00    -0.349 N 
HETATM   22  C9  UNL     1     -14.564  16.940 -21.651  1.00  0.00     0.153 C 
HETATM   23  C12 UNL     1     -16.349  15.349 -22.317  1.00  0.00     0.153 C 
HETATM   24  C10 UNL     1     -15.125  17.671 -22.851  1.00  0.00     0.252 C 
HETATM   25  N3  UNL     1     -16.579  17.710 -22.658  1.00  0.00    -0.072 N 
HETATM   26  C11 UNL     1     -17.059  16.409 -23.105  1.00  0.00     0.252 C 
ATOM     27  H32 UNL     1     -16.862  17.949 -21.708  1.00  0.00     0.277 HD
ATOM     28  H31 UNL     1     -17.034  18.497 -23.119  1.00  0.00     0.277 HD
ENDBRANCH  18  19
ENDBRANCH  17  18
ENDBRANCH  11  17
ENDBRANCH   1  10
BRANCH   2  29
HETATM   29  N4  UNL     1     -16.418   8.592 -16.658  1.00  0.00    -0.369 N 
ATOM     30  H4  UNL     1     -16.105   7.763 -17.162  1.00  0.00     0.161 HD
BRANCH  29  31
HETATM   31  C15 UNL     1     -15.498   8.906 -15.643  1.00  0.00     0.086 C 
HETATM   32  C16 UNL     1     -15.242   7.890 -14.573  1.00  0.00     0.033 C 
BRANCH  31  33
HETATM   33  C17 UNL     1     -14.073   9.133 -16.248  1.00  0.00    -0.031 C 
HETATM   34  C18 UNL     1     -14.032   8.301 -17.501  1.00  0.00     0.016 C 
HETATM   35  C19 UNL     1     -13.864  10.561 -16.615  1.00  0.00     0.016 C 
HETATM   36  C20 UNL     1     -13.036   8.574 -15.308  1.00  0.00     0.016 C 
ENDBRANCH  31  33
ENDBRANCH  29  31
ENDBRANCH   2  29
BRANCH   3  37
HETATM   37  C21 UNL     1     -18.729   7.303 -15.791  1.00  0.00     0.135 C 
BRANCH  37  38
HETATM   38  C22 UNL     1     -18.584   5.925 -16.321  1.00  0.00     0.020 C 
BRANCH  38  39
HETATM   39  C23 UNL     1     -17.390   5.214 -15.706  1.00  0.00    -0.003 C 
HETATM   40  C24 UNL     1     -16.281   4.998 -16.687  1.00  0.00     0.005 C 
ENDBRANCH  38  39
ENDBRANCH  37  38
ENDBRANCH   3  37
TORSDOF 13
ENDMDL
MODEL 3
REMARK VINA RESULT: -7.670279721      4.453      8.379
REMARK  13 active torsions:
REMARK  status: ('A' for Active; 'I' for Inactive)
REMARK    1  A    between atoms: C2_2  and  C3_3 
REMARK    2  A    between atoms: C3_3  and  C4_4 
REMARK    3  A    between atoms: C4_4  and  N1_5 
REMARK       I    between atoms: N1_5  and  C5_6 
REMARK    4  A    between atoms: N1_5  and  C13_20 
REMARK    5  A    between atoms: C5_6  and  C6_8 
REMARK    6  A    between atoms: C6_8  and  C7_9 
REMARK    7  A    between atoms: C7_9  and  C8_10 
REMARK       I    between atoms: C8_10  and  N2_12 
REMARK    8  A    between atoms: C14_21  and  N4_22 
REMARK    9  A    between atoms: N4_22  and  C15_24 
REMARK   10  A    between atoms: C15_24  and  C17_26 
REMARK   11  A    between atoms: N5_30  and  C21_31 
REMARK   12  A    between atoms: C21_31  and  C22_32 
REMARK   13  A    between atoms: C22_32  and  C23_33 
ROOT
HETATM    1  C13 UNL     1     -15.333  16.638 -22.237  1.00  0.00     0.150 A 
HETATM    2  C14 UNL     1     -16.429  15.868 -22.458  1.00  0.00     0.141 A 
HETATM    3  N5  UNL     1     -16.758  14.962 -21.447  1.00  0.00    -0.283 N 
HETATM    4  C25 UNL     1     -16.021  14.877 -20.333  1.00  0.00     0.331 A 
HETATM    5  O3  UNL     1     -16.357  14.026 -19.423  1.00  0.00    -0.246 OA
HETATM    6  N6  UNL     1     -14.942  15.634 -20.107  1.00  0.00    -0.273 N 
ATOM      7  H6  UNL     1     -14.409  15.539 -19.243  1.00  0.00     0.173 HD
HETATM    8  C26 UNL     1     -14.582  16.513 -21.033  1.00  0.00     0.280 A 
HETATM    9  O4  UNL     1     -13.572  17.214 -20.798  1.00  0.00    -0.265 OA
ENDROOT
BRANCH   1  10
HETATM   10  N1  UNL     1     -14.745  17.583 -23.116  1.00  0.00    -0.310 N 
HETATM   11  C5  UNL     1     -13.721  17.353 -24.050  1.00  0.00     0.225 C 
HETATM   12  O1  UNL     1     -13.340  16.166 -24.225  1.00  0.00    -0.273 OA
BRANCH  10  13
HETATM   13  C4  UNL     1     -15.393  18.889 -23.179  1.00  0.00     0.132 C 
BRANCH  13  14
HETATM   14  C3  UNL     1     -15.110  19.883 -22.146  1.00  0.00     0.020 C 
BRANCH  14  15
HETATM   15  C2  UNL     1     -13.689  20.425 -22.209  1.00  0.00    -0.003 C 
HETATM   16  C1  UNL     1     -13.173  20.753 -20.826  1.00  0.00     0.005 C 
ENDBRANCH  14  15
ENDBRANCH  13  14
ENDBRANCH  10  13
BRANCH  11  17
HETATM   17  C6  UNL     1     -13.059  18.408 -24.841  1.00  0.00     0.112 C 
BRANCH  17  18
HETATM   18  C7  UNL     1     -13.656  18.499 -26.228  1.00  0.00     0.112 C 
BRANCH  18  19
HETATM   19  C8  UNL     1     -14.143  19.863 -26.494  1.00  0.00     0.220 C 
HETATM   20  O2  UNL     1     -13.585  20.822 -25.906  1.00  0.00    -0.273 OA
HETATM   21  N2  UNL     1     -15.209  20.154 -27.377  1.00  0.00    -0.349 N 
HETATM   22  C9  UNL     1     -15.654  21.502 -27.605  1.00  0.00     0.153 C 
HETATM   23  C12 UNL     1     -15.862  19.072 -28.067  1.00  0.00     0.153 C 
HETATM   24  C10 UNL     1     -17.088  21.453 -28.086  1.00  0.00     0.252 C 
HETATM   25  N3  UNL     1     -17.732  20.375 -27.329  1.00  0.00    -0.072 N 
HETATM   26  C11 UNL     1     -17.359  19.146 -28.017  1.00  0.00     0.252 C 
ATOM     27  H32 UNL     1     -17.504  20.376 -26.334  1.00  0.00     0.277 HD
ATOM     28  H31 UNL     1     -18.739  20.494 -27.218  1.00  0.00     0.277 HD
ENDBRANCH  18  19
ENDBRANCH  17  18
ENDBRANCH  11  17
ENDBRANCH   1  10
BRANCH   2  29
HETATM   29  N4  UNL     1     -17.345  15.927 -23.518  1.00  0.00    -0.369 N 
ATOM     30  H4  UNL     1     -17.075  15.263 -24.244  1.00  0.00     0.161 HD
BRANCH  29  31
HETATM   31  C15 UNL     1     -18.514  16.604 -23.904  1.00  0.00     0.086 C 
HETATM   32  C16 UNL     1     -18.377  17.871 -24.691  1.00  0.00     0.033 C 
BRANCH  31  33
HETATM   33  C17 UNL     1     -19.378  15.706 -24.850  1.00  0.00    -0.031 C 
HETATM   34  C18 UNL     1     -20.026  16.654 -25.824  1.00  0.00     0.016 C 
HETATM   35  C19 UNL     1     -18.528  14.748 -25.610  1.00  0.00     0.016 C 
HETATM   36  C20 UNL     1     -20.483  15.060 -24.054  1.00  0.00     0.016 C 
ENDBRANCH  31  33
ENDBRANCH  29  31
ENDBRANCH   2  29
BRANCH   3  37
HETATM   37  C21 UNL     1     -17.896  14.078 -21.510  1.00  0.00     0.135 C 
BRANCH  37  38
HETATM   38  C22 UNL     1     -17.701  12.832 -22.290  1.00  0.00     0.020 C 
BRANCH  38  39
HETATM   39  C23 UNL     1     -18.391  11.648 -21.633  1.00  0.00    -0.003 C 
HETATM   40  C24 UNL     1     -19.312  12.059 -20.527  1.00  0.00     0.005 C 
ENDBRANCH  38  39
ENDBRANCH  37  38
ENDBRANCH   3  37
TORSDOF 13
ENDMDL
MODEL 4
REMARK VINA RESULT: -7.568204621      2.324      9.051
REMARK  13 active torsions:
REMARK  status: ('A' for Active; 'I' for Inactive)
REMARK    1  A    between atoms: C2_2  and  C3_3 
REMARK    2  A    between atoms: C3_3  and  C4_4 
REMARK    3  A    between atoms: C4_4  and  N1_5 
REMARK       I    between atoms: N1_5  and  C5_6 
REMARK    4  A    between atoms: N1_5  and  C13_20 
REMARK    5  A    between atoms: C5_6  and  C6_8 
REMARK    6  A    between atoms: C6_8  and  C7_9 
REMARK    7  A    between atoms: C7_9  and  C8_10 
REMARK       I    between atoms: C8_10  and  N2_12 
REMARK    8  A    between atoms: C14_21  and  N4_22 
REMARK    9  A    between atoms: N4_22  and  C15_24 
REMARK   10  A    between atoms: C15_24  and  C17_26 
REMARK   11  A    between atoms: N5_30  and  C21_31 
REMARK   12  A    between atoms: C21_31  and  C22_32 
REMARK   13  A    between atoms: C22_32  and  C23_33 
ROOT
HETATM    1  C13 UNL     1     -15.861  13.689 -21.662  1.00  0.00     0.150 A 
HETATM    2  C14 UNL     1     -15.675  14.781 -22.448  1.00  0.00     0.141 A 
HETATM    3  N5  UNL     1     -14.372  15.281 -22.505  1.00  0.00    -0.283 N 
HETATM    4  C25 UNL     1     -13.380  14.699 -21.820  1.00  0.00     0.331 A 
HETATM    5  O3  UNL     1     -12.190  15.192 -21.900  1.00  0.00    -0.246 OA
HETATM    6  N6  UNL     1     -13.555  13.621 -21.048  1.00  0.00    -0.273 N 
ATOM      7  H6  UNL     1     -12.772  13.208 -20.543  1.00  0.00     0.173 HD
HETATM    8  C26 UNL     1     -14.773  13.103 -20.954  1.00  0.00     0.280 A 
HETATM    9  O4  UNL     1     -14.912  12.092 -20.229  1.00  0.00    -0.265 OA
ENDROOT
BRANCH   1  10
HETATM   10  N1  UNL     1     -17.081  13.025 -21.376  1.00  0.00    -0.310 N 
HETATM   11  C5  UNL     1     -17.482  11.754 -21.822  1.00  0.00     0.225 C 
HETATM   12  O1  UNL     1     -16.644  11.062 -22.458  1.00  0.00    -0.273 OA
BRANCH  10  13
HETATM   13  C4  UNL     1     -17.930  13.652 -20.369  1.00  0.00     0.132 C 
BRANCH  13  14
HETATM   14  C3  UNL     1     -17.454  13.760 -18.991  1.00  0.00     0.020 C 
BRANCH  14  15
HETATM   15  C2  UNL     1     -18.092  12.742 -18.056  1.00  0.00    -0.003 C 
HETATM   16  C1  UNL     1     -17.140  11.604 -17.765  1.00  0.00     0.005 C 
ENDBRANCH  14  15
ENDBRANCH  13  14
ENDBRANCH  10  13
BRANCH  11  17
HETATM   17  C6  UNL     1     -18.820  11.174 -21.599  1.00  0.00     0.112 C 
BRANCH  17  18
HETATM   18  C7  UNL     1     -18.727   9.888 -20.808  1.00  0.00     0.112 C 
BRANCH  18  19
HETATM   19  C8  UNL     1     -19.752   9.853 -19.753  1.00  0.00     0.220 C 
HETATM   20  O2  UNL     1     -20.643  10.740 -19.755  1.00  0.00    -0.273 OA
HETATM   21  N2  UNL     1     -19.792   8.875 -18.732  1.00  0.00    -0.349 N 
HETATM   22  C9  UNL     1     -20.811   8.880 -17.719  1.00  0.00     0.153 C 
HETATM   23  C12 UNL     1     -18.785   7.845 -18.711  1.00  0.00     0.153 C 
HETATM   24  C10 UNL     1     -20.283   8.139 -16.510  1.00  0.00     0.252 C 
HETATM   25  N3  UNL     1     -18.864   8.494 -16.405  1.00  0.00    -0.072 N 
HETATM   26  C11 UNL     1     -18.180   7.627 -17.356  1.00  0.00     0.252 C 
ATOM     27  H32 UNL     1     -18.676   9.487 -16.545  1.00  0.00     0.277 HD
ATOM     28  H31 UNL     1     -18.494   8.437 -15.456  1.00  0.00     0.277 HD
ENDBRANCH  18  19
ENDBRANCH  17  18
ENDBRANCH  11  17
ENDBRANCH   1  10
BRANCH   2  29
HETATM   29  N4  UNL     1     -16.589  15.420 -23.296  1.00  0.00    -0.369 N 
ATOM     30  H4  UNL     1     -16.267  15.354 -24.262  1.00  0.00     0.161 HD
BRANCH  29  31
HETATM   31  C15 UNL     1     -17.807  16.120 -23.247  1.00  0.00     0.086 C 
HETATM   32  C16 UNL     1     -17.852  17.509 -23.805  1.00  0.00     0.033 C 
BRANCH  31  33
HETATM   33  C17 UNL     1     -18.898  15.378 -24.087  1.00  0.00    -0.031 C 
HETATM   34  C18 UNL     1     -19.746  16.464 -24.693  1.00  0.00     0.016 C 
HETATM   35  C19 UNL     1     -18.284  14.582 -25.186  1.00  0.00     0.016 C 
HETATM   36  C20 UNL     1     -19.785  14.583 -23.163  1.00  0.00     0.016 C 
ENDBRANCH  31  33
ENDBRANCH  29  31
ENDBRANCH   2  29
BRANCH   3  37
HETATM   37  C21 UNL     1     -13.992  16.424 -23.299  1.00  0.00     0.135 C 
BRANCH  37  38
HETATM   38  C22 UNL     1     -14.101  17.740 -22.625  1.00  0.00     0.020 C 
BRANCH  38  39
HETATM   39  C23 UNL     1     -14.387  18.854 -23.619  1.00  0.00    -0.003 C 
HETATM   40  C24 UNL     1     -15.135  19.995 -23.005  1.00  0.00     0.005 C 
ENDBRANCH  38  39
ENDBRANCH  37  38
ENDBRANCH   3  37
TORSDOF 13
ENDMDL
MODEL 5
REMARK VINA RESULT: -7.496746698      2.156      3.257
REMARK  13 active torsions:
REMARK  status: ('A' for Active; 'I' for Inactive)
REMARK    1  A    between atoms: C2_2  and  C3_3 
REMARK    2  A    between atoms: C3_3  and  C4_4 
REMARK    3  A    between atoms: C4_4  and  N1_5 
REMARK       I    between atoms: N1_5  and  C5_6 
REMARK    4  A    between atoms: N1_5  and  C13_20 
REMARK    5  A    between atoms: C5_6  and  C6_8 
REMARK    6  A    between atoms: C6_8  and  C7_9 
REMARK    7  A    between atoms: C7_9  and  C8_10 
REMARK       I    between atoms: C8_10  and  N2_12 
REMARK    8  A    between atoms: C14_21  and  N4_22 
REMARK    9  A    between atoms: N4_22  and  C15_24 
REMARK   10  A    between atoms: C15_24  and  C17_26 
REMARK   11  A    between atoms: N5_30  and  C21_31 
REMARK   12  A    between atoms: C21_31  and  C22_32 
REMARK   13  A    between atoms: C22_32  and  C23_33 
ROOT
HETATM    1  C13 UNL     1     -18.232  10.318 -19.716  1.00  0.00     0.150 A 
HETATM    2  C14 UNL     1     -17.822   9.695 -18.580  1.00  0.00     0.141 A 
HETATM    3  N5  UNL     1     -18.455   8.487 -18.280  1.00  0.00    -0.283 N 
HETATM    4  C25 UNL     1     -19.405   7.989 -19.081  1.00  0.00     0.331 A 
HETATM    5  O3  UNL     1     -19.966   6.870 -18.768  1.00  0.00    -0.246 OA
HETATM    6  N6  UNL     1     -19.811   8.595 -20.202  1.00  0.00    -0.273 N 
ATOM      7  H6  UNL     1     -20.538   8.181 -20.785  1.00  0.00     0.173 HD
HETATM    8  C26 UNL     1     -19.246   9.747 -20.538  1.00  0.00     0.280 A 
HETATM    9  O4  UNL     1     -19.638  10.294 -21.593  1.00  0.00    -0.265 OA
ENDROOT
BRANCH   1  10
HETATM   10  N1  UNL     1     -17.808  11.575 -20.217  1.00  0.00    -0.310 N 
HETATM   11  C5  UNL     1     -18.249  12.845 -19.808  1.00  0.00     0.225 C 
HETATM   12  O1  UNL     1     -19.023  12.908 -18.817  1.00  0.00    -0.273 OA
BRANCH  10  13
HETATM   13  C4  UNL     1     -16.668  11.550 -21.127  1.00  0.00     0.132 C 
BRANCH  13  14
HETATM   14  C3  UNL     1     -15.353  11.966 -20.644  1.00  0.00     0.020 C 
BRANCH  14  15
HETATM   15  C2  UNL     1     -14.833  13.224 -21.327  1.00  0.00    -0.003 C 
HETATM   16  C1  UNL     1     -13.399  13.499 -20.934  1.00  0.00     0.005 C 
ENDBRANCH  14  15
ENDBRANCH  13  14
ENDBRANCH  10  13
BRANCH  11  17
HETATM   17  C6  UNL     1     -17.869  14.112 -20.462  1.00  0.00     0.112 C 
BRANCH  17  18
HETATM   18  C7  UNL     1     -18.675  14.332 -21.724  1.00  0.00     0.112 C 
BRANCH  18  19
HETATM   19  C8  UNL     1     -18.044  15.361 -22.568  1.00  0.00     0.220 C 
HETATM   20  O2  UNL     1     -16.968  15.878 -22.176  1.00  0.00    -0.273 OA
HETATM   21  N2  UNL     1     -18.584  15.801 -23.799  1.00  0.00    -0.349 N 
HETATM   22  C9  UNL     1     -17.935  16.810 -24.590  1.00  0.00     0.153 C 
HETATM   23  C12 UNL     1     -19.814  15.219 -24.272  1.00  0.00     0.153 C 
HETATM   24  C10 UNL     1     -18.976  17.460 -25.477  1.00  0.00     0.252 C 
HETATM   25  N3  UNL     1     -20.196  17.551 -24.668  1.00  0.00    -0.072 N 
HETATM   26  C11 UNL     1     -20.810  16.232 -24.750  1.00  0.00     0.252 C 
ATOM     27  H32 UNL     1     -20.035  17.872 -23.713  1.00  0.00     0.277 HD
ATOM     28  H31 UNL     1     -20.817  18.312 -24.945  1.00  0.00     0.277 HD
ENDBRANCH  18  19
ENDBRANCH  17  18
ENDBRANCH  11  17
ENDBRANCH   1  10
BRANCH   2  29
HETATM   29  N4  UNL     1     -16.775  10.043 -17.717  1.00  0.00    -0.369 N 
ATOM     30  H4  UNL     1     -17.127  10.122 -16.762  1.00  0.00     0.161 HD
BRANCH  29  31
HETATM   31  C15 UNL     1     -15.397  10.318 -17.739  1.00  0.00     0.086 C 
HETATM   32  C16 UNL     1     -14.911  11.578 -17.094  1.00  0.00     0.033 C 
BRANCH  31  33
HETATM   33  C17 UNL     1     -14.606   9.210 -16.966  1.00  0.00    -0.031 C 
HETATM   34  C18 UNL     1     -13.226   9.774 -16.758  1.00  0.00     0.016 C 
HETATM   35  C19 UNL     1     -15.218   8.940 -15.636  1.00  0.00     0.016 C 
HETATM   36  C20 UNL     1     -14.463   7.994 -17.844  1.00  0.00     0.016 C 
ENDBRANCH  31  33
ENDBRANCH  29  31
ENDBRANCH   2  29
BRANCH   3  37
HETATM   37  C21 UNL     1     -18.135   7.686 -17.124  1.00  0.00     0.135 C 
BRANCH  37  38
HETATM   38  C22 UNL     1     -18.787   8.097 -15.857  1.00  0.00     0.020 C 
BRANCH  38  39
HETATM   39  C23 UNL     1     -19.843   7.094 -15.422  1.00  0.00    -0.003 C 
HETATM   40  C24 UNL     1     -21.229   7.656 -15.474  1.00  0.00     0.005 C 
ENDBRANCH  38  39
ENDBRANCH  37  38
ENDBRANCH   3  37
TORSDOF 13
ENDMDL
