MODEL 1
REMARK VINA RESULT: -8.970235340      0.000      0.000
REMARK  13 active torsions:
REMARK  status: ('A' for Active; 'I' for Inactive)
REMARK    1  A    between atoms: C2_2  and  C3_3 
REMARK    2  A    between atoms: C3_3  and  C4_4 
REMARK    3  A    between atoms: C4_4  and  C5_5 
REMARK    4  A    between atoms: C7_9  and  C8_10 
REMARK    5  A    between atoms: C9_12  and  O4_13 
REMARK    6  A    between atoms: C11_16  and  C12_17 
REMARK       I    between atoms: C12_17  and  N1_19 
REMARK    7  A    between atoms: N1_19  and  C13_21 
REMARK    8  A    between atoms: C13_21  and  C14_22 
REMARK    9  A    between atoms: C14_22  and  O6_23 
REMARK   10  A    between atoms: O6_23  and  C15_24 
REMARK       I    between atoms: C15_24  and  N2_26 
REMARK   11  A    between atoms: N2_26  and  C16_27 
REMARK   12  A    between atoms: N2_26  and  C18_29 
REMARK   13  A    between atoms: C27_38  and  O8_39 
ROOT
HETATM    1  C5  UNL     1      -7.988  -3.181 -15.374  1.00  0.00     0.169 C 
HETATM    2  O1  UNL     1      -7.619  -3.152 -13.943  1.00  0.00    -0.312 OA
HETATM    3  C6  UNL     1      -7.136  -1.912 -13.561  1.00  0.00     0.273 C 
HETATM    4  O2  UNL     1      -7.387  -1.351 -12.447  1.00  0.00    -0.264 OA
HETATM    5  C7  UNL     1      -6.261  -1.264 -14.603  1.00  0.00     0.184 C 
HETATM    6  C9  UNL     1      -5.605  -2.240 -15.480  1.00  0.00     0.115 C 
HETATM    7  C10 UNL     1      -4.445  -3.033 -14.971  1.00  0.00     0.042 C 
HETATM    8  C11 UNL     1      -3.266  -2.224 -14.513  1.00  0.00     0.085 C 
HETATM    9  C20 UNL     1      -2.094  -3.184 -14.203  1.00  0.00     0.015 C 
HETATM   10  C21 UNL     1      -1.700  -4.083 -15.288  1.00  0.00     0.005 C 
HETATM   11  C22 UNL     1      -2.971  -4.878 -15.652  1.00  0.00    -0.014 C 
HETATM   12  C23 UNL     1      -2.658  -5.942 -16.654  1.00  0.00     0.010 C 
HETATM   13  C24 UNL     1      -3.889  -3.789 -16.169  1.00  0.00    -0.003 C 
HETATM   14  C25 UNL     1      -4.880  -4.423 -17.065  1.00  0.00     0.009 C 
HETATM   15  C26 UNL     1      -6.147  -4.559 -16.199  1.00  0.00     0.044 C 
HETATM   16  C27 UNL     1      -6.649  -3.150 -16.103  1.00  0.00     0.117 C 
ENDROOT
BRANCH   8  17
HETATM   17  C12 UNL     1      -3.358  -1.521 -13.229  1.00  0.00     0.222 C 
HETATM   18  O5  UNL     1      -3.871  -2.008 -12.203  1.00  0.00    -0.273 OA
HETATM   19  N1  UNL     1      -2.830  -0.210 -13.123  1.00  0.00    -0.359 N 
ATOM     20  H1  UNL     1      -2.405   0.209 -13.950  1.00  0.00     0.162 HD
BRANCH  19  21
HETATM   21  C13 UNL     1      -2.864   0.564 -11.905  1.00  0.00     0.149 C 
BRANCH  21  22
HETATM   22  C14 UNL     1      -2.998   2.014 -12.207  1.00  0.00     0.200 C 
BRANCH  22  23
HETATM   23  O6  UNL     1      -3.775   2.741 -11.292  1.00  0.00    -0.302 OA
BRANCH  23  24
HETATM   24  C15 UNL     1      -4.998   3.304 -11.523  1.00  0.00     0.362 C 
HETATM   25  O7  UNL     1      -5.040   4.437 -12.060  1.00  0.00    -0.238 OA
HETATM   26  N2  UNL     1      -6.232   2.674 -11.187  1.00  0.00    -0.329 N 
BRANCH  26  27
HETATM   27  C16 UNL     1      -7.497   3.324 -11.458  1.00  0.00     0.123 C 
HETATM   28  C17 UNL     1      -8.197   2.612 -12.590  1.00  0.00     0.026 C 
ENDBRANCH  26  27
BRANCH  26  29
HETATM   29  C18 UNL     1      -6.252   1.355 -10.560  1.00  0.00     0.123 C 
HETATM   30  C19 UNL     1      -7.025   1.482  -9.271  1.00  0.00     0.026 C 
ENDBRANCH  26  29
ENDBRANCH  23  24
ENDBRANCH  22  23
ENDBRANCH  21  22
ENDBRANCH  19  21
ENDBRANCH   8  17
BRANCH   6  31
HETATM   31  O4  UNL     1      -5.032  -1.471 -16.546  1.00  0.00    -0.385 OA
ATOM     32  H4  UNL     1      -4.282  -1.030 -16.165  1.00  0.00     0.210 HD
ENDBRANCH   6  31
BRANCH   5  33
HETATM   33  C8  UNL     1      -7.136  -0.358 -15.395  1.00  0.00     0.248 C 
HETATM   34  O3  UNL     1      -6.699   0.695 -15.798  1.00  0.00    -0.306 OA
ENDBRANCH   5  33
BRANCH  16  35
HETATM   35  O8  UNL     1      -6.880  -2.692 -17.388  1.00  0.00    -0.384 OA
ATOM     36  H8  UNL     1      -6.039  -2.620 -17.825  1.00  0.00     0.210 HD
ENDBRANCH  16  35
BRANCH   1  37
HETATM   37  C4  UNL     1      -8.761  -4.450 -15.557  1.00  0.00     0.036 C 
BRANCH  37  38
HETATM   38  C3  UNL     1      -9.910  -4.494 -16.477  1.00  0.00     0.002 C 
BRANCH  38  39
HETATM   39  C2  UNL     1     -10.336  -5.811 -17.008  1.00  0.00    -0.004 C 
HETATM   40  C1  UNL     1      -9.453  -6.982 -16.954  1.00  0.00     0.005 C 
ENDBRANCH  38  39
ENDBRANCH  37  38
ENDBRANCH   1  37
TORSDOF 13
ENDMDL
MODEL 2
REMARK VINA RESULT: -8.671195779      0.898      1.349
REMARK  13 active torsions:
REMARK  status: ('A' for Active; 'I' for Inactive)
REMARK    1  A    between atoms: C2_2  and  C3_3 
REMARK    2  A    between atoms: C3_3  and  C4_4 
REMARK    3  A    between atoms: C4_4  and  C5_5 
REMARK    4  A    between atoms: C7_9  and  C8_10 
REMARK    5  A    between atoms: C9_12  and  O4_13 
REMARK    6  A    between atoms: C11_16  and  C12_17 
REMARK       I    between atoms: C12_17  and  N1_19 
REMARK    7  A    between atoms: N1_19  and  C13_21 
REMARK    8  A    between atoms: C13_21  and  C14_22 
REMARK    9  A    between atoms: C14_22  and  O6_23 
REMARK   10  A    between atoms: O6_23  and  C15_24 
REMARK       I    between atoms: C15_24  and  N2_26 
REMARK   11  A    between atoms: N2_26  and  C16_27 
REMARK   12  A    between atoms: N2_26  and  C18_29 
REMARK   13  A    between atoms: C27_38  and  O8_39 
ROOT
HETATM    1  C5  UNL     1      -7.992  -3.302 -15.481  1.00  0.00     0.169 C 
HETATM    2  O1  UNL     1      -7.629  -3.270 -14.048  1.00  0.00    -0.312 OA
HETATM    3  C6  UNL     1      -7.158  -2.026 -13.664  1.00  0.00     0.273 C 
HETATM    4  O2  UNL     1      -7.417  -1.468 -12.551  1.00  0.00    -0.264 OA
HETATM    5  C7  UNL     1      -6.285  -1.370 -14.702  1.00  0.00     0.184 C 
HETATM    6  C9  UNL     1      -5.617  -2.340 -15.578  1.00  0.00     0.115 C 
HETATM    7  C10 UNL     1      -4.453  -3.124 -15.065  1.00  0.00     0.042 C 
HETATM    8  C11 UNL     1      -3.282  -2.305 -14.603  1.00  0.00     0.085 C 
HETATM    9  C20 UNL     1      -2.103  -3.255 -14.289  1.00  0.00     0.015 C 
HETATM   10  C21 UNL     1      -1.697  -4.150 -15.374  1.00  0.00     0.005 C 
HETATM   11  C22 UNL     1      -2.960  -4.955 -15.742  1.00  0.00    -0.014 C 
HETATM   12  C23 UNL     1      -2.634  -6.016 -16.743  1.00  0.00     0.010 C 
HETATM   13  C24 UNL     1      -3.886  -3.873 -16.262  1.00  0.00    -0.003 C 
HETATM   14  C25 UNL     1      -4.868  -4.516 -17.161  1.00  0.00     0.009 C 
HETATM   15  C26 UNL     1      -6.137  -4.664 -16.300  1.00  0.00     0.044 C 
HETATM   16  C27 UNL     1      -6.652  -3.259 -16.205  1.00  0.00     0.117 C 
ENDROOT
BRANCH   8  17
HETATM   17  C12 UNL     1      -3.384  -1.604 -13.318  1.00  0.00     0.222 C 
HETATM   18  O5  UNL     1      -3.878  -2.103 -12.289  1.00  0.00    -0.273 OA
HETATM   19  N1  UNL     1      -2.892  -0.278 -13.217  1.00  0.00    -0.359 N 
ATOM     20  H1  UNL     1      -2.484   0.151 -14.047  1.00  0.00     0.162 HD
BRANCH  19  21
HETATM   21  C13 UNL     1      -2.938   0.495 -11.999  1.00  0.00     0.149 C 
BRANCH  21  22
HETATM   22  C14 UNL     1      -3.709   1.751 -12.203  1.00  0.00     0.200 C 
BRANCH  22  23
HETATM   23  O6  UNL     1      -5.081   1.571 -12.443  1.00  0.00    -0.302 OA
BRANCH  23  24
HETATM   24  C15 UNL     1      -6.052   1.339 -11.511  1.00  0.00     0.362 C 
HETATM   25  O7  UNL     1      -5.753   0.660 -10.499  1.00  0.00    -0.238 OA
HETATM   26  N2  UNL     1      -7.385   1.828 -11.622  1.00  0.00    -0.329 N 
BRANCH  26  27
HETATM   27  C16 UNL     1      -8.369   1.547 -10.598  1.00  0.00     0.123 C 
HETATM   28  C17 UNL     1      -9.516   0.772 -11.200  1.00  0.00     0.026 C 
ENDBRANCH  26  27
BRANCH  26  29
HETATM   29  C18 UNL     1      -7.796   2.626 -12.775  1.00  0.00     0.123 C 
HETATM   30  C19 UNL     1      -7.732   4.076 -12.365  1.00  0.00     0.026 C 
ENDBRANCH  26  29
ENDBRANCH  23  24
ENDBRANCH  22  23
ENDBRANCH  21  22
ENDBRANCH  19  21
ENDBRANCH   8  17
BRANCH   6  31
HETATM   31  O4  UNL     1      -5.048  -1.566 -16.641  1.00  0.00    -0.385 OA
ATOM     32  H4  UNL     1      -4.127  -1.798 -16.659  1.00  0.00     0.210 HD
ENDBRANCH   6  31
BRANCH   5  33
HETATM   33  C8  UNL     1      -7.165  -0.472 -15.497  1.00  0.00     0.248 C 
HETATM   34  O3  UNL     1      -6.810   0.661 -15.730  1.00  0.00    -0.306 OA
ENDBRANCH   5  33
BRANCH  16  35
HETATM   35  O8  UNL     1      -6.881  -2.802 -17.491  1.00  0.00    -0.384 OA
ATOM     36  H8  UNL     1      -7.305  -3.500 -17.975  1.00  0.00     0.210 HD
ENDBRANCH  16  35
BRANCH   1  37
HETATM   37  C4  UNL     1      -8.754  -4.577 -15.667  1.00  0.00     0.036 C 
BRANCH  37  38
HETATM   38  C3  UNL     1     -10.007  -4.587 -16.440  1.00  0.00     0.002 C 
BRANCH  38  39
HETATM   39  C2  UNL     1     -10.385  -5.834 -17.150  1.00  0.00    -0.004 C 
HETATM   40  C1  UNL     1      -9.593  -7.061 -17.020  1.00  0.00     0.005 C 
ENDBRANCH  38  39
ENDBRANCH  37  38
ENDBRANCH   1  37
TORSDOF 13
ENDMDL
MODEL 3
REMARK VINA RESULT: -8.458697491      1.432      2.050
REMARK  13 active torsions:
REMARK  status: ('A' for Active; 'I' for Inactive)
REMARK    1  A    between atoms: C2_2  and  C3_3 
REMARK    2  A    between atoms: C3_3  and  C4_4 
REMARK    3  A    between atoms: C4_4  and  C5_5 
REMARK    4  A    between atoms: C7_9  and  C8_10 
REMARK    5  A    between atoms: C9_12  and  O4_13 
REMARK    6  A    between atoms: C11_16  and  C12_17 
REMARK       I    between atoms: C12_17  and  N1_19 
REMARK    7  A    between atoms: N1_19  and  C13_21 
REMARK    8  A    between atoms: C13_21  and  C14_22 
REMARK    9  A    between atoms: C14_22  and  O6_23 
REMARK   10  A    between atoms: O6_23  and  C15_24 
REMARK       I    between atoms: C15_24  and  N2_26 
REMARK   11  A    between atoms: N2_26  and  C16_27 
REMARK   12  A    between atoms: N2_26  and  C18_29 
REMARK   13  A    between atoms: C27_38  and  O8_39 
ROOT
HETATM    1  C5  UNL     1      -8.022  -3.211 -15.331  1.00  0.00     0.169 C 
HETATM    2  O1  UNL     1      -7.604  -3.119 -13.916  1.00  0.00    -0.312 OA
HETATM    3  C6  UNL     1      -7.094  -1.869 -13.610  1.00  0.00     0.273 C 
HETATM    4  O2  UNL     1      -7.299  -1.253 -12.516  1.00  0.00    -0.264 OA
HETATM    5  C7  UNL     1      -6.248  -1.282 -14.710  1.00  0.00     0.184 C 
HETATM    6  C9  UNL     1      -5.634  -2.306 -15.563  1.00  0.00     0.115 C 
HETATM    7  C10 UNL     1      -4.466  -3.090 -15.057  1.00  0.00     0.042 C 
HETATM    8  C11 UNL     1      -3.263  -2.275 -14.678  1.00  0.00     0.085 C 
HETATM    9  C20 UNL     1      -2.092  -3.235 -14.363  1.00  0.00     0.015 C 
HETATM   10  C21 UNL     1      -1.746  -4.189 -15.417  1.00  0.00     0.005 C 
HETATM   11  C22 UNL     1      -3.038  -4.984 -15.699  1.00  0.00    -0.014 C 
HETATM   12  C23 UNL     1      -2.771  -6.098 -16.659  1.00  0.00     0.010 C 
HETATM   13  C24 UNL     1      -3.961  -3.908 -16.236  1.00  0.00    -0.003 C 
HETATM   14  C25 UNL     1      -4.990  -4.571 -17.065  1.00  0.00     0.009 C 
HETATM   15  C26 UNL     1      -6.227  -4.650 -16.151  1.00  0.00     0.044 C 
HETATM   16  C27 UNL     1      -6.710  -3.232 -16.105  1.00  0.00     0.117 C 
ENDROOT
BRANCH   8  17
HETATM   17  C12 UNL     1      -3.302  -1.512 -13.426  1.00  0.00     0.222 C 
HETATM   18  O5  UNL     1      -3.718  -1.968 -12.344  1.00  0.00    -0.273 OA
HETATM   19  N1  UNL     1      -2.837  -0.173 -13.422  1.00  0.00    -0.359 N 
ATOM     20  H1  UNL     1      -2.491   0.222 -14.297  1.00  0.00     0.162 HD
BRANCH  19  21
HETATM   21  C13 UNL     1      -2.826   0.660 -12.243  1.00  0.00     0.149 C 
BRANCH  21  22
HETATM   22  C14 UNL     1      -3.910   1.677 -12.310  1.00  0.00     0.200 C 
BRANCH  22  23
HETATM   23  O6  UNL     1      -3.477   3.011 -12.248  1.00  0.00    -0.302 OA
BRANCH  23  24
HETATM   24  C15 UNL     1      -2.690   3.572 -11.283  1.00  0.00     0.362 C 
HETATM   25  O7  UNL     1      -1.491   3.815 -11.561  1.00  0.00    -0.238 OA
HETATM   26  N2  UNL     1      -3.156   3.900  -9.977  1.00  0.00    -0.329 N 
BRANCH  26  27
HETATM   27  C16 UNL     1      -2.271   4.495  -8.998  1.00  0.00     0.123 C 
HETATM   28  C17 UNL     1      -1.511   3.406  -8.279  1.00  0.00     0.026 C 
ENDBRANCH  26  27
BRANCH  26  29
HETATM   29  C18 UNL     1      -4.541   3.643  -9.591  1.00  0.00     0.123 C 
HETATM   30  C19 UNL     1      -4.734   4.207  -8.206  1.00  0.00     0.026 C 
ENDBRANCH  26  29
ENDBRANCH  23  24
ENDBRANCH  22  23
ENDBRANCH  21  22
ENDBRANCH  19  21
ENDBRANCH   8  17
BRANCH   6  31
HETATM   31  O4  UNL     1      -5.090  -1.596 -16.682  1.00  0.00    -0.385 OA
ATOM     32  H4  UNL     1      -4.962  -0.705 -16.380  1.00  0.00     0.210 HD
ENDBRANCH   6  31
BRANCH   5  33
HETATM   33  C8  UNL     1      -7.140  -0.403 -15.515  1.00  0.00     0.248 C 
HETATM   34  O3  UNL     1      -6.829   0.750 -15.708  1.00  0.00    -0.306 OA
ENDBRANCH   5  33
BRANCH  16  35
HETATM   35  O8  UNL     1      -6.979  -2.831 -17.402  1.00  0.00    -0.384 OA
ATOM     36  H8  UNL     1      -7.585  -3.459 -17.779  1.00  0.00     0.210 HD
ENDBRANCH  16  35
BRANCH   1  37
HETATM   37  C4  UNL     1      -8.816  -4.476 -15.426  1.00  0.00     0.036 C 
BRANCH  37  38
HETATM   38  C3  UNL     1      -9.922  -4.589 -16.392  1.00  0.00     0.002 C 
BRANCH  38  39
HETATM   39  C2  UNL     1     -10.211  -5.921 -16.977  1.00  0.00    -0.004 C 
HETATM   40  C1  UNL     1      -9.235  -7.014 -16.918  1.00  0.00     0.005 C 
ENDBRANCH  38  39
ENDBRANCH  37  38
ENDBRANCH   1  37
TORSDOF 13
ENDMDL
MODEL 4
REMARK VINA RESULT: -8.454801713      1.444      2.181
REMARK  13 active torsions:
REMARK  status: ('A' for Active; 'I' for Inactive)
REMARK    1  A    between atoms: C2_2  and  C3_3 
REMARK    2  A    between atoms: C3_3  and  C4_4 
REMARK    3  A    between atoms: C4_4  and  C5_5 
REMARK    4  A    between atoms: C7_9  and  C8_10 
REMARK    5  A    between atoms: C9_12  and  O4_13 
REMARK    6  A    between atoms: C11_16  and  C12_17 
REMARK       I    between atoms: C12_17  and  N1_19 
REMARK    7  A    between atoms: N1_19  and  C13_21 
REMARK    8  A    between atoms: C13_21  and  C14_22 
REMARK    9  A    between atoms: C14_22  and  O6_23 
REMARK   10  A    between atoms: O6_23  and  C15_24 
REMARK       I    between atoms: C15_24  and  N2_26 
REMARK   11  A    between atoms: N2_26  and  C16_27 
REMARK   12  A    between atoms: N2_26  and  C18_29 
REMARK   13  A    between atoms: C27_38  and  O8_39 
ROOT
HETATM    1  C5  UNL     1      -8.034  -3.232 -15.359  1.00  0.00     0.169 C 
HETATM    2  O1  UNL     1      -7.628  -3.136 -13.940  1.00  0.00    -0.312 OA
HETATM    3  C6  UNL     1      -7.140  -1.878 -13.630  1.00  0.00     0.273 C 
HETATM    4  O2  UNL     1      -7.363  -1.267 -12.536  1.00  0.00    -0.264 OA
HETATM    5  C7  UNL     1      -6.295  -1.276 -14.723  1.00  0.00     0.184 C 
HETATM    6  C9  UNL     1      -5.659  -2.290 -15.572  1.00  0.00     0.115 C 
HETATM    7  C10 UNL     1      -4.483  -3.056 -15.058  1.00  0.00     0.042 C 
HETATM    8  C11 UNL     1      -3.295  -2.223 -14.669  1.00  0.00     0.085 C 
HETATM    9  C20 UNL     1      -2.111  -3.165 -14.347  1.00  0.00     0.015 C 
HETATM   10  C21 UNL     1      -1.742  -4.112 -15.399  1.00  0.00     0.005 C 
HETATM   11  C22 UNL     1      -3.020  -4.926 -15.692  1.00  0.00    -0.014 C 
HETATM   12  C23 UNL     1      -2.729  -6.035 -16.651  1.00  0.00     0.010 C 
HETATM   13  C24 UNL     1      -3.956  -3.865 -16.234  1.00  0.00    -0.003 C 
HETATM   14  C25 UNL     1      -4.968  -4.542 -17.072  1.00  0.00     0.009 C 
HETATM   15  C26 UNL     1      -6.210  -4.642 -16.168  1.00  0.00     0.044 C 
HETATM   16  C27 UNL     1      -6.715  -3.232 -16.123  1.00  0.00     0.117 C 
ENDROOT
BRANCH   8  17
HETATM   17  C12 UNL     1      -3.355  -1.463 -13.417  1.00  0.00     0.222 C 
HETATM   18  O5  UNL     1      -3.665  -1.956 -12.315  1.00  0.00    -0.273 OA
HETATM   19  N1  UNL     1      -3.039  -0.081 -13.435  1.00  0.00    -0.359 N 
ATOM     20  H1  UNL     1      -2.782   0.345 -14.326  1.00  0.00     0.162 HD
BRANCH  19  21
HETATM   21  C13 UNL     1      -3.061   0.755 -12.258  1.00  0.00     0.149 C 
BRANCH  21  22
HETATM   22  C14 UNL     1      -4.278   1.610 -12.245  1.00  0.00     0.200 C 
BRANCH  22  23
HETATM   23  O6  UNL     1      -4.059   2.947 -11.878  1.00  0.00    -0.302 OA
BRANCH  23  24
HETATM   24  C15 UNL     1      -4.165   3.480 -10.624  1.00  0.00     0.362 C 
HETATM   25  O7  UNL     1      -5.312   3.637 -10.141  1.00  0.00    -0.238 OA
HETATM   26  N2  UNL     1      -3.045   3.867  -9.834  1.00  0.00    -0.329 N 
BRANCH  26  27
HETATM   27  C16 UNL     1      -3.224   4.426  -8.510  1.00  0.00     0.123 C 
HETATM   28  C17 UNL     1      -2.206   5.517  -8.282  1.00  0.00     0.026 C 
ENDBRANCH  26  27
BRANCH  26  29
HETATM   29  C18 UNL     1      -1.683   3.710 -10.339  1.00  0.00     0.123 C 
HETATM   30  C19 UNL     1      -1.121   2.447  -9.735  1.00  0.00     0.026 C 
ENDBRANCH  26  29
ENDBRANCH  23  24
ENDBRANCH  22  23
ENDBRANCH  21  22
ENDBRANCH  19  21
ENDBRANCH   8  17
BRANCH   6  31
HETATM   31  O4  UNL     1      -5.118  -1.570 -16.686  1.00  0.00    -0.385 OA
ATOM     32  H4  UNL     1      -4.248  -1.301 -16.416  1.00  0.00     0.210 HD
ENDBRANCH   6  31
BRANCH   5  33
HETATM   33  C8  UNL     1      -7.195  -0.411 -15.532  1.00  0.00     0.248 C 
HETATM   34  O3  UNL     1      -6.925   0.759 -15.681  1.00  0.00    -0.306 OA
ENDBRANCH   5  33
BRANCH  16  35
HETATM   35  O8  UNL     1      -6.982  -2.833 -17.422  1.00  0.00    -0.384 OA
ATOM     36  H8  UNL     1      -6.769  -3.559 -17.996  1.00  0.00     0.210 HD
ENDBRANCH  16  35
BRANCH   1  37
HETATM   37  C4  UNL     1      -8.807  -4.510 -15.462  1.00  0.00     0.036 C 
BRANCH  37  38
HETATM   38  C3  UNL     1      -9.953  -4.613 -16.381  1.00  0.00     0.002 C 
BRANCH  38  39
HETATM   39  C2  UNL     1     -10.259  -5.936 -16.977  1.00  0.00    -0.004 C 
HETATM   40  C1  UNL     1      -9.277  -7.025 -16.975  1.00  0.00     0.005 C 
ENDBRANCH  38  39
ENDBRANCH  37  38
ENDBRANCH   1  37
TORSDOF 13
ENDMDL
MODEL 5
REMARK VINA RESULT: -8.306244185      2.264      8.245
REMARK  13 active torsions:
REMARK  status: ('A' for Active; 'I' for Inactive)
REMARK    1  A    between atoms: C2_2  and  C3_3 
REMARK    2  A    between atoms: C3_3  and  C4_4 
REMARK    3  A    between atoms: C4_4  and  C5_5 
REMARK    4  A    between atoms: C7_9  and  C8_10 
REMARK    5  A    between atoms: C9_12  and  O4_13 
REMARK    6  A    between atoms: C11_16  and  C12_17 
REMARK       I    between atoms: C12_17  and  N1_19 
REMARK    7  A    between atoms: N1_19  and  C13_21 
REMARK    8  A    between atoms: C13_21  and  C14_22 
REMARK    9  A    between atoms: C14_22  and  O6_23 
REMARK   10  A    between atoms: O6_23  and  C15_24 
REMARK       I    between atoms: C15_24  and  N2_26 
REMARK   11  A    between atoms: N2_26  and  C16_27 
REMARK   12  A    between atoms: N2_26  and  C18_29 
REMARK   13  A    between atoms: C27_38  and  O8_39 
ROOT
HETATM    1  C5  UNL     1      -2.894   0.340 -12.010  1.00  0.00     0.169 C 
HETATM    2  O1  UNL     1      -3.264  -1.076 -11.799  1.00  0.00    -0.312 OA
HETATM    3  C6  UNL     1      -3.695  -1.674 -12.971  1.00  0.00     0.273 C 
HETATM    4  O2  UNL     1      -3.423  -2.869 -13.313  1.00  0.00    -0.264 OA
HETATM    5  C7  UNL     1      -4.540  -0.770 -13.830  1.00  0.00     0.184 C 
HETATM    6  C9  UNL     1      -5.235   0.264 -13.054  1.00  0.00     0.115 C 
HETATM    7  C10 UNL     1      -6.428  -0.102 -12.231  1.00  0.00     0.042 C 
HETATM    8  C11 UNL     1      -7.573  -0.704 -12.995  1.00  0.00     0.085 C 
HETATM    9  C20 UNL     1      -8.785  -0.845 -12.044  1.00  0.00     0.015 C 
HETATM   10  C21 UNL     1      -9.215   0.381 -11.370  1.00  0.00     0.005 C 
HETATM   11  C22 UNL     1      -7.977   0.888 -10.601  1.00  0.00    -0.014 C 
HETATM   12  C23 UNL     1      -8.333   2.061  -9.745  1.00  0.00     0.010 C 
HETATM   13  C24 UNL     1      -7.013   1.208 -11.725  1.00  0.00    -0.003 C 
HETATM   14  C25 UNL     1      -6.048   2.207 -11.220  1.00  0.00     0.009 C 
HETATM   15  C26 UNL     1      -4.789   1.387 -10.879  1.00  0.00     0.044 C 
HETATM   16  C27 UNL     1      -4.229   1.044 -12.226  1.00  0.00     0.117 C 
ENDROOT
BRANCH   8  17
HETATM   17  C12 UNL     1      -7.454  -2.092 -13.452  1.00  0.00     0.222 C 
HETATM   18  O5  UNL     1      -6.763  -2.958 -12.882  1.00  0.00    -0.273 OA
HETATM   19  N1  UNL     1      -8.167  -2.498 -14.609  1.00  0.00    -0.359 N 
ATOM     20  H1  UNL     1      -8.739  -1.806 -15.093  1.00  0.00     0.162 HD
BRANCH  19  21
HETATM   21  C13 UNL     1      -8.123  -3.841 -15.137  1.00  0.00     0.149 C 
BRANCH  21  22
HETATM   22  C14 UNL     1      -7.184  -3.922 -16.288  1.00  0.00     0.200 C 
BRANCH  22  23
HETATM   23  O6  UNL     1      -5.978  -4.591 -16.023  1.00  0.00    -0.302 OA
BRANCH  23  24
HETATM   24  C15 UNL     1      -4.721  -4.179 -16.363  1.00  0.00     0.362 C 
HETATM   25  O7  UNL     1      -4.556  -2.977 -16.683  1.00  0.00    -0.238 OA
HETATM   26  N2  UNL     1      -3.585  -5.039 -16.372  1.00  0.00    -0.329 N 
BRANCH  26  27
HETATM   27  C16 UNL     1      -2.277  -4.540 -16.743  1.00  0.00     0.123 C 
HETATM   28  C17 UNL     1      -1.325  -4.716 -15.585  1.00  0.00     0.026 C 
ENDBRANCH  26  27
BRANCH  26  29
HETATM   29  C18 UNL     1      -3.710  -6.448 -16.009  1.00  0.00     0.123 C 
HETATM   30  C19 UNL     1      -3.741  -7.243 -17.291  1.00  0.00     0.026 C 
ENDBRANCH  26  29
ENDBRANCH  23  24
ENDBRANCH  22  23
ENDBRANCH  21  22
ENDBRANCH  19  21
ENDBRANCH   8  17
BRANCH   6  31
HETATM   31  O4  UNL     1      -5.773   1.172 -14.023  1.00  0.00    -0.385 OA
ATOM     32  H4  UNL     1      -5.904   1.990 -13.559  1.00  0.00     0.210 HD
ENDBRANCH   6  31
BRANCH   5  33
HETATM   33  C8  UNL     1      -3.626  -0.147 -14.825  1.00  0.00     0.248 C 
HETATM   34  O3  UNL     1      -4.067   0.237 -15.884  1.00  0.00    -0.306 OA
ENDBRANCH   5  33
BRANCH  16  35
HETATM   35  O8  UNL     1      -3.977   2.229 -12.896  1.00  0.00    -0.384 OA
ATOM     36  H8  UNL     1      -3.655   2.008 -13.762  1.00  0.00     0.210 HD
ENDBRANCH  16  35
BRANCH   1  37
HETATM   37  C4  UNL     1      -2.174   0.750 -10.764  1.00  0.00     0.036 C 
BRANCH  37  38
HETATM   38  C3  UNL     1      -0.963   1.584 -10.845  1.00  0.00     0.002 C 
BRANCH  38  39
HETATM   39  C2  UNL     1      -1.110   2.999 -11.266  1.00  0.00    -0.004 C 
HETATM   40  C1  UNL     1      -2.010   3.919 -10.563  1.00  0.00     0.005 C 
ENDBRANCH  38  39
ENDBRANCH  37  38
ENDBRANCH   1  37
TORSDOF 13
ENDMDL
