MODEL 1
REMARK VINA RESULT: -7.442943830      0.000      0.000
REMARK  17 active torsions:
REMARK  status: ('A' for Active; 'I' for Inactive)
REMARK    1  A    between atoms: C3_3  and  C4_4 
REMARK    2  A    between atoms: C4_4  and  O1_5 
REMARK    3  A    between atoms: O1_5  and  C5_6 
REMARK       I    between atoms: C5_6  and  N1_8 
REMARK    4  A    between atoms: N1_8  and  C6_10 
REMARK    5  A    between atoms: C6_10  and  C7_11 
REMARK    6  A    between atoms: C6_10  and  C13_19 
REMARK    7  A    between atoms: C7_11  and  C8_12 
REMARK    8  A    between atoms: C8_12  and  O4_14 
REMARK    9  A    between atoms: O4_14  and  C9_15 
REMARK   10  A    between atoms: C13_19  and  C14_23 
REMARK   11  A    between atoms: C14_23  and  O5_24 
REMARK   12  A    between atoms: O5_24  and  C15_25 
REMARK   13  A    between atoms: C15_25  and  C16_26 
REMARK   14  A    between atoms: C16_26  and  N3_27 
REMARK       I    between atoms: N3_27  and  C17_29 
REMARK   15  A    between atoms: C17_29  and  C18_31 
REMARK       I    between atoms: N4_34  and  C21_35 
REMARK   16  A    between atoms: C21_35  and  O8_37 
REMARK   17  A    between atoms: O8_37  and  C22_38 
ROOT
HETATM    1  C1  UNL     1      -8.096   1.444 -14.196  1.00  0.00     0.112 C 
HETATM    2  C2  UNL     1      -7.214   0.617 -15.030  1.00  0.00    -0.109 C 
HETATM    3  C3  UNL     1      -6.498  -0.068 -15.717  1.00  0.00    -0.080 C 
ENDROOT
BRANCH   3   4
HETATM    4  C4  UNL     1      -5.632  -0.906 -16.568  1.00  0.00     0.274 C 
BRANCH   4   5
HETATM    5  O1  UNL     1      -6.374  -1.951 -17.173  1.00  0.00    -0.292 OA
BRANCH   5   6
HETATM    6  C5  UNL     1      -6.363  -3.228 -16.615  1.00  0.00     0.362 C 
HETATM    7  O2  UNL     1      -6.901  -3.355 -15.488  1.00  0.00    -0.238 OA
HETATM    8  N1  UNL     1      -5.756  -4.332 -17.314  1.00  0.00    -0.327 N 
ATOM      9  H1  UNL     1      -5.332  -4.166 -18.226  1.00  0.00     0.165 HD
BRANCH   8  10
HETATM   10  C6  UNL     1      -5.729  -5.652 -16.770  1.00  0.00     0.143 C 
BRANCH  10  11
HETATM   11  C7  UNL     1      -6.480  -6.659 -17.605  1.00  0.00     0.142 C 
BRANCH  11  12
HETATM   12  C8  UNL     1      -7.849  -6.926 -17.131  1.00  0.00     0.261 C 
HETATM   13  O3  UNL     1      -8.390  -6.098 -16.355  1.00  0.00    -0.265 OA
BRANCH  12  14
HETATM   14  O4  UNL     1      -8.574  -8.029 -17.487  1.00  0.00    -0.311 OA
BRANCH  14  15
HETATM   15  C9  UNL     1      -9.613  -8.039 -18.431  1.00  0.00     0.060 C 
HETATM   16  C10 UNL     1     -10.838  -7.276 -17.981  1.00  0.00     0.045 C 
HETATM   17  C11 UNL     1      -9.139  -7.564 -19.796  1.00  0.00     0.045 C 
HETATM   18  C12 UNL     1     -10.033  -9.493 -18.612  1.00  0.00     0.045 C 
ENDBRANCH  14  15
ENDBRANCH  12  14
ENDBRANCH  11  12
ENDBRANCH  10  11
BRANCH  10  19
HETATM   19  C13 UNL     1      -4.317  -6.109 -16.671  1.00  0.00     0.027 C 
HETATM   20  N2  UNL     1      -4.014  -6.958 -15.769  1.00  0.00    -0.402 N 
ATOM     21  H22 UNL     1      -4.703  -7.334 -15.117  1.00  0.00     0.155 HD
ATOM     22  H21 UNL     1      -3.046  -7.272 -15.701  1.00  0.00     0.155 HD
BRANCH  19  23
HETATM   23  C14 UNL     1      -3.313  -5.562 -17.620  1.00  0.00     0.221 C 
BRANCH  23  24
HETATM   24  O5  UNL     1      -2.724  -4.375 -17.133  1.00  0.00    -0.384 OA
BRANCH  24  25
HETATM   25  C15 UNL     1      -1.603  -4.604 -16.417  1.00  0.00     0.187 C 
BRANCH  25  26
HETATM   26  C16 UNL     1      -1.475  -4.183 -15.015  1.00  0.00     0.148 C 
BRANCH  26  27
HETATM   27  N3  UNL     1      -2.294  -3.121 -14.537  1.00  0.00    -0.359 N 
HETATM   28  C17 UNL     1      -3.571  -3.167 -13.989  1.00  0.00     0.222 C 
HETATM   29  O6  UNL     1      -4.265  -4.181 -13.802  1.00  0.00    -0.273 OA
ATOM     30  H3  UNL     1      -1.884  -2.189 -14.608  1.00  0.00     0.162 HD
BRANCH  28  31
HETATM   31  C18 UNL     1      -4.161  -1.826 -13.580  1.00  0.00     0.081 C 
HETATM   32  C19 UNL     1      -5.036  -1.969 -12.381  1.00  0.00     0.034 C 
HETATM   33  C20 UNL     1      -5.724  -0.625 -12.171  1.00  0.00     0.129 C 
HETATM   34  N4  UNL     1      -4.803   0.465 -12.203  1.00  0.00    -0.328 N 
HETATM   35  C21 UNL     1      -4.920   1.530 -11.275  1.00  0.00     0.363 C 
HETATM   36  C26 UNL     1      -3.724   0.535 -13.168  1.00  0.00     0.129 C 
HETATM   37  O7  UNL     1      -4.135   2.513 -11.257  1.00  0.00    -0.238 OA
HETATM   38  C27 UNL     1      -3.080  -0.832 -13.281  1.00  0.00     0.034 C 
BRANCH  35  39
HETATM   39  O8  UNL     1      -5.927   1.514 -10.340  1.00  0.00    -0.294 OA
BRANCH  39  40
HETATM   40  C22 UNL     1      -7.027   2.399 -10.435  1.00  0.00     0.061 C 
HETATM   41  C23 UNL     1      -8.284   1.565 -10.520  1.00  0.00     0.046 C 
HETATM   42  C24 UNL     1      -6.895   3.376 -11.561  1.00  0.00     0.046 C 
HETATM   43  C25 UNL     1      -7.063   3.188  -9.142  1.00  0.00     0.046 C 
ENDBRANCH  39  40
ENDBRANCH  35  39
ENDBRANCH  28  31
ENDBRANCH  26  27
ENDBRANCH  25  26
ENDBRANCH  24  25
ENDBRANCH  23  24
ENDBRANCH  19  23
ENDBRANCH  10  19
ENDBRANCH   8  10
ENDBRANCH   5   6
ENDBRANCH   4   5
ENDBRANCH   3   4
TORSDOF 17
ENDMDL
MODEL 2
REMARK VINA RESULT: -7.442760461      2.033      9.923
REMARK  17 active torsions:
REMARK  status: ('A' for Active; 'I' for Inactive)
REMARK    1  A    between atoms: C3_3  and  C4_4 
REMARK    2  A    between atoms: C4_4  and  O1_5 
REMARK    3  A    between atoms: O1_5  and  C5_6 
REMARK       I    between atoms: C5_6  and  N1_8 
REMARK    4  A    between atoms: N1_8  and  C6_10 
REMARK    5  A    between atoms: C6_10  and  C7_11 
REMARK    6  A    between atoms: C6_10  and  C13_19 
REMARK    7  A    between atoms: C7_11  and  C8_12 
REMARK    8  A    between atoms: C8_12  and  O4_14 
REMARK    9  A    between atoms: O4_14  and  C9_15 
REMARK   10  A    between atoms: C13_19  and  C14_23 
REMARK   11  A    between atoms: C14_23  and  O5_24 
REMARK   12  A    between atoms: O5_24  and  C15_25 
REMARK   13  A    between atoms: C15_25  and  C16_26 
REMARK   14  A    between atoms: C16_26  and  N3_27 
REMARK       I    between atoms: N3_27  and  C17_29 
REMARK   15  A    between atoms: C17_29  and  C18_31 
REMARK       I    between atoms: N4_34  and  C21_35 
REMARK   16  A    between atoms: C21_35  and  O8_37 
REMARK   17  A    between atoms: O8_37  and  C22_38 
ROOT
HETATM    1  C1  UNL     1      -2.249  -4.278 -17.038  1.00  0.00     0.112 C 
HETATM    2  C2  UNL     1      -2.570  -3.497 -15.836  1.00  0.00    -0.109 C 
HETATM    3  C3  UNL     1      -2.844  -2.859 -14.849  1.00  0.00    -0.080 C 
ENDROOT
BRANCH   3   4
HETATM    4  C4  UNL     1      -3.187  -2.089 -13.638  1.00  0.00     0.274 C 
BRANCH   4   5
HETATM    5  O1  UNL     1      -4.265  -1.204 -13.890  1.00  0.00    -0.292 OA
BRANCH   5   6
HETATM    6  C5  UNL     1      -4.949  -0.619 -12.826  1.00  0.00     0.362 C 
HETATM    7  O2  UNL     1      -5.572  -1.394 -12.060  1.00  0.00    -0.238 OA
HETATM    8  N1  UNL     1      -4.930   0.810 -12.635  1.00  0.00    -0.327 N 
ATOM      9  H1  UNL     1      -4.408   1.389 -13.292  1.00  0.00     0.165 HD
BRANCH   8  10
HETATM   10  C6  UNL     1      -5.619   1.440 -11.555  1.00  0.00     0.143 C 
BRANCH  10  11
HETATM   11  C7  UNL     1      -4.807   2.511 -10.871  1.00  0.00     0.142 C 
BRANCH  11  12
HETATM   12  C8  UNL     1      -3.747   3.088 -11.716  1.00  0.00     0.261 C 
HETATM   13  O3  UNL     1      -3.867   4.277 -12.106  1.00  0.00    -0.265 OA
BRANCH  12  14
HETATM   14  O4  UNL     1      -2.629   2.403 -12.105  1.00  0.00    -0.311 OA
BRANCH  14  15
HETATM   15  C9  UNL     1      -1.597   1.992 -11.247  1.00  0.00     0.060 C 
HETATM   16  C10 UNL     1      -1.396   2.916 -10.068  1.00  0.00     0.045 C 
HETATM   17  C11 UNL     1      -1.782   0.552 -10.794  1.00  0.00     0.045 C 
HETATM   18  C12 UNL     1      -0.308   2.017 -12.060  1.00  0.00     0.045 C 
ENDBRANCH  14  15
ENDBRANCH  12  14
ENDBRANCH  11  12
ENDBRANCH  10  11
BRANCH  10  19
HETATM   19  C13 UNL     1      -6.860   2.076 -12.074  1.00  0.00     0.027 C 
HETATM   20  N2  UNL     1      -6.808   3.292 -12.454  1.00  0.00    -0.402 N 
ATOM     21  H22 UNL     1      -5.949   3.841 -12.415  1.00  0.00     0.155 HD
ATOM     22  H21 UNL     1      -7.659   3.728 -12.810  1.00  0.00     0.155 HD
BRANCH  19  23
HETATM   23  C14 UNL     1      -8.111   1.276 -12.131  1.00  0.00     0.221 C 
BRANCH  23  24
HETATM   24  O5  UNL     1      -8.089   0.345 -13.194  1.00  0.00    -0.384 OA
BRANCH  24  25
HETATM   25  C15 UNL     1      -7.905   0.930 -14.396  1.00  0.00     0.187 C 
BRANCH  25  26
HETATM   26  C16 UNL     1      -7.195   0.253 -15.490  1.00  0.00     0.148 C 
BRANCH  26  27
HETATM   27  N3  UNL     1      -7.193  -1.170 -15.534  1.00  0.00    -0.359 N 
HETATM   28  C17 UNL     1      -6.363  -2.032 -16.241  1.00  0.00     0.222 C 
HETATM   29  O6  UNL     1      -5.429  -1.713 -16.997  1.00  0.00    -0.273 OA
ATOM     30  H3  UNL     1      -7.905  -1.624 -14.961  1.00  0.00     0.162 HD
BRANCH  28  31
HETATM   31  C18 UNL     1      -6.643  -3.515 -16.057  1.00  0.00     0.081 C 
HETATM   32  C19 UNL     1      -8.085  -3.820 -16.284  1.00  0.00     0.034 C 
HETATM   33  C20 UNL     1      -8.298  -5.278 -15.890  1.00  0.00     0.129 C 
HETATM   34  N4  UNL     1      -7.329  -6.145 -16.478  1.00  0.00    -0.328 N 
HETATM   35  C21 UNL     1      -7.717  -7.402 -17.005  1.00  0.00     0.363 C 
HETATM   36  C26 UNL     1      -5.926  -5.788 -16.563  1.00  0.00     0.129 C 
HETATM   37  O7  UNL     1      -6.904  -8.202 -17.536  1.00  0.00    -0.238 OA
HETATM   38  C27 UNL     1      -5.815  -4.340 -16.995  1.00  0.00     0.034 C 
BRANCH  35  39
HETATM   39  O8  UNL     1      -9.034  -7.789 -16.948  1.00  0.00    -0.294 OA
BRANCH  39  40
HETATM   40  C22 UNL     1      -9.839  -7.816 -18.112  1.00  0.00     0.061 C 
HETATM   41  C23 UNL     1     -10.159  -9.261 -18.415  1.00  0.00     0.046 C 
HETATM   42  C24 UNL     1      -9.219  -7.098 -19.268  1.00  0.00     0.046 C 
HETATM   43  C25 UNL     1     -11.129  -7.103 -17.764  1.00  0.00     0.046 C 
ENDBRANCH  39  40
ENDBRANCH  35  39
ENDBRANCH  28  31
ENDBRANCH  26  27
ENDBRANCH  25  26
ENDBRANCH  24  25
ENDBRANCH  23  24
ENDBRANCH  19  23
ENDBRANCH  10  19
ENDBRANCH   8  10
ENDBRANCH   5   6
ENDBRANCH   4   5
ENDBRANCH   3   4
TORSDOF 17
ENDMDL
MODEL 3
REMARK VINA RESULT: -7.382057468      1.661      2.942
REMARK  17 active torsions:
REMARK  status: ('A' for Active; 'I' for Inactive)
REMARK    1  A    between atoms: C3_3  and  C4_4 
REMARK    2  A    between atoms: C4_4  and  O1_5 
REMARK    3  A    between atoms: O1_5  and  C5_6 
REMARK       I    between atoms: C5_6  and  N1_8 
REMARK    4  A    between atoms: N1_8  and  C6_10 
REMARK    5  A    between atoms: C6_10  and  C7_11 
REMARK    6  A    between atoms: C6_10  and  C13_19 
REMARK    7  A    between atoms: C7_11  and  C8_12 
REMARK    8  A    between atoms: C8_12  and  O4_14 
REMARK    9  A    between atoms: O4_14  and  C9_15 
REMARK   10  A    between atoms: C13_19  and  C14_23 
REMARK   11  A    between atoms: C14_23  and  O5_24 
REMARK   12  A    between atoms: O5_24  and  C15_25 
REMARK   13  A    between atoms: C15_25  and  C16_26 
REMARK   14  A    between atoms: C16_26  and  N3_27 
REMARK       I    between atoms: N3_27  and  C17_29 
REMARK   15  A    between atoms: C17_29  and  C18_31 
REMARK       I    between atoms: N4_34  and  C21_35 
REMARK   16  A    between atoms: C21_35  and  O8_37 
REMARK   17  A    between atoms: O8_37  and  C22_38 
ROOT
HETATM    1  C1  UNL     1     -10.657  -6.777 -17.456  1.00  0.00     0.112 C 
HETATM    2  C2  UNL     1      -9.913  -5.715 -16.767  1.00  0.00    -0.109 C 
HETATM    3  C3  UNL     1      -9.298  -4.849 -16.195  1.00  0.00    -0.080 C 
ENDROOT
BRANCH   3   4
HETATM    4  C4  UNL     1      -8.535  -3.799 -15.493  1.00  0.00     0.274 C 
BRANCH   4   5
HETATM    5  O1  UNL     1      -7.295  -3.559 -16.135  1.00  0.00    -0.292 OA
BRANCH   5   6
HETATM    6  C5  UNL     1      -6.255  -4.479 -16.008  1.00  0.00     0.362 C 
HETATM    7  O2  UNL     1      -6.010  -4.897 -14.850  1.00  0.00    -0.238 OA
HETATM    8  N1  UNL     1      -5.510  -4.913 -17.163  1.00  0.00    -0.327 N 
ATOM      9  H1  UNL     1      -5.754  -4.535 -18.079  1.00  0.00     0.165 HD
BRANCH   8  10
HETATM   10  C6  UNL     1      -4.441  -5.854 -17.067  1.00  0.00     0.143 C 
BRANCH  10  11
HETATM   11  C7  UNL     1      -4.845  -7.259 -17.441  1.00  0.00     0.142 C 
BRANCH  11  12
HETATM   12  C8  UNL     1      -6.164  -7.348 -18.091  1.00  0.00     0.261 C 
HETATM   13  O3  UNL     1      -7.133  -7.797 -17.430  1.00  0.00    -0.265 OA
BRANCH  12  14
HETATM   14  O4  UNL     1      -6.400  -6.967 -19.383  1.00  0.00    -0.311 OA
BRANCH  14  15
HETATM   15  C9  UNL     1      -6.654  -7.846 -20.448  1.00  0.00     0.060 C 
HETATM   16  C10 UNL     1      -5.986  -9.192 -20.286  1.00  0.00     0.045 C 
HETATM   17  C11 UNL     1      -8.145  -7.998 -20.709  1.00  0.00     0.045 C 
HETATM   18  C12 UNL     1      -6.069  -7.205 -21.701  1.00  0.00     0.045 C 
ENDBRANCH  14  15
ENDBRANCH  12  14
ENDBRANCH  11  12
ENDBRANCH  10  11
BRANCH  10  19
HETATM   19  C13 UNL     1      -3.344  -5.440 -17.982  1.00  0.00     0.027 C 
HETATM   20  N2  UNL     1      -3.369  -5.854 -19.189  1.00  0.00    -0.402 N 
ATOM     21  H22 UNL     1      -4.112  -6.455 -19.546  1.00  0.00     0.155 HD
ATOM     22  H21 UNL     1      -2.617  -5.570 -19.816  1.00  0.00     0.155 HD
BRANCH  19  23
HETATM   23  C14 UNL     1      -2.262  -4.564 -17.463  1.00  0.00     0.221 C 
BRANCH  23  24
HETATM   24  O5  UNL     1      -1.541  -5.186 -16.419  1.00  0.00    -0.384 OA
BRANCH  24  25
HETATM   25  C15 UNL     1      -1.507  -4.443 -15.294  1.00  0.00     0.187 C 
BRANCH  25  26
HETATM   26  C16 UNL     1      -2.619  -4.434 -14.332  1.00  0.00     0.148 C 
BRANCH  26  27
HETATM   27  N3  UNL     1      -3.226  -3.193 -13.993  1.00  0.00    -0.359 N 
HETATM   28  C17 UNL     1      -3.748  -2.207 -14.823  1.00  0.00     0.222 C 
HETATM   29  O6  UNL     1      -3.787  -2.223 -16.065  1.00  0.00    -0.273 OA
ATOM     30  H3  UNL     1      -3.288  -2.997 -12.993  1.00  0.00     0.162 HD
BRANCH  28  31
HETATM   31  C18 UNL     1      -4.328  -0.991 -14.117  1.00  0.00     0.081 C 
HETATM   32  C19 UNL     1      -5.339  -1.394 -13.098  1.00  0.00     0.034 C 
HETATM   33  C20 UNL     1      -5.993  -0.114 -12.590  1.00  0.00     0.129 C 
HETATM   34  N4  UNL     1      -5.033   0.878 -12.227  1.00  0.00    -0.328 N 
HETATM   35  C21 UNL     1      -5.213   1.655 -11.055  1.00  0.00     0.363 C 
HETATM   36  C26 UNL     1      -3.849   1.133 -13.024  1.00  0.00     0.129 C 
HETATM   37  O7  UNL     1      -4.396   2.539 -10.688  1.00  0.00    -0.238 OA
HETATM   38  C27 UNL     1      -3.250  -0.193 -13.448  1.00  0.00     0.034 C 
BRANCH  35  39
HETATM   39  O8  UNL     1      -6.320   1.454 -10.266  1.00  0.00    -0.294 OA
BRANCH  39  40
HETATM   40  C22 UNL     1      -7.460   2.284 -10.382  1.00  0.00     0.061 C 
HETATM   41  C23 UNL     1      -8.673   1.389 -10.475  1.00  0.00     0.046 C 
HETATM   42  C24 UNL     1      -7.362   3.257 -11.513  1.00  0.00     0.046 C 
HETATM   43  C25 UNL     1      -7.550   3.079  -9.096  1.00  0.00     0.046 C 
ENDBRANCH  39  40
ENDBRANCH  35  39
ENDBRANCH  28  31
ENDBRANCH  26  27
ENDBRANCH  25  26
ENDBRANCH  24  25
ENDBRANCH  23  24
ENDBRANCH  19  23
ENDBRANCH  10  19
ENDBRANCH   8  10
ENDBRANCH   5   6
ENDBRANCH   4   5
ENDBRANCH   3   4
TORSDOF 17
ENDMDL
MODEL 4
REMARK VINA RESULT: -7.323932828      2.291      4.481
REMARK  17 active torsions:
REMARK  status: ('A' for Active; 'I' for Inactive)
REMARK    1  A    between atoms: C3_3  and  C4_4 
REMARK    2  A    between atoms: C4_4  and  O1_5 
REMARK    3  A    between atoms: O1_5  and  C5_6 
REMARK       I    between atoms: C5_6  and  N1_8 
REMARK    4  A    between atoms: N1_8  and  C6_10 
REMARK    5  A    between atoms: C6_10  and  C7_11 
REMARK    6  A    between atoms: C6_10  and  C13_19 
REMARK    7  A    between atoms: C7_11  and  C8_12 
REMARK    8  A    between atoms: C8_12  and  O4_14 
REMARK    9  A    between atoms: O4_14  and  C9_15 
REMARK   10  A    between atoms: C13_19  and  C14_23 
REMARK   11  A    between atoms: C14_23  and  O5_24 
REMARK   12  A    between atoms: O5_24  and  C15_25 
REMARK   13  A    between atoms: C15_25  and  C16_26 
REMARK   14  A    between atoms: C16_26  and  N3_27 
REMARK       I    between atoms: N3_27  and  C17_29 
REMARK   15  A    between atoms: C17_29  and  C18_31 
REMARK       I    between atoms: N4_34  and  C21_35 
REMARK   16  A    between atoms: C21_35  and  O8_37 
REMARK   17  A    between atoms: O8_37  and  C22_38 
ROOT
HETATM    1  C1  UNL     1      -0.750   1.716 -12.378  1.00  0.00     0.112 C 
HETATM    2  C2  UNL     1      -1.954   0.876 -12.432  1.00  0.00    -0.109 C 
HETATM    3  C3  UNL     1      -2.943   0.185 -12.466  1.00  0.00    -0.080 C 
ENDROOT
BRANCH   3   4
HETATM    4  C4  UNL     1      -4.156  -0.653 -12.497  1.00  0.00     0.274 C 
BRANCH   4   5
HETATM    5  O1  UNL     1      -3.834  -2.019 -12.296  1.00  0.00    -0.292 OA
BRANCH   5   6
HETATM    6  C5  UNL     1      -3.920  -2.919 -13.356  1.00  0.00     0.362 C 
HETATM    7  O2  UNL     1      -2.941  -3.687 -13.525  1.00  0.00    -0.238 OA
HETATM    8  N1  UNL     1      -5.084  -2.949 -14.205  1.00  0.00    -0.327 N 
ATOM      9  H1  UNL     1      -5.847  -2.298 -14.019  1.00  0.00     0.165 HD
BRANCH   8  10
HETATM   10  C6  UNL     1      -5.203  -3.859 -15.298  1.00  0.00     0.143 C 
BRANCH  10  11
HETATM   11  C7  UNL     1      -6.618  -4.328 -15.534  1.00  0.00     0.142 C 
BRANCH  11  12
HETATM   12  C8  UNL     1      -6.713  -5.547 -16.356  1.00  0.00     0.261 C 
HETATM   13  O3  UNL     1      -5.699  -6.282 -16.465  1.00  0.00    -0.265 OA
BRANCH  12  14
HETATM   14  O4  UNL     1      -7.848  -5.932 -17.014  1.00  0.00    -0.311 OA
BRANCH  14  15
HETATM   15  C9  UNL     1      -9.059  -6.280 -16.394  1.00  0.00     0.060 C 
HETATM   16  C10 UNL     1      -8.875  -6.915 -15.035  1.00  0.00     0.045 C 
HETATM   17  C11 UNL     1     -10.017  -5.100 -16.327  1.00  0.00     0.045 C 
HETATM   18  C12 UNL     1      -9.731  -7.318 -17.286  1.00  0.00     0.045 C 
ENDBRANCH  14  15
ENDBRANCH  12  14
ENDBRANCH  11  12
ENDBRANCH  10  11
BRANCH  10  19
HETATM   19  C13 UNL     1      -4.734  -3.191 -16.541  1.00  0.00     0.027 C 
HETATM   20  N2  UNL     1      -3.831  -3.764 -17.236  1.00  0.00    -0.402 N 
ATOM     21  H22 UNL     1      -3.422  -4.660 -16.971  1.00  0.00     0.155 HD
ATOM     22  H21 UNL     1      -3.509  -3.306 -18.089  1.00  0.00     0.155 HD
BRANCH  19  23
HETATM   23  C14 UNL     1      -5.330  -1.886 -16.929  1.00  0.00     0.221 C 
BRANCH  23  24
HETATM   24  O5  UNL     1      -4.780  -0.819 -16.185  1.00  0.00    -0.384 OA
BRANCH  24  25
HETATM   25  C15 UNL     1      -5.609   0.243 -16.105  1.00  0.00     0.187 C 
BRANCH  25  26
HETATM   26  C16 UNL     1      -6.922   0.159 -15.449  1.00  0.00     0.148 C 
BRANCH  26  27
HETATM   27  N3  UNL     1      -7.097   0.772 -14.177  1.00  0.00    -0.359 N 
HETATM   28  C17 UNL     1      -7.736   0.288 -13.041  1.00  0.00     0.222 C 
HETATM   29  O6  UNL     1      -8.296  -0.815 -12.915  1.00  0.00    -0.273 OA
ATOM     30  H3  UNL     1      -6.693   1.706 -14.085  1.00  0.00     0.162 HD
BRANCH  28  31
HETATM   31  C18 UNL     1      -7.738   1.219 -11.839  1.00  0.00     0.081 C 
HETATM   32  C19 UNL     1      -7.659   0.449 -10.564  1.00  0.00     0.034 C 
HETATM   33  C20 UNL     1      -7.861   1.447  -9.429  1.00  0.00     0.129 C 
HETATM   34  N4  UNL     1      -7.031   2.600  -9.568  1.00  0.00    -0.328 N 
HETATM   35  C21 UNL     1      -6.382   3.156  -8.437  1.00  0.00     0.363 C 
HETATM   36  C26 UNL     1      -6.817   3.246 -10.848  1.00  0.00     0.129 C 
HETATM   37  O7  UNL     1      -5.639   4.169  -8.504  1.00  0.00    -0.238 OA
HETATM   38  C27 UNL     1      -6.589   2.180 -11.901  1.00  0.00     0.034 C 
BRANCH  35  39
HETATM   39  O8  UNL     1      -6.555   2.583  -7.200  1.00  0.00    -0.294 OA
BRANCH  39  40
HETATM   40  C22 UNL     1      -7.293   3.240  -6.187  1.00  0.00     0.061 C 
HETATM   41  C23 UNL     1      -8.385   4.039  -6.859  1.00  0.00     0.046 C 
HETATM   42  C24 UNL     1      -6.435   4.065  -5.281  1.00  0.00     0.046 C 
HETATM   43  C25 UNL     1      -7.940   2.156  -5.350  1.00  0.00     0.046 C 
ENDBRANCH  39  40
ENDBRANCH  35  39
ENDBRANCH  28  31
ENDBRANCH  26  27
ENDBRANCH  25  26
ENDBRANCH  24  25
ENDBRANCH  23  24
ENDBRANCH  19  23
ENDBRANCH  10  19
ENDBRANCH   8  10
ENDBRANCH   5   6
ENDBRANCH   4   5
ENDBRANCH   3   4
TORSDOF 17
ENDMDL
MODEL 5
REMARK VINA RESULT: -7.261191390      2.238      9.033
REMARK  17 active torsions:
REMARK  status: ('A' for Active; 'I' for Inactive)
REMARK    1  A    between atoms: C3_3  and  C4_4 
REMARK    2  A    between atoms: C4_4  and  O1_5 
REMARK    3  A    between atoms: O1_5  and  C5_6 
REMARK       I    between atoms: C5_6  and  N1_8 
REMARK    4  A    between atoms: N1_8  and  C6_10 
REMARK    5  A    between atoms: C6_10  and  C7_11 
REMARK    6  A    between atoms: C6_10  and  C13_19 
REMARK    7  A    between atoms: C7_11  and  C8_12 
REMARK    8  A    between atoms: C8_12  and  O4_14 
REMARK    9  A    between atoms: O4_14  and  C9_15 
REMARK   10  A    between atoms: C13_19  and  C14_23 
REMARK   11  A    between atoms: C14_23  and  O5_24 
REMARK   12  A    between atoms: O5_24  and  C15_25 
REMARK   13  A    between atoms: C15_25  and  C16_26 
REMARK   14  A    between atoms: C16_26  and  N3_27 
REMARK       I    between atoms: N3_27  and  C17_29 
REMARK   15  A    between atoms: C17_29  and  C18_31 
REMARK       I    between atoms: N4_34  and  C21_35 
REMARK   16  A    between atoms: C21_35  and  O8_37 
REMARK   17  A    between atoms: O8_37  and  C22_38 
ROOT
HETATM    1  C1  UNL     1     -10.779  -7.394 -18.049  1.00  0.00     0.112 C 
HETATM    2  C2  UNL     1      -9.799  -6.841 -17.105  1.00  0.00    -0.109 C 
HETATM    3  C3  UNL     1      -8.992  -6.380 -16.336  1.00  0.00    -0.080 C 
ENDROOT
BRANCH   3   4
HETATM    4  C4  UNL     1      -8.011  -5.803 -15.398  1.00  0.00     0.274 C 
BRANCH   4   5
HETATM    5  O1  UNL     1      -7.317  -4.720 -15.995  1.00  0.00    -0.292 OA
BRANCH   5   6
HETATM    6  C5  UNL     1      -7.719  -3.410 -15.740  1.00  0.00     0.362 C 
HETATM    7  O2  UNL     1      -8.542  -2.906 -16.542  1.00  0.00    -0.238 OA
HETATM    8  N1  UNL     1      -7.199  -2.687 -14.606  1.00  0.00    -0.327 N 
ATOM      9  H1  UNL     1      -6.530  -3.149 -13.991  1.00  0.00     0.165 HD
BRANCH   8  10
HETATM   10  C6  UNL     1      -7.591  -1.345 -14.317  1.00  0.00     0.143 C 
BRANCH  10  11
HETATM   11  C7  UNL     1      -7.587  -1.025 -12.843  1.00  0.00     0.142 C 
BRANCH  11  12
HETATM   12  C8  UNL     1      -8.606  -0.039 -12.443  1.00  0.00     0.261 C 
HETATM   13  O3  UNL     1      -9.702  -0.456 -11.989  1.00  0.00    -0.265 OA
BRANCH  12  14
HETATM   14  O4  UNL     1      -8.431   1.314 -12.535  1.00  0.00    -0.311 OA
BRANCH  14  15
HETATM   15  C9  UNL     1      -7.605   2.078 -11.695  1.00  0.00     0.060 C 
HETATM   16  C10 UNL     1      -7.919   1.903 -10.227  1.00  0.00     0.045 C 
HETATM   17  C11 UNL     1      -6.131   1.829 -11.977  1.00  0.00     0.045 C 
HETATM   18  C12 UNL     1      -7.860   3.542 -12.036  1.00  0.00     0.045 C 
ENDBRANCH  14  15
ENDBRANCH  12  14
ENDBRANCH  11  12
ENDBRANCH  10  11
BRANCH  10  19
HETATM   19  C13 UNL     1      -6.649  -0.408 -14.987  1.00  0.00     0.027 C 
HETATM   20  N2  UNL     1      -7.070   0.753 -15.305  1.00  0.00    -0.402 N 
ATOM     21  H22 UNL     1      -8.025   1.060 -15.117  1.00  0.00     0.155 HD
ATOM     22  H21 UNL     1      -6.425   1.396 -15.765  1.00  0.00     0.155 HD
BRANCH  19  23
HETATM   23  C14 UNL     1      -5.259  -0.854 -15.261  1.00  0.00     0.221 C 
BRANCH  23  24
HETATM   24  O5  UNL     1      -4.579  -1.207 -14.074  1.00  0.00    -0.384 OA
BRANCH  24  25
HETATM   25  C15 UNL     1      -3.254  -1.380 -14.264  1.00  0.00     0.187 C 
BRANCH  25  26
HETATM   26  C16 UNL     1      -2.614  -2.697 -14.132  1.00  0.00     0.148 C 
BRANCH  26  27
HETATM   27  N3  UNL     1      -2.940  -3.718 -15.069  1.00  0.00    -0.359 N 
HETATM   28  C17 UNL     1      -2.120  -4.677 -15.653  1.00  0.00     0.222 C 
HETATM   29  O6  UNL     1      -0.902  -4.834 -15.459  1.00  0.00    -0.273 OA
ATOM     30  H3  UNL     1      -3.919  -3.750 -15.355  1.00  0.00     0.162 HD
BRANCH  28  31
HETATM   31  C18 UNL     1      -2.805  -5.625 -16.626  1.00  0.00     0.081 C 
HETATM   32  C19 UNL     1      -4.176  -5.977 -16.155  1.00  0.00     0.034 C 
HETATM   33  C20 UNL     1      -4.697  -7.068 -17.085  1.00  0.00     0.129 C 
HETATM   34  N4  UNL     1      -4.526  -6.732 -18.462  1.00  0.00    -0.328 N 
HETATM   35  C21 UNL     1      -5.552  -7.008 -19.400  1.00  0.00     0.363 C 
HETATM   36  C26 UNL     1      -3.316  -6.106 -18.959  1.00  0.00     0.129 C 
HETATM   37  O7  UNL     1      -5.454  -6.731 -20.623  1.00  0.00    -0.238 OA
HETATM   38  C27 UNL     1      -2.898  -5.016 -17.992  1.00  0.00     0.034 C 
BRANCH  35  39
HETATM   39  O8  UNL     1      -6.718  -7.603 -18.981  1.00  0.00    -0.294 OA
BRANCH  39  40
HETATM   40  C22 UNL     1      -6.932  -8.991 -19.152  1.00  0.00     0.061 C 
HETATM   41  C23 UNL     1      -7.452  -9.541 -17.845  1.00  0.00     0.046 C 
HETATM   42  C24 UNL     1      -5.721  -9.712 -19.651  1.00  0.00     0.046 C 
HETATM   43  C25 UNL     1      -8.019  -9.137 -20.198  1.00  0.00     0.046 C 
ENDBRANCH  39  40
ENDBRANCH  35  39
ENDBRANCH  28  31
ENDBRANCH  26  27
ENDBRANCH  25  26
ENDBRANCH  24  25
ENDBRANCH  23  24
ENDBRANCH  19  23
ENDBRANCH  10  19
ENDBRANCH   8  10
ENDBRANCH   5   6
ENDBRANCH   4   5
ENDBRANCH   3   4
TORSDOF 17
ENDMDL
