MODEL 1
REMARK VINA RESULT: -7.271209649      0.000      0.000
REMARK  12 active torsions:
REMARK  status: ('A' for Active; 'I' for Inactive)
REMARK    1  A    between atoms: C2_2  and  C3_3 
REMARK    2  A    between atoms: C3_3  and  C4_4 
REMARK    3  A    between atoms: C4_4  and  C5_5 
REMARK    4  A    between atoms: C7_10  and  C8_11 
REMARK    5  A    between atoms: C8_11  and  C9_12 
REMARK    6  A    between atoms: C9_12  and  C11_14 
REMARK    7  A    between atoms: C14_20  and  C15_21 
REMARK    8  A    between atoms: C15_21  and  C16_22 
REMARK    9  A    between atoms: C20_29  and  C21_30 
REMARK   10  A    between atoms: C21_30  and  C23_32 
REMARK   11  A    between atoms: C31_47  and  O6_48 
REMARK   12  A    between atoms: C32_50  and  C33_51 
ROOT
HETATM    1  C5  UNL     1      -5.710 -16.657  52.516  1.00  0.00     0.184 C 
HETATM    2  N1  UNL     1      -5.072 -15.411  52.225  1.00  0.00    -0.338 N 
ATOM      3  H1  UNL     1      -5.478 -14.592  52.675  1.00  0.00     0.164 HD
HETATM    4  C6  UNL     1      -3.955 -15.164  51.396  1.00  0.00     0.242 C 
HETATM    5  O1  UNL     1      -4.107 -14.421  50.344  1.00  0.00    -0.271 OA
HETATM    6  C7  UNL     1      -2.585 -15.665  51.585  1.00  0.00     0.177 C 
HETATM    7  N2  UNL     1      -1.861 -15.636  50.330  1.00  0.00    -0.346 N 
ATOM      8  H2  UNL     1      -1.843 -14.766  49.798  1.00  0.00     0.163 HD
HETATM    9  C13 UNL     1      -1.181 -16.755  49.810  1.00  0.00     0.241 C 
HETATM   10  O2  UNL     1      -0.021 -16.642  49.276  1.00  0.00    -0.271 OA
HETATM   11  C14 UNL     1      -1.730 -18.135  49.830  1.00  0.00     0.177 C 
HETATM   12  N3  UNL     1      -0.684 -18.986  50.336  1.00  0.00    -0.346 N 
ATOM     13  H3  UNL     1       0.208 -18.920  49.847  1.00  0.00     0.163 HD
HETATM   14  C19 UNL     1      -0.716 -19.879  51.389  1.00  0.00     0.241 C 
HETATM   15  O3  UNL     1      -0.387 -21.098  51.180  1.00  0.00    -0.271 OA
HETATM   16  C20 UNL     1      -1.108 -19.589  52.818  1.00  0.00     0.180 C 
HETATM   17  N4  UNL     1      -1.965 -20.640  53.319  1.00  0.00    -0.346 N 
ATOM     18  H4  UNL     1      -1.741 -21.573  52.972  1.00  0.00     0.163 HD
HETATM   19  C25 UNL     1      -3.051 -20.591  54.201  1.00  0.00     0.241 C 
HETATM   20  O4  UNL     1      -4.153 -21.051  53.696  1.00  0.00    -0.271 OA
HETATM   21  C26 UNL     1      -3.131 -20.112  55.579  1.00  0.00     0.187 C 
HETATM   22  C27 UNL     1      -2.104 -20.871  56.467  1.00  0.00     0.138 C 
HETATM   23  C28 UNL     1      -2.444 -20.608  57.886  1.00  0.00     0.220 C 
HETATM   24  O5  UNL     1      -2.717 -21.583  58.624  1.00  0.00    -0.274 OA
HETATM   25  N5  UNL     1      -2.508 -19.354  58.563  1.00  0.00    -0.359 N 
ATOM     26  H5  UNL     1      -2.573 -19.418  59.578  1.00  0.00     0.162 HD
HETATM   27  C29 UNL     1      -2.495 -18.005  58.035  1.00  0.00     0.142 C 
HETATM   28  C30 UNL     1      -2.015 -18.081  56.624  1.00  0.00     0.145 C 
HETATM   29  N6  UNL     1      -3.124 -18.706  55.829  1.00  0.00    -0.345 N 
HETATM   30  C31 UNL     1      -3.992 -17.687  55.490  1.00  0.00     0.162 C 
HETATM   31  C32 UNL     1      -5.246 -17.639  54.692  1.00  0.00     0.061 C 
HETATM   32  N7  UNL     1      -4.989 -17.607  53.294  1.00  0.00    -0.368 N 
ATOM     33  H7  UNL     1      -4.315 -18.241  52.865  1.00  0.00     0.161 HD
ENDROOT
BRANCH   6  34
HETATM   34  C8  UNL     1      -1.820 -15.128  52.720  1.00  0.00     0.039 C 
BRANCH  34  35
HETATM   35  C9  UNL     1      -0.500 -14.494  52.541  1.00  0.00    -0.017 C 
HETATM   36  C10 UNL     1       0.255 -14.555  53.922  1.00  0.00     0.010 C 
BRANCH  35  37
HETATM   37  C11 UNL     1      -0.499 -13.003  52.270  1.00  0.00    -0.000 C 
HETATM   38  C12 UNL     1       0.605 -12.681  51.247  1.00  0.00     0.005 C 
ENDBRANCH  35  37
ENDBRANCH  34  35
ENDBRANCH   6  34
BRANCH   1  39
HETATM   39  C4  UNL     1      -6.285 -17.319  51.245  1.00  0.00     0.047 C 
BRANCH  39  40
HETATM   40  C3  UNL     1      -7.780 -17.277  51.368  1.00  0.00     0.003 C 
BRANCH  40  41
HETATM   41  C2  UNL     1      -8.347 -18.447  52.102  1.00  0.00    -0.004 C 
HETATM   42  C1  UNL     1      -7.531 -19.705  51.883  1.00  0.00     0.005 C 
ENDBRANCH  40  41
ENDBRANCH  39  40
ENDBRANCH   1  39
BRANCH  11  43
HETATM   43  C15 UNL     1      -2.077 -18.458  48.389  1.00  0.00     0.038 C 
BRANCH  43  44
HETATM   44  C16 UNL     1      -1.097 -19.430  47.779  1.00  0.00    -0.020 C 
HETATM   45  C17 UNL     1      -1.846 -20.754  47.589  1.00  0.00     0.009 C 
HETATM   46  C18 UNL     1      -0.686 -18.996  46.388  1.00  0.00     0.009 C 
ENDBRANCH  43  44
ENDBRANCH  11  43
BRANCH  31  47
HETATM   47  C33 UNL     1      -6.328 -18.504  55.207  1.00  0.00     0.031 C 
HETATM   48  C34 UNL     1      -7.702 -17.909  55.307  1.00  0.00     0.016 C 
HETATM   49  C35 UNL     1      -6.025 -19.002  56.635  1.00  0.00     0.016 C 
ENDBRANCH  31  47
BRANCH  30  50
HETATM   50  O6  UNL     1      -3.638 -16.521  55.970  1.00  0.00    -0.345 OA
ATOM     51  H6  UNL     1      -4.198 -16.218  56.675  1.00  0.00     0.219 HD
ENDBRANCH  30  50
BRANCH  16  52
HETATM   52  C21 UNL     1       0.240 -19.595  53.555  1.00  0.00     0.013 C 
HETATM   53  C22 UNL     1       1.275 -20.413  52.849  1.00  0.00     0.012 C 
BRANCH  52  54
HETATM   54  C23 UNL     1       0.702 -18.155  53.699  1.00  0.00     0.002 C 
HETATM   55  C24 UNL     1       1.673 -17.917  52.543  1.00  0.00     0.005 C 
ENDBRANCH  52  54
ENDBRANCH  16  52
TORSDOF 12
ENDMDL
MODEL 2
REMARK VINA RESULT: -6.956627047      3.745      8.464
REMARK  12 active torsions:
REMARK  status: ('A' for Active; 'I' for Inactive)
REMARK    1  A    between atoms: C2_2  and  C3_3 
REMARK    2  A    between atoms: C3_3  and  C4_4 
REMARK    3  A    between atoms: C4_4  and  C5_5 
REMARK    4  A    between atoms: C7_10  and  C8_11 
REMARK    5  A    between atoms: C8_11  and  C9_12 
REMARK    6  A    between atoms: C9_12  and  C11_14 
REMARK    7  A    between atoms: C14_20  and  C15_21 
REMARK    8  A    between atoms: C15_21  and  C16_22 
REMARK    9  A    between atoms: C20_29  and  C21_30 
REMARK   10  A    between atoms: C21_30  and  C23_32 
REMARK   11  A    between atoms: C31_47  and  O6_48 
REMARK   12  A    between atoms: C32_50  and  C33_51 
ROOT
HETATM    1  C5  UNL     1      -3.889 -17.144  51.032  1.00  0.00     0.184 C 
HETATM    2  N1  UNL     1      -2.842 -17.983  50.538  1.00  0.00    -0.338 N 
ATOM      3  H1  UNL     1      -3.013 -18.986  50.604  1.00  0.00     0.164 HD
HETATM    4  C6  UNL     1      -1.604 -17.609  49.972  1.00  0.00     0.242 C 
HETATM    5  O1  UNL     1      -0.509 -17.952  50.576  1.00  0.00    -0.271 OA
HETATM    6  C7  UNL     1      -1.391 -16.848  48.731  1.00  0.00     0.177 C 
HETATM    7  N2  UNL     1      -0.076 -16.238  48.734  1.00  0.00    -0.346 N 
ATOM      8  H2  UNL     1       0.734 -16.829  48.922  1.00  0.00     0.163 HD
HETATM    9  C13 UNL     1       0.135 -14.867  48.488  1.00  0.00     0.241 C 
HETATM   10  O2  UNL     1       1.100 -14.463  47.747  1.00  0.00    -0.271 OA
HETATM   11  C14 UNL     1      -0.717 -13.789  49.051  1.00  0.00     0.177 C 
HETATM   12  N3  UNL     1      -1.047 -12.912  47.956  1.00  0.00    -0.346 N 
ATOM     13  H3  UNL     1      -0.252 -12.556  47.426  1.00  0.00     0.163 HD
HETATM   14  C19 UNL     1      -2.286 -12.487  47.521  1.00  0.00     0.241 C 
HETATM   15  O3  UNL     1      -2.514 -11.230  47.428  1.00  0.00    -0.271 OA
HETATM   16  C20 UNL     1      -3.459 -13.350  47.122  1.00  0.00     0.180 C 
HETATM   17  N4  UNL     1      -4.680 -12.818  47.686  1.00  0.00    -0.346 N 
ATOM     18  H4  UNL     1      -4.717 -11.800  47.733  1.00  0.00     0.163 HD
HETATM   19  C25 UNL     1      -5.818 -13.468  48.176  1.00  0.00     0.241 C 
HETATM   20  O4  UNL     1      -6.086 -13.184  49.413  1.00  0.00    -0.271 OA
HETATM   21  C26 UNL     1      -6.735 -14.397  47.521  1.00  0.00     0.187 C 
HETATM   22  C27 UNL     1      -7.336 -13.741  46.245  1.00  0.00     0.138 C 
HETATM   23  C28 UNL     1      -8.490 -14.563  45.809  1.00  0.00     0.220 C 
HETATM   24  O5  UNL     1      -9.618 -14.021  45.744  1.00  0.00    -0.274 OA
HETATM   25  N5  UNL     1      -8.506 -15.939  45.435  1.00  0.00    -0.359 N 
ATOM     26  H5  UNL     1      -9.367 -16.253  44.987  1.00  0.00     0.162 HD
HETATM   27  C29 UNL     1      -7.492 -16.962  45.591  1.00  0.00     0.142 C 
HETATM   28  C30 UNL     1      -6.202 -16.272  45.890  1.00  0.00     0.145 C 
HETATM   29  N6  UNL     1      -6.316 -15.742  47.289  1.00  0.00    -0.345 N 
HETATM   30  C31 UNL     1      -5.969 -16.778  48.134  1.00  0.00     0.162 C 
HETATM   31  C32 UNL     1      -5.847 -16.890  49.612  1.00  0.00     0.061 C 
HETATM   32  N7  UNL     1      -4.616 -16.363  50.089  1.00  0.00    -0.368 N 
ATOM     33  H7  UNL     1      -4.267 -15.460  49.767  1.00  0.00     0.161 HD
ENDROOT
BRANCH   6  34
HETATM   34  C8  UNL     1      -1.732 -17.511  47.464  1.00  0.00     0.039 C 
BRANCH  34  35
HETATM   35  C9  UNL     1      -1.124 -18.795  47.068  1.00  0.00    -0.017 C 
HETATM   36  C10 UNL     1      -0.893 -18.758  45.510  1.00  0.00     0.010 C 
BRANCH  35  37
HETATM   37  C11 UNL     1      -1.997 -20.026  47.206  1.00  0.00    -0.000 C 
HETATM   38  C12 UNL     1      -1.099 -21.277  47.215  1.00  0.00     0.005 C 
ENDBRANCH  35  37
ENDBRANCH  34  35
ENDBRANCH   6  34
BRANCH   1  39
HETATM   39  C4  UNL     1      -3.414 -16.269  52.212  1.00  0.00     0.047 C 
BRANCH  39  40
HETATM   40  C3  UNL     1      -3.699 -17.037  53.469  1.00  0.00     0.003 C 
BRANCH  40  41
HETATM   41  C2  UNL     1      -4.754 -18.080  53.299  1.00  0.00    -0.004 C 
HETATM   42  C1  UNL     1      -5.668 -18.165  54.504  1.00  0.00     0.005 C 
ENDBRANCH  40  41
ENDBRANCH  39  40
ENDBRANCH   1  39
BRANCH  11  43
HETATM   43  C15 UNL     1       0.137 -13.095  50.095  1.00  0.00     0.038 C 
BRANCH  43  44
HETATM   44  C16 UNL     1      -0.414 -13.284  51.487  1.00  0.00    -0.020 C 
HETATM   45  C17 UNL     1      -1.895 -13.646  51.333  1.00  0.00     0.009 C 
HETATM   46  C18 UNL     1       0.223 -14.474  52.173  1.00  0.00     0.009 C 
ENDBRANCH  43  44
ENDBRANCH  11  43
BRANCH  31  47
HETATM   47  C33 UNL     1      -7.092 -16.592  50.350  1.00  0.00     0.031 C 
HETATM   48  C34 UNL     1      -7.012 -15.600  51.473  1.00  0.00     0.016 C 
HETATM   49  C35 UNL     1      -7.681 -17.859  51.005  1.00  0.00     0.016 C 
ENDBRANCH  31  47
BRANCH  30  50
HETATM   50  O6  UNL     1      -5.690 -17.891  47.505  1.00  0.00    -0.345 OA
ATOM     51  H6  UNL     1      -5.433 -18.598  48.085  1.00  0.00     0.219 HD
ENDBRANCH  30  50
BRANCH  16  52
HETATM   52  C21 UNL     1      -3.474 -13.228  45.590  1.00  0.00     0.013 C 
HETATM   53  C22 UNL     1      -3.981 -11.899  45.127  1.00  0.00     0.012 C 
BRANCH  52  54
HETATM   54  C23 UNL     1      -2.062 -13.468  45.088  1.00  0.00     0.002 C 
HETATM   55  C24 UNL     1      -1.924 -14.983  44.953  1.00  0.00     0.005 C 
ENDBRANCH  52  54
ENDBRANCH  16  52
TORSDOF 12
ENDMDL
MODEL 3
REMARK VINA RESULT: -6.947003155      0.670      1.051
REMARK  12 active torsions:
REMARK  status: ('A' for Active; 'I' for Inactive)
REMARK    1  A    between atoms: C2_2  and  C3_3 
REMARK    2  A    between atoms: C3_3  and  C4_4 
REMARK    3  A    between atoms: C4_4  and  C5_5 
REMARK    4  A    between atoms: C7_10  and  C8_11 
REMARK    5  A    between atoms: C8_11  and  C9_12 
REMARK    6  A    between atoms: C9_12  and  C11_14 
REMARK    7  A    between atoms: C14_20  and  C15_21 
REMARK    8  A    between atoms: C15_21  and  C16_22 
REMARK    9  A    between atoms: C20_29  and  C21_30 
REMARK   10  A    between atoms: C21_30  and  C23_32 
REMARK   11  A    between atoms: C31_47  and  O6_48 
REMARK   12  A    between atoms: C32_50  and  C33_51 
ROOT
HETATM    1  C5  UNL     1      -5.792 -16.679  52.310  1.00  0.00     0.184 C 
HETATM    2  N1  UNL     1      -5.158 -15.429  52.027  1.00  0.00    -0.338 N 
ATOM      3  H1  UNL     1      -5.590 -14.609  52.453  1.00  0.00     0.164 HD
HETATM    4  C6  UNL     1      -4.015 -15.177  51.238  1.00  0.00     0.242 C 
HETATM    5  O1  UNL     1      -4.136 -14.447  50.172  1.00  0.00    -0.271 OA
HETATM    6  C7  UNL     1      -2.646 -15.659  51.483  1.00  0.00     0.177 C 
HETATM    7  N2  UNL     1      -1.877 -15.635  50.254  1.00  0.00    -0.346 N 
ATOM      8  H2  UNL     1      -1.850 -14.770  49.714  1.00  0.00     0.163 HD
HETATM    9  C13 UNL     1      -1.165 -16.751  49.773  1.00  0.00     0.241 C 
HETATM   10  O2  UNL     1       0.012 -16.629  49.280  1.00  0.00    -0.271 OA
HETATM   11  C14 UNL     1      -1.698 -18.137  49.788  1.00  0.00     0.177 C 
HETATM   12  N3  UNL     1      -0.661 -18.970  50.342  1.00  0.00    -0.346 N 
ATOM     13  H3  UNL     1       0.248 -18.898  49.885  1.00  0.00     0.163 HD
HETATM   14  C19 UNL     1      -0.722 -19.851  51.403  1.00  0.00     0.241 C 
HETATM   15  O3  UNL     1      -0.370 -21.069  51.220  1.00  0.00    -0.271 OA
HETATM   16  C20 UNL     1      -1.169 -19.550  52.813  1.00  0.00     0.180 C 
HETATM   17  N4  UNL     1      -2.032 -20.607  53.294  1.00  0.00    -0.346 N 
ATOM     18  H4  UNL     1      -1.784 -21.540  52.966  1.00  0.00     0.163 HD
HETATM   19  C25 UNL     1      -3.149 -20.561  54.135  1.00  0.00     0.241 C 
HETATM   20  O4  UNL     1      -4.226 -21.041  53.595  1.00  0.00    -0.271 OA
HETATM   21  C26 UNL     1      -3.286 -20.069  55.504  1.00  0.00     0.187 C 
HETATM   22  C27 UNL     1      -2.283 -20.805  56.438  1.00  0.00     0.138 C 
HETATM   23  C28 UNL     1      -2.679 -20.531  57.840  1.00  0.00     0.220 C 
HETATM   24  O5  UNL     1      -2.967 -21.500  58.579  1.00  0.00    -0.274 OA
HETATM   25  N5  UNL     1      -2.783 -19.271  58.500  1.00  0.00    -0.359 N 
ATOM     26  H5  UNL     1      -2.885 -19.324  59.513  1.00  0.00     0.162 HD
HETATM   27  C29 UNL     1      -2.767 -17.927  57.958  1.00  0.00     0.142 C 
HETATM   28  C30 UNL     1      -2.234 -18.013  56.566  1.00  0.00     0.145 C 
HETATM   29  N6  UNL     1      -3.305 -18.660  55.738  1.00  0.00    -0.345 N 
HETATM   30  C31 UNL     1      -4.172 -17.655  55.356  1.00  0.00     0.162 C 
HETATM   31  C32 UNL     1      -5.397 -17.632  54.511  1.00  0.00     0.061 C 
HETATM   32  N7  UNL     1      -5.089 -17.612  53.124  1.00  0.00    -0.368 N 
ATOM     33  H7  UNL     1      -4.392 -18.242  52.727  1.00  0.00     0.161 HD
ENDROOT
BRANCH   6  34
HETATM   34  C8  UNL     1      -1.930 -15.100  52.638  1.00  0.00     0.039 C 
BRANCH  34  35
HETATM   35  C9  UNL     1      -0.591 -14.496  52.509  1.00  0.00    -0.017 C 
HETATM   36  C10 UNL     1       0.109 -14.566  53.918  1.00  0.00     0.010 C 
BRANCH  35  37
HETATM   37  C11 UNL     1      -0.547 -13.006  52.233  1.00  0.00    -0.000 C 
HETATM   38  C12 UNL     1       0.578 -12.718  51.222  1.00  0.00     0.005 C 
ENDBRANCH  35  37
ENDBRANCH  34  35
ENDBRANCH   6  34
BRANCH   1  39
HETATM   39  C4  UNL     1      -6.311 -17.361  51.025  1.00  0.00     0.047 C 
BRANCH  39  40
HETATM   40  C3  UNL     1      -7.271 -16.405  50.379  1.00  0.00     0.003 C 
BRANCH  40  41
HETATM   41  C2  UNL     1      -7.054 -16.251  48.910  1.00  0.00    -0.004 C 
HETATM   42  C1  UNL     1      -5.822 -16.994  48.436  1.00  0.00     0.005 C 
ENDBRANCH  40  41
ENDBRANCH  39  40
ENDBRANCH   1  39
BRANCH  11  43
HETATM   43  C15 UNL     1      -1.988 -18.480  48.339  1.00  0.00     0.038 C 
BRANCH  43  44
HETATM   44  C16 UNL     1      -1.020 -19.504  47.799  1.00  0.00    -0.020 C 
HETATM   45  C17 UNL     1      -1.800 -20.814  47.646  1.00  0.00     0.009 C 
HETATM   46  C18 UNL     1      -0.560 -19.143  46.403  1.00  0.00     0.009 C 
ENDBRANCH  43  44
ENDBRANCH  11  43
BRANCH  31  47
HETATM   47  C33 UNL     1      -6.486 -18.504  54.996  1.00  0.00     0.031 C 
HETATM   48  C34 UNL     1      -7.010 -19.548  54.053  1.00  0.00     0.016 C 
HETATM   49  C35 UNL     1      -7.735 -17.687  55.388  1.00  0.00     0.016 C 
ENDBRANCH  31  47
BRANCH  30  50
HETATM   50  O6  UNL     1      -3.850 -16.480  55.835  1.00  0.00    -0.345 OA
ATOM     51  H6  UNL     1      -3.619 -15.850  55.163  1.00  0.00     0.219 HD
ENDBRANCH  30  50
BRANCH  16  52
HETATM   52  C21 UNL     1       0.151 -19.532  53.599  1.00  0.00     0.013 C 
HETATM   53  C22 UNL     1       1.212 -20.369  52.957  1.00  0.00     0.012 C 
BRANCH  52  54
HETATM   54  C23 UNL     1       0.605 -18.088  53.717  1.00  0.00     0.002 C 
HETATM   55  C24 UNL     1       1.648 -17.893  52.617  1.00  0.00     0.005 C 
ENDBRANCH  52  54
ENDBRANCH  16  52
TORSDOF 12
ENDMDL
MODEL 4
REMARK VINA RESULT: -6.695803354      3.832      8.547
REMARK  12 active torsions:
REMARK  status: ('A' for Active; 'I' for Inactive)
REMARK    1  A    between atoms: C2_2  and  C3_3 
REMARK    2  A    between atoms: C3_3  and  C4_4 
REMARK    3  A    between atoms: C4_4  and  C5_5 
REMARK    4  A    between atoms: C7_10  and  C8_11 
REMARK    5  A    between atoms: C8_11  and  C9_12 
REMARK    6  A    between atoms: C9_12  and  C11_14 
REMARK    7  A    between atoms: C14_20  and  C15_21 
REMARK    8  A    between atoms: C15_21  and  C16_22 
REMARK    9  A    between atoms: C20_29  and  C21_30 
REMARK   10  A    between atoms: C21_30  and  C23_32 
REMARK   11  A    between atoms: C31_47  and  O6_48 
REMARK   12  A    between atoms: C32_50  and  C33_51 
ROOT
HETATM    1  C5  UNL     1      -3.986 -17.278  50.989  1.00  0.00     0.184 C 
HETATM    2  N1  UNL     1      -2.964 -18.116  50.445  1.00  0.00    -0.338 N 
ATOM      3  H1  UNL     1      -3.151 -19.118  50.478  1.00  0.00     0.164 HD
HETATM    4  C6  UNL     1      -1.731 -17.743  49.867  1.00  0.00     0.242 C 
HETATM    5  O1  UNL     1      -0.630 -18.126  50.436  1.00  0.00    -0.271 OA
HETATM    6  C7  UNL     1      -1.530 -16.941  48.650  1.00  0.00     0.177 C 
HETATM    7  N2  UNL     1      -0.204 -16.354  48.647  1.00  0.00    -0.346 N 
ATOM      8  H2  UNL     1       0.599 -16.965  48.798  1.00  0.00     0.163 HD
HETATM    9  C13 UNL     1       0.026 -14.979  48.446  1.00  0.00     0.241 C 
HETATM   10  O2  UNL     1       0.983 -14.565  47.700  1.00  0.00    -0.271 OA
HETATM   11  C14 UNL     1      -0.795 -13.908  49.064  1.00  0.00     0.177 C 
HETATM   12  N3  UNL     1      -1.132 -12.987  48.008  1.00  0.00    -0.346 N 
ATOM     13  H3  UNL     1      -0.341 -12.625  47.475  1.00  0.00     0.163 HD
HETATM   14  C19 UNL     1      -2.371 -12.525  47.613  1.00  0.00     0.241 C 
HETATM   15  O3  UNL     1      -2.579 -11.262  47.570  1.00  0.00    -0.271 OA
HETATM   16  C20 UNL     1      -3.567 -13.354  47.208  1.00  0.00     0.180 C 
HETATM   17  N4  UNL     1      -4.767 -12.822  47.815  1.00  0.00    -0.346 N 
ATOM     18  H4  UNL     1      -4.785 -11.806  47.900  1.00  0.00     0.163 HD
HETATM   19  C25 UNL     1      -5.906 -13.470  48.306  1.00  0.00     0.241 C 
HETATM   20  O4  UNL     1      -6.145 -13.226  49.557  1.00  0.00    -0.271 OA
HETATM   21  C26 UNL     1      -6.853 -14.359  47.637  1.00  0.00     0.187 C 
HETATM   22  C27 UNL     1      -7.467 -13.648  46.397  1.00  0.00     0.138 C 
HETATM   23  C28 UNL     1      -8.644 -14.434  45.956  1.00  0.00     0.220 C 
HETATM   24  O5  UNL     1      -9.763 -13.871  45.934  1.00  0.00    -0.274 OA
HETATM   25  N5  UNL     1      -8.691 -15.796  45.534  1.00  0.00    -0.359 N 
ATOM     26  H5  UNL     1      -9.566 -16.078  45.093  1.00  0.00     0.162 HD
HETATM   27  C29 UNL     1      -7.692 -16.841  45.633  1.00  0.00     0.142 C 
HETATM   28  C30 UNL     1      -6.385 -16.183  45.929  1.00  0.00     0.145 C 
HETATM   29  N6  UNL     1      -6.462 -15.702  47.349  1.00  0.00    -0.345 N 
HETATM   30  C31 UNL     1      -6.116 -16.773  48.149  1.00  0.00     0.162 C 
HETATM   31  C32 UNL     1      -5.967 -16.940  49.620  1.00  0.00     0.061 C 
HETATM   32  N7  UNL     1      -4.718 -16.451  50.089  1.00  0.00    -0.368 N 
ATOM     33  H7  UNL     1      -4.359 -15.544  49.793  1.00  0.00     0.161 HD
ENDROOT
BRANCH   6  34
HETATM   34  C8  UNL     1      -1.907 -17.553  47.367  1.00  0.00     0.039 C 
BRANCH  34  35
HETATM   35  C9  UNL     1      -1.031 -18.518  46.676  1.00  0.00    -0.017 C 
HETATM   36  C10 UNL     1      -1.392 -18.483  45.143  1.00  0.00     0.010 C 
BRANCH  35  37
HETATM   37  C11 UNL     1      -1.255 -19.982  46.997  1.00  0.00    -0.000 C 
HETATM   38  C12 UNL     1      -0.267 -20.831  46.175  1.00  0.00     0.005 C 
ENDBRANCH  35  37
ENDBRANCH  34  35
ENDBRANCH   6  34
BRANCH   1  39
HETATM   39  C4  UNL     1      -3.472 -16.454  52.189  1.00  0.00     0.047 C 
BRANCH  39  40
HETATM   40  C3  UNL     1      -3.632 -17.312  53.410  1.00  0.00     0.003 C 
BRANCH  40  41
HETATM   41  C2  UNL     1      -4.929 -18.050  53.450  1.00  0.00    -0.004 C 
HETATM   42  C1  UNL     1      -4.752 -19.488  53.891  1.00  0.00     0.005 C 
ENDBRANCH  40  41
ENDBRANCH  39  40
ENDBRANCH   1  39
BRANCH  11  43
HETATM   43  C15 UNL     1       0.091 -13.266  50.114  1.00  0.00     0.038 C 
BRANCH  43  44
HETATM   44  C16 UNL     1      -0.456 -13.462  51.507  1.00  0.00    -0.020 C 
HETATM   45  C17 UNL     1      -0.029 -14.863  51.958  1.00  0.00     0.009 C 
HETATM   46  C18 UNL     1       0.189 -12.508  52.489  1.00  0.00     0.009 C 
ENDBRANCH  43  44
ENDBRANCH  11  43
BRANCH  31  47
HETATM   47  C33 UNL     1      -7.192 -16.648  50.393  1.00  0.00     0.031 C 
HETATM   48  C34 UNL     1      -7.089 -15.640  51.500  1.00  0.00     0.016 C 
HETATM   49  C35 UNL     1      -7.744 -17.913  51.082  1.00  0.00     0.016 C 
ENDBRANCH  31  47
BRANCH  30  50
HETATM   50  O6  UNL     1      -5.869 -17.868  47.475  1.00  0.00    -0.345 OA
ATOM     51  H6  UNL     1      -5.961 -18.659  47.994  1.00  0.00     0.219 HD
ENDBRANCH  30  50
BRANCH  16  52
HETATM   52  C21 UNL     1      -3.611 -13.177  45.682  1.00  0.00     0.013 C 
HETATM   53  C22 UNL     1      -3.574 -14.482  44.953  1.00  0.00     0.012 C 
BRANCH  52  54
HETATM   54  C23 UNL     1      -4.872 -12.405  45.337  1.00  0.00     0.002 C 
HETATM   55  C24 UNL     1      -4.404 -11.002  44.953  1.00  0.00     0.005 C 
ENDBRANCH  52  54
ENDBRANCH  16  52
TORSDOF 12
ENDMDL
MODEL 5
REMARK VINA RESULT: -6.059546911      2.763      8.225
REMARK  12 active torsions:
REMARK  status: ('A' for Active; 'I' for Inactive)
REMARK    1  A    between atoms: C2_2  and  C3_3 
REMARK    2  A    between atoms: C3_3  and  C4_4 
REMARK    3  A    between atoms: C4_4  and  C5_5 
REMARK    4  A    between atoms: C7_10  and  C8_11 
REMARK    5  A    between atoms: C8_11  and  C9_12 
REMARK    6  A    between atoms: C9_12  and  C11_14 
REMARK    7  A    between atoms: C14_20  and  C15_21 
REMARK    8  A    between atoms: C15_21  and  C16_22 
REMARK    9  A    between atoms: C20_29  and  C21_30 
REMARK   10  A    between atoms: C21_30  and  C23_32 
REMARK   11  A    between atoms: C31_47  and  O6_48 
REMARK   12  A    between atoms: C32_50  and  C33_51 
ROOT
HETATM    1  C5  UNL     1      -0.946 -18.706  49.560  1.00  0.00     0.184 C 
HETATM    2  N1  UNL     1      -0.277 -18.267  50.745  1.00  0.00    -0.338 N 
ATOM      3  H1  UNL     1       0.707 -18.026  50.632  1.00  0.00     0.164 HD
HETATM    4  C6  UNL     1      -0.797 -18.123  52.050  1.00  0.00     0.242 C 
HETATM    5  O1  UNL     1      -0.309 -18.853  53.004  1.00  0.00    -0.271 OA
HETATM    6  C7  UNL     1      -1.867 -17.210  52.481  1.00  0.00     0.177 C 
HETATM    7  N2  UNL     1      -2.460 -17.678  53.718  1.00  0.00    -0.346 N 
ATOM      8  H2  UNL     1      -1.845 -17.887  54.504  1.00  0.00     0.163 HD
HETATM    9  C13 UNL     1      -3.848 -17.856  53.885  1.00  0.00     0.241 C 
HETATM   10  O2  UNL     1      -4.442 -17.492  54.961  1.00  0.00    -0.271 OA
HETATM   11  C14 UNL     1      -4.729 -18.467  52.858  1.00  0.00     0.177 C 
HETATM   12  N3  UNL     1      -5.867 -17.595  52.722  1.00  0.00    -0.346 N 
ATOM     13  H3  UNL     1      -6.358 -17.378  53.589  1.00  0.00     0.163 HD
HETATM   14  C19 UNL     1      -6.389 -17.011  51.584  1.00  0.00     0.241 C 
HETATM   15  O3  UNL     1      -7.622 -17.201  51.298  1.00  0.00    -0.271 OA
HETATM   16  C20 UNL     1      -5.659 -16.138  50.591  1.00  0.00     0.180 C 
HETATM   17  N4  UNL     1      -6.012 -16.522  49.242  1.00  0.00    -0.346 N 
ATOM     18  H4  UNL     1      -6.979 -16.825  49.126  1.00  0.00     0.163 HD
HETATM   19  C25 UNL     1      -5.248 -16.547  48.070  1.00  0.00     0.241 C 
HETATM   20  O4  UNL     1      -5.185 -17.717  47.515  1.00  0.00    -0.271 OA
HETATM   21  C26 UNL     1      -4.527 -15.476  47.387  1.00  0.00     0.187 C 
HETATM   22  C27 UNL     1      -5.500 -14.313  47.042  1.00  0.00     0.138 C 
HETATM   23  C28 UNL     1      -4.821 -13.421  46.072  1.00  0.00     0.220 C 
HETATM   24  O5  UNL     1      -5.354 -13.240  44.953  1.00  0.00    -0.274 OA
HETATM   25  N5  UNL     1      -3.597 -12.706  46.233  1.00  0.00    -0.359 N 
ATOM     26  H5  UNL     1      -3.412 -12.005  45.517  1.00  0.00     0.162 HD
HETATM   27  C29 UNL     1      -2.575 -12.820  47.254  1.00  0.00     0.142 C 
HETATM   28  C30 UNL     1      -3.166 -13.580  48.395  1.00  0.00     0.145 C 
HETATM   29  N6  UNL     1      -3.296 -15.004  47.937  1.00  0.00    -0.345 N 
HETATM   30  C31 UNL     1      -2.072 -15.605  48.157  1.00  0.00     0.162 C 
HETATM   31  C32 UNL     1      -1.565 -16.988  47.954  1.00  0.00     0.061 C 
HETATM   32  N7  UNL     1      -1.950 -17.858  49.010  1.00  0.00    -0.368 N 
ATOM     33  H7  UNL     1      -2.908 -17.875  49.360  1.00  0.00     0.161 HD
ENDROOT
BRANCH   6  34
HETATM   34  C8  UNL     1      -1.570 -15.770  52.477  1.00  0.00     0.039 C 
BRANCH  34  35
HETATM   35  C9  UNL     1      -0.187 -15.259  52.500  1.00  0.00    -0.017 C 
HETATM   36  C10 UNL     1       0.191 -14.958  54.000  1.00  0.00     0.010 C 
BRANCH  35  37
HETATM   37  C11 UNL     1       0.043 -13.903  51.862  1.00  0.00    -0.000 C 
HETATM   38  C12 UNL     1      -0.515 -12.812  52.793  1.00  0.00     0.005 C 
ENDBRANCH  35  37
ENDBRANCH  34  35
ENDBRANCH   6  34
BRANCH   1  39
HETATM   39  C4  UNL     1      -1.472 -20.151  49.700  1.00  0.00     0.047 C 
BRANCH  39  40
HETATM   40  C3  UNL     1      -0.623 -21.013  48.812  1.00  0.00     0.003 C 
BRANCH  40  41
HETATM   41  C2  UNL     1      -1.279 -21.354  47.515  1.00  0.00    -0.004 C 
HETATM   42  C1  UNL     1      -0.270 -21.736  46.452  1.00  0.00     0.005 C 
ENDBRANCH  40  41
ENDBRANCH  39  40
ENDBRANCH   1  39
BRANCH  11  43
HETATM   43  C15 UNL     1      -5.118 -19.826  53.409  1.00  0.00     0.038 C 
BRANCH  43  44
HETATM   44  C16 UNL     1      -4.610 -20.029  54.816  1.00  0.00    -0.020 C 
HETATM   45  C17 UNL     1      -5.786 -20.568  55.638  1.00  0.00     0.009 C 
HETATM   46  C18 UNL     1      -3.553 -21.110  54.867  1.00  0.00     0.009 C 
ENDBRANCH  43  44
ENDBRANCH  11  43
BRANCH  31  47
HETATM   47  C33 UNL     1      -1.646 -17.467  46.559  1.00  0.00     0.031 C 
HETATM   48  C34 UNL     1      -2.589 -18.598  46.268  1.00  0.00     0.016 C 
HETATM   49  C35 UNL     1      -0.279 -17.974  46.053  1.00  0.00     0.016 C 
ENDBRANCH  31  47
BRANCH  30  50
HETATM   50  O6  UNL     1      -1.172 -14.788  48.644  1.00  0.00    -0.345 OA
ATOM     51  H6  UNL     1      -0.282 -15.034  48.423  1.00  0.00     0.219 HD
ENDBRANCH  30  50
BRANCH  16  52
HETATM   52  C21 UNL     1      -6.191 -14.732  50.908  1.00  0.00     0.013 C 
HETATM   53  C22 UNL     1      -5.124 -13.818  51.421  1.00  0.00     0.012 C 
BRANCH  52  54
HETATM   54  C23 UNL     1      -6.816 -14.172  49.643  1.00  0.00     0.002 C 
HETATM   55  C24 UNL     1      -7.092 -12.698  49.937  1.00  0.00     0.005 C 
ENDBRANCH  52  54
ENDBRANCH  16  52
TORSDOF 12
ENDMDL
