MODEL 1
REMARK VINA RESULT: -6.920808555      0.000      0.000
REMARK  14 active torsions:
REMARK  status: ('A' for Active; 'I' for Inactive)
REMARK    1  A    between atoms: C2_2  and  C3_3 
REMARK    2  A    between atoms: C3_3  and  C4_4 
REMARK    3  A    between atoms: C4_4  and  C5_5 
REMARK    4  A    between atoms: C7_10  and  C8_11 
REMARK    5  A    between atoms: C11_17  and  C12_18 
REMARK    6  A    between atoms: C12_18  and  C13_19 
REMARK    7  A    between atoms: C16_24  and  O3_25 
REMARK    8  A    between atoms: C17_27  and  C18_28 
REMARK    9  A    between atoms: C18_28  and  C19_29 
REMARK   10  A    between atoms: C23_40  and  C24_41 
REMARK   11  A    between atoms: C24_41  and  C25_42 
REMARK   12  A    between atoms: C30_49  and  C31_50 
REMARK   13  A    between atoms: C31_50  and  C32_51 
REMARK   14  A    between atoms: C35_56  and  O6_57 
ROOT
HETATM    1  C5  UNL     1      -5.614 -15.527  51.518  1.00  0.00     0.159 C 
HETATM    2  N1  UNL     1      -5.959 -16.831  51.025  1.00  0.00    -0.347 N 
ATOM      3  H1  UNL     1      -5.845 -17.002  50.026  1.00  0.00     0.163 HD
HETATM    4  C6  UNL     1      -6.446 -17.897  51.820  1.00  0.00     0.241 C 
HETATM    5  O1  UNL     1      -6.577 -19.025  51.293  1.00  0.00    -0.271 OA
HETATM    6  C7  UNL     1      -6.831 -17.818  53.265  1.00  0.00     0.176 C 
HETATM    7  N2  UNL     1      -6.878 -19.129  53.866  1.00  0.00    -0.346 N 
ATOM      8  H2  UNL     1      -7.773 -19.612  53.788  1.00  0.00     0.163 HD
HETATM    9  C10 UNL     1      -5.877 -19.833  54.537  1.00  0.00     0.241 C 
HETATM   10  O2  UNL     1      -5.493 -20.952  54.028  1.00  0.00    -0.271 OA
HETATM   11  C11 UNL     1      -5.178 -19.439  55.816  1.00  0.00     0.175 C 
HETATM   12  N3  UNL     1      -4.719 -18.086  55.813  1.00  0.00    -0.359 N 
ATOM     13  H3  UNL     1      -5.438 -17.394  56.022  1.00  0.00     0.162 HD
HETATM   14  C16 UNL     1      -3.455 -17.555  55.573  1.00  0.00     0.135 C 
HETATM   15  C17 UNL     1      -2.399 -17.919  54.632  1.00  0.00     0.164 C 
HETATM   16  N6  UNL     1      -2.572 -19.015  53.773  1.00  0.00    -0.347 N 
ATOM     17  H6  UNL     1      -2.768 -19.910  54.220  1.00  0.00     0.163 HD
HETATM   18  C22 UNL     1      -2.506 -19.023  52.359  1.00  0.00     0.241 C 
HETATM   19  O4  UNL     1      -3.319 -19.741  51.738  1.00  0.00    -0.271 OA
HETATM   20  C23 UNL     1      -1.517 -18.224  51.558  1.00  0.00     0.179 C 
HETATM   21  N7  UNL     1      -1.997 -18.152  50.206  1.00  0.00    -0.341 N 
HETATM   22  C28 UNL     1      -1.880 -19.367  49.378  1.00  0.00     0.153 C 
HETATM   23  C29 UNL     1      -2.599 -17.062  49.538  1.00  0.00     0.243 C 
HETATM   24  O5  UNL     1      -3.466 -17.337  48.611  1.00  0.00    -0.271 OA
HETATM   25  C30 UNL     1      -2.366 -15.638  49.754  1.00  0.00     0.176 C 
HETATM   26  N8  UNL     1      -3.213 -14.897  50.625  1.00  0.00    -0.359 N 
ATOM     27  H8  UNL     1      -3.031 -13.897  50.541  1.00  0.00     0.162 HD
HETATM   28  C35 UNL     1      -4.213 -15.138  51.556  1.00  0.00     0.135 C 
ENDROOT
BRANCH  15  29
HETATM   29  C18 UNL     1      -1.115 -18.076  55.452  1.00  0.00     0.092 C 
BRANCH  29  30
HETATM   30  C19 UNL     1      -1.094 -19.313  56.255  1.00  0.00     0.028 A 
HETATM   31  C20 UNL     1      -1.492 -19.459  57.589  1.00  0.00     0.114 A 
HETATM   32  N4  UNL     1      -1.335 -20.726  57.966  1.00  0.00    -0.360 N 
HETATM   33  C21 UNL     1      -0.849 -21.413  56.923  1.00  0.00     0.180 A 
ATOM     34  H4  UNL     1      -1.549 -21.107  58.887  1.00  0.00     0.166 HD
HETATM   35  N5  UNL     1      -0.699 -20.562  55.879  1.00  0.00    -0.354 N 
ATOM     36  H5  UNL     1      -0.346 -20.817  54.957  1.00  0.00     0.166 HD
ENDBRANCH  29  30
ENDBRANCH  15  29
BRANCH  14  37
HETATM   37  O3  UNL     1      -3.119 -16.534  56.314  1.00  0.00    -0.348 OA
ATOM     38  H3  UNL     1      -2.639 -15.844  55.873  1.00  0.00     0.219 HD
ENDBRANCH  14  37
BRANCH  11  39
HETATM   39  C12 UNL     1      -6.084 -19.789  56.968  1.00  0.00     0.038 C 
BRANCH  39  40
HETATM   40  C13 UNL     1      -5.479 -20.059  58.285  1.00  0.00    -0.020 C 
HETATM   41  C14 UNL     1      -5.863 -21.516  58.701  1.00  0.00     0.009 C 
HETATM   42  C15 UNL     1      -6.183 -19.233  59.371  1.00  0.00     0.009 C 
ENDBRANCH  39  40
ENDBRANCH  11  39
BRANCH  20  43
HETATM   43  C24 UNL     1      -0.179 -18.924  51.558  1.00  0.00     0.039 C 
BRANCH  43  44
HETATM   44  C25 UNL     1       0.917 -18.052  52.088  1.00  0.00    -0.020 C 
HETATM   45  C26 UNL     1       0.483 -16.645  52.424  1.00  0.00     0.009 C 
HETATM   46  C27 UNL     1       1.592 -18.652  53.301  1.00  0.00     0.009 C 
ENDBRANCH  43  44
ENDBRANCH  20  43
BRANCH   6  47
HETATM   47  C8  UNL     1      -8.263 -17.250  53.372  1.00  0.00     0.030 C 
HETATM   48  C9  UNL     1      -8.665 -17.322  54.817  1.00  0.00     0.007 C 
ENDBRANCH   6  47
BRANCH  25  49
HETATM   49  C31 UNL     1      -2.393 -15.038  48.321  1.00  0.00     0.038 C 
BRANCH  49  50
HETATM   50  C32 UNL     1      -2.826 -13.618  48.292  1.00  0.00    -0.020 C 
HETATM   51  C33 UNL     1      -1.637 -12.696  48.349  1.00  0.00     0.009 C 
HETATM   52  C34 UNL     1      -3.454 -13.408  46.901  1.00  0.00     0.009 C 
ENDBRANCH  49  50
ENDBRANCH  25  49
BRANCH  28  53
HETATM   53  O6  UNL     1      -3.809 -14.970  52.806  1.00  0.00    -0.348 OA
ATOM     54  H6  UNL     1      -2.886 -15.179  52.891  1.00  0.00     0.219 HD
ENDBRANCH  28  53
BRANCH   1  55
HETATM   55  C4  UNL     1      -6.449 -14.435  50.844  1.00  0.00     0.033 C 
BRANCH  55  56
HETATM   56  C3  UNL     1      -6.347 -14.560  49.340  1.00  0.00     0.002 C 
BRANCH  56  57
HETATM   57  C2  UNL     1      -6.701 -13.261  48.649  1.00  0.00    -0.004 C 
HETATM   58  C1  UNL     1      -7.226 -13.508  47.249  1.00  0.00     0.005 C 
ENDBRANCH  56  57
ENDBRANCH  55  56
ENDBRANCH   1  55
TORSDOF 14
ENDMDL
MODEL 2
REMARK VINA RESULT: -6.496847756      2.875      8.230
REMARK  14 active torsions:
REMARK  status: ('A' for Active; 'I' for Inactive)
REMARK    1  A    between atoms: C2_2  and  C3_3 
REMARK    2  A    between atoms: C3_3  and  C4_4 
REMARK    3  A    between atoms: C4_4  and  C5_5 
REMARK    4  A    between atoms: C7_10  and  C8_11 
REMARK    5  A    between atoms: C11_17  and  C12_18 
REMARK    6  A    between atoms: C12_18  and  C13_19 
REMARK    7  A    between atoms: C16_24  and  O3_25 
REMARK    8  A    between atoms: C17_27  and  C18_28 
REMARK    9  A    between atoms: C18_28  and  C19_29 
REMARK   10  A    between atoms: C23_40  and  C24_41 
REMARK   11  A    between atoms: C24_41  and  C25_42 
REMARK   12  A    between atoms: C30_49  and  C31_50 
REMARK   13  A    between atoms: C31_50  and  C32_51 
REMARK   14  A    between atoms: C35_56  and  O6_57 
ROOT
HETATM    1  C5  UNL     1      -3.874 -17.436  51.808  1.00  0.00     0.159 C 
HETATM    2  N1  UNL     1      -4.054 -16.040  52.094  1.00  0.00    -0.347 N 
ATOM      3  H1  UNL     1      -3.433 -15.615  52.782  1.00  0.00     0.163 HD
HETATM    4  C6  UNL     1      -5.030 -15.209  51.492  1.00  0.00     0.241 C 
HETATM    5  O1  UNL     1      -4.993 -13.979  51.724  1.00  0.00    -0.271 OA
HETATM    6  C7  UNL     1      -6.132 -15.655  50.581  1.00  0.00     0.176 C 
HETATM    7  N2  UNL     1      -6.669 -14.546  49.829  1.00  0.00    -0.346 N 
ATOM      8  H2  UNL     1      -7.427 -14.038  50.284  1.00  0.00     0.163 HD
HETATM    9  C10 UNL     1      -6.302 -14.068  48.570  1.00  0.00     0.241 C 
HETATM   10  O2  UNL     1      -5.848 -12.866  48.499  1.00  0.00    -0.271 OA
HETATM   11  C11 UNL     1      -6.378 -14.803  47.252  1.00  0.00     0.175 C 
HETATM   12  N3  UNL     1      -5.824 -16.118  47.308  1.00  0.00    -0.359 N 
ATOM     13  H3  UNL     1      -6.443 -16.823  47.707  1.00  0.00     0.162 HD
HETATM   14  C16 UNL     1      -4.581 -16.599  46.908  1.00  0.00     0.135 C 
HETATM   15  C17 UNL     1      -3.239 -16.027  46.974  1.00  0.00     0.164 C 
HETATM   16  N6  UNL     1      -3.049 -14.741  47.500  1.00  0.00    -0.347 N 
ATOM     17  H6  UNL     1      -3.572 -13.989  47.050  1.00  0.00     0.163 HD
HETATM   18  C22 UNL     1      -2.218 -14.363  48.582  1.00  0.00     0.241 C 
HETATM   19  O4  UNL     1      -2.640 -13.487  49.368  1.00  0.00    -0.271 OA
HETATM   20  C23 UNL     1      -0.859 -14.948  48.844  1.00  0.00     0.179 C 
HETATM   21  N7  UNL     1      -0.504 -14.650  50.203  1.00  0.00    -0.341 N 
HETATM   22  C28 UNL     1      -0.107 -13.263  50.514  1.00  0.00     0.153 C 
HETATM   23  C29 UNL     1      -0.493 -15.512  51.324  1.00  0.00     0.243 C 
HETATM   24  O5  UNL     1      -0.734 -14.981  52.484  1.00  0.00    -0.271 OA
HETATM   25  C30 UNL     1      -0.237 -16.947  51.350  1.00  0.00     0.176 C 
HETATM   26  N8  UNL     1      -1.320 -17.869  51.307  1.00  0.00    -0.359 N 
ATOM     27  H8  UNL     1      -0.995 -18.816  51.502  1.00  0.00     0.162 HD
HETATM   28  C35 UNL     1      -2.688 -17.857  51.078  1.00  0.00     0.135 C 
ENDROOT
BRANCH  15  29
HETATM   29  C18 UNL     1      -2.649 -16.124  45.563  1.00  0.00     0.092 C 
BRANCH  29  30
HETATM   30  C19 UNL     1      -1.571 -17.125  45.460  1.00  0.00     0.028 A 
HETATM   31  C20 UNL     1      -0.280 -16.926  44.957  1.00  0.00     0.114 A 
HETATM   32  N4  UNL     1       0.410 -18.061  45.033  1.00  0.00    -0.360 N 
HETATM   33  C21 UNL     1      -0.386 -18.996  45.570  1.00  0.00     0.180 A 
ATOM     34  H4  UNL     1       1.376 -18.196  44.736  1.00  0.00     0.166 HD
HETATM   35  N5  UNL     1      -1.592 -18.436  45.833  1.00  0.00    -0.354 N 
ATOM     36  H5  UNL     1      -2.390 -18.920  46.244  1.00  0.00     0.166 HD
ENDBRANCH  29  30
ENDBRANCH  15  29
BRANCH  14  37
HETATM   37  O3  UNL     1      -4.580 -17.786  46.366  1.00  0.00    -0.348 OA
ATOM     38  H3  UNL     1      -4.079 -18.449  46.825  1.00  0.00     0.219 HD
ENDBRANCH  14  37
BRANCH  11  39
HETATM   39  C12 UNL     1      -7.804 -14.744  46.769  1.00  0.00     0.038 C 
BRANCH  39  40
HETATM   40  C13 UNL     1      -8.116 -13.914  45.592  1.00  0.00    -0.020 C 
HETATM   41  C14 UNL     1      -6.765 -13.457  44.953  1.00  0.00     0.009 C 
HETATM   42  C15 UNL     1      -8.718 -12.572  46.033  1.00  0.00     0.009 C 
ENDBRANCH  39  40
ENDBRANCH  11  39
BRANCH  20  43
HETATM   43  C24 UNL     1       0.156 -14.306  47.928  1.00  0.00     0.039 C 
BRANCH  43  44
HETATM   44  C25 UNL     1      -0.449 -13.234  47.076  1.00  0.00    -0.020 C 
HETATM   45  C26 UNL     1      -0.012 -11.834  47.435  1.00  0.00     0.009 C 
HETATM   46  C27 UNL     1      -0.191 -13.458  45.603  1.00  0.00     0.009 C 
ENDBRANCH  43  44
ENDBRANCH  20  43
BRANCH   6  47
HETATM   47  C8  UNL     1      -7.300 -16.194  51.435  1.00  0.00     0.030 C 
HETATM   48  C9  UNL     1      -7.855 -17.395  50.724  1.00  0.00     0.007 C 
ENDBRANCH   6  47
BRANCH  25  49
HETATM   49  C31 UNL     1       0.606 -17.149  52.639  1.00  0.00     0.038 C 
BRANCH  49  50
HETATM   50  C32 UNL     1       0.136 -18.286  53.470  1.00  0.00    -0.020 C 
HETATM   51  C33 UNL     1       1.288 -19.171  53.864  1.00  0.00     0.009 C 
HETATM   52  C34 UNL     1      -0.376 -17.655  54.780  1.00  0.00     0.009 C 
ENDBRANCH  49  50
ENDBRANCH  25  49
BRANCH  28  53
HETATM   53  O6  UNL     1      -3.020 -18.357  49.897  1.00  0.00    -0.348 OA
ATOM     54  H6  UNL     1      -2.243 -18.573  49.394  1.00  0.00     0.219 HD
ENDBRANCH  28  53
BRANCH   1  55
HETATM   55  C4  UNL     1      -4.052 -18.291  53.066  1.00  0.00     0.033 C 
BRANCH  55  56
HETATM   56  C3  UNL     1      -5.478 -18.784  53.159  1.00  0.00     0.002 C 
BRANCH  56  57
HETATM   57  C2  UNL     1      -6.127 -18.367  54.460  1.00  0.00    -0.004 C 
HETATM   58  C1  UNL     1      -7.636 -18.501  54.390  1.00  0.00     0.005 C 
ENDBRANCH  56  57
ENDBRANCH  55  56
ENDBRANCH   1  55
TORSDOF 14
ENDMDL
MODEL 3
REMARK VINA RESULT: -6.261961374      2.043      6.231
REMARK  14 active torsions:
REMARK  status: ('A' for Active; 'I' for Inactive)
REMARK    1  A    between atoms: C2_2  and  C3_3 
REMARK    2  A    between atoms: C3_3  and  C4_4 
REMARK    3  A    between atoms: C4_4  and  C5_5 
REMARK    4  A    between atoms: C7_10  and  C8_11 
REMARK    5  A    between atoms: C11_17  and  C12_18 
REMARK    6  A    between atoms: C12_18  and  C13_19 
REMARK    7  A    between atoms: C16_24  and  O3_25 
REMARK    8  A    between atoms: C17_27  and  C18_28 
REMARK    9  A    between atoms: C18_28  and  C19_29 
REMARK   10  A    between atoms: C23_40  and  C24_41 
REMARK   11  A    between atoms: C24_41  and  C25_42 
REMARK   12  A    between atoms: C30_49  and  C31_50 
REMARK   13  A    between atoms: C31_50  and  C32_51 
REMARK   14  A    between atoms: C35_56  and  O6_57 
ROOT
HETATM    1  C5  UNL     1      -0.522 -19.793  52.250  1.00  0.00     0.159 C 
HETATM    2  N1  UNL     1      -0.249 -18.768  53.217  1.00  0.00    -0.347 N 
ATOM      3  H1  UNL     1       0.397 -18.026  52.948  1.00  0.00     0.163 HD
HETATM    4  C6  UNL     1      -0.809 -18.709  54.517  1.00  0.00     0.241 C 
HETATM    5  O1  UNL     1      -0.599 -17.689  55.212  1.00  0.00    -0.271 OA
HETATM    6  C7  UNL     1      -1.651 -19.763  55.166  1.00  0.00     0.176 C 
HETATM    7  N2  UNL     1      -2.389 -19.227  56.284  1.00  0.00    -0.346 N 
ATOM      8  H2  UNL     1      -1.901 -19.250  57.179  1.00  0.00     0.163 HD
HETATM    9  C10 UNL     1      -3.673 -18.682  56.319  1.00  0.00     0.241 C 
HETATM   10  O2  UNL     1      -3.788 -17.450  56.675  1.00  0.00    -0.271 OA
HETATM   11  C11 UNL     1      -4.973 -19.376  55.988  1.00  0.00     0.175 C 
HETATM   12  N3  UNL     1      -4.929 -20.099  54.758  1.00  0.00    -0.359 N 
ATOM     13  H3  UNL     1      -4.485 -21.016  54.820  1.00  0.00     0.162 HD
HETATM   14  C16 UNL     1      -5.389 -19.764  53.488  1.00  0.00     0.135 C 
HETATM   15  C17 UNL     1      -5.405 -18.504  52.751  1.00  0.00     0.164 C 
HETATM   16  N6  UNL     1      -4.911 -17.335  53.348  1.00  0.00    -0.347 N 
ATOM     17  H6  UNL     1      -5.343 -17.063  54.231  1.00  0.00     0.163 HD
HETATM   18  C22 UNL     1      -3.882 -16.489  52.868  1.00  0.00     0.241 C 
HETATM   19  O4  UNL     1      -3.087 -16.001  53.701  1.00  0.00    -0.271 OA
HETATM   20  C23 UNL     1      -3.686 -16.138  51.420  1.00  0.00     0.179 C 
HETATM   21  N7  UNL     1      -2.354 -15.625  51.265  1.00  0.00    -0.341 N 
HETATM   22  C28 UNL     1      -2.086 -14.263  51.763  1.00  0.00     0.153 C 
HETATM   23  C29 UNL     1      -1.222 -16.260  50.703  1.00  0.00     0.243 C 
HETATM   24  O5  UNL     1      -0.059 -15.925  51.173  1.00  0.00    -0.271 OA
HETATM   25  C30 UNL     1      -1.189 -17.259  49.641  1.00  0.00     0.176 C 
HETATM   26  N8  UNL     1      -1.157 -18.645  49.961  1.00  0.00    -0.359 N 
ATOM     27  H8  UNL     1      -0.966 -19.202  49.129  1.00  0.00     0.162 HD
HETATM   28  C35 UNL     1      -1.311 -19.459  51.074  1.00  0.00     0.135 C 
ENDROOT
BRANCH  15  29
HETATM   29  C18 UNL     1      -6.845 -18.295  52.270  1.00  0.00     0.092 C 
BRANCH  29  30
HETATM   30  C19 UNL     1      -7.736 -17.788  53.330  1.00  0.00     0.028 A 
HETATM   31  C20 UNL     1      -8.510 -16.622  53.296  1.00  0.00     0.114 A 
HETATM   32  N4  UNL     1      -9.189 -16.503  54.435  1.00  0.00    -0.360 N 
HETATM   33  C21 UNL     1      -8.886 -17.552  55.211  1.00  0.00     0.180 A 
ATOM     34  H4  UNL     1      -9.829 -15.746  54.674  1.00  0.00     0.166 HD
HETATM   35  N5  UNL     1      -8.003 -18.338  54.549  1.00  0.00    -0.354 N 
ATOM     36  H5  UNL     1      -7.602 -19.205  54.906  1.00  0.00     0.166 HD
ENDBRANCH  29  30
ENDBRANCH  15  29
BRANCH  14  37
HETATM   37  O3  UNL     1      -5.912 -20.741  52.798  1.00  0.00    -0.348 OA
ATOM     38  H3  UNL     1      -6.750 -20.557  52.391  1.00  0.00     0.219 HD
ENDBRANCH  14  37
BRANCH  11  39
HETATM   39  C12 UNL     1      -5.378 -20.199  57.183  1.00  0.00     0.038 C 
BRANCH  39  40
HETATM   40  C13 UNL     1      -5.069 -21.640  57.186  1.00  0.00    -0.020 C 
HETATM   41  C14 UNL     1      -6.365 -22.410  57.601  1.00  0.00     0.009 C 
HETATM   42  C15 UNL     1      -4.125 -21.978  58.349  1.00  0.00     0.009 C 
ENDBRANCH  39  40
ENDBRANCH  11  39
BRANCH  20  43
HETATM   43  C24 UNL     1      -4.667 -15.060  51.022  1.00  0.00     0.039 C 
BRANCH  43  44
HETATM   44  C25 UNL     1      -5.636 -15.533  49.983  1.00  0.00    -0.020 C 
HETATM   45  C26 UNL     1      -6.211 -14.433  49.122  1.00  0.00     0.009 C 
HETATM   46  C27 UNL     1      -5.040 -16.591  49.081  1.00  0.00     0.009 C 
ENDBRANCH  43  44
ENDBRANCH  20  43
BRANCH   6  47
HETATM   47  C8  UNL     1      -0.725 -20.853  55.751  1.00  0.00     0.030 C 
HETATM   48  C9  UNL     1      -0.967 -20.895  57.232  1.00  0.00     0.007 C 
ENDBRANCH   6  47
BRANCH  25  49
HETATM   49  C31 UNL     1       0.055 -16.861  48.800  1.00  0.00     0.038 C 
BRANCH  49  50
HETATM   50  C32 UNL     1      -0.270 -16.567  47.381  1.00  0.00    -0.020 C 
HETATM   51  C33 UNL     1      -1.744 -16.312  47.213  1.00  0.00     0.009 C 
HETATM   52  C34 UNL     1       0.427 -15.229  47.067  1.00  0.00     0.009 C 
ENDBRANCH  49  50
ENDBRANCH  25  49
BRANCH  28  53
HETATM   53  O6  UNL     1      -2.463 -20.111  51.083  1.00  0.00    -0.348 OA
ATOM     54  H6  UNL     1      -2.399 -20.913  50.577  1.00  0.00     0.219 HD
ENDBRANCH  28  53
BRANCH   1  55
HETATM   55  C4  UNL     1       0.756 -20.529  51.838  1.00  0.00     0.033 C 
BRANCH  55  56
HETATM   56  C3  UNL     1       0.451 -21.521  50.739  1.00  0.00     0.002 C 
BRANCH  56  57
HETATM   57  C2  UNL     1       1.574 -22.520  50.564  1.00  0.00    -0.004 C 
HETATM   58  C1  UNL     1       1.432 -23.285  49.263  1.00  0.00     0.005 C 
ENDBRANCH  56  57
ENDBRANCH  55  56
ENDBRANCH   1  55
TORSDOF 14
ENDMDL
MODEL 4
REMARK VINA RESULT: -5.707621742      2.416      6.713
REMARK  14 active torsions:
REMARK  status: ('A' for Active; 'I' for Inactive)
REMARK    1  A    between atoms: C2_2  and  C3_3 
REMARK    2  A    between atoms: C3_3  and  C4_4 
REMARK    3  A    between atoms: C4_4  and  C5_5 
REMARK    4  A    between atoms: C7_10  and  C8_11 
REMARK    5  A    between atoms: C11_17  and  C12_18 
REMARK    6  A    between atoms: C12_18  and  C13_19 
REMARK    7  A    between atoms: C16_24  and  O3_25 
REMARK    8  A    between atoms: C17_27  and  C18_28 
REMARK    9  A    between atoms: C18_28  and  C19_29 
REMARK   10  A    between atoms: C23_40  and  C24_41 
REMARK   11  A    between atoms: C24_41  and  C25_42 
REMARK   12  A    between atoms: C30_49  and  C31_50 
REMARK   13  A    between atoms: C31_50  and  C32_51 
REMARK   14  A    between atoms: C35_56  and  O6_57 
ROOT
HETATM    1  C5  UNL     1      -2.894 -15.828  47.161  1.00  0.00     0.159 C 
HETATM    2  N1  UNL     1      -2.775 -14.518  47.736  1.00  0.00    -0.347 N 
ATOM      3  H1  UNL     1      -3.381 -13.785  47.367  1.00  0.00     0.163 HD
HETATM    4  C6  UNL     1      -1.880 -14.166  48.776  1.00  0.00     0.241 C 
HETATM    5  O1  UNL     1      -1.973 -13.025  49.283  1.00  0.00    -0.271 OA
HETATM    6  C7  UNL     1      -0.806 -15.036  49.351  1.00  0.00     0.176 C 
HETATM    7  N2  UNL     1      -0.373 -14.549  50.638  1.00  0.00    -0.346 N 
ATOM      8  H2  UNL     1       0.379 -13.861  50.612  1.00  0.00     0.163 HD
HETATM    9  C10 UNL     1      -0.833 -14.882  51.913  1.00  0.00     0.241 C 
HETATM   10  O2  UNL     1      -1.355 -13.943  52.621  1.00  0.00    -0.271 OA
HETATM   11  C11 UNL     1      -0.788 -16.236  52.580  1.00  0.00     0.175 C 
HETATM   12  N3  UNL     1      -1.264 -17.292  51.744  1.00  0.00    -0.359 N 
ATOM     13  H3  UNL     1      -0.586 -17.633  51.062  1.00  0.00     0.162 HD
HETATM   14  C16 UNL     1      -2.499 -17.934  51.703  1.00  0.00     0.135 C 
HETATM   15  C17 UNL     1      -3.865 -17.446  51.873  1.00  0.00     0.164 C 
HETATM   16  N6  UNL     1      -4.096 -16.093  52.160  1.00  0.00    -0.347 N 
ATOM     17  H6  UNL     1      -3.641 -15.726  52.996  1.00  0.00     0.163 HD
HETATM   18  C22 UNL     1      -4.888 -15.177  51.426  1.00  0.00     0.241 C 
HETATM   19  O4  UNL     1      -4.473 -14.002  51.313  1.00  0.00    -0.271 OA
HETATM   20  C23 UNL     1      -6.196 -15.527  50.776  1.00  0.00     0.179 C 
HETATM   21  N7  UNL     1      -6.494 -14.510  49.806  1.00  0.00    -0.341 N 
HETATM   22  C28 UNL     1      -6.949 -13.201  50.310  1.00  0.00     0.153 C 
HETATM   23  C29 UNL     1      -6.397 -14.577  48.397  1.00  0.00     0.243 C 
HETATM   24  O5  UNL     1      -6.123 -13.474  47.767  1.00  0.00    -0.271 OA
HETATM   25  C30 UNL     1      -6.571 -15.743  47.540  1.00  0.00     0.176 C 
HETATM   26  N8  UNL     1      -5.443 -16.508  47.131  1.00  0.00    -0.359 N 
ATOM     27  H8  UNL     1      -5.704 -17.178  46.408  1.00  0.00     0.162 HD
HETATM   28  C35 UNL     1      -4.091 -16.609  47.430  1.00  0.00     0.135 C 
ENDROOT
BRANCH  15  29
HETATM   29  C18 UNL     1      -4.523 -18.341  52.928  1.00  0.00     0.092 C 
BRANCH  29  30
HETATM   30  C19 UNL     1      -3.801 -18.337  54.214  1.00  0.00     0.028 A 
HETATM   31  C20 UNL     1      -3.887 -17.375  55.227  1.00  0.00     0.114 A 
HETATM   32  N4  UNL     1      -3.093 -17.718  56.239  1.00  0.00    -0.360 N 
HETATM   33  C21 UNL     1      -2.492 -18.873  55.921  1.00  0.00     0.180 A 
ATOM     34  H4  UNL     1      -2.966 -17.195  57.105  1.00  0.00     0.166 HD
HETATM   35  N5  UNL     1      -2.915 -19.256  54.693  1.00  0.00    -0.354 N 
ATOM     36  H5  UNL     1      -2.618 -20.100  54.203  1.00  0.00     0.166 HD
ENDBRANCH  29  30
ENDBRANCH  15  29
BRANCH  14  37
HETATM   37  O3  UNL     1      -2.463 -19.217  51.471  1.00  0.00    -0.348 OA
ATOM     38  H3  UNL     1      -2.824 -19.496  50.639  1.00  0.00     0.219 HD
ENDBRANCH  14  37
BRANCH  11  39
HETATM   39  C12 UNL     1       0.605 -16.444  53.117  1.00  0.00     0.038 C 
BRANCH  39  40
HETATM   40  C13 UNL     1       1.302 -17.704  52.804  1.00  0.00    -0.020 C 
HETATM   41  C14 UNL     1       0.990 -18.069  51.315  1.00  0.00     0.009 C 
HETATM   42  C15 UNL     1       0.644 -18.874  53.550  1.00  0.00     0.009 C 
ENDBRANCH  39  40
ENDBRANCH  11  39
BRANCH  20  43
HETATM   43  C24 UNL     1      -7.293 -15.539  51.814  1.00  0.00     0.039 C 
BRANCH  43  44
HETATM   44  C25 UNL     1      -8.047 -16.832  51.825  1.00  0.00    -0.020 C 
HETATM   45  C26 UNL     1      -7.570 -17.839  50.806  1.00  0.00     0.009 C 
HETATM   46  C27 UNL     1      -8.044 -17.486  53.189  1.00  0.00     0.009 C 
ENDBRANCH  43  44
ENDBRANCH  20  43
BRANCH   6  47
HETATM   47  C8  UNL     1       0.434 -14.973  48.433  1.00  0.00     0.030 C 
HETATM   48  C9  UNL     1       0.515 -16.283  47.704  1.00  0.00     0.007 C 
ENDBRANCH   6  47
BRANCH  25  49
HETATM   49  C31 UNL     1      -7.331 -15.184  46.305  1.00  0.00     0.038 C 
BRANCH  49  50
HETATM   50  C32 UNL     1      -8.804 -15.343  46.406  1.00  0.00    -0.020 C 
HETATM   51  C33 UNL     1      -9.480 -14.002  46.499  1.00  0.00     0.009 C 
HETATM   52  C34 UNL     1      -9.246 -15.944  45.058  1.00  0.00     0.009 C 
ENDBRANCH  49  50
ENDBRANCH  25  49
BRANCH  28  53
HETATM   53  O6  UNL     1      -3.796 -17.689  48.137  1.00  0.00    -0.348 OA
ATOM     54  H6  UNL     1      -4.488 -18.337  48.064  1.00  0.00     0.219 HD
ENDBRANCH  28  53
BRANCH   1  55
HETATM   55  C4  UNL     1      -2.601 -15.809  45.659  1.00  0.00     0.033 C 
BRANCH  55  56
HETATM   56  C3  UNL     1      -2.276 -14.402  45.213  1.00  0.00     0.002 C 
BRANCH  56  57
HETATM   57  C2  UNL     1      -0.795 -14.228  44.953  1.00  0.00    -0.004 C 
HETATM   58  C1  UNL     1      -0.298 -12.894  45.475  1.00  0.00     0.005 C 
ENDBRANCH  56  57
ENDBRANCH  55  56
ENDBRANCH   1  55
TORSDOF 14
ENDMDL
MODEL 5
REMARK VINA RESULT: -5.602182101      2.622      8.302
REMARK  14 active torsions:
REMARK  status: ('A' for Active; 'I' for Inactive)
REMARK    1  A    between atoms: C2_2  and  C3_3 
REMARK    2  A    between atoms: C3_3  and  C4_4 
REMARK    3  A    between atoms: C4_4  and  C5_5 
REMARK    4  A    between atoms: C7_10  and  C8_11 
REMARK    5  A    between atoms: C11_17  and  C12_18 
REMARK    6  A    between atoms: C12_18  and  C13_19 
REMARK    7  A    between atoms: C16_24  and  O3_25 
REMARK    8  A    between atoms: C17_27  and  C18_28 
REMARK    9  A    between atoms: C18_28  and  C19_29 
REMARK   10  A    between atoms: C23_40  and  C24_41 
REMARK   11  A    between atoms: C24_41  and  C25_42 
REMARK   12  A    between atoms: C30_49  and  C31_50 
REMARK   13  A    between atoms: C31_50  and  C32_51 
REMARK   14  A    between atoms: C35_56  and  O6_57 
ROOT
HETATM    1  C5  UNL     1      -3.383 -18.536  51.824  1.00  0.00     0.159 C 
HETATM    2  N1  UNL     1      -3.803 -17.287  52.392  1.00  0.00    -0.347 N 
ATOM      3  H1  UNL     1      -3.248 -16.909  53.161  1.00  0.00     0.163 HD
HETATM    4  C6  UNL     1      -4.928 -16.538  51.967  1.00  0.00     0.241 C 
HETATM    5  O1  UNL     1      -5.104 -15.398  52.452  1.00  0.00    -0.271 OA
HETATM    6  C7  UNL     1      -5.957 -16.977  50.972  1.00  0.00     0.176 C 
HETATM    7  N2  UNL     1      -6.704 -15.852  50.463  1.00  0.00    -0.346 N 
ATOM      8  H2  UNL     1      -7.528 -15.595  51.006  1.00  0.00     0.163 HD
HETATM    9  C10 UNL     1      -6.463 -15.066  49.336  1.00  0.00     0.241 C 
HETATM   10  O2  UNL     1      -6.234 -13.813  49.522  1.00  0.00    -0.271 OA
HETATM   11  C11 UNL     1      -6.442 -15.512  47.893  1.00  0.00     0.175 C 
HETATM   12  N3  UNL     1      -5.661 -16.687  47.678  1.00  0.00    -0.359 N 
ATOM     13  H3  UNL     1      -6.133 -17.560  47.914  1.00  0.00     0.162 HD
HETATM   14  C16 UNL     1      -4.363 -16.843  47.199  1.00  0.00     0.135 C 
HETATM   15  C17 UNL     1      -3.144 -16.064  47.398  1.00  0.00     0.164 C 
HETATM   16  N6  UNL     1      -3.173 -14.902  48.183  1.00  0.00    -0.347 N 
ATOM     17  H6  UNL     1      -3.834 -14.181  47.894  1.00  0.00     0.163 HD
HETATM   18  C22 UNL     1      -2.394 -14.614  49.329  1.00  0.00     0.241 C 
HETATM   19  O4  UNL     1      -2.943 -14.011  50.276  1.00  0.00    -0.271 OA
HETATM   20  C23 UNL     1      -0.945 -14.985  49.477  1.00  0.00     0.179 C 
HETATM   21  N7  UNL     1      -0.611 -14.917  50.872  1.00  0.00    -0.341 N 
HETATM   22  C28 UNL     1      -0.460 -13.576  51.470  1.00  0.00     0.153 C 
HETATM   23  C29 UNL     1      -0.416 -15.976  51.788  1.00  0.00     0.243 C 
HETATM   24  O5  UNL     1      -0.716 -15.750  53.031  1.00  0.00    -0.271 OA
HETATM   25  C30 UNL     1       0.093 -17.315  51.516  1.00  0.00     0.176 C 
HETATM   26  N8  UNL     1      -0.808 -18.388  51.270  1.00  0.00    -0.359 N 
ATOM     27  H8  UNL     1      -0.314 -19.280  51.266  1.00  0.00     0.162 HD
HETATM   28  C35 UNL     1      -2.162 -18.576  51.034  1.00  0.00     0.135 C 
ENDROOT
BRANCH  15  29
HETATM   29  C18 UNL     1      -2.586 -15.758  46.004  1.00  0.00     0.092 C 
BRANCH  29  30
HETATM   30  C19 UNL     1      -2.848 -14.372  45.573  1.00  0.00     0.028 A 
HETATM   31  C20 UNL     1      -4.095 -13.792  45.310  1.00  0.00     0.114 A 
HETATM   32  N4  UNL     1      -3.930 -12.521  44.953  1.00  0.00    -0.360 N 
HETATM   33  C21 UNL     1      -2.618 -12.250  44.974  1.00  0.00     0.180 A 
ATOM     34  H4  UNL     1      -4.672 -11.867  44.706  1.00  0.00     0.166 HD
HETATM   35  N5  UNL     1      -1.952 -13.369  45.350  1.00  0.00    -0.354 N 
ATOM     36  H5  UNL     1      -0.940 -13.448  45.450  1.00  0.00     0.166 HD
ENDBRANCH  29  30
ENDBRANCH  15  29
BRANCH  14  37
HETATM   37  O3  UNL     1      -4.165 -17.872  46.421  1.00  0.00    -0.348 OA
ATOM     38  H3  UNL     1      -3.687 -17.697  45.619  1.00  0.00     0.219 HD
ENDBRANCH  14  37
BRANCH  11  39
HETATM   39  C12 UNL     1      -7.869 -15.613  47.417  1.00  0.00     0.038 C 
BRANCH  39  40
HETATM   40  C13 UNL     1      -8.242 -14.944  46.158  1.00  0.00    -0.020 C 
HETATM   41  C14 UNL     1      -7.741 -13.464  46.233  1.00  0.00     0.009 C 
HETATM   42  C15 UNL     1      -9.764 -14.750  46.091  1.00  0.00     0.009 C 
ENDBRANCH  39  40
ENDBRANCH  11  39
BRANCH  20  43
HETATM   43  C24 UNL     1      -0.087 -13.995  48.726  1.00  0.00     0.039 C 
BRANCH  43  44
HETATM   44  C25 UNL     1       0.425 -14.554  47.435  1.00  0.00    -0.020 C 
HETATM   45  C26 UNL     1       1.624 -13.827  46.875  1.00  0.00     0.009 C 
HETATM   46  C27 UNL     1       0.758 -16.026  47.540  1.00  0.00     0.009 C 
ENDBRANCH  43  44
ENDBRANCH  20  43
BRANCH   6  47
HETATM   47  C8  UNL     1      -6.985 -17.884  51.682  1.00  0.00     0.030 C 
HETATM   48  C9  UNL     1      -8.189 -17.040  51.988  1.00  0.00     0.007 C 
ENDBRANCH   6  47
BRANCH  25  49
HETATM   49  C31 UNL     1       0.994 -17.624  52.743  1.00  0.00     0.038 C 
BRANCH  49  50
HETATM   50  C32 UNL     1       0.644 -18.901  53.415  1.00  0.00    -0.020 C 
HETATM   51  C33 UNL     1       1.876 -19.573  53.960  1.00  0.00     0.009 C 
HETATM   52  C34 UNL     1      -0.196 -18.503  54.644  1.00  0.00     0.009 C 
ENDBRANCH  49  50
ENDBRANCH  25  49
BRANCH  28  53
HETATM   53  O6  UNL     1      -2.432 -18.871  49.771  1.00  0.00    -0.348 OA
ATOM     54  H6  UNL     1      -3.120 -18.309  49.435  1.00  0.00     0.219 HD
ENDBRANCH  28  53
BRANCH   1  55
HETATM   55  C4  UNL     1      -3.371 -19.652  52.872  1.00  0.00     0.033 C 
BRANCH  55  56
HETATM   56  C3  UNL     1      -4.106 -19.203  54.114  1.00  0.00     0.002 C 
BRANCH  56  57
HETATM   57  C2  UNL     1      -5.426 -19.926  54.272  1.00  0.00    -0.004 C 
HETATM   58  C1  UNL     1      -6.231 -19.357  55.424  1.00  0.00     0.005 C 
ENDBRANCH  56  57
ENDBRANCH  55  56
ENDBRANCH   1  55
TORSDOF 14
ENDMDL
