MODEL 1
REMARK VINA RESULT: -7.386050898      0.000      0.000
REMARK  14 active torsions:
REMARK  status: ('A' for Active; 'I' for Inactive)
REMARK    1  A    between atoms: C2_2  and  C4_4 
REMARK    2  A    between atoms: C4_4  and  C5_5 
REMARK    3  A    between atoms: C6_8  and  O1_9 
REMARK    4  A    between atoms: C7_11  and  C8_12 
REMARK    5  A    between atoms: C8_12  and  C9_13 
REMARK    6  A    between atoms: C13_20  and  C14_21 
REMARK    7  A    between atoms: C14_21  and  C15_22 
REMARK    8  A    between atoms: C25_35  and  C26_36 
REMARK    9  A    between atoms: C26_36  and  C27_37 
REMARK   10  A    between atoms: C27_37  and  C28_38 
REMARK   11  A    between atoms: C28_38  and  C29_39 
REMARK   12  A    between atoms: C29_39  and  N4_40 
REMARK   13  A    between atoms: C31_48  and  C32_49 
REMARK   14  A    between atoms: C32_49  and  C33_50 
ROOT
HETATM    1  C5  UNL     1      -5.359 -15.753  49.337  1.00  0.00     0.176 C 
HETATM    2  N1  UNL     1      -5.203 -14.824  50.403  1.00  0.00    -0.356 N 
ATOM      3  H1  UNL     1      -5.997 -14.213  50.594  1.00  0.00     0.162 HD
HETATM    4  C6  UNL     1      -4.078 -14.659  51.216  1.00  0.00     0.159 C 
HETATM    5  C7  UNL     1      -2.658 -14.896  51.064  1.00  0.00     0.063 C 
HETATM    6  N2  UNL     1      -2.212 -15.581  49.875  1.00  0.00    -0.326 N 
ATOM      7  H2  UNL     1      -2.443 -15.155  48.977  1.00  0.00     0.168 HD
HETATM    8  C12 UNL     1      -1.479 -16.797  49.844  1.00  0.00     0.233 C 
HETATM    9  O2  UNL     1      -0.377 -16.822  49.172  1.00  0.00    -0.272 OA
HETATM   10  C13 UNL     1      -1.841 -18.065  50.509  1.00  0.00     0.150 C 
HETATM   11  C18 UNL     1      -1.076 -18.266  51.770  1.00  0.00     0.163 C 
HETATM   12  O3  UNL     1      -0.046 -17.696  52.007  1.00  0.00    -0.295 OA
HETATM   13  C19 UNL     1      -1.641 -19.236  52.779  1.00  0.00     0.162 C 
HETATM   14  C20 UNL     1      -0.478 -19.983  53.332  1.00  0.00     0.037 C 
HETATM   15  C21 UNL     1      -0.270 -19.920  54.806  1.00  0.00     0.031 C 
HETATM   16  C22 UNL     1      -0.454 -18.535  55.288  1.00  0.00    -0.009 C 
HETATM   17  C23 UNL     1      -1.476 -17.876  54.789  1.00  0.00     0.091 C 
HETATM   18  N3  UNL     1      -2.352 -18.507  53.816  1.00  0.00    -0.315 N 
HETATM   19  C24 UNL     1      -3.742 -18.387  53.901  1.00  0.00     0.247 C 
HETATM   20  O4  UNL     1      -4.148 -17.232  54.290  1.00  0.00    -0.271 OA
HETATM   21  C25 UNL     1      -4.777 -19.395  53.610  1.00  0.00     0.177 C 
HETATM   22  N5  UNL     1      -5.474 -19.268  52.374  1.00  0.00    -0.346 N 
ATOM     23  H5  UNL     1      -5.003 -19.726  51.593  1.00  0.00     0.163 HD
HETATM   24  C30 UNL     1      -6.667 -18.645  52.013  1.00  0.00     0.241 C 
HETATM   25  O5  UNL     1      -7.662 -19.331  51.637  1.00  0.00    -0.271 OA
HETATM   26  C31 UNL     1      -6.973 -17.159  52.000  1.00  0.00     0.177 C 
HETATM   27  N6  UNL     1      -7.370 -16.832  50.613  1.00  0.00    -0.346 N 
ATOM     28  H6  UNL     1      -8.373 -16.740  50.451  1.00  0.00     0.163 HD
HETATM   29  C36 UNL     1      -6.575 -16.635  49.517  1.00  0.00     0.241 C 
HETATM   30  O6  UNL     1      -6.852 -17.275  48.429  1.00  0.00    -0.271 OA
ENDROOT
BRANCH  21  31
HETATM   31  C26 UNL     1      -5.647 -19.492  54.847  1.00  0.00     0.035 C 
BRANCH  31  32
HETATM   32  C27 UNL     1      -4.888 -20.301  55.908  1.00  0.00     0.004 C 
BRANCH  32  33
HETATM   33  C28 UNL     1      -4.677 -19.436  57.138  1.00  0.00     0.027 C 
BRANCH  33  34
HETATM   34  C29 UNL     1      -3.264 -19.509  57.650  1.00  0.00     0.229 C 
BRANCH  34  35
HETATM   35  N4  UNL     1      -2.993 -18.218  58.292  1.00  0.00    -0.079 N 
ATOM     36  H43 UNL     1      -2.421 -17.593  57.722  1.00  0.00     0.274 HD
ATOM     37  H42 UNL     1      -3.813 -17.615  58.353  1.00  0.00     0.274 HD
ATOM     38  H41 UNL     1      -2.578 -18.431  59.199  1.00  0.00     0.274 HD
ENDBRANCH  34  35
ENDBRANCH  33  34
ENDBRANCH  32  33
ENDBRANCH  31  32
ENDBRANCH  21  31
BRANCH  26  39
HETATM   39  C32 UNL     1      -8.103 -16.970  52.956  1.00  0.00     0.038 C 
BRANCH  39  40
HETATM   40  C33 UNL     1      -8.032 -17.533  54.299  1.00  0.00    -0.020 C 
HETATM   41  C34 UNL     1      -9.038 -18.587  54.652  1.00  0.00     0.009 C 
HETATM   42  C35 UNL     1      -8.031 -16.534  55.428  1.00  0.00     0.009 C 
ENDBRANCH  39  40
ENDBRANCH  26  39
BRANCH  10  43
HETATM   43  C14 UNL     1      -1.620 -19.258  49.662  1.00  0.00     0.025 C 
BRANCH  43  44
HETATM   44  C15 UNL     1      -1.785 -19.178  48.211  1.00  0.00    -0.021 C 
HETATM   45  C16 UNL     1      -2.959 -18.503  47.626  1.00  0.00     0.009 C 
HETATM   46  C17 UNL     1      -1.594 -20.543  47.540  1.00  0.00     0.009 C 
ENDBRANCH  43  44
ENDBRANCH  10  43
BRANCH   1  47
HETATM   47  C4  UNL     1      -5.409 -15.149  47.968  1.00  0.00     0.038 C 
BRANCH  47  48
HETATM   48  C2  UNL     1      -4.153 -14.925  47.229  1.00  0.00    -0.020 C 
HETATM   49  C1  UNL     1      -3.740 -13.425  47.367  1.00  0.00     0.009 C 
HETATM   50  C3  UNL     1      -4.369 -15.069  45.717  1.00  0.00     0.009 C 
ENDBRANCH  47  48
ENDBRANCH   1  47
BRANCH   5  51
HETATM   51  C8  UNL     1      -1.752 -13.757  51.429  1.00  0.00     0.065 C 
BRANCH  51  52
HETATM   52  C9  UNL     1      -0.340 -13.953  51.653  1.00  0.00    -0.017 C 
HETATM   53  C10 UNL     1       0.596 -12.841  51.289  1.00  0.00     0.010 C 
HETATM   54  C11 UNL     1       0.022 -14.458  53.023  1.00  0.00     0.010 C 
ENDBRANCH  51  52
ENDBRANCH   5  51
BRANCH   4  55
HETATM   55  O1  UNL     1      -4.386 -14.182  52.395  1.00  0.00    -0.345 OA
ATOM     56  H1  UNL     1      -4.134 -13.271  52.490  1.00  0.00     0.219 HD
ENDBRANCH   4  55
TORSDOF 14
ENDMDL
MODEL 2
REMARK VINA RESULT: -7.377984709      2.208      4.344
REMARK  14 active torsions:
REMARK  status: ('A' for Active; 'I' for Inactive)
REMARK    1  A    between atoms: C2_2  and  C4_4 
REMARK    2  A    between atoms: C4_4  and  C5_5 
REMARK    3  A    between atoms: C6_8  and  O1_9 
REMARK    4  A    between atoms: C7_11  and  C8_12 
REMARK    5  A    between atoms: C8_12  and  C9_13 
REMARK    6  A    between atoms: C13_20  and  C14_21 
REMARK    7  A    between atoms: C14_21  and  C15_22 
REMARK    8  A    between atoms: C25_35  and  C26_36 
REMARK    9  A    between atoms: C26_36  and  C27_37 
REMARK   10  A    between atoms: C27_37  and  C28_38 
REMARK   11  A    between atoms: C28_38  and  C29_39 
REMARK   12  A    between atoms: C29_39  and  N4_40 
REMARK   13  A    between atoms: C31_48  and  C32_49 
REMARK   14  A    between atoms: C32_49  and  C33_50 
ROOT
HETATM    1  C5  UNL     1      -1.778 -15.360  47.399  1.00  0.00     0.176 C 
HETATM    2  N1  UNL     1      -1.944 -14.238  48.259  1.00  0.00    -0.356 N 
ATOM      3  H1  UNL     1      -2.256 -13.371  47.822  1.00  0.00     0.162 HD
HETATM    4  C6  UNL     1      -1.724 -14.198  49.638  1.00  0.00     0.159 C 
HETATM    5  C7  UNL     1      -0.888 -14.930  50.566  1.00  0.00     0.063 C 
HETATM    6  N2  UNL     1      -0.168 -16.077  50.066  1.00  0.00    -0.326 N 
ATOM      7  H2  UNL     1       0.478 -15.920  49.292  1.00  0.00     0.168 HD
HETATM    8  C12 UNL     1      -0.280 -17.405  50.557  1.00  0.00     0.233 C 
HETATM    9  O2  UNL     1       0.804 -18.016  50.901  1.00  0.00    -0.272 OA
HETATM   10  C13 UNL     1      -1.523 -18.184  50.723  1.00  0.00     0.150 C 
HETATM   11  C18 UNL     1      -1.981 -18.200  52.138  1.00  0.00     0.163 C 
HETATM   12  O3  UNL     1      -1.253 -17.961  53.063  1.00  0.00    -0.295 OA
HETATM   13  C19 UNL     1      -3.430 -18.535  52.397  1.00  0.00     0.162 C 
HETATM   14  C20 UNL     1      -3.445 -19.400  53.610  1.00  0.00     0.037 C 
HETATM   15  C21 UNL     1      -4.251 -18.926  54.770  1.00  0.00     0.031 C 
HETATM   16  C22 UNL     1      -4.025 -17.482  54.992  1.00  0.00    -0.009 C 
HETATM   17  C23 UNL     1      -4.002 -16.725  53.917  1.00  0.00     0.091 C 
HETATM   18  N3  UNL     1      -4.187 -17.312  52.601  1.00  0.00    -0.315 N 
HETATM   19  C24 UNL     1      -5.017 -16.716  51.647  1.00  0.00     0.247 C 
HETATM   20  O4  UNL     1      -4.973 -15.432  51.639  1.00  0.00    -0.271 OA
HETATM   21  C25 UNL     1      -5.919 -17.358  50.674  1.00  0.00     0.177 C 
HETATM   22  N5  UNL     1      -5.471 -17.422  49.323  1.00  0.00    -0.346 N 
ATOM     23  H5  UNL     1      -4.896 -18.242  49.124  1.00  0.00     0.163 HD
HETATM   24  C30 UNL     1      -5.657 -16.595  48.218  1.00  0.00     0.241 C 
HETATM   25  O5  UNL     1      -6.327 -16.993  47.221  1.00  0.00    -0.271 OA
HETATM   26  C31 UNL     1      -5.135 -15.184  48.013  1.00  0.00     0.177 C 
HETATM   27  N6  UNL     1      -4.316 -15.222  46.782  1.00  0.00    -0.346 N 
ATOM     28  H6  UNL     1      -4.767 -14.860  45.942  1.00  0.00     0.163 HD
HETATM   29  C36 UNL     1      -3.035 -15.675  46.617  1.00  0.00     0.241 C 
HETATM   30  O6  UNL     1      -2.792 -16.507  45.659  1.00  0.00    -0.271 OA
ENDROOT
BRANCH  21  31
HETATM   31  C26 UNL     1      -7.289 -16.746  50.883  1.00  0.00     0.035 C 
BRANCH  31  32
HETATM   32  C27 UNL     1      -8.159 -17.758  51.640  1.00  0.00     0.004 C 
BRANCH  32  33
HETATM   33  C28 UNL     1      -8.276 -17.329  53.091  1.00  0.00     0.027 C 
BRANCH  33  34
HETATM   34  C29 UNL     1      -7.734 -18.366  54.037  1.00  0.00     0.229 C 
BRANCH  34  35
HETATM   35  N4  UNL     1      -7.700 -17.736  55.362  1.00  0.00    -0.079 N 
ATOM     36  H43 UNL     1      -6.756 -17.546  55.697  1.00  0.00     0.274 HD
ATOM     37  H42 UNL     1      -8.029 -16.771  55.360  1.00  0.00     0.274 HD
ATOM     38  H41 UNL     1      -8.234 -18.345  55.982  1.00  0.00     0.274 HD
ENDBRANCH  34  35
ENDBRANCH  33  34
ENDBRANCH  32  33
ENDBRANCH  31  32
ENDBRANCH  21  31
BRANCH  26  39
HETATM   39  C32 UNL     1      -6.343 -14.326  47.846  1.00  0.00     0.038 C 
BRANCH  39  40
HETATM   40  C33 UNL     1      -6.245 -12.879  47.997  1.00  0.00    -0.020 C 
HETATM   41  C34 UNL     1      -7.348 -12.192  48.745  1.00  0.00     0.009 C 
HETATM   42  C35 UNL     1      -6.030 -12.101  46.723  1.00  0.00     0.009 C 
ENDBRANCH  39  40
ENDBRANCH  26  39
BRANCH  10  43
HETATM   43  C14 UNL     1      -1.399 -19.591  50.282  1.00  0.00     0.025 C 
BRANCH  43  44
HETATM   44  C15 UNL     1      -1.758 -19.976  48.917  1.00  0.00    -0.021 C 
HETATM   45  C16 UNL     1      -0.832 -20.782  48.098  1.00  0.00     0.009 C 
HETATM   46  C17 UNL     1      -2.251 -18.777  48.098  1.00  0.00     0.009 C 
ENDBRANCH  43  44
ENDBRANCH  10  43
BRANCH   1  47
HETATM   47  C4  UNL     1      -0.634 -15.262  46.438  1.00  0.00     0.038 C 
BRANCH  47  48
HETATM   48  C2  UNL     1       0.538 -16.138  46.616  1.00  0.00    -0.020 C 
HETATM   49  C1  UNL     1       1.836 -15.324  46.314  1.00  0.00     0.009 C 
HETATM   50  C3  UNL     1       0.578 -17.232  45.542  1.00  0.00     0.009 C 
ENDBRANCH  47  48
ENDBRANCH   1  47
BRANCH   5  51
HETATM   51  C8  UNL     1      -0.050 -14.105  51.499  1.00  0.00     0.065 C 
BRANCH  51  52
HETATM   52  C9  UNL     1      -0.408 -13.932  52.886  1.00  0.00    -0.017 C 
HETATM   53  C10 UNL     1       0.397 -14.657  53.921  1.00  0.00     0.010 C 
HETATM   54  C11 UNL     1      -0.579 -12.502  53.324  1.00  0.00     0.010 C 
ENDBRANCH  51  52
ENDBRANCH   5  51
BRANCH   4  55
HETATM   55  O1  UNL     1      -2.452 -13.285  50.228  1.00  0.00    -0.345 OA
ATOM     56  H1  UNL     1      -2.217 -13.175  51.142  1.00  0.00     0.219 HD
ENDBRANCH   4  55
TORSDOF 14
ENDMDL
MODEL 3
REMARK VINA RESULT: -7.028010857      1.238      1.476
REMARK  14 active torsions:
REMARK  status: ('A' for Active; 'I' for Inactive)
REMARK    1  A    between atoms: C2_2  and  C4_4 
REMARK    2  A    between atoms: C4_4  and  C5_5 
REMARK    3  A    between atoms: C6_8  and  O1_9 
REMARK    4  A    between atoms: C7_11  and  C8_12 
REMARK    5  A    between atoms: C8_12  and  C9_13 
REMARK    6  A    between atoms: C13_20  and  C14_21 
REMARK    7  A    between atoms: C14_21  and  C15_22 
REMARK    8  A    between atoms: C25_35  and  C26_36 
REMARK    9  A    between atoms: C26_36  and  C27_37 
REMARK   10  A    between atoms: C27_37  and  C28_38 
REMARK   11  A    between atoms: C28_38  and  C29_39 
REMARK   12  A    between atoms: C29_39  and  N4_40 
REMARK   13  A    between atoms: C31_48  and  C32_49 
REMARK   14  A    between atoms: C32_49  and  C33_50 
ROOT
HETATM    1  C5  UNL     1      -5.491 -16.207  49.936  1.00  0.00     0.176 C 
HETATM    2  N1  UNL     1      -5.084 -15.306  50.960  1.00  0.00    -0.356 N 
ATOM      3  H1  UNL     1      -5.821 -14.761  51.406  1.00  0.00     0.162 HD
HETATM    4  C6  UNL     1      -3.781 -15.090  51.417  1.00  0.00     0.159 C 
HETATM    5  C7  UNL     1      -2.458 -15.218  50.845  1.00  0.00     0.063 C 
HETATM    6  N2  UNL     1      -2.342 -15.827  49.542  1.00  0.00    -0.326 N 
ATOM      7  H2  UNL     1      -2.851 -15.388  48.775  1.00  0.00     0.168 HD
HETATM    8  C12 UNL     1      -1.580 -16.986  49.233  1.00  0.00     0.233 C 
HETATM    9  O2  UNL     1      -0.725 -16.908  48.269  1.00  0.00    -0.272 OA
HETATM   10  C13 UNL     1      -1.655 -18.299  49.905  1.00  0.00     0.150 C 
HETATM   11  C18 UNL     1      -0.543 -18.488  50.875  1.00  0.00     0.163 C 
HETATM   12  O3  UNL     1       0.476 -17.854  50.832  1.00  0.00    -0.295 OA
HETATM   13  C19 UNL     1      -0.729 -19.531  51.951  1.00  0.00     0.162 C 
HETATM   14  C20 UNL     1       0.588 -20.211  52.100  1.00  0.00     0.037 C 
HETATM   15  C21 UNL     1       1.216 -20.185  53.450  1.00  0.00     0.031 C 
HETATM   16  C22 UNL     1       1.101 -18.834  54.039  1.00  0.00    -0.009 C 
HETATM   17  C23 UNL     1      -0.059 -18.234  53.896  1.00  0.00     0.091 C 
HETATM   18  N3  UNL     1      -1.144 -18.891  53.188  1.00  0.00    -0.315 N 
HETATM   19  C24 UNL     1      -2.453 -18.875  53.680  1.00  0.00     0.247 C 
HETATM   20  O4  UNL     1      -2.793 -17.767  54.234  1.00  0.00    -0.271 OA
HETATM   21  C25 UNL     1      -3.466 -19.944  53.649  1.00  0.00     0.177 C 
HETATM   22  N5  UNL     1      -4.502 -19.824  52.678  1.00  0.00    -0.346 N 
ATOM     23  H5  UNL     1      -4.255 -20.220  51.771  1.00  0.00     0.163 HD
HETATM   24  C30 UNL     1      -5.783 -19.277  52.715  1.00  0.00     0.241 C 
HETATM   25  O5  UNL     1      -6.802 -20.019  52.608  1.00  0.00    -0.271 OA
HETATM   26  C31 UNL     1      -6.166 -17.817  52.872  1.00  0.00     0.177 C 
HETATM   27  N6  UNL     1      -6.972 -17.471  51.681  1.00  0.00    -0.346 N 
ATOM     28  H6  UNL     1      -7.981 -17.446  51.824  1.00  0.00     0.163 HD
HETATM   29  C36 UNL     1      -6.547 -17.180  50.413  1.00  0.00     0.241 C 
HETATM   30  O6  UNL     1      -7.095 -17.799  49.420  1.00  0.00    -0.271 OA
ENDROOT
BRANCH  21  31
HETATM   31  C26 UNL     1      -3.926 -20.147  55.079  1.00  0.00     0.035 C 
BRANCH  31  32
HETATM   32  C27 UNL     1      -3.148 -21.329  55.673  1.00  0.00     0.004 C 
BRANCH  32  33
HETATM   33  C28 UNL     1      -1.937 -20.802  56.422  1.00  0.00     0.027 C 
BRANCH  33  34
HETATM   34  C29 UNL     1      -2.311 -19.774  57.456  1.00  0.00     0.229 C 
BRANCH  34  35
HETATM   35  N4  UNL     1      -1.533 -18.571  57.139  1.00  0.00    -0.079 N 
ATOM     36  H43 UNL     1      -0.642 -18.772  56.684  1.00  0.00     0.274 HD
ATOM     37  H42 UNL     1      -1.936 -18.015  56.384  1.00  0.00     0.274 HD
ATOM     38  H41 UNL     1      -1.434 -18.056  58.013  1.00  0.00     0.274 HD
ENDBRANCH  34  35
ENDBRANCH  33  34
ENDBRANCH  32  33
ENDBRANCH  31  32
ENDBRANCH  21  31
BRANCH  26  39
HETATM   39  C32 UNL     1      -6.974 -17.743  54.125  1.00  0.00     0.038 C 
BRANCH  39  40
HETATM   40  C33 UNL     1      -8.410 -17.502  54.061  1.00  0.00    -0.020 C 
HETATM   41  C34 UNL     1      -8.886 -16.461  53.093  1.00  0.00     0.009 C 
HETATM   42  C35 UNL     1      -9.084 -17.214  55.379  1.00  0.00     0.009 C 
ENDBRANCH  39  40
ENDBRANCH  26  39
BRANCH  10  43
HETATM   43  C14 UNL     1      -1.624 -19.442  48.967  1.00  0.00     0.025 C 
BRANCH  43  44
HETATM   44  C15 UNL     1      -1.701 -19.220  47.523  1.00  0.00    -0.021 C 
HETATM   45  C16 UNL     1      -3.008 -19.037  46.862  1.00  0.00     0.009 C 
HETATM   46  C17 UNL     1      -0.874 -20.249  46.743  1.00  0.00     0.009 C 
ENDBRANCH  43  44
ENDBRANCH  10  43
BRANCH   1  47
HETATM   47  C4  UNL     1      -5.978 -15.560  48.676  1.00  0.00     0.038 C 
BRANCH  47  48
HETATM   48  C2  UNL     1      -5.957 -14.090  48.562  1.00  0.00    -0.020 C 
HETATM   49  C1  UNL     1      -7.073 -13.639  47.568  1.00  0.00     0.009 C 
HETATM   50  C3  UNL     1      -4.679 -13.609  47.863  1.00  0.00     0.009 C 
ENDBRANCH  47  48
ENDBRANCH   1  47
BRANCH   5  51
HETATM   51  C8  UNL     1      -1.552 -14.030  50.992  1.00  0.00     0.065 C 
BRANCH  51  52
HETATM   52  C9  UNL     1      -0.207 -14.160  51.497  1.00  0.00    -0.017 C 
HETATM   53  C10 UNL     1       0.642 -12.928  51.575  1.00  0.00     0.010 C 
HETATM   54  C11 UNL     1      -0.085 -14.912  52.795  1.00  0.00     0.010 C 
ENDBRANCH  51  52
ENDBRANCH   5  51
BRANCH   4  55
HETATM   55  O1  UNL     1      -3.756 -14.677  52.658  1.00  0.00    -0.345 OA
ATOM     56  H1  UNL     1      -2.992 -14.144  52.844  1.00  0.00     0.219 HD
ENDBRANCH   4  55
TORSDOF 14
ENDMDL
MODEL 4
REMARK VINA RESULT: -6.636279834      1.218      1.434
REMARK  14 active torsions:
REMARK  status: ('A' for Active; 'I' for Inactive)
REMARK    1  A    between atoms: C2_2  and  C4_4 
REMARK    2  A    between atoms: C4_4  and  C5_5 
REMARK    3  A    between atoms: C6_8  and  O1_9 
REMARK    4  A    between atoms: C7_11  and  C8_12 
REMARK    5  A    between atoms: C8_12  and  C9_13 
REMARK    6  A    between atoms: C13_20  and  C14_21 
REMARK    7  A    between atoms: C14_21  and  C15_22 
REMARK    8  A    between atoms: C25_35  and  C26_36 
REMARK    9  A    between atoms: C26_36  and  C27_37 
REMARK   10  A    between atoms: C27_37  and  C28_38 
REMARK   11  A    between atoms: C28_38  and  C29_39 
REMARK   12  A    between atoms: C29_39  and  N4_40 
REMARK   13  A    between atoms: C31_48  and  C32_49 
REMARK   14  A    between atoms: C32_49  and  C33_50 
ROOT
HETATM    1  C5  UNL     1      -5.707 -15.660  49.691  1.00  0.00     0.176 C 
HETATM    2  N1  UNL     1      -5.183 -14.774  50.673  1.00  0.00    -0.356 N 
ATOM      3  H1  UNL     1      -5.854 -14.161  51.138  1.00  0.00     0.162 HD
HETATM    4  C6  UNL     1      -3.848 -14.653  51.068  1.00  0.00     0.159 C 
HETATM    5  C7  UNL     1      -2.566 -14.900  50.443  1.00  0.00     0.063 C 
HETATM    6  N2  UNL     1      -2.558 -15.545  49.151  1.00  0.00    -0.326 N 
ATOM      7  H2  UNL     1      -3.065 -15.083  48.397  1.00  0.00     0.168 HD
HETATM    8  C12 UNL     1      -1.906 -16.768  48.839  1.00  0.00     0.233 C 
HETATM    9  O2  UNL     1      -1.091 -16.779  47.837  1.00  0.00    -0.272 OA
HETATM   10  C13 UNL     1      -2.055 -18.055  49.547  1.00  0.00     0.150 C 
HETATM   11  C18 UNL     1      -0.919 -18.313  50.472  1.00  0.00     0.163 C 
HETATM   12  O3  UNL     1       0.145 -17.764  50.369  1.00  0.00    -0.295 OA
HETATM   13  C19 UNL     1      -1.138 -19.313  51.580  1.00  0.00     0.162 C 
HETATM   14  C20 UNL     1       0.126 -20.094  51.689  1.00  0.00     0.037 C 
HETATM   15  C21 UNL     1       0.815 -20.090  53.010  1.00  0.00     0.031 C 
HETATM   16  C22 UNL     1       0.835 -18.722  53.570  1.00  0.00    -0.009 C 
HETATM   17  C23 UNL     1      -0.280 -18.033  53.462  1.00  0.00     0.091 C 
HETATM   18  N3  UNL     1      -1.444 -18.616  52.818  1.00  0.00    -0.315 N 
HETATM   19  C24 UNL     1      -2.724 -18.484  53.366  1.00  0.00     0.247 C 
HETATM   20  O4  UNL     1      -2.949 -17.340  53.906  1.00  0.00    -0.271 OA
HETATM   21  C25 UNL     1      -3.819 -19.468  53.406  1.00  0.00     0.177 C 
HETATM   22  N5  UNL     1      -4.885 -19.286  52.478  1.00  0.00    -0.346 N 
ATOM     23  H5  UNL     1      -4.712 -19.720  51.571  1.00  0.00     0.163 HD
HETATM   24  C30 UNL     1      -6.116 -18.637  52.556  1.00  0.00     0.241 C 
HETATM   25  O5  UNL     1      -7.195 -19.296  52.513  1.00  0.00    -0.271 OA
HETATM   26  C31 UNL     1      -6.374 -17.147  52.694  1.00  0.00     0.177 C 
HETATM   27  N6  UNL     1      -7.203 -16.763  51.530  1.00  0.00    -0.346 N 
ATOM     28  H6  UNL     1      -8.200 -16.654  51.716  1.00  0.00     0.163 HD
HETATM   29  C36 UNL     1      -6.814 -16.535  50.238  1.00  0.00     0.241 C 
HETATM   30  O6  UNL     1      -7.453 -17.129  49.286  1.00  0.00    -0.271 OA
ENDROOT
BRANCH  21  31
HETATM   31  C26 UNL     1      -4.229 -19.602  54.859  1.00  0.00     0.035 C 
BRANCH  31  32
HETATM   32  C27 UNL     1      -3.131 -20.378  55.600  1.00  0.00     0.004 C 
BRANCH  32  33
HETATM   33  C28 UNL     1      -3.300 -20.174  57.095  1.00  0.00     0.027 C 
BRANCH  33  34
HETATM   34  C29 UNL     1      -2.220 -19.302  57.676  1.00  0.00     0.229 C 
BRANCH  34  35
HETATM   35  N4  UNL     1      -2.906 -18.208  58.373  1.00  0.00    -0.079 N 
ATOM     36  H43 UNL     1      -2.481 -17.295  58.211  1.00  0.00     0.274 HD
ATOM     37  H42 UNL     1      -3.823 -17.990  57.982  1.00  0.00     0.274 HD
ATOM     38  H41 UNL     1      -2.937 -18.472  59.357  1.00  0.00     0.274 HD
ENDBRANCH  34  35
ENDBRANCH  33  34
ENDBRANCH  32  33
ENDBRANCH  31  32
ENDBRANCH  21  31
BRANCH  26  39
HETATM   39  C32 UNL     1      -7.116 -16.982  53.978  1.00  0.00     0.038 C 
BRANCH  39  40
HETATM   40  C33 UNL     1      -7.465 -18.147  54.781  1.00  0.00    -0.020 C 
HETATM   41  C34 UNL     1      -8.913 -18.332  55.124  1.00  0.00     0.009 C 
HETATM   42  C35 UNL     1      -6.688 -18.316  56.062  1.00  0.00     0.009 C 
ENDBRANCH  39  40
ENDBRANCH  26  39
BRANCH  10  43
HETATM   43  C14 UNL     1      -2.157 -19.218  48.637  1.00  0.00     0.025 C 
BRANCH  43  44
HETATM   44  C15 UNL     1      -0.973 -19.722  47.942  1.00  0.00    -0.021 C 
HETATM   45  C16 UNL     1      -0.820 -19.528  46.487  1.00  0.00     0.009 C 
HETATM   46  C17 UNL     1      -0.685 -21.186  48.294  1.00  0.00     0.009 C 
ENDBRANCH  43  44
ENDBRANCH  10  43
BRANCH   1  47
HETATM   47  C4  UNL     1      -6.197 -15.004  48.437  1.00  0.00     0.038 C 
BRANCH  47  48
HETATM   48  C2  UNL     1      -6.194 -13.533  48.342  1.00  0.00    -0.020 C 
HETATM   49  C1  UNL     1      -7.341 -13.080  47.384  1.00  0.00     0.009 C 
HETATM   50  C3  UNL     1      -4.940 -13.029  47.615  1.00  0.00     0.009 C 
ENDBRANCH  47  48
ENDBRANCH   1  47
BRANCH   5  51
HETATM   51  C8  UNL     1      -1.564 -13.787  50.520  1.00  0.00     0.065 C 
BRANCH  51  52
HETATM   52  C9  UNL     1      -0.271 -13.971  51.134  1.00  0.00    -0.017 C 
HETATM   53  C10 UNL     1       0.569 -12.758  51.395  1.00  0.00     0.010 C 
HETATM   54  C11 UNL     1      -0.270 -14.831  52.369  1.00  0.00     0.010 C 
ENDBRANCH  51  52
ENDBRANCH   5  51
BRANCH   4  55
HETATM   55  O1  UNL     1      -3.734 -14.217  52.296  1.00  0.00    -0.345 OA
ATOM     56  H1  UNL     1      -3.680 -14.927  52.925  1.00  0.00     0.219 HD
ENDBRANCH   4  55
TORSDOF 14
ENDMDL
MODEL 5
REMARK VINA RESULT: -6.319241008      1.684      2.085
REMARK  14 active torsions:
REMARK  status: ('A' for Active; 'I' for Inactive)
REMARK    1  A    between atoms: C2_2  and  C4_4 
REMARK    2  A    between atoms: C4_4  and  C5_5 
REMARK    3  A    between atoms: C6_8  and  O1_9 
REMARK    4  A    between atoms: C7_11  and  C8_12 
REMARK    5  A    between atoms: C8_12  and  C9_13 
REMARK    6  A    between atoms: C13_20  and  C14_21 
REMARK    7  A    between atoms: C14_21  and  C15_22 
REMARK    8  A    between atoms: C25_35  and  C26_36 
REMARK    9  A    between atoms: C26_36  and  C27_37 
REMARK   10  A    between atoms: C27_37  and  C28_38 
REMARK   11  A    between atoms: C28_38  and  C29_39 
REMARK   12  A    between atoms: C29_39  and  N4_40 
REMARK   13  A    between atoms: C31_48  and  C32_49 
REMARK   14  A    between atoms: C32_49  and  C33_50 
ROOT
HETATM    1  C5  UNL     1      -3.389 -15.962  49.492  1.00  0.00     0.176 C 
HETATM    2  N1  UNL     1      -3.392 -14.968  50.510  1.00  0.00    -0.356 N 
ATOM      3  H1  UNL     1      -4.047 -14.195  50.390  1.00  0.00     0.162 HD
HETATM    4  C6  UNL     1      -2.593 -14.937  51.656  1.00  0.00     0.159 C 
HETATM    5  C7  UNL     1      -1.293 -15.464  52.016  1.00  0.00     0.063 C 
HETATM    6  N2  UNL     1      -0.643 -16.352  51.083  1.00  0.00    -0.326 N 
ATOM      7  H2  UNL     1      -0.463 -15.993  50.146  1.00  0.00     0.168 HD
HETATM    8  C12 UNL     1      -0.232 -17.685  51.356  1.00  0.00     0.233 C 
HETATM    9  O2  UNL     1       0.995 -18.000  51.110  1.00  0.00    -0.272 OA
HETATM   10  C13 UNL     1      -1.068 -18.773  51.901  1.00  0.00     0.150 C 
HETATM   11  C18 UNL     1      -0.829 -18.978  53.355  1.00  0.00     0.163 C 
HETATM   12  O3  UNL     1       0.165 -18.599  53.914  1.00  0.00    -0.295 OA
HETATM   13  C19 UNL     1      -1.897 -19.698  54.141  1.00  0.00     0.162 C 
HETATM   14  C20 UNL     1      -1.181 -20.593  55.092  1.00  0.00     0.037 C 
HETATM   15  C21 UNL     1      -1.464 -20.407  56.543  1.00  0.00     0.031 C 
HETATM   16  C22 UNL     1      -1.483 -18.967  56.878  1.00  0.00    -0.009 C 
HETATM   17  C23 UNL     1      -2.108 -18.181  56.030  1.00  0.00     0.091 C 
HETATM   18  N3  UNL     1      -2.729 -18.732  54.838  1.00  0.00    -0.315 N 
HETATM   19  C24 UNL     1      -4.006 -18.333  54.429  1.00  0.00     0.247 C 
HETATM   20  O4  UNL     1      -4.249 -17.084  54.610  1.00  0.00    -0.271 OA
HETATM   21  C25 UNL     1      -5.083 -19.144  53.836  1.00  0.00     0.177 C 
HETATM   22  N5  UNL     1      -5.284 -19.022  52.430  1.00  0.00    -0.346 N 
ATOM     23  H5  UNL     1      -4.696 -19.649  51.880  1.00  0.00     0.163 HD
HETATM   24  C30 UNL     1      -6.119 -18.222  51.654  1.00  0.00     0.241 C 
HETATM   25  O5  UNL     1      -7.060 -18.736  50.982  1.00  0.00    -0.271 OA
HETATM   26  C31 UNL     1      -6.064 -16.715  51.479  1.00  0.00     0.177 C 
HETATM   27  N6  UNL     1      -5.896 -16.474  50.029  1.00  0.00    -0.346 N 
ATOM     28  H6  UNL     1      -6.742 -16.206  49.526  1.00  0.00     0.163 HD
HETATM   29  C36 UNL     1      -4.760 -16.562  49.271  1.00  0.00     0.241 C 
HETATM   30  O6  UNL     1      -4.797 -17.253  48.179  1.00  0.00    -0.271 OA
ENDROOT
BRANCH  21  31
HETATM   31  C26 UNL     1      -6.312 -18.929  54.696  1.00  0.00     0.035 C 
BRANCH  31  32
HETATM   32  C27 UNL     1      -6.037 -19.521  56.085  1.00  0.00     0.004 C 
BRANCH  32  33
HETATM   33  C28 UNL     1      -5.815 -21.017  55.953  1.00  0.00     0.027 C 
BRANCH  33  34
HETATM   34  C29 UNL     1      -5.004 -21.574  57.092  1.00  0.00     0.229 C 
BRANCH  34  35
HETATM   35  N4  UNL     1      -5.931 -22.371  57.904  1.00  0.00    -0.079 N 
ATOM     36  H43 UNL     1      -6.648 -22.845  57.355  1.00  0.00     0.274 HD
ATOM     37  H42 UNL     1      -5.505 -23.209  58.301  1.00  0.00     0.274 HD
ATOM     38  H41 UNL     1      -6.312 -21.738  58.607  1.00  0.00     0.274 HD
ENDBRANCH  34  35
ENDBRANCH  33  34
ENDBRANCH  32  33
ENDBRANCH  31  32
ENDBRANCH  21  31
BRANCH  26  39
HETATM   39  C32 UNL     1      -7.375 -16.202  51.975  1.00  0.00     0.038 C 
BRANCH  39  40
HETATM   40  C33 UNL     1      -8.377 -17.124  52.494  1.00  0.00    -0.020 C 
HETATM   41  C34 UNL     1      -9.641 -17.278  51.702  1.00  0.00     0.009 C 
HETATM   42  C35 UNL     1      -8.785 -16.906  53.930  1.00  0.00     0.009 C 
ENDBRANCH  39  40
ENDBRANCH  26  39
BRANCH  10  43
HETATM   43  C14 UNL     1      -0.851 -20.074  51.229  1.00  0.00     0.025 C 
BRANCH  43  44
HETATM   44  C15 UNL     1      -0.727 -20.145  49.774  1.00  0.00    -0.021 C 
HETATM   45  C16 UNL     1      -1.812 -19.652  48.904  1.00  0.00     0.009 C 
HETATM   46  C17 UNL     1      -0.292 -21.540  49.307  1.00  0.00     0.009 C 
ENDBRANCH  43  44
ENDBRANCH  10  43
BRANCH   1  47
HETATM   47  C4  UNL     1      -2.847 -15.517  48.169  1.00  0.00     0.038 C 
BRANCH  47  48
HETATM   48  C2  UNL     1      -1.535 -16.018  47.719  1.00  0.00    -0.020 C 
HETATM   49  C1  UNL     1      -0.495 -14.856  47.782  1.00  0.00     0.009 C 
HETATM   50  C3  UNL     1      -1.558 -16.359  46.223  1.00  0.00     0.009 C 
ENDBRANCH  47  48
ENDBRANCH   1  47
BRANCH   5  51
HETATM   51  C8  UNL     1      -0.329 -14.492  52.630  1.00  0.00     0.065 C 
BRANCH  51  52
HETATM   52  C9  UNL     1      -0.407 -13.075  52.363  1.00  0.00    -0.017 C 
HETATM   53  C10 UNL     1      -0.582 -12.145  53.524  1.00  0.00     0.010 C 
HETATM   54  C11 UNL     1       0.679 -12.536  51.473  1.00  0.00     0.010 C 
ENDBRANCH  51  52
ENDBRANCH   5  51
BRANCH   4  55
HETATM   55  O1  UNL     1      -3.159 -14.279  52.635  1.00  0.00    -0.345 OA
ATOM     56  H1  UNL     1      -2.770 -13.422  52.763  1.00  0.00     0.219 HD
ENDBRANCH   4  55
TORSDOF 14
ENDMDL
