MODEL 1
REMARK VINA RESULT: -8.083219089      0.000      0.000
REMARK  2 active torsions:
REMARK  status: ('A' for Active; 'I' for Inactive)
REMARK    1  A    between atoms: O1_1  and  C1_3 
REMARK    2  A    between atoms: N1_9  and  C7_10 
ROOT
HETATM    1  C1  UNL     1      29.688  46.975  10.817  1.00  0.00     0.064 C 
HETATM    2  C2  UNL     1      30.225  46.710   9.418  1.00  0.00     0.038 C 
HETATM    3  C3  UNL     1      29.579  45.431   8.949  1.00  0.00     0.004 C 
HETATM    4  C4  UNL     1      29.308  44.724  10.277  1.00  0.00     0.009 C 
HETATM    5  C5  UNL     1      28.675  45.879  11.065  1.00  0.00     0.038 C 
HETATM    6  C6  UNL     1      28.557  45.493  12.499  1.00  0.00     0.132 C 
HETATM    7  N1  UNL     1      28.900  46.618  13.340  1.00  0.00    -0.366 N 
HETATM    8  C11 UNL     1      30.220  47.201  13.197  1.00  0.00     0.127 C 
HETATM    9  C12 UNL     1      30.807  46.912  11.826  1.00  0.00     0.058 C 
ENDROOT
BRANCH   7  10
HETATM   10  C7  UNL     1      27.970  47.138  14.280  1.00  0.00     0.118 A 
HETATM   11  C8  UNL     1      26.621  46.943  14.191  1.00  0.00     0.136 A 
HETATM   12  N2  UNL     1      25.801  47.479  15.140  1.00  0.00    -0.371 N 
HETATM   13  C9  UNL     1      26.296  48.201  16.168  1.00  0.00     0.104 A 
ATOM     14  H2  UNL     1      24.794  47.332  15.071  1.00  0.00     0.164 HD
HETATM   15  C10 UNL     1      27.664  48.397  16.256  1.00  0.00     0.106 A 
HETATM   16  N3  UNL     1      28.433  47.862  15.317  1.00  0.00    -0.350 N 
ATOM     17  H3  UNL     1      29.440  48.008  15.385  1.00  0.00     0.166 HD
ENDBRANCH   7  10
BRANCH   1  18
HETATM   18  O1  UNL     1      29.103  48.239  10.896  1.00  0.00    -0.389 OA
ATOM     19  H1  UNL     1      28.196  48.212  10.616  1.00  0.00     0.210 HD
ENDBRANCH   1  18
TORSDOF 2
ENDMDL
MODEL 2
REMARK VINA RESULT: -7.934997322      4.079      6.088
REMARK  2 active torsions:
REMARK  status: ('A' for Active; 'I' for Inactive)
REMARK    1  A    between atoms: O1_1  and  C1_3 
REMARK    2  A    between atoms: N1_9  and  C7_10 
ROOT
HETATM    1  C1  UNL     1      34.453  48.142   8.703  1.00  0.00     0.064 C 
HETATM    2  C2  UNL     1      35.843  48.669   8.380  1.00  0.00     0.038 C 
HETATM    3  C3  UNL     1      36.649  48.552   9.649  1.00  0.00     0.004 C 
HETATM    4  C4  UNL     1      35.554  48.647  10.712  1.00  0.00     0.009 C 
HETATM    5  C5  UNL     1      34.539  47.653  10.132  1.00  0.00     0.038 C 
HETATM    6  C6  UNL     1      33.254  47.768  10.877  1.00  0.00     0.132 C 
HETATM    7  N1  UNL     1      32.143  47.685   9.955  1.00  0.00    -0.366 N 
HETATM    8  C11 UNL     1      32.066  48.662   8.886  1.00  0.00     0.127 C 
HETATM    9  C12 UNL     1      33.434  49.246   8.572  1.00  0.00     0.058 C 
ENDROOT
BRANCH   7  10
HETATM   10  C7  UNL     1      31.153  46.674  10.091  1.00  0.00     0.118 A 
HETATM   11  C8  UNL     1      30.271  46.346   9.102  1.00  0.00     0.136 A 
HETATM   12  N2  UNL     1      29.353  45.361   9.319  1.00  0.00    -0.371 N 
HETATM   13  C9  UNL     1      29.297  44.702  10.496  1.00  0.00     0.104 A 
ATOM     14  H2  UNL     1      28.696  45.119   8.578  1.00  0.00     0.164 HD
HETATM   15  C10 UNL     1      30.193  45.036  11.499  1.00  0.00     0.106 A 
HETATM   16  N3  UNL     1      31.072  45.998  11.254  1.00  0.00    -0.350 N 
ATOM     17  H3  UNL     1      31.730  46.242  11.994  1.00  0.00     0.166 HD
ENDBRANCH   7  10
BRANCH   1  18
HETATM   18  O1  UNL     1      34.094  47.114   7.832  1.00  0.00    -0.389 OA
ATOM     19  H1  UNL     1      33.442  47.410   7.207  1.00  0.00     0.210 HD
ENDBRANCH   1  18
TORSDOF 2
ENDMDL
MODEL 3
REMARK VINA RESULT: -7.656709806      1.487      2.179
REMARK  2 active torsions:
REMARK  status: ('A' for Active; 'I' for Inactive)
REMARK    1  A    between atoms: O1_1  and  C1_3 
REMARK    2  A    between atoms: N1_9  and  C7_10 
ROOT
HETATM    1  C1  UNL     1      29.192  45.636  11.135  1.00  0.00     0.064 C 
HETATM    2  C2  UNL     1      29.773  45.209   9.796  1.00  0.00     0.038 C 
HETATM    3  C3  UNL     1      30.525  46.400   9.257  1.00  0.00     0.004 C 
HETATM    4  C4  UNL     1      29.771  47.555   9.917  1.00  0.00     0.009 C 
HETATM    5  C5  UNL     1      29.712  47.039  11.361  1.00  0.00     0.038 C 
HETATM    6  C6  UNL     1      28.785  47.895  12.154  1.00  0.00     0.132 C 
HETATM    7  N1  UNL     1      27.988  47.071  13.034  1.00  0.00    -0.366 N 
HETATM    8  C11 UNL     1      27.159  46.039  12.441  1.00  0.00     0.127 C 
HETATM    9  C12 UNL     1      27.685  45.624  11.077  1.00  0.00     0.058 C 
ENDROOT
BRANCH   7  10
HETATM   10  C7  UNL     1      28.015  47.265  14.442  1.00  0.00     0.118 A 
HETATM   11  C8  UNL     1      26.890  47.355  15.211  1.00  0.00     0.136 A 
HETATM   12  N2  UNL     1      27.009  47.542  16.556  1.00  0.00    -0.371 N 
HETATM   13  C9  UNL     1      28.219  47.641  17.146  1.00  0.00     0.104 A 
ATOM     14  H2  UNL     1      26.167  47.608  17.128  1.00  0.00     0.164 HD
HETATM   15  C10 UNL     1      29.359  47.550  16.364  1.00  0.00     0.106 A 
HETATM   16  N3  UNL     1      29.207  47.367  15.059  1.00  0.00    -0.350 N 
ATOM     17  H3  UNL     1      30.048  47.301  14.487  1.00  0.00     0.166 HD
ENDBRANCH   7  10
BRANCH   1  18
HETATM   18  O1  UNL     1      29.594  44.772  12.153  1.00  0.00    -0.389 OA
ATOM     19  H1  UNL     1      29.197  45.014  12.981  1.00  0.00     0.210 HD
ENDBRANCH   1  18
TORSDOF 2
ENDMDL
MODEL 4
REMARK VINA RESULT: -7.623930575      1.499      1.967
REMARK  2 active torsions:
REMARK  status: ('A' for Active; 'I' for Inactive)
REMARK    1  A    between atoms: O1_1  and  C1_3 
REMARK    2  A    between atoms: N1_9  and  C7_10 
ROOT
HETATM    1  C1  UNL     1      31.290  47.039  11.393  1.00  0.00     0.064 C 
HETATM    2  C2  UNL     1      32.320  47.230  10.290  1.00  0.00     0.038 C 
HETATM    3  C3  UNL     1      31.670  48.101   9.245  1.00  0.00     0.004 C 
HETATM    4  C4  UNL     1      30.192  47.769   9.453  1.00  0.00     0.009 C 
HETATM    5  C5  UNL     1      30.108  47.889  10.981  1.00  0.00     0.038 C 
HETATM    6  C6  UNL     1      28.800  47.353  11.448  1.00  0.00     0.132 C 
HETATM    7  N1  UNL     1      28.987  46.588  12.661  1.00  0.00    -0.366 N 
HETATM    8  C11 UNL     1      29.886  45.450  12.619  1.00  0.00     0.127 C 
HETATM    9  C12 UNL     1      30.898  45.586  11.494  1.00  0.00     0.058 C 
ENDROOT
BRANCH   7  10
HETATM   10  C7  UNL     1      28.310  46.940  13.860  1.00  0.00     0.118 A 
HETATM   11  C8  UNL     1      26.972  46.748  14.052  1.00  0.00     0.136 A 
HETATM   12  N2  UNL     1      26.404  47.116  15.236  1.00  0.00    -0.371 N 
HETATM   13  C9  UNL     1      27.140  47.667  16.225  1.00  0.00     0.104 A 
ATOM     14  H2  UNL     1      25.405  46.972  15.377  1.00  0.00     0.164 HD
HETATM   15  C10 UNL     1      28.497  47.860  16.028  1.00  0.00     0.106 A 
HETATM   16  N3  UNL     1      29.017  47.491  14.865  1.00  0.00    -0.350 N 
ATOM     17  H3  UNL     1      30.016  47.635  14.723  1.00  0.00     0.166 HD
ENDBRANCH   7  10
BRANCH   1  18
HETATM   18  O1  UNL     1      31.801  47.438  12.628  1.00  0.00    -0.389 OA
ATOM     19  H1  UNL     1      31.112  47.776  13.188  1.00  0.00     0.210 HD
ENDBRANCH   1  18
TORSDOF 2
ENDMDL
MODEL 5
REMARK VINA RESULT: -7.583933022      0.949      1.363
REMARK  2 active torsions:
REMARK  status: ('A' for Active; 'I' for Inactive)
REMARK    1  A    between atoms: O1_1  and  C1_3 
REMARK    2  A    between atoms: N1_9  and  C7_10 
ROOT
HETATM    1  C1  UNL     1      30.249  46.655  11.128  1.00  0.00     0.064 C 
HETATM    2  C2  UNL     1      30.868  46.481   9.749  1.00  0.00     0.038 C 
HETATM    3  C3  UNL     1      29.798  45.879   8.874  1.00  0.00     0.004 C 
HETATM    4  C4  UNL     1      28.950  45.132   9.904  1.00  0.00     0.009 C 
HETATM    5  C5  UNL     1      28.806  46.228  10.969  1.00  0.00     0.038 C 
HETATM    6  C6  UNL     1      28.221  45.640  12.206  1.00  0.00     0.132 C 
HETATM    7  N1  UNL     1      28.882  46.189  13.370  1.00  0.00    -0.366 N 
HETATM    8  C11 UNL     1      30.316  46.009  13.490  1.00  0.00     0.127 C 
HETATM    9  C12 UNL     1      30.960  45.783  12.132  1.00  0.00     0.058 C 
ENDROOT
BRANCH   7  10
HETATM   10  C7  UNL     1      28.147  46.884  14.369  1.00  0.00     0.118 A 
HETATM   11  C8  UNL     1      28.731  47.651  15.335  1.00  0.00     0.136 A 
HETATM   12  N2  UNL     1      27.949  48.284  16.255  1.00  0.00    -0.371 N 
HETATM   13  C9  UNL     1      26.604  48.167  16.230  1.00  0.00     0.104 A 
ATOM     14  H2  UNL     1      28.388  48.857  16.975  1.00  0.00     0.164 HD
HETATM   15  C10 UNL     1      26.013  47.388  15.249  1.00  0.00     0.106 A 
HETATM   16  N3  UNL     1      26.804  46.787  14.370  1.00  0.00    -0.350 N 
ATOM     17  H3  UNL     1      26.366  46.214  13.649  1.00  0.00     0.166 HD
ENDBRANCH   7  10
BRANCH   1  18
HETATM   18  O1  UNL     1      30.346  47.978  11.555  1.00  0.00    -0.389 OA
ATOM     19  H1  UNL     1      31.068  48.087  12.163  1.00  0.00     0.210 HD
ENDBRANCH   1  18
TORSDOF 2
ENDMDL
