MODEL 1
REMARK VINA RESULT: -6.638108891      0.000      0.000
REMARK  2 active torsions:
REMARK  status: ('A' for Active; 'I' for Inactive)
REMARK    1  A    between atoms: C4_5  and  N1_6 
REMARK    2  A    between atoms: C8_10  and  O2_11 
ROOT
HETATM    1  N1  UNL     1      33.533  48.231   9.950  1.00  0.00     0.120 N 
HETATM    2  C5  UNL     1      34.663  47.558  10.540  1.00  0.00     0.276 C 
HETATM    3  C6  UNL     1      35.857  48.469  10.446  1.00  0.00     0.033 C 
HETATM    4  C7  UNL     1      36.112  48.920   9.036  1.00  0.00     0.035 C 
HETATM    5  C8  UNL     1      35.099  48.396   8.057  1.00  0.00     0.146 C 
HETATM    6  C9  UNL     1      33.689  48.473   8.544  1.00  0.00     0.307 C 
ENDROOT
BRANCH   1   7
HETATM    7  C4  UNL     1      32.327  47.431  10.151  1.00  0.00     0.369 C 
HETATM    8  O1  UNL     1      32.083  47.382  11.481  1.00  0.00    -0.335 OA
HETATM    9  C2  UNL     1      30.901  46.782  11.778  1.00  0.00     0.104 C 
HETATM   10  C1  UNL     1      30.376  47.244  13.112  1.00  0.00     0.058 C 
HETATM   11  C3  UNL     1      30.904  45.293  11.744  1.00  0.00     0.058 C 
HETATM   12  S1  UNL     1      29.805  47.492  10.480  1.00  0.00    -0.128 SA
HETATM   13  C10 UNL     1      31.179  48.192   9.470  1.00  0.00     0.141 C 
ENDBRANCH   1   7
BRANCH   5  14
HETATM   14  O2  UNL     1      35.396  47.079   7.729  1.00  0.00    -0.394 OA
ATOM     15  H2  UNL     1      34.751  46.746   7.116  1.00  0.00     0.210 HD
ENDBRANCH   5  14
TORSDOF 2
ENDMDL
MODEL 2
REMARK VINA RESULT: -6.624565658      4.405      6.019
REMARK  2 active torsions:
REMARK  status: ('A' for Active; 'I' for Inactive)
REMARK    1  A    between atoms: C4_5  and  N1_6 
REMARK    2  A    between atoms: C8_10  and  O2_11 
ROOT
HETATM    1  N1  UNL     1      28.960  47.271  12.846  1.00  0.00     0.120 N 
HETATM    2  C5  UNL     1      30.357  46.983  13.051  1.00  0.00     0.276 C 
HETATM    3  C6  UNL     1      31.094  47.280  11.773  1.00  0.00     0.033 C 
HETATM    4  C7  UNL     1      30.508  46.544  10.601  1.00  0.00     0.035 C 
HETATM    5  C8  UNL     1      29.304  45.720  10.964  1.00  0.00     0.146 C 
HETATM    6  C9  UNL     1      28.343  46.418  11.870  1.00  0.00     0.307 C 
ENDROOT
BRANCH   1   7
HETATM    7  C4  UNL     1      28.239  47.127  14.108  1.00  0.00     0.369 C 
HETATM    8  O1  UNL     1      28.056  48.366  14.620  1.00  0.00    -0.335 OA
HETATM    9  C2  UNL     1      27.268  48.368  15.727  1.00  0.00     0.104 C 
HETATM   10  C1  UNL     1      26.605  49.706  15.922  1.00  0.00     0.058 C 
HETATM   11  C3  UNL     1      27.935  47.965  16.996  1.00  0.00     0.058 C 
HETATM   12  S1  UNL     1      25.959  47.172  15.234  1.00  0.00    -0.128 SA
HETATM   13  C10 UNL     1      26.866  46.532  13.763  1.00  0.00     0.141 C 
ENDBRANCH   1   7
BRANCH   5  14
HETATM   14  O2  UNL     1      29.708  44.530  11.557  1.00  0.00    -0.394 OA
ATOM     15  H2  UNL     1      29.313  43.794  11.104  1.00  0.00     0.210 HD
ENDBRANCH   5  14
TORSDOF 2
ENDMDL
MODEL 3
REMARK VINA RESULT: -6.497815614      3.326      5.002
REMARK  2 active torsions:
REMARK  status: ('A' for Active; 'I' for Inactive)
REMARK    1  A    between atoms: C4_5  and  N1_6 
REMARK    2  A    between atoms: C8_10  and  O2_11 
ROOT
HETATM    1  N1  UNL     1      35.899  48.379  12.923  1.00  0.00     0.120 N 
HETATM    2  C5  UNL     1      35.179  47.871  14.064  1.00  0.00     0.276 C 
HETATM    3  C6  UNL     1      36.161  47.651  15.182  1.00  0.00     0.033 C 
HETATM    4  C7  UNL     1      37.302  46.767  14.765  1.00  0.00     0.035 C 
HETATM    5  C8  UNL     1      37.223  46.342  13.325  1.00  0.00     0.146 C 
HETATM    6  C9  UNL     1      36.847  47.443  12.389  1.00  0.00     0.307 C 
ENDROOT
BRANCH   1   7
HETATM    7  C4  UNL     1      34.955  48.736  11.866  1.00  0.00     0.369 C 
HETATM    8  O1  UNL     1      35.594  48.601  10.681  1.00  0.00    -0.335 OA
HETATM    9  C2  UNL     1      34.769  48.769   9.615  1.00  0.00     0.104 C 
HETATM   10  C1  UNL     1      35.301  48.063   8.397  1.00  0.00     0.058 C 
HETATM   11  C3  UNL     1      34.450  50.180   9.260  1.00  0.00     0.058 C 
HETATM   12  S1  UNL     1      33.273  47.852  10.174  1.00  0.00    -0.128 SA
HETATM   13  C10 UNL     1      33.817  47.705  11.929  1.00  0.00     0.141 C 
ENDBRANCH   1   7
BRANCH   5  14
HETATM   14  O2  UNL     1      36.315  45.299  13.189  1.00  0.00    -0.394 OA
ATOM     15  H2  UNL     1      36.780  44.479  13.074  1.00  0.00     0.210 HD
ENDBRANCH   5  14
TORSDOF 2
ENDMDL
MODEL 4
REMARK VINA RESULT: -6.460037577      1.804      2.401
REMARK  2 active torsions:
REMARK  status: ('A' for Active; 'I' for Inactive)
REMARK    1  A    between atoms: C4_5  and  N1_6 
REMARK    2  A    between atoms: C8_10  and  O2_11 
ROOT
HETATM    1  N1  UNL     1      33.814  47.684  10.406  1.00  0.00     0.120 N 
HETATM    2  C5  UNL     1      33.577  47.665   8.984  1.00  0.00     0.276 C 
HETATM    3  C6  UNL     1      34.907  47.617   8.284  1.00  0.00     0.033 C 
HETATM    4  C7  UNL     1      35.811  48.737   8.714  1.00  0.00     0.035 C 
HETATM    5  C8  UNL     1      35.200  49.617   9.769  1.00  0.00     0.146 C 
HETATM    6  C9  UNL     1      34.496  48.865  10.851  1.00  0.00     0.307 C 
ENDROOT
BRANCH   1   7
HETATM    7  C4  UNL     1      32.541  47.588  11.117  1.00  0.00     0.369 C 
HETATM    8  O1  UNL     1      31.698  46.853  10.355  1.00  0.00    -0.335 OA
HETATM    9  C2  UNL     1      30.526  46.576  10.982  1.00  0.00     0.104 C 
HETATM   10  C1  UNL     1      29.888  45.333  10.421  1.00  0.00     0.058 C 
HETATM   11  C3  UNL     1      29.523  47.677  10.993  1.00  0.00     0.058 C 
HETATM   12  S1  UNL     1      31.116  46.174  12.680  1.00  0.00    -0.128 SA
HETATM   13  C10 UNL     1      32.822  46.820  12.417  1.00  0.00     0.141 C 
ENDBRANCH   1   7
BRANCH   5  14
HETATM   14  O2  UNL     1      34.311  50.510   9.182  1.00  0.00    -0.394 OA
ATOM     15  H2  UNL     1      33.707  50.840   9.837  1.00  0.00     0.210 HD
ENDBRANCH   5  14
TORSDOF 2
ENDMDL
MODEL 5
REMARK VINA RESULT: -6.456545639      2.176      2.437
REMARK  2 active torsions:
REMARK  status: ('A' for Active; 'I' for Inactive)
REMARK    1  A    between atoms: C4_5  and  N1_6 
REMARK    2  A    between atoms: C8_10  and  O2_11 
ROOT
HETATM    1  N1  UNL     1      33.843  48.368   9.744  1.00  0.00     0.120 N 
HETATM    2  C5  UNL     1      34.453  49.583  10.222  1.00  0.00     0.276 C 
HETATM    3  C6  UNL     1      34.611  50.524   9.058  1.00  0.00     0.033 C 
HETATM    4  C7  UNL     1      35.367  49.893   7.923  1.00  0.00     0.035 C 
HETATM    5  C8  UNL     1      35.753  48.465   8.192  1.00  0.00     0.146 C 
HETATM    6  C9  UNL     1      34.665  47.650   8.812  1.00  0.00     0.307 C 
ENDROOT
BRANCH   1   7
HETATM    7  C4  UNL     1      33.547  47.490  10.873  1.00  0.00     0.369 C 
HETATM    8  O1  UNL     1      34.031  48.080  11.991  1.00  0.00    -0.335 OA
HETATM    9  C2  UNL     1      33.687  47.420  13.126  1.00  0.00     0.104 C 
HETATM   10  C1  UNL     1      33.697  48.341  14.317  1.00  0.00     0.058 C 
HETATM   11  C3  UNL     1      34.496  46.209  13.441  1.00  0.00     0.058 C 
HETATM   12  S1  UNL     1      31.931  46.994  12.774  1.00  0.00    -0.128 SA
HETATM   13  C10 UNL     1      32.017  47.416  10.982  1.00  0.00     0.141 C 
ENDBRANCH   1   7
BRANCH   5  14
HETATM   14  O2  UNL     1      36.875  48.426   9.011  1.00  0.00    -0.394 OA
ATOM     15  H2  UNL     1      37.608  48.054   8.535  1.00  0.00     0.210 HD
ENDBRANCH   5  14
TORSDOF 2
ENDMDL
