MODEL 1
REMARK VINA RESULT: -6.976582371      0.000      0.000
REMARK  1 active torsions:
REMARK  status: ('A' for Active; 'I' for Inactive)
REMARK    1  A    between atoms: S1_2  and  C2_3 
ROOT
HETATM    1  C2  UNL     1      27.042  46.073  12.354  1.00  0.00     0.183 C 
HETATM    2  C3  UNL     1      27.725  44.819  11.848  1.00  0.00     0.070 C 
HETATM    3  C4  UNL     1      28.666  45.126  10.688  1.00  0.00     0.236 C 
HETATM    4  N1  UNL     1      29.977  45.509  11.129  1.00  0.00    -0.064 N 
ATOM      5  H11 UNL     1      30.651  44.748  11.048  1.00  0.00     0.278 HD
ATOM      6  H12 UNL     1      30.024  45.637  12.140  1.00  0.00     0.278 HD
HETATM    7  C5  UNL     1      30.391  46.684  10.409  1.00  0.00     0.150 C 
HETATM    8  C6  UNL     1      31.881  46.970  10.569  1.00  0.00     0.067 C 
HETATM    9  C7  UNL     1      32.066  47.846   9.334  1.00  0.00     0.170 C 
HETATM   10  O1  UNL     1      31.459  47.054   8.364  1.00  0.00    -0.389 OA
HETATM   11  C8  UNL     1      30.312  46.519   8.908  1.00  0.00     0.206 C 
HETATM   12  C9  UNL     1      29.662  47.909  10.893  1.00  0.00     0.067 C 
HETATM   13  C10 UNL     1      28.781  47.570  12.081  1.00  0.00     0.172 C 
HETATM   14  O2  UNL     1      27.542  47.136  11.616  1.00  0.00    -0.376 OA
ENDROOT
BRANCH   1  15
HETATM   15  S1  UNL     1      27.336  46.263  14.127  1.00  0.00    -0.142 SA
HETATM   16  C1  UNL     1      26.028  47.264  14.870  1.00  0.00     0.092 C 
ENDBRANCH   1  15
TORSDOF 1
ENDMDL
MODEL 2
REMARK VINA RESULT: -6.537345921      2.946      4.340
REMARK  1 active torsions:
REMARK  status: ('A' for Active; 'I' for Inactive)
REMARK    1  A    between atoms: S1_2  and  C2_3 
ROOT
HETATM    1  C2  UNL     1      30.632  47.279  11.331  1.00  0.00     0.183 C 
HETATM    2  C3  UNL     1      30.324  47.437   9.855  1.00  0.00     0.070 C 
HETATM    3  C4  UNL     1      31.380  48.285   9.154  1.00  0.00     0.236 C 
HETATM    4  N1  UNL     1      32.502  47.509   8.707  1.00  0.00    -0.064 N 
ATOM      5  H11 UNL     1      32.463  47.313   7.707  1.00  0.00     0.278 HD
ATOM      6  H12 UNL     1      32.467  46.546   9.044  1.00  0.00     0.278 HD
HETATM    7  C5  UNL     1      33.718  48.178   9.086  1.00  0.00     0.150 C 
HETATM    8  C6  UNL     1      34.942  47.605   8.377  1.00  0.00     0.067 C 
HETATM    9  C7  UNL     1      35.870  48.804   8.549  1.00  0.00     0.170 C 
HETATM   10  O1  UNL     1      35.044  49.833   8.106  1.00  0.00    -0.389 OA
HETATM   11  C8  UNL     1      33.781  49.610   8.608  1.00  0.00     0.206 C 
HETATM   12  C9  UNL     1      33.976  48.051  10.564  1.00  0.00     0.067 C 
HETATM   13  C10 UNL     1      32.936  47.156  11.211  1.00  0.00     0.172 C 
HETATM   14  O2  UNL     1      31.834  47.928  11.569  1.00  0.00    -0.376 OA
ENDROOT
BRANCH   1  15
HETATM   15  S1  UNL     1      30.696  45.525  11.762  1.00  0.00    -0.142 SA
HETATM   16  C1  UNL     1      29.354  44.634  10.942  1.00  0.00     0.092 C 
ENDBRANCH   1  15
TORSDOF 1
ENDMDL
MODEL 3
REMARK VINA RESULT: -6.317889278      2.998      5.742
REMARK  1 active torsions:
REMARK  status: ('A' for Active; 'I' for Inactive)
REMARK    1  A    between atoms: S1_2  and  C2_3 
ROOT
HETATM    1  C2  UNL     1      33.504  48.541   9.907  1.00  0.00     0.183 C 
HETATM    2  C3  UNL     1      33.591  47.920  11.286  1.00  0.00     0.070 C 
HETATM    3  C4  UNL     1      32.211  47.559  11.823  1.00  0.00     0.236 C 
HETATM    4  N1  UNL     1      31.779  46.256  11.402  1.00  0.00    -0.064 N 
ATOM      5  H11 UNL     1      31.889  45.556  12.136  1.00  0.00     0.278 HD
ATOM      6  H12 UNL     1      32.408  45.843  10.713  1.00  0.00     0.278 HD
HETATM    7  C5  UNL     1      30.424  46.339  10.926  1.00  0.00     0.150 C 
HETATM    8  C6  UNL     1      29.778  44.966  10.768  1.00  0.00     0.067 C 
HETATM    9  C7  UNL     1      28.318  45.410  10.807  1.00  0.00     0.170 C 
HETATM   10  O1  UNL     1      28.325  46.213  11.944  1.00  0.00    -0.389 OA
HETATM   11  C8  UNL     1      29.480  46.963  11.928  1.00  0.00     0.206 C 
HETATM   12  C9  UNL     1      30.357  47.006   9.578  1.00  0.00     0.067 C 
HETATM   13  C10 UNL     1      31.752  47.297   9.058  1.00  0.00     0.172 C 
HETATM   14  O2  UNL     1      32.166  48.536   9.540  1.00  0.00    -0.376 OA
ENDROOT
BRANCH   1  15
HETATM   15  S1  UNL     1      34.542  47.621   8.749  1.00  0.00    -0.142 SA
HETATM   16  C1  UNL     1      36.048  48.552   8.389  1.00  0.00     0.092 C 
ENDBRANCH   1  15
TORSDOF 1
ENDMDL
MODEL 4
REMARK VINA RESULT: -6.293268753      2.938      4.535
REMARK  1 active torsions:
REMARK  status: ('A' for Active; 'I' for Inactive)
REMARK    1  A    between atoms: S1_2  and  C2_3 
ROOT
HETATM    1  C2  UNL     1      31.216  46.577  11.130  1.00  0.00     0.183 C 
HETATM    2  C3  UNL     1      32.272  47.025  12.121  1.00  0.00     0.070 C 
HETATM    3  C4  UNL     1      33.573  47.398  11.417  1.00  0.00     0.236 C 
HETATM    4  N1  UNL     1      33.588  48.764  10.976  1.00  0.00    -0.064 N 
ATOM      5  H11 UNL     1      34.131  49.366  11.596  1.00  0.00     0.278 HD
ATOM      6  H12 UNL     1      32.682  49.219  11.092  1.00  0.00     0.278 HD
HETATM    7  C5  UNL     1      34.057  48.816   9.617  1.00  0.00     0.150 C 
HETATM    8  C6  UNL     1      34.415  50.233   9.179  1.00  0.00     0.067 C 
HETATM    9  C7  UNL     1      35.331  49.872   8.013  1.00  0.00     0.170 C 
HETATM   10  O1  UNL     1      36.168  48.941   8.622  1.00  0.00    -0.389 OA
HETATM   11  C8  UNL     1      35.392  48.133   9.424  1.00  0.00     0.206 C 
HETATM   12  C9  UNL     1      33.011  48.318   8.657  1.00  0.00     0.067 C 
HETATM   13  C10 UNL     1      31.718  48.012   9.390  1.00  0.00     0.172 C 
HETATM   14  O2  UNL     1      31.765  46.703   9.863  1.00  0.00    -0.376 OA
ENDROOT
BRANCH   1  15
HETATM   15  S1  UNL     1      29.719  47.568  11.337  1.00  0.00    -0.142 SA
HETATM   16  C1  UNL     1      28.995  47.268  12.965  1.00  0.00     0.092 C 
ENDBRANCH   1  15
TORSDOF 1
ENDMDL
MODEL 5
REMARK VINA RESULT: -6.284613337      3.384      5.822
REMARK  1 active torsions:
REMARK  status: ('A' for Active; 'I' for Inactive)
REMARK    1  A    between atoms: S1_2  and  C2_3 
ROOT
HETATM    1  C2  UNL     1      33.979  48.120   9.223  1.00  0.00     0.183 C 
HETATM    2  C3  UNL     1      32.620  48.125   8.552  1.00  0.00     0.070 C 
HETATM    3  C4  UNL     1      31.649  47.181   9.253  1.00  0.00     0.236 C 
HETATM    4  N1  UNL     1      30.968  47.807  10.351  1.00  0.00    -0.064 N 
ATOM      5  H11 UNL     1      30.016  48.083  10.110  1.00  0.00     0.278 HD
ATOM      6  H12 UNL     1      31.339  48.734  10.560  1.00  0.00     0.278 HD
HETATM    7  C5  UNL     1      31.010  46.932  11.492  1.00  0.00     0.150 C 
HETATM    8  C6  UNL     1      30.044  47.362  12.591  1.00  0.00     0.067 C 
HETATM    9  C7  UNL     1      29.936  46.025  13.318  1.00  0.00     0.170 C 
HETATM   10  O1  UNL     1      29.673  45.172  12.250  1.00  0.00    -0.389 OA
HETATM   11  C8  UNL     1      30.479  45.547  11.198  1.00  0.00     0.206 C 
HETATM   12  C9  UNL     1      32.382  46.903  12.111  1.00  0.00     0.067 C 
HETATM   13  C10 UNL     1      33.299  47.895  11.420  1.00  0.00     0.172 C 
HETATM   14  O2  UNL     1      33.889  47.277  10.320  1.00  0.00    -0.376 OA
ENDROOT
BRANCH   1  15
HETATM   15  S1  UNL     1      34.446  49.804   9.681  1.00  0.00    -0.142 SA
HETATM   16  C1  UNL     1      34.440  50.870   8.221  1.00  0.00     0.092 C 
ENDBRANCH   1  15
TORSDOF 1
ENDMDL
