MODEL 1
REMARK VINA RESULT: -5.784496163      0.000      0.000
REMARK  1 active torsions:
REMARK  status: ('A' for Active; 'I' for Inactive)
REMARK    1  A    between atoms: C1_2  and  C2_4 
ROOT
HETATM    1  C2  UNL     1      30.109  47.374  12.108  1.00  0.00     0.192 C 
HETATM    2  C3  UNL     1      31.115  47.535  11.001  1.00  0.00     0.122 C 
HETATM    3  S1  UNL     1      30.375  47.272   9.362  1.00  0.00    -0.093 SA
HETATM    4  S2  UNL     1      29.457  45.338   9.568  1.00  0.00    -0.072 SA
HETATM    5  C4  UNL     1      29.078  45.293  11.370  1.00  0.00     0.153 C 
HETATM    6  C5  UNL     1      27.657  44.763  11.494  1.00  0.00     0.038 C 
HETATM    7  C6  UNL     1      26.822  45.874  12.061  1.00  0.00     0.022 C 
HETATM    8  C7  UNL     1      27.882  46.797  12.681  1.00  0.00     0.119 C 
HETATM    9  N1  UNL     1      28.963  46.638  11.786  1.00  0.00    -0.385 N 
ENDROOT
BRANCH   1  10
HETATM   10  C1  UNL     1      30.853  46.913  13.307  1.00  0.00     0.197 C 
HETATM   11  O1  UNL     1      31.713  46.002  13.273  1.00  0.00    -0.646 OA
HETATM   12  O2  UNL     1      30.584  47.517  14.517  1.00  0.00    -0.646 OA
ENDBRANCH   1  10
TORSDOF 1
ENDMDL
MODEL 2
REMARK VINA RESULT: -5.781530945      1.569      3.466
REMARK  1 active torsions:
REMARK  status: ('A' for Active; 'I' for Inactive)
REMARK    1  A    between atoms: C1_2  and  C2_4 
ROOT
HETATM    1  C2  UNL     1      30.254  46.158  12.662  1.00  0.00     0.192 C 
HETATM    2  C3  UNL     1      29.079  45.358  12.168  1.00  0.00     0.122 C 
HETATM    3  S1  UNL     1      29.377  44.654  10.520  1.00  0.00    -0.093 SA
HETATM    4  S2  UNL     1      29.930  46.383   9.366  1.00  0.00    -0.072 SA
HETATM    5  C4  UNL     1      30.680  47.468  10.652  1.00  0.00     0.153 C 
HETATM    6  C5  UNL     1      31.965  48.016  10.050  1.00  0.00     0.038 C 
HETATM    7  C6  UNL     1      33.102  47.459  10.858  1.00  0.00     0.022 C 
HETATM    8  C7  UNL     1      32.401  47.029  12.155  1.00  0.00     0.119 C 
HETATM    9  N1  UNL     1      31.139  46.610  11.676  1.00  0.00    -0.385 N 
ENDROOT
BRANCH   1  10
HETATM   10  C1  UNL     1      29.718  47.201  13.572  1.00  0.00     0.197 C 
HETATM   11  O1  UNL     1      30.292  47.549  14.630  1.00  0.00    -0.646 OA
HETATM   12  O2  UNL     1      28.531  47.816  13.234  1.00  0.00    -0.646 OA
ENDBRANCH   1  10
TORSDOF 1
ENDMDL
MODEL 3
REMARK VINA RESULT: -5.577928418      6.384      7.713
REMARK  1 active torsions:
REMARK  status: ('A' for Active; 'I' for Inactive)
REMARK    1  A    between atoms: C1_2  and  C2_4 
ROOT
HETATM    1  C2  UNL     1      36.765  46.600  14.363  1.00  0.00     0.192 C 
HETATM    2  C3  UNL     1      37.566  47.256  15.455  1.00  0.00     0.122 C 
HETATM    3  S1  UNL     1      36.589  48.477  16.380  1.00  0.00    -0.093 SA
HETATM    4  S2  UNL     1      35.841  49.756  14.820  1.00  0.00    -0.072 SA
HETATM    5  C4  UNL     1      35.763  48.597  13.391  1.00  0.00     0.153 C 
HETATM    6  C5  UNL     1      34.417  48.836  12.722  1.00  0.00     0.038 C 
HETATM    7  C6  UNL     1      33.616  47.577  12.885  1.00  0.00     0.022 C 
HETATM    8  C7  UNL     1      34.701  46.536  13.197  1.00  0.00     0.119 C 
HETATM    9  N1  UNL     1      35.631  47.301  13.937  1.00  0.00    -0.385 N 
ENDROOT
BRANCH   1  10
HETATM   10  C1  UNL     1      37.721  46.214  13.296  1.00  0.00     0.197 C 
HETATM   11  O1  UNL     1      38.597  46.988  12.845  1.00  0.00    -0.646 OA
HETATM   12  O2  UNL     1      37.641  44.939  12.775  1.00  0.00    -0.646 OA
ENDBRANCH   1  10
TORSDOF 1
ENDMDL
MODEL 4
REMARK VINA RESULT: -5.569349807      2.999      3.557
REMARK  1 active torsions:
REMARK  status: ('A' for Active; 'I' for Inactive)
REMARK    1  A    between atoms: C1_2  and  C2_4 
ROOT
HETATM    1  C2  UNL     1      31.465  46.925  10.212  1.00  0.00     0.192 C 
HETATM    2  C3  UNL     1      32.461  47.558  11.145  1.00  0.00     0.122 C 
HETATM    3  S1  UNL     1      32.403  46.823  12.806  1.00  0.00    -0.093 SA
HETATM    4  S2  UNL     1      30.325  47.010  13.328  1.00  0.00    -0.072 SA
HETATM    5  C4  UNL     1      29.516  46.956  11.674  1.00  0.00     0.153 C 
HETATM    6  C5  UNL     1      28.332  46.011  11.809  1.00  0.00     0.038 C 
HETATM    7  C6  UNL     1      28.614  44.826  10.931  1.00  0.00     0.022 C 
HETATM    8  C7  UNL     1      29.689  45.371   9.980  1.00  0.00     0.119 C 
HETATM    9  N1  UNL     1      30.400  46.255  10.823  1.00  0.00    -0.385 N 
ENDROOT
BRANCH   1  10
HETATM   10  C1  UNL     1      31.088  47.958   9.214  1.00  0.00     0.197 C 
HETATM   11  O1  UNL     1      29.900  48.243   8.937  1.00  0.00    -0.646 OA
HETATM   12  O2  UNL     1      32.096  48.637   8.562  1.00  0.00    -0.646 OA
ENDBRANCH   1  10
TORSDOF 1
ENDMDL
MODEL 5
REMARK VINA RESULT: -5.327177068      2.819      3.330
REMARK  1 active torsions:
REMARK  status: ('A' for Active; 'I' for Inactive)
REMARK    1  A    between atoms: C1_2  and  C2_4 
ROOT
HETATM    1  C2  UNL     1      30.384  46.466  10.920  1.00  0.00     0.192 C 
HETATM    2  C3  UNL     1      31.211  47.332  11.831  1.00  0.00     0.122 C 
HETATM    3  S1  UNL     1      30.840  47.027  13.584  1.00  0.00    -0.093 SA
HETATM    4  S2  UNL     1      28.707  47.289  13.663  1.00  0.00    -0.072 SA
HETATM    5  C4  UNL     1      28.206  46.812  11.956  1.00  0.00     0.153 C 
HETATM    6  C5  UNL     1      26.996  45.902  12.106  1.00  0.00     0.038 C 
HETATM    7  C6  UNL     1      27.404  44.544  11.612  1.00  0.00     0.022 C 
HETATM    8  C7  UNL     1      28.644  44.862  10.764  1.00  0.00     0.119 C 
HETATM    9  N1  UNL     1      29.212  45.943  11.476  1.00  0.00    -0.385 N 
ENDROOT
BRANCH   1  10
HETATM   10  C1  UNL     1      30.215  47.212   9.648  1.00  0.00     0.197 C 
HETATM   11  O1  UNL     1      29.584  48.292   9.564  1.00  0.00    -0.646 OA
HETATM   12  O2  UNL     1      30.780  46.690   8.503  1.00  0.00    -0.646 OA
ENDBRANCH   1  10
TORSDOF 1
ENDMDL
