MODEL 1
REMARK VINA RESULT: -8.858668115      0.000      0.000
REMARK  2 active torsions:
REMARK  status: ('A' for Active; 'I' for Inactive)
REMARK    1  A    between atoms: O1_1  and  C1_3 
REMARK    2  A    between atoms: C1_3  and  C2_4 
ROOT
HETATM    1  C1  UNL     1      28.881  46.765  11.911  1.00  0.00     0.122 C 
HETATM    2  C8  UNL     1      28.421  45.632  10.992  1.00  0.00     0.072 C 
HETATM    3  C9  UNL     1      27.410  44.718  11.568  1.00  0.00     0.171 C 
HETATM    4  O2  UNL     1      27.324  44.714  12.933  1.00  0.00    -0.388 OA
HETATM    5  C10 UNL     1      27.196  46.037  13.413  1.00  0.00     0.211 C 
HETATM    6  C11 UNL     1      28.649  46.544  13.340  1.00  0.00     0.138 A 
HETATM    7  C12 UNL     1      29.238  47.160  14.471  1.00  0.00     0.213 A 
HETATM    8  O3  UNL     1      29.454  45.806  14.154  1.00  0.00    -0.369 OA
ENDROOT
BRANCH   1   9
HETATM    9  O1  UNL     1      28.027  47.859  11.552  1.00  0.00    -0.382 OA
ATOM     10  H1  UNL     1      27.259  47.460  11.160  1.00  0.00     0.211 HD
ENDBRANCH   1   9
BRANCH   1  11
HETATM   11  C2  UNL     1      30.208  47.128  11.404  1.00  0.00    -0.021 A 
HETATM   12  C3  UNL     1      30.283  47.606  10.100  1.00  0.00     0.010 A 
HETATM   13  C4  UNL     1      31.484  47.912   9.491  1.00  0.00     0.001 A 
HETATM   14  C5  UNL     1      32.668  47.745  10.170  1.00  0.00     0.000 A 
HETATM   15  C6  UNL     1      32.634  47.272  11.455  1.00  0.00     0.001 A 
HETATM   16  C7  UNL     1      31.400  46.972  12.053  1.00  0.00     0.010 A 
ENDBRANCH   1  11
TORSDOF 2
ENDMDL
MODEL 2
REMARK VINA RESULT: -8.354020314      0.273      1.216
REMARK  2 active torsions:
REMARK  status: ('A' for Active; 'I' for Inactive)
REMARK    1  A    between atoms: O1_1  and  C1_3 
REMARK    2  A    between atoms: C1_3  and  C2_4 
ROOT
HETATM    1  C1  UNL     1      28.868  46.691  11.778  1.00  0.00     0.122 C 
HETATM    2  C8  UNL     1      28.255  45.568  10.939  1.00  0.00     0.072 C 
HETATM    3  C9  UNL     1      27.255  44.729  11.635  1.00  0.00     0.171 C 
HETATM    4  O2  UNL     1      27.303  44.760  13.002  1.00  0.00    -0.388 OA
HETATM    5  C10 UNL     1      27.300  46.097  13.455  1.00  0.00     0.211 C 
HETATM    6  C11 UNL     1      28.765  46.515  13.228  1.00  0.00     0.138 A 
HETATM    7  C12 UNL     1      29.497  47.119  14.279  1.00  0.00     0.213 A 
HETATM    8  O3  UNL     1      29.602  45.747  13.980  1.00  0.00    -0.369 OA
ENDROOT
BRANCH   1   9
HETATM    9  O1  UNL     1      28.048  47.826  11.473  1.00  0.00    -0.382 OA
ATOM     10  H1  UNL     1      27.157  47.494  11.456  1.00  0.00     0.211 HD
ENDBRANCH   1   9
BRANCH   1  11
HETATM   11  C2  UNL     1      30.157  46.961  11.135  1.00  0.00    -0.021 A 
HETATM   12  C3  UNL     1      31.260  47.139  11.964  1.00  0.00     0.010 A 
HETATM   13  C4  UNL     1      32.509  47.467  11.477  1.00  0.00     0.001 A 
HETATM   14  C5  UNL     1      32.703  47.637  10.125  1.00  0.00     0.000 A 
HETATM   15  C6  UNL     1      31.640  47.475   9.277  1.00  0.00     0.001 A 
HETATM   16  C7  UNL     1      30.381  47.136   9.798  1.00  0.00     0.010 A 
ENDBRANCH   1  11
TORSDOF 2
ENDMDL
MODEL 3
REMARK VINA RESULT: -8.292578925      1.399      1.778
REMARK  2 active torsions:
REMARK  status: ('A' for Active; 'I' for Inactive)
REMARK    1  A    between atoms: O1_1  and  C1_3 
REMARK    2  A    between atoms: C1_3  and  C2_4 
ROOT
HETATM    1  C1  UNL     1      30.350  46.939  11.004  1.00  0.00     0.122 C 
HETATM    2  C8  UNL     1      30.116  45.804  10.004  1.00  0.00     0.072 C 
HETATM    3  C9  UNL     1      29.233  44.715  10.477  1.00  0.00     0.171 C 
HETATM    4  O2  UNL     1      29.082  44.619  11.832  1.00  0.00    -0.388 OA
HETATM    5  C10 UNL     1      28.728  45.877  12.369  1.00  0.00     0.211 C 
HETATM    6  C11 UNL     1      30.086  46.603  12.404  1.00  0.00     0.138 A 
HETATM    7  C12 UNL     1      30.517  47.236  13.596  1.00  0.00     0.213 A 
HETATM    8  O3  UNL     1      30.955  45.950  13.224  1.00  0.00    -0.369 OA
ENDROOT
BRANCH   1   9
HETATM    9  O1  UNL     1      29.355  47.909  10.651  1.00  0.00    -0.382 OA
ATOM     10  H1  UNL     1      29.815  48.568  10.143  1.00  0.00     0.211 HD
ENDBRANCH   1   9
BRANCH   1  11
HETATM   11  C2  UNL     1      31.627  47.528  10.591  1.00  0.00    -0.021 A 
HETATM   12  C3  UNL     1      31.700  48.056   9.306  1.00  0.00     0.010 A 
HETATM   13  C4  UNL     1      32.869  48.574   8.783  1.00  0.00     0.001 A 
HETATM   14  C5  UNL     1      34.023  48.577   9.532  1.00  0.00     0.000 A 
HETATM   15  C6  UNL     1      33.990  48.061  10.800  1.00  0.00     0.001 A 
HETATM   16  C7  UNL     1      32.789  47.546  11.311  1.00  0.00     0.010 A 
ENDBRANCH   1  11
TORSDOF 2
ENDMDL
MODEL 4
REMARK VINA RESULT: -7.837160207      1.577      3.259
REMARK  2 active torsions:
REMARK  status: ('A' for Active; 'I' for Inactive)
REMARK    1  A    between atoms: O1_1  and  C1_3 
REMARK    2  A    between atoms: C1_3  and  C2_4 
ROOT
HETATM    1  C1  UNL     1      30.601  46.521  11.134  1.00  0.00     0.122 C 
HETATM    2  C8  UNL     1      30.074  47.412  12.261  1.00  0.00     0.072 C 
HETATM    3  C9  UNL     1      28.634  47.265  12.565  1.00  0.00     0.171 C 
HETATM    4  O2  UNL     1      27.872  46.708  11.576  1.00  0.00    -0.388 OA
HETATM    5  C10 UNL     1      28.460  45.501  11.136  1.00  0.00     0.211 C 
HETATM    6  C11 UNL     1      29.583  46.011  10.213  1.00  0.00     0.138 A 
HETATM    7  C12 UNL     1      29.712  45.489   8.903  1.00  0.00     0.213 A 
HETATM    8  O3  UNL     1      29.061  46.709   9.167  1.00  0.00    -0.369 OA
ENDROOT
BRANCH   1   9
HETATM    9  O1  UNL     1      31.103  45.369  11.823  1.00  0.00    -0.382 OA
ATOM     10  H1  UNL     1      31.464  44.809  11.145  1.00  0.00     0.211 HD
ENDBRANCH   1   9
BRANCH   1  11
HETATM   11  C2  UNL     1      31.789  47.225  10.641  1.00  0.00    -0.021 A 
HETATM   12  C3  UNL     1      32.844  47.395  11.531  1.00  0.00     0.010 A 
HETATM   13  C4  UNL     1      33.984  48.101  11.201  1.00  0.00     0.001 A 
HETATM   14  C5  UNL     1      34.110  48.675   9.957  1.00  0.00     0.000 A 
HETATM   15  C6  UNL     1      33.088  48.533   9.056  1.00  0.00     0.001 A 
HETATM   16  C7  UNL     1      31.942  47.806   9.414  1.00  0.00     0.010 A 
ENDBRANCH   1  11
TORSDOF 2
ENDMDL
MODEL 5
REMARK VINA RESULT: -7.823596607      1.433      2.192
REMARK  2 active torsions:
REMARK  status: ('A' for Active; 'I' for Inactive)
REMARK    1  A    between atoms: O1_1  and  C1_3 
REMARK    2  A    between atoms: C1_3  and  C2_4 
ROOT
HETATM    1  C1  UNL     1      30.377  46.923  10.956  1.00  0.00     0.122 C 
HETATM    2  C8  UNL     1      30.080  45.776   9.987  1.00  0.00     0.072 C 
HETATM    3  C9  UNL     1      29.220  44.698  10.525  1.00  0.00     0.171 C 
HETATM    4  O2  UNL     1      29.148  44.621  11.889  1.00  0.00    -0.388 OA
HETATM    5  C10 UNL     1      28.833  45.888  12.428  1.00  0.00     0.211 C 
HETATM    6  C11 UNL     1      30.194  46.607  12.374  1.00  0.00     0.138 A 
HETATM    7  C12 UNL     1      30.697  47.253  13.529  1.00  0.00     0.213 A 
HETATM    8  O3  UNL     1      31.106  45.960  13.151  1.00  0.00    -0.369 OA
ENDROOT
BRANCH   1   9
HETATM    9  O1  UNL     1      29.369  47.893  10.648  1.00  0.00    -0.382 OA
ATOM     10  H1  UNL     1      28.756  47.446  10.075  1.00  0.00     0.211 HD
ENDBRANCH   1   9
BRANCH   1  11
HETATM   11  C2  UNL     1      31.631  47.498  10.461  1.00  0.00    -0.021 A 
HETATM   12  C3  UNL     1      32.715  47.513  11.334  1.00  0.00     0.010 A 
HETATM   13  C4  UNL     1      33.924  48.091  11.004  1.00  0.00     0.001 A 
HETATM   14  C5  UNL     1      34.096  48.688   9.776  1.00  0.00     0.000 A 
HETATM   15  C6  UNL     1      33.050  48.697   8.892  1.00  0.00     0.001 A 
HETATM   16  C7  UNL     1      31.832  48.098   9.249  1.00  0.00     0.010 A 
ENDBRANCH   1  11
TORSDOF 2
ENDMDL
