MODEL 1
REMARK VINA RESULT: -5.940150446      0.000      0.000
REMARK  9 active torsions:
REMARK  status: ('A' for Active; 'I' for Inactive)
REMARK    1  A    between atoms: O1_2  and  C2_3 
REMARK    2  A    between atoms: C2_3  and  C4_5 
REMARK    3  A    between atoms: C2_3  and  C24_35 
REMARK    4  A    between atoms: C4_5  and  N1_6 
REMARK    5  A    between atoms: N2_9  and  C7_10 
REMARK    6  A    between atoms: N3_12  and  C9_13 
REMARK    7  A    between atoms: C12_20  and  C13_21 
REMARK    8  A    between atoms: C13_21  and  C16_24 
REMARK    9  A    between atoms: C16_24  and  C17_25 
ROOT
HETATM    1  C7  UNL     1      15.233  18.552  20.215  1.00  0.00     0.276 C 
HETATM    2  C8  UNL     1      16.411  18.855  19.312  1.00  0.00     0.180 C 
HETATM    3  N3  UNL     1      17.074  19.876  20.143  1.00  0.00    -0.213 N 
HETATM    4  C20 UNL     1      16.049  20.811  20.469  1.00  0.00     0.180 C 
HETATM    5  C21 UNL     1      14.743  19.978  20.488  1.00  0.00     0.223 C 
HETATM    6  F1  UNL     1      14.086  20.081  21.678  1.00  0.00    -0.245 F 
ENDROOT
BRANCH   3   7
HETATM    7  C9  UNL     1      18.423  19.825  20.513  1.00  0.00     0.683 A 
HETATM    8  N4  UNL     1      19.053  20.952  20.979  1.00  0.00    -0.181 N 
HETATM    9  C10 UNL     1      20.332  20.899  21.366  1.00  0.00     0.094 A 
ATOM     10  H4  UNL     1      18.543  21.834  21.030  1.00  0.00     0.185 HD
HETATM   11  C11 UNL     1      21.055  22.125  21.864  1.00  0.00     0.089 C 
HETATM   12  N5  UNL     1      20.962  19.728  21.284  1.00  0.00    -0.334 N 
HETATM   13  C12 UNL     1      20.452  18.586  20.853  1.00  0.00     0.106 A 
ATOM     14  H5  UNL     1      21.936  19.710  21.585  1.00  0.00     0.168 HD
HETATM   15  N6  UNL     1      19.127  18.703  20.466  1.00  0.00    -0.180 N 
ATOM     16  H6  UNL     1      18.659  17.866  20.120  1.00  0.00     0.185 HD
BRANCH  13  17
HETATM   17  C13 UNL     1      21.056  17.276  20.751  1.00  0.00     0.012 C 
HETATM   18  C14 UNL     1      21.966  17.303  19.472  1.00  0.00     0.023 C 
HETATM   19  C15 UNL     1      19.907  16.336  20.253  1.00  0.00     0.023 C 
BRANCH  17  20
HETATM   20  C16 UNL     1      21.853  16.623  21.761  1.00  0.00     0.020 C 
BRANCH  20  21
HETATM   21  C17 UNL     1      23.114  17.060  22.341  1.00  0.00    -0.022 C 
HETATM   22  C18 UNL     1      24.134  16.015  22.620  1.00  0.00     0.009 C 
HETATM   23  C19 UNL     1      22.843  17.733  23.718  1.00  0.00     0.009 C 
ENDBRANCH  20  21
ENDBRANCH  17  20
ENDBRANCH  13  17
ENDBRANCH   3   7
BRANCH   1  24
HETATM   24  N2  UNL     1      14.231  17.763  19.552  1.00  0.00     0.101 N 
HETATM   25  C6  UNL     1      14.840  16.857  18.601  1.00  0.00     0.303 C 
HETATM   26  C5  UNL     1      14.787  15.434  19.033  1.00  0.00     0.302 C 
HETATM   27  N1  UNL     1      13.386  14.963  19.145  1.00  0.00     0.095 N 
HETATM   28  C23 UNL     1      12.583  16.034  19.673  1.00  0.00     0.302 C 
HETATM   29  C22 UNL     1      13.498  16.935  20.507  1.00  0.00     0.303 C 
BRANCH  27  30
HETATM   30  C4  UNL     1      13.379  13.809  19.985  1.00  0.00     0.319 C 
BRANCH  30  31
HETATM   31  C2  UNL     1      12.883  12.515  19.461  1.00  0.00     0.180 C 
HETATM   32  C3  UNL     1      11.956  12.556  18.292  1.00  0.00     0.057 C 
BRANCH  31  33
HETATM   33  O1  UNL     1      13.817  11.519  19.443  1.00  0.00    -0.374 OA
HETATM   34  C1  UNL     1      14.950  11.676  18.719  1.00  0.00     0.203 C 
ENDBRANCH  31  33
BRANCH  31  35
HETATM   35  C24 UNL     1      11.913  12.022  20.639  1.00  0.00     0.419 C 
HETATM   36  F2  UNL     1      12.669  11.349  21.568  1.00  0.00    -0.168 F 
HETATM   37  F3  UNL     1      11.377  13.149  21.180  1.00  0.00    -0.168 F 
HETATM   38  F4  UNL     1      11.022  11.186  20.036  1.00  0.00    -0.168 F 
ENDBRANCH  31  35
ENDBRANCH  30  31
ENDBRANCH  27  30
ENDBRANCH   1  24
TORSDOF 9
ENDMDL
MODEL 2
REMARK VINA RESULT: -5.933810321      5.497      8.231
REMARK  9 active torsions:
REMARK  status: ('A' for Active; 'I' for Inactive)
REMARK    1  A    between atoms: O1_2  and  C2_3 
REMARK    2  A    between atoms: C2_3  and  C4_5 
REMARK    3  A    between atoms: C2_3  and  C24_35 
REMARK    4  A    between atoms: C4_5  and  N1_6 
REMARK    5  A    between atoms: N2_9  and  C7_10 
REMARK    6  A    between atoms: N3_12  and  C9_13 
REMARK    7  A    between atoms: C12_20  and  C13_21 
REMARK    8  A    between atoms: C13_21  and  C16_24 
REMARK    9  A    between atoms: C16_24  and  C17_25 
ROOT
HETATM    1  C7  UNL     1      18.027  22.991  22.319  1.00  0.00     0.276 C 
HETATM    2  C8  UNL     1      18.015  22.386  20.931  1.00  0.00     0.180 C 
HETATM    3  N3  UNL     1      19.156  21.466  21.077  1.00  0.00    -0.213 N 
HETATM    4  C20 UNL     1      20.214  22.268  21.594  1.00  0.00     0.180 C 
HETATM    5  C21 UNL     1      19.508  23.371  22.423  1.00  0.00     0.223 C 
HETATM    6  F1  UNL     1      19.946  23.404  23.713  1.00  0.00    -0.245 F 
ENDROOT
BRANCH   3   7
HETATM    7  C9  UNL     1      19.100  20.099  20.782  1.00  0.00     0.683 A 
HETATM    8  N4  UNL     1      17.952  19.552  20.263  1.00  0.00    -0.181 N 
HETATM    9  C10 UNL     1      17.906  18.252  19.948  1.00  0.00     0.094 A 
ATOM     10  H4  UNL     1      17.131  20.139  20.117  1.00  0.00     0.185 HD
HETATM   11  C11 UNL     1      16.655  17.621  19.394  1.00  0.00     0.089 C 
HETATM   12  N5  UNL     1      19.000  17.521  20.153  1.00  0.00    -0.334 N 
HETATM   13  C12 UNL     1      20.153  17.944  20.645  1.00  0.00     0.106 A 
ATOM     14  H5  UNL     1      18.943  16.533  19.906  1.00  0.00     0.168 HD
HETATM   15  N6  UNL     1      20.140  19.296  20.953  1.00  0.00    -0.180 N 
ATOM     16  H6  UNL     1      20.992  19.701  21.339  1.00  0.00     0.185 HD
BRANCH  13  17
HETATM   17  C13 UNL     1      21.385  17.227  20.881  1.00  0.00     0.012 C 
HETATM   18  C14 UNL     1      22.523  18.051  20.180  1.00  0.00     0.023 C 
HETATM   19  C15 UNL     1      21.320  15.983  19.932  1.00  0.00     0.023 C 
BRANCH  17  20
HETATM   20  C16 UNL     1      21.928  16.864  22.167  1.00  0.00     0.020 C 
BRANCH  20  21
HETATM   21  C17 UNL     1      23.118  17.382  22.827  1.00  0.00    -0.022 C 
HETATM   22  C18 UNL     1      23.951  16.415  23.590  1.00  0.00     0.009 C 
HETATM   23  C19 UNL     1      22.701  18.461  23.869  1.00  0.00     0.009 C 
ENDBRANCH  20  21
ENDBRANCH  17  20
ENDBRANCH  13  17
ENDBRANCH   3   7
BRANCH   1  24
HETATM   24  N2  UNL     1      17.175  24.145  22.415  1.00  0.00     0.101 N 
HETATM   25  C6  UNL     1      15.947  23.936  21.676  1.00  0.00     0.303 C 
HETATM   26  C5  UNL     1      14.759  23.757  22.554  1.00  0.00     0.302 C 
HETATM   27  N1  UNL     1      14.503  24.976  23.359  1.00  0.00     0.095 N 
HETATM   28  C23 UNL     1      15.767  25.538  23.755  1.00  0.00     0.302 C 
HETATM   29  C22 UNL     1      16.790  24.400  23.801  1.00  0.00     0.303 C 
BRANCH  27  30
HETATM   30  C4  UNL     1      13.697  24.600  24.475  1.00  0.00     0.319 C 
BRANCH  30  31
HETATM   31  C2  UNL     1      12.223  24.546  24.339  1.00  0.00     0.180 C 
HETATM   32  C3  UNL     1      11.557  25.665  23.611  1.00  0.00     0.057 C 
BRANCH  31  33
HETATM   33  O1  UNL     1      11.726  23.299  24.091  1.00  0.00    -0.374 OA
HETATM   34  C1  UNL     1      11.260  22.996  22.857  1.00  0.00     0.203 C 
ENDBRANCH  31  33
BRANCH  31  35
HETATM   35  C24 UNL     1      11.734  24.791  25.847  1.00  0.00     0.419 C 
HETATM   36  F2  UNL     1      12.845  24.916  26.646  1.00  0.00    -0.168 F 
HETATM   37  F3  UNL     1      11.023  25.949  25.827  1.00  0.00    -0.168 F 
HETATM   38  F4  UNL     1      11.022  23.676  26.172  1.00  0.00    -0.168 F 
ENDBRANCH  31  35
ENDBRANCH  30  31
ENDBRANCH  27  30
ENDBRANCH   1  24
TORSDOF 9
ENDMDL
MODEL 3
REMARK VINA RESULT: -5.634925446      0.669      2.061
REMARK  9 active torsions:
REMARK  status: ('A' for Active; 'I' for Inactive)
REMARK    1  A    between atoms: O1_2  and  C2_3 
REMARK    2  A    between atoms: C2_3  and  C4_5 
REMARK    3  A    between atoms: C2_3  and  C24_35 
REMARK    4  A    between atoms: C4_5  and  N1_6 
REMARK    5  A    between atoms: N2_9  and  C7_10 
REMARK    6  A    between atoms: N3_12  and  C9_13 
REMARK    7  A    between atoms: C12_20  and  C13_21 
REMARK    8  A    between atoms: C13_21  and  C16_24 
REMARK    9  A    between atoms: C16_24  and  C17_25 
ROOT
HETATM    1  C7  UNL     1      15.346  18.610  20.240  1.00  0.00     0.276 C 
HETATM    2  C8  UNL     1      16.533  18.897  19.344  1.00  0.00     0.180 C 
HETATM    3  N3  UNL     1      17.206  19.906  20.180  1.00  0.00    -0.213 N 
HETATM    4  C20 UNL     1      16.195  20.856  20.502  1.00  0.00     0.180 C 
HETATM    5  C21 UNL     1      14.876  20.042  20.513  1.00  0.00     0.223 C 
HETATM    6  F1  UNL     1      14.214  20.154  21.699  1.00  0.00    -0.245 F 
ENDROOT
BRANCH   3   7
HETATM    7  C9  UNL     1      18.553  19.834  20.558  1.00  0.00     0.683 A 
HETATM    8  N4  UNL     1      19.190  20.944  21.053  1.00  0.00    -0.181 N 
HETATM    9  C10 UNL     1      20.466  20.871  21.446  1.00  0.00     0.094 A 
ATOM     10  H4  UNL     1      18.688  21.830  21.120  1.00  0.00     0.185 HD
HETATM   11  C11 UNL     1      21.197  22.078  21.977  1.00  0.00     0.089 C 
HETATM   12  N5  UNL     1      21.086  19.696  21.343  1.00  0.00    -0.334 N 
HETATM   13  C12 UNL     1      20.568  18.568  20.883  1.00  0.00     0.106 A 
ATOM     14  H5  UNL     1      22.058  19.662  21.649  1.00  0.00     0.168 HD
HETATM   15  N6  UNL     1      19.246  18.707  20.490  1.00  0.00    -0.180 N 
ATOM     16  H6  UNL     1      18.773  17.882  20.122  1.00  0.00     0.185 HD
BRANCH  13  17
HETATM   17  C13 UNL     1      21.160  17.256  20.755  1.00  0.00     0.012 C 
HETATM   18  C14 UNL     1      21.702  16.870  22.177  1.00  0.00     0.023 C 
HETATM   19  C15 UNL     1      22.510  17.490  19.999  1.00  0.00     0.023 C 
BRANCH  17  20
HETATM   20  C16 UNL     1      20.501  16.067  20.273  1.00  0.00     0.020 C 
BRANCH  20  21
HETATM   21  C17 UNL     1      19.849  15.850  18.990  1.00  0.00    -0.022 C 
HETATM   22  C18 UNL     1      18.495  15.234  19.008  1.00  0.00     0.009 C 
HETATM   23  C19 UNL     1      20.715  14.886  18.127  1.00  0.00     0.009 C 
ENDBRANCH  20  21
ENDBRANCH  17  20
ENDBRANCH  13  17
ENDBRANCH   3   7
BRANCH   1  24
HETATM   24  N2  UNL     1      14.335  17.837  19.571  1.00  0.00     0.101 N 
HETATM   25  C6  UNL     1      14.938  16.899  18.647  1.00  0.00     0.303 C 
HETATM   26  C5  UNL     1      14.838  15.485  19.100  1.00  0.00     0.302 C 
HETATM   27  N1  UNL     1      13.422  15.055  19.192  1.00  0.00     0.095 N 
HETATM   28  C23 UNL     1      12.639  16.156  19.687  1.00  0.00     0.302 C 
HETATM   29  C22 UNL     1      13.561  17.046  20.524  1.00  0.00     0.303 C 
BRANCH  27  30
HETATM   30  C4  UNL     1      13.367  13.915  20.051  1.00  0.00     0.319 C 
BRANCH  30  31
HETATM   31  C2  UNL     1      12.915  12.609  19.518  1.00  0.00     0.180 C 
HETATM   32  C3  UNL     1      11.999  12.625  18.341  1.00  0.00     0.057 C 
BRANCH  31  33
HETATM   33  O1  UNL     1      13.878  11.641  19.508  1.00  0.00    -0.374 OA
HETATM   34  C1  UNL     1      14.978  11.799  18.734  1.00  0.00     0.203 C 
ENDBRANCH  31  33
BRANCH  31  35
HETATM   35  C24 UNL     1      11.948  12.085  20.686  1.00  0.00     0.419 C 
HETATM   36  F2  UNL     1      11.350  13.174  21.273  1.00  0.00    -0.168 F 
HETATM   37  F3  UNL     1      11.022  11.295  20.081  1.00  0.00    -0.168 F 
HETATM   38  F4  UNL     1      12.771  11.448  21.565  1.00  0.00    -0.168 F 
ENDBRANCH  31  35
ENDBRANCH  30  31
ENDBRANCH  27  30
ENDBRANCH   1  24
TORSDOF 9
ENDMDL
MODEL 4
REMARK VINA RESULT: -5.603240710      5.250      8.941
REMARK  9 active torsions:
REMARK  status: ('A' for Active; 'I' for Inactive)
REMARK    1  A    between atoms: O1_2  and  C2_3 
REMARK    2  A    between atoms: C2_3  and  C4_5 
REMARK    3  A    between atoms: C2_3  and  C24_35 
REMARK    4  A    between atoms: C4_5  and  N1_6 
REMARK    5  A    between atoms: N2_9  and  C7_10 
REMARK    6  A    between atoms: N3_12  and  C9_13 
REMARK    7  A    between atoms: C12_20  and  C13_21 
REMARK    8  A    between atoms: C13_21  and  C16_24 
REMARK    9  A    between atoms: C16_24  and  C17_25 
ROOT
HETATM    1  C7  UNL     1      18.119  22.886  22.111  1.00  0.00     0.276 C 
HETATM    2  C8  UNL     1      17.932  22.265  20.742  1.00  0.00     0.180 C 
HETATM    3  N3  UNL     1      19.031  21.285  20.787  1.00  0.00    -0.213 N 
HETATM    4  C20 UNL     1      20.178  22.034  21.180  1.00  0.00     0.180 C 
HETATM    5  C21 UNL     1      19.620  23.184  22.057  1.00  0.00     0.223 C 
HETATM    6  F1  UNL     1      20.190  23.208  23.294  1.00  0.00    -0.245 F 
ENDROOT
BRANCH   3   7
HETATM    7  C9  UNL     1      18.871  19.920  20.524  1.00  0.00     0.683 A 
HETATM    8  N4  UNL     1      19.929  19.059  20.681  1.00  0.00    -0.181 N 
HETATM    9  C10 UNL     1      19.772  17.749  20.462  1.00  0.00     0.094 A 
ATOM     10  H4  UNL     1      20.840  19.420  20.965  1.00  0.00     0.185 HD
HETATM   11  C11 UNL     1      20.920  16.783  20.609  1.00  0.00     0.089 C 
HETATM   12  N5  UNL     1      18.567  17.317  20.093  1.00  0.00    -0.334 N 
HETATM   13  C12 UNL     1      17.484  18.056  19.914  1.00  0.00     0.106 A 
ATOM     14  H5  UNL     1      18.469  16.315  19.932  1.00  0.00     0.168 HD
HETATM   15  N6  UNL     1      17.709  19.403  20.153  1.00  0.00    -0.180 N 
ATOM     16  H6  UNL     1      16.923  20.042  20.036  1.00  0.00     0.185 HD
BRANCH  13  17
HETATM   17  C13 UNL     1      16.144  17.669  19.535  1.00  0.00     0.012 C 
HETATM   18  C14 UNL     1      15.740  16.481  20.479  1.00  0.00     0.023 C 
HETATM   19  C15 UNL     1      16.309  16.902  18.181  1.00  0.00     0.023 C 
BRANCH  17  20
HETATM   20  C16 UNL     1      14.985  18.527  19.502  1.00  0.00     0.020 C 
BRANCH  20  21
HETATM   21  C17 UNL     1      14.029  18.800  20.565  1.00  0.00    -0.022 C 
HETATM   22  C18 UNL     1      12.585  18.742  20.215  1.00  0.00     0.009 C 
HETATM   23  C19 UNL     1      14.253  20.244  21.103  1.00  0.00     0.009 C 
ENDBRANCH  20  21
ENDBRANCH  17  20
ENDBRANCH  13  17
ENDBRANCH   3   7
BRANCH   1  24
HETATM   24  N2  UNL     1      17.344  24.086  22.273  1.00  0.00     0.101 N 
HETATM   25  C6  UNL     1      16.112  24.004  21.516  1.00  0.00     0.303 C 
HETATM   26  C5  UNL     1      14.906  23.851  22.376  1.00  0.00     0.302 C 
HETATM   27  N1  UNL     1      14.724  25.034  23.252  1.00  0.00     0.095 N 
HETATM   28  C23 UNL     1      16.019  25.485  23.688  1.00  0.00     0.302 C 
HETATM   29  C22 UNL     1      16.964  24.281  23.670  1.00  0.00     0.303 C 
BRANCH  27  30
HETATM   30  C4  UNL     1      13.885  24.646  24.340  1.00  0.00     0.319 C 
BRANCH  30  31
HETATM   31  C2  UNL     1      12.423  24.520  24.137  1.00  0.00     0.180 C 
HETATM   32  C3  UNL     1      11.744  25.580  23.337  1.00  0.00     0.057 C 
BRANCH  31  33
HETATM   33  O1  UNL     1      11.993  23.243  23.916  1.00  0.00    -0.374 OA
HETATM   34  C1  UNL     1      11.400  22.930  22.740  1.00  0.00     0.203 C 
ENDBRANCH  31  33
BRANCH  31  35
HETATM   35  C24 UNL     1      11.853  24.798  25.610  1.00  0.00     0.419 C 
HETATM   36  F2  UNL     1      11.023  23.759  25.956  1.00  0.00    -0.168 F 
HETATM   37  F3  UNL     1      12.936  24.843  26.430  1.00  0.00    -0.168 F 
HETATM   38  F4  UNL     1      11.156  25.964  25.503  1.00  0.00    -0.168 F 
ENDBRANCH  31  35
ENDBRANCH  30  31
ENDBRANCH  27  30
ENDBRANCH   1  24
TORSDOF 9
ENDMDL
MODEL 5
REMARK VINA RESULT: -5.577541560      1.523      2.299
REMARK  9 active torsions:
REMARK  status: ('A' for Active; 'I' for Inactive)
REMARK    1  A    between atoms: O1_2  and  C2_3 
REMARK    2  A    between atoms: C2_3  and  C4_5 
REMARK    3  A    between atoms: C2_3  and  C24_35 
REMARK    4  A    between atoms: C4_5  and  N1_6 
REMARK    5  A    between atoms: N2_9  and  C7_10 
REMARK    6  A    between atoms: N3_12  and  C9_13 
REMARK    7  A    between atoms: C12_20  and  C13_21 
REMARK    8  A    between atoms: C13_21  and  C16_24 
REMARK    9  A    between atoms: C16_24  and  C17_25 
ROOT
HETATM    1  C7  UNL     1      16.567  17.365  19.843  1.00  0.00     0.276 C 
HETATM    2  C8  UNL     1      17.369  18.426  19.119  1.00  0.00     0.180 C 
HETATM    3  N3  UNL     1      17.147  19.548  20.048  1.00  0.00    -0.213 N 
HETATM    4  C20 UNL     1      15.736  19.597  20.239  1.00  0.00     0.180 C 
HETATM    5  C21 UNL     1      15.261  18.133  20.064  1.00  0.00     0.223 C 
HETATM    6  F1  UNL     1      14.572  17.683  21.151  1.00  0.00    -0.245 F 
ENDROOT
BRANCH   3   7
HETATM    7  C9  UNL     1      18.177  20.317  20.605  1.00  0.00     0.683 A 
HETATM    8  N4  UNL     1      17.908  21.561  21.119  1.00  0.00    -0.181 N 
HETATM    9  C10 UNL     1      18.883  22.284  21.681  1.00  0.00     0.094 A 
ATOM     10  H4  UNL     1      16.961  21.936  21.072  1.00  0.00     0.185 HD
HETATM   11  C11 UNL     1      18.621  23.659  22.238  1.00  0.00     0.089 C 
HETATM   12  N5  UNL     1      20.106  21.758  21.724  1.00  0.00    -0.334 N 
HETATM   13  C12 UNL     1      20.473  20.574  21.261  1.00  0.00     0.106 A 
ATOM     14  H5  UNL     1      20.833  22.325  22.157  1.00  0.00     0.168 HD
HETATM   15  N6  UNL     1      19.423  19.873  20.690  1.00  0.00    -0.180 N 
ATOM     16  H6  UNL     1      19.623  18.949  20.307  1.00  0.00     0.185 HD
BRANCH  13  17
HETATM   17  C13 UNL     1      21.764  19.925  21.283  1.00  0.00     0.012 C 
HETATM   18  C14 UNL     1      22.321  20.087  22.742  1.00  0.00     0.023 C 
HETATM   19  C15 UNL     1      22.721  20.894  20.512  1.00  0.00     0.023 C 
BRANCH  17  20
HETATM   20  C16 UNL     1      22.034  18.551  20.933  1.00  0.00     0.020 C 
BRANCH  20  21
HETATM   21  C17 UNL     1      21.768  17.350  21.711  1.00  0.00    -0.022 C 
HETATM   22  C18 UNL     1      22.894  16.395  21.897  1.00  0.00     0.009 C 
HETATM   23  C19 UNL     1      20.651  16.520  21.014  1.00  0.00     0.009 C 
ENDBRANCH  20  21
ENDBRANCH  17  20
ENDBRANCH  13  17
ENDBRANCH   3   7
BRANCH   1  24
HETATM   24  N2  UNL     1      16.366  16.193  19.035  1.00  0.00     0.101 N 
HETATM   25  C6  UNL     1      16.315  15.005  19.862  1.00  0.00     0.303 C 
HETATM   26  C5  UNL     1      14.951  14.415  19.955  1.00  0.00     0.302 C 
HETATM   27  N1  UNL     1      14.476  13.961  18.627  1.00  0.00     0.095 N 
HETATM   28  C23 UNL     1      14.921  14.903  17.634  1.00  0.00     0.302 C 
HETATM   29  C22 UNL     1      15.093  16.260  18.321  1.00  0.00     0.303 C 
BRANCH  27  30
HETATM   30  C4  UNL     1      13.053  13.858  18.684  1.00  0.00     0.319 C 
BRANCH  30  31
HETATM   31  C2  UNL     1      12.400  12.539  18.518  1.00  0.00     0.180 C 
HETATM   32  C3  UNL     1      11.026  12.519  17.936  1.00  0.00     0.057 C 
BRANCH  31  33
HETATM   33  O1  UNL     1      13.236  11.545  18.099  1.00  0.00    -0.374 OA
HETATM   34  C1  UNL     1      13.276  11.212  16.787  1.00  0.00     0.203 C 
ENDBRANCH  31  33
BRANCH  31  35
HETATM   35  C24 UNL     1      12.124  12.105  20.038  1.00  0.00     0.419 C 
HETATM   36  F2  UNL     1      11.886  13.240  20.774  1.00  0.00    -0.168 F 
HETATM   37  F3  UNL     1      11.022  11.310  20.008  1.00  0.00    -0.168 F 
HETATM   38  F4  UNL     1      13.272  11.493  20.443  1.00  0.00    -0.168 F 
ENDBRANCH  31  35
ENDBRANCH  30  31
ENDBRANCH  27  30
ENDBRANCH   1  24
TORSDOF 9
ENDMDL
