MODEL 1
REMARK VINA RESULT: -5.357250094      0.000      0.000
REMARK  9 active torsions:
REMARK  status: ('A' for Active; 'I' for Inactive)
REMARK    1  A    between atoms: C2_2  and  C3_3 
REMARK    2  A    between atoms: C4_5  and  C5_6 
REMARK       I    between atoms: N2_11  and  C6_12 
REMARK    3  A    between atoms: C6_12  and  C7_14 
REMARK    4  A    between atoms: C7_14  and  O2_15 
REMARK    5  A    between atoms: O2_15  and  C8_16 
REMARK    6  A    between atoms: C8_16  and  C9_18 
REMARK    7  A    between atoms: C10_19  and  C11_20 
REMARK    8  A    between atoms: C14_24  and  O4_25 
REMARK    9  A    between atoms: C16_27  and  O5_28 
ROOT
HETATM    1  O2  UNL     1      17.051  13.696  20.151  1.00  0.00    -0.309 OA
ENDROOT
BRANCH   1   2
HETATM    2  C7  UNL     1      16.649  13.025  18.976  1.00  0.00     0.283 C 
BRANCH   2   3
HETATM    3  C6  UNL     1      15.255  12.595  18.973  1.00  0.00     0.263 C 
HETATM    4  N2  UNL     1      14.193  13.535  19.211  1.00  0.00    -0.243 N 
HETATM    5  C3  UNL     1      12.806  13.105  19.232  1.00  0.00     0.178 C 
HETATM    6  N1  UNL     1      14.384  14.879  19.405  1.00  0.00    -0.287 N 
HETATM    7  S1  UNL     1      12.150  14.464  20.295  1.00  0.00    -0.082 SA
HETATM    8  C4  UNL     1      13.494  15.577  19.937  1.00  0.00     0.129 C 
ATOM      9  H1  UNL     1      15.259  15.313  19.113  1.00  0.00     0.188 HD
HETATM   10  O1  UNL     1      15.000  11.401  18.762  1.00  0.00    -0.269 OA
BRANCH   5  11
HETATM   11  C2  UNL     1      12.562  11.783  19.890  1.00  0.00     0.034 C 
HETATM   12  C1  UNL     1      12.548  11.817  21.377  1.00  0.00     0.008 C 
ENDBRANCH   5  11
BRANCH   8  13
HETATM   13  C5  UNL     1      13.488  17.017  20.233  1.00  0.00     0.411 C 
HETATM   14  F1  UNL     1      12.264  17.518  20.612  1.00  0.00    -0.207 F 
HETATM   15  F2  UNL     1      14.361  17.334  21.275  1.00  0.00    -0.207 F 
ENDBRANCH   8  13
ENDBRANCH   2   3
ENDBRANCH   1   2
BRANCH   1  16
HETATM   16  C8  UNL     1      17.632  15.000  20.006  1.00  0.00     0.283 C 
HETATM   17  O3  UNL     1      16.991  15.875  20.593  1.00  0.00    -0.260 OA
BRANCH  16  18
HETATM   18  C9  UNL     1      18.821  15.124  19.238  1.00  0.00     0.083 C 
HETATM   19  C10 UNL     1      19.921  15.771  19.360  1.00  0.00     0.017 C 
BRANCH  19  20
HETATM   20  C11 UNL     1      20.514  16.684  20.291  1.00  0.00    -0.032 A 
HETATM   21  C12 UNL     1      21.502  16.419  21.205  1.00  0.00     0.033 A 
HETATM   22  C13 UNL     1      22.068  17.423  22.003  1.00  0.00     0.048 A 
HETATM   23 BR1  UNL     1      23.437  16.973  23.248  1.00  0.00    -0.048 Br
HETATM   24  C14 UNL     1      21.648  18.725  21.898  1.00  0.00     0.118 A 
HETATM   25  C16 UNL     1      20.659  19.029  20.994  1.00  0.00     0.103 A 
HETATM   26  C18 UNL     1      20.117  18.047  20.224  1.00  0.00     0.051 A 
BRANCH  24  27
HETATM   27  O4  UNL     1      22.224  19.693  22.696  1.00  0.00    -0.352 OA
HETATM   28  C15 UNL     1      23.295  20.461  22.173  1.00  0.00     0.210 C 
ENDBRANCH  24  27
BRANCH  25  29
HETATM   29  O5  UNL     1      20.240  20.338  20.894  1.00  0.00    -0.353 OA
HETATM   30  C17 UNL     1      18.917  20.779  20.940  1.00  0.00     0.210 C 
ENDBRANCH  25  29
ENDBRANCH  19  20
ENDBRANCH  16  18
ENDBRANCH   1  16
TORSDOF 9
ENDMDL
MODEL 2
REMARK VINA RESULT: -5.267118687      4.714      8.953
REMARK  9 active torsions:
REMARK  status: ('A' for Active; 'I' for Inactive)
REMARK    1  A    between atoms: C2_2  and  C3_3 
REMARK    2  A    between atoms: C4_5  and  C5_6 
REMARK       I    between atoms: N2_11  and  C6_12 
REMARK    3  A    between atoms: C6_12  and  C7_14 
REMARK    4  A    between atoms: C7_14  and  O2_15 
REMARK    5  A    between atoms: O2_15  and  C8_16 
REMARK    6  A    between atoms: C8_16  and  C9_18 
REMARK    7  A    between atoms: C10_19  and  C11_20 
REMARK    8  A    between atoms: C14_24  and  O4_25 
REMARK    9  A    between atoms: C16_27  and  O5_28 
ROOT
HETATM    1  O2  UNL     1      14.653  21.582  20.693  1.00  0.00    -0.309 OA
ENDROOT
BRANCH   1   2
HETATM    2  C7  UNL     1      14.674  21.913  22.065  1.00  0.00     0.283 C 
BRANCH   2   3
HETATM    3  C6  UNL     1      15.520  23.053  22.398  1.00  0.00     0.263 C 
HETATM    4  N2  UNL     1      16.929  23.037  22.105  1.00  0.00    -0.243 N 
HETATM    5  C3  UNL     1      17.778  24.161  22.457  1.00  0.00     0.178 C 
HETATM    6  N1  UNL     1      17.570  22.006  21.467  1.00  0.00    -0.287 N 
HETATM    7  S1  UNL     1      19.370  23.235  22.565  1.00  0.00    -0.082 SA
HETATM    8  C4  UNL     1      18.812  21.885  21.545  1.00  0.00     0.129 C 
ATOM      9  H1  UNL     1      17.030  21.332  20.925  1.00  0.00     0.188 HD
HETATM   10  O1  UNL     1      15.004  24.041  22.938  1.00  0.00    -0.269 OA
BRANCH   5  11
HETATM   11  C2  UNL     1      17.471  24.800  23.775  1.00  0.00     0.034 C 
HETATM   12  C1  UNL     1      18.032  24.093  24.958  1.00  0.00     0.008 C 
ENDBRANCH   5  11
BRANCH   8  13
HETATM   13  C5  UNL     1      19.691  20.872  20.945  1.00  0.00     0.411 C 
HETATM   14  F1  UNL     1      20.891  20.698  21.595  1.00  0.00    -0.207 F 
HETATM   15  F2  UNL     1      19.091  19.612  20.927  1.00  0.00    -0.207 F 
ENDBRANCH   8  13
ENDBRANCH   2   3
ENDBRANCH   1   2
BRANCH   1  16
HETATM   16  C8  UNL     1      14.944  20.224  20.331  1.00  0.00     0.283 C 
HETATM   17  O3  UNL     1      16.047  20.100  19.793  1.00  0.00    -0.260 OA
BRANCH  16  18
HETATM   18  C9  UNL     1      13.973  19.229  20.622  1.00  0.00     0.083 C 
HETATM   19  C10 UNL     1      13.953  17.948  20.621  1.00  0.00     0.017 C 
BRANCH  19  20
HETATM   20  C11 UNL     1      14.858  16.875  20.331  1.00  0.00    -0.032 A 
HETATM   21  C12 UNL     1      16.222  16.947  20.199  1.00  0.00     0.033 A 
HETATM   22  C13 UNL     1      17.014  15.807  20.004  1.00  0.00     0.048 A 
HETATM   23 BR1  UNL     1      18.901  15.991  19.831  1.00  0.00    -0.048 Br
HETATM   24  C14 UNL     1      16.445  14.560  19.936  1.00  0.00     0.118 A 
HETATM   25  C16 UNL     1      15.081  14.448  20.063  1.00  0.00     0.103 A 
HETATM   26  C18 UNL     1      14.323  15.561  20.252  1.00  0.00     0.051 A 
BRANCH  24  27
HETATM   27  O4  UNL     1      17.249  13.455  19.745  1.00  0.00    -0.352 OA
HETATM   28  C15 UNL     1      17.416  12.950  18.430  1.00  0.00     0.210 C 
ENDBRANCH  24  27
BRANCH  25  29
HETATM   29  O5  UNL     1      14.516  13.193  19.992  1.00  0.00    -0.353 OA
HETATM   30  C17 UNL     1      13.397  12.759  20.703  1.00  0.00     0.210 C 
ENDBRANCH  25  29
ENDBRANCH  19  20
ENDBRANCH  16  18
ENDBRANCH   1  16
TORSDOF 9
ENDMDL
MODEL 3
REMARK VINA RESULT: -5.249807206      2.080      2.826
REMARK  9 active torsions:
REMARK  status: ('A' for Active; 'I' for Inactive)
REMARK    1  A    between atoms: C2_2  and  C3_3 
REMARK    2  A    between atoms: C4_5  and  C5_6 
REMARK       I    between atoms: N2_11  and  C6_12 
REMARK    3  A    between atoms: C6_12  and  C7_14 
REMARK    4  A    between atoms: C7_14  and  O2_15 
REMARK    5  A    between atoms: O2_15  and  C8_16 
REMARK    6  A    between atoms: C8_16  and  C9_18 
REMARK    7  A    between atoms: C10_19  and  C11_20 
REMARK    8  A    between atoms: C14_24  and  O4_25 
REMARK    9  A    between atoms: C16_27  and  O5_28 
ROOT
HETATM    1  O2  UNL     1      16.828  13.319  19.638  1.00  0.00    -0.309 OA
ENDROOT
BRANCH   1   2
HETATM    2  C7  UNL     1      16.269  12.435  18.690  1.00  0.00     0.283 C 
BRANCH   2   3
HETATM    3  C6  UNL     1      14.832  12.226  18.834  1.00  0.00     0.263 C 
HETATM    4  N2  UNL     1      13.957  13.318  19.166  1.00  0.00    -0.243 N 
HETATM    5  C3  UNL     1      12.530  13.108  19.333  1.00  0.00     0.178 C 
HETATM    6  N1  UNL     1      14.372  14.616  19.321  1.00  0.00    -0.287 N 
HETATM    7  S1  UNL     1      12.203  14.548  20.438  1.00  0.00    -0.082 SA
HETATM    8  C4  UNL     1      13.659  15.442  19.932  1.00  0.00     0.129 C 
ATOM      9  H1  UNL     1      15.269  14.911  18.936  1.00  0.00     0.188 HD
HETATM   10  O1  UNL     1      14.376  11.086  18.666  1.00  0.00    -0.269 OA
BRANCH   5  11
HETATM   11  C2  UNL     1      12.154  11.837  20.029  1.00  0.00     0.034 C 
HETATM   12  C1  UNL     1      12.400  11.832  21.496  1.00  0.00     0.008 C 
ENDBRANCH   5  11
BRANCH   8  13
HETATM   13  C5  UNL     1      13.904  16.865  20.207  1.00  0.00     0.411 C 
HETATM   14  F1  UNL     1      12.776  17.594  20.501  1.00  0.00    -0.207 F 
HETATM   15  F2  UNL     1      14.757  17.040  21.299  1.00  0.00    -0.207 F 
ENDBRANCH   8  13
ENDBRANCH   2   3
ENDBRANCH   1   2
BRANCH   1  16
HETATM   16  C8  UNL     1      17.794  14.271  19.170  1.00  0.00     0.283 C 
HETATM   17  O3  UNL     1      18.517  13.819  18.280  1.00  0.00    -0.260 OA
BRANCH  16  18
HETATM   18  C9  UNL     1      17.804  15.563  19.761  1.00  0.00     0.083 C 
HETATM   19  C10 UNL     1      18.705  16.340  20.239  1.00  0.00     0.017 C 
BRANCH  19  20
HETATM   20  C11 UNL     1      20.124  16.320  20.434  1.00  0.00    -0.032 A 
HETATM   21  C12 UNL     1      20.817  16.700  21.556  1.00  0.00     0.033 A 
HETATM   22  C13 UNL     1      22.207  16.548  21.660  1.00  0.00     0.048 A 
HETATM   23 BR1  UNL     1      23.095  17.098  23.252  1.00  0.00    -0.048 Br
HETATM   24  C14 UNL     1      22.935  16.007  20.630  1.00  0.00     0.118 A 
HETATM   25  C16 UNL     1      22.275  15.616  19.489  1.00  0.00     0.103 A 
HETATM   26  C18 UNL     1      20.926  15.768  19.399  1.00  0.00     0.051 A 
BRANCH  24  27
HETATM   27  O4  UNL     1      24.301  15.868  20.761  1.00  0.00    -0.352 OA
HETATM   28  C15 UNL     1      24.823  14.629  21.212  1.00  0.00     0.210 C 
ENDBRANCH  24  27
BRANCH  25  29
HETATM   29  O5  UNL     1      23.011  15.076  18.457  1.00  0.00    -0.353 OA
HETATM   30  C17 UNL     1      22.962  13.751  18.023  1.00  0.00     0.210 C 
ENDBRANCH  25  29
ENDBRANCH  19  20
ENDBRANCH  16  18
ENDBRANCH   1  16
TORSDOF 9
ENDMDL
MODEL 4
REMARK VINA RESULT: -5.239164472      3.612      5.127
REMARK  9 active torsions:
REMARK  status: ('A' for Active; 'I' for Inactive)
REMARK    1  A    between atoms: C2_2  and  C3_3 
REMARK    2  A    between atoms: C4_5  and  C5_6 
REMARK       I    between atoms: N2_11  and  C6_12 
REMARK    3  A    between atoms: C6_12  and  C7_14 
REMARK    4  A    between atoms: C7_14  and  O2_15 
REMARK    5  A    between atoms: O2_15  and  C8_16 
REMARK    6  A    between atoms: C8_16  and  C9_18 
REMARK    7  A    between atoms: C10_19  and  C11_20 
REMARK    8  A    between atoms: C14_24  and  O4_25 
REMARK    9  A    between atoms: C16_27  and  O5_28 
ROOT
HETATM    1  O2  UNL     1      19.633  16.305  20.759  1.00  0.00    -0.309 OA
ENDROOT
BRANCH   1   2
HETATM    2  C7  UNL     1      19.186  15.816  19.512  1.00  0.00     0.283 C 
BRANCH   2   3
HETATM    3  C6  UNL     1      17.828  16.217  19.159  1.00  0.00     0.263 C 
HETATM    4  N2  UNL     1      17.399  17.582  19.313  1.00  0.00    -0.243 N 
HETATM    5  C3  UNL     1      16.042  17.979  18.983  1.00  0.00     0.178 C 
HETATM    6  N1  UNL     1      18.211  18.600  19.743  1.00  0.00    -0.287 N 
HETATM    7  S1  UNL     1      15.951  19.459  20.082  1.00  0.00    -0.082 SA
HETATM    8  C4  UNL     1      17.719  19.662  20.180  1.00  0.00     0.129 C 
ATOM      9  H1  UNL     1      19.224  18.490  19.706  1.00  0.00     0.188 HD
HETATM   10  O1  UNL     1      17.048  15.361  18.721  1.00  0.00    -0.269 OA
BRANCH   5  11
HETATM   11  C2  UNL     1      14.982  16.995  19.369  1.00  0.00     0.034 C 
HETATM   12  C1  UNL     1      14.601  17.018  20.806  1.00  0.00     0.008 C 
ENDBRANCH   5  11
BRANCH   8  13
HETATM   13  C5  UNL     1      18.394  20.867  20.683  1.00  0.00     0.411 C 
HETATM   14  F1  UNL     1      17.616  21.666  21.488  1.00  0.00    -0.207 F 
HETATM   15  F2  UNL     1      19.518  20.549  21.448  1.00  0.00    -0.207 F 
ENDBRANCH   8  13
ENDBRANCH   2   3
ENDBRANCH   1   2
BRANCH   1  16
HETATM   16  C8  UNL     1      20.922  16.933  20.803  1.00  0.00     0.283 C 
HETATM   17  O3  UNL     1      21.115  17.693  19.852  1.00  0.00    -0.260 OA
BRANCH  16  18
HETATM   18  C9  UNL     1      21.785  16.618  21.887  1.00  0.00     0.083 C 
HETATM   19  C10 UNL     1      22.476  17.295  22.727  1.00  0.00     0.017 C 
BRANCH  19  20
HETATM   20  C11 UNL     1      22.745  18.674  23.009  1.00  0.00    -0.032 A 
HETATM   21  C12 UNL     1      22.737  19.724  22.125  1.00  0.00     0.033 A 
HETATM   22  C13 UNL     1      22.927  21.049  22.539  1.00  0.00     0.048 A 
HETATM   23 BR1  UNL     1      22.900  22.449  21.249  1.00  0.00    -0.048 Br
HETATM   24  C14 UNL     1      23.132  21.350  23.862  1.00  0.00     0.118 A 
HETATM   25  C16 UNL     1      23.147  20.325  24.778  1.00  0.00     0.103 A 
HETATM   26  C18 UNL     1      22.962  19.042  24.364  1.00  0.00     0.051 A 
BRANCH  24  27
HETATM   27  O4  UNL     1      23.315  22.664  24.242  1.00  0.00    -0.352 OA
HETATM   28  C15 UNL     1      24.637  23.158  24.379  1.00  0.00     0.210 C 
ENDBRANCH  24  27
BRANCH  25  29
HETATM   29  O5  UNL     1      23.356  20.633  26.105  1.00  0.00    -0.353 OA
HETATM   30  C17 UNL     1      24.416  20.182  26.892  1.00  0.00     0.210 C 
ENDBRANCH  25  29
ENDBRANCH  19  20
ENDBRANCH  16  18
ENDBRANCH   1  16
TORSDOF 9
ENDMDL
MODEL 5
REMARK VINA RESULT: -5.160768178      4.753      9.401
REMARK  9 active torsions:
REMARK  status: ('A' for Active; 'I' for Inactive)
REMARK    1  A    between atoms: C2_2  and  C3_3 
REMARK    2  A    between atoms: C4_5  and  C5_6 
REMARK       I    between atoms: N2_11  and  C6_12 
REMARK    3  A    between atoms: C6_12  and  C7_14 
REMARK    4  A    between atoms: C7_14  and  O2_15 
REMARK    5  A    between atoms: O2_15  and  C8_16 
REMARK    6  A    between atoms: C8_16  and  C9_18 
REMARK    7  A    between atoms: C10_19  and  C11_20 
REMARK    8  A    between atoms: C14_24  and  O4_25 
REMARK    9  A    between atoms: C16_27  and  O5_28 
ROOT
HETATM    1  O2  UNL     1      19.288  19.903  19.691  1.00  0.00    -0.309 OA
ENDROOT
BRANCH   1   2
HETATM    2  C7  UNL     1      19.101  20.645  20.877  1.00  0.00     0.283 C 
BRANCH   2   3
HETATM    3  C6  UNL     1      20.301  21.316  21.365  1.00  0.00     0.263 C 
HETATM    4  N2  UNL     1      21.439  20.558  21.815  1.00  0.00    -0.243 N 
HETATM    5  C3  UNL     1      22.625  21.224  22.323  1.00  0.00     0.178 C 
HETATM    6  N1  UNL     1      21.513  19.189  21.782  1.00  0.00    -0.287 N 
HETATM    7  S1  UNL     1      23.246  19.839  23.374  1.00  0.00    -0.082 SA
HETATM    8  C4  UNL     1      22.350  18.582  22.483  1.00  0.00     0.129 C 
ATOM      9  H1  UNL     1      20.881  18.662  21.180  1.00  0.00     0.188 HD
HETATM   10  O1  UNL     1      20.326  22.554  21.385  1.00  0.00    -0.269 OA
BRANCH   5  11
HETATM   11  C2  UNL     1      22.363  22.428  23.172  1.00  0.00     0.034 C 
HETATM   12  C1  UNL     1      23.077  22.440  24.476  1.00  0.00     0.008 C 
ENDBRANCH   5  11
BRANCH   8  13
HETATM   13  C5  UNL     1      22.602  17.138  22.597  1.00  0.00     0.411 C 
HETATM   14  F1  UNL     1      22.901  16.708  23.869  1.00  0.00    -0.207 F 
HETATM   15  F2  UNL     1      21.494  16.387  22.199  1.00  0.00    -0.207 F 
ENDBRANCH   8  13
ENDBRANCH   2   3
ENDBRANCH   1   2
BRANCH   1  16
HETATM   16  C8  UNL     1      18.520  18.702  19.529  1.00  0.00     0.283 C 
HETATM   17  O3  UNL     1      17.455  18.894  18.937  1.00  0.00    -0.260 OA
BRANCH  16  18
HETATM   18  C9  UNL     1      19.050  17.491  20.047  1.00  0.00     0.083 C 
HETATM   19  C10 UNL     1      18.581  16.325  20.299  1.00  0.00     0.017 C 
BRANCH  19  20
HETATM   20  C11 UNL     1      17.322  15.648  20.207  1.00  0.00    -0.032 A 
HETATM   21  C12 UNL     1      16.072  16.182  20.398  1.00  0.00     0.033 A 
HETATM   22  C13 UNL     1      14.903  15.437  20.188  1.00  0.00     0.048 A 
HETATM   23 BR1  UNL     1      13.206  16.251  20.473  1.00  0.00    -0.048 Br
HETATM   24  C14 UNL     1      14.967  14.128  19.780  1.00  0.00     0.118 A 
HETATM   25  C16 UNL     1      16.202  13.558  19.579  1.00  0.00     0.103 A 
HETATM   26  C18 UNL     1      17.330  14.291  19.786  1.00  0.00     0.051 A 
BRANCH  24  27
HETATM   27  O4  UNL     1      13.801  13.419  19.581  1.00  0.00    -0.352 OA
HETATM   28  C15 UNL     1      13.297  12.619  20.638  1.00  0.00     0.210 C 
ENDBRANCH  24  27
BRANCH  25  29
HETATM   29  O5  UNL     1      16.260  12.243  19.172  1.00  0.00    -0.353 OA
HETATM   30  C17 UNL     1      16.954  11.761  18.061  1.00  0.00     0.210 C 
ENDBRANCH  25  29
ENDBRANCH  19  20
ENDBRANCH  16  18
ENDBRANCH   1  16
TORSDOF 9
ENDMDL
