MODEL 1
REMARK VINA RESULT: -6.764439406      0.000      0.000
REMARK  7 active torsions:
REMARK  status: ('A' for Active; 'I' for Inactive)
REMARK    1  A    between atoms: C2_2  and  C3_3 
REMARK    2  A    between atoms: C8_10  and  N1_11 
REMARK    3  A    between atoms: N2_14  and  C11_15 
REMARK    4  A    between atoms: C14_22  and  O1_23 
REMARK    5  A    between atoms: O1_23  and  C15_24 
REMARK    6  A    between atoms: C15_24  and  C17_26 
REMARK    7  A    between atoms: C17_26  and  O2_27 
ROOT
HETATM    1  N1  UNL     1      18.246  17.543  19.633  1.00  0.00    -0.360 N 
HETATM    2  C9  UNL     1      18.086  17.404  18.208  1.00  0.00     0.145 C 
HETATM    3  C10 UNL     1      16.818  16.629  18.067  1.00  0.00     0.146 C 
HETATM    4  N2  UNL     1      16.835  15.778  19.250  1.00  0.00    -0.347 N 
HETATM    5  C20 UNL     1      17.683  16.386  20.255  1.00  0.00     0.251 C 
ENDROOT
BRANCH   1   6
HETATM    6  C8  UNL     1      18.881  18.683  20.209  1.00  0.00     0.081 A 
HETATM    7  C3  UNL     1      20.207  18.705  20.572  1.00  0.00     0.010 A 
HETATM    8  C4  UNL     1      20.741  19.871  21.135  1.00  0.00     0.132 A 
HETATM    9  F1  UNL     1      22.058  19.839  21.478  1.00  0.00    -0.205 F 
HETATM   10  C5  UNL     1      19.940  20.964  21.314  1.00  0.00    -0.002 A 
HETATM   11  C6  UNL     1      18.617  20.960  20.958  1.00  0.00     0.063 A 
HETATM   12  C24 UNL     1      20.531  22.195  21.918  1.00  0.00     0.046 C 
HETATM   13  C7  UNL     1      18.090  19.796  20.397  1.00  0.00     0.158 A 
HETATM   14  C21 UNL     1      17.799  22.144  21.164  1.00  0.00     0.197 C 
HETATM   15  F2  UNL     1      16.797  19.795  20.050  1.00  0.00    -0.203 F 
HETATM   16  O3  UNL     1      16.629  22.162  20.699  1.00  0.00    -0.289 OA
HETATM   17  C22 UNL     1      18.345  23.303  21.909  1.00  0.00     0.245 C 
HETATM   18  F4  UNL     1      18.301  23.114  23.267  1.00  0.00    -0.241 F 
HETATM   19  C23 UNL     1      19.805  23.440  21.478  1.00  0.00     0.050 C 
BRANCH   7  20
HETATM   20  C2  UNL     1      21.024  17.507  20.359  1.00  0.00     0.040 C 
HETATM   21  C1  UNL     1      21.239  16.695  21.603  1.00  0.00     0.010 C 
ENDBRANCH   7  20
ENDBRANCH   1   6
BRANCH   4  22
HETATM   22  C11 UNL     1      16.111  14.559  19.332  1.00  0.00     0.149 A 
HETATM   23  N3  UNL     1      16.514  13.453  18.686  1.00  0.00    -0.330 N 
HETATM   24  C12 UNL     1      15.877  12.269  18.723  1.00  0.00     0.080 A 
ATOM     25  H3  UNL     1      17.365  13.516  18.127  1.00  0.00     0.168 HD
HETATM   26  C13 UNL     1      16.408  11.087  17.965  1.00  0.00     0.089 C 
HETATM   27  N4  UNL     1      14.766  12.199  19.456  1.00  0.00    -0.324 N 
HETATM   28  C14 UNL     1      14.258  13.237  20.151  1.00  0.00     0.187 A 
ATOM     29  H4  UNL     1      14.271  11.308  19.493  1.00  0.00     0.169 HD
HETATM   30  C19 UNL     1      14.943  14.432  20.084  1.00  0.00     0.210 A 
HETATM   31  F3  UNL     1      14.486  15.511  20.756  1.00  0.00    -0.197 F 
BRANCH  28  32
HETATM   32  O1  UNL     1      13.107  13.147  20.904  1.00  0.00    -0.326 OA
BRANCH  32  33
HETATM   33  C15 UNL     1      11.813  12.951  20.364  1.00  0.00     0.150 C 
HETATM   34  C16 UNL     1      11.044  11.859  21.055  1.00  0.00     0.042 C 
BRANCH  33  35
HETATM   35  C17 UNL     1      11.022  14.207  20.271  1.00  0.00     0.199 C 
BRANCH  35  36
HETATM   36  O2  UNL     1      11.375  15.075  21.284  1.00  0.00    -0.393 OA
HETATM   37  C18 UNL     1      11.251  16.393  20.921  1.00  0.00     0.201 C 
ENDBRANCH  35  36
ENDBRANCH  33  35
ENDBRANCH  32  33
ENDBRANCH  28  32
ENDBRANCH   4  22
TORSDOF 7
ENDMDL
MODEL 2
REMARK VINA RESULT: -6.469036873      0.847      1.289
REMARK  7 active torsions:
REMARK  status: ('A' for Active; 'I' for Inactive)
REMARK    1  A    between atoms: C2_2  and  C3_3 
REMARK    2  A    between atoms: C8_10  and  N1_11 
REMARK    3  A    between atoms: N2_14  and  C11_15 
REMARK    4  A    between atoms: C14_22  and  O1_23 
REMARK    5  A    between atoms: O1_23  and  C15_24 
REMARK    6  A    between atoms: C15_24  and  C17_26 
REMARK    7  A    between atoms: C17_26  and  O2_27 
ROOT
HETATM    1  N1  UNL     1      18.377  17.521  19.653  1.00  0.00    -0.360 N 
HETATM    2  C9  UNL     1      18.289  17.358  18.224  1.00  0.00     0.145 C 
HETATM    3  C10 UNL     1      17.025  16.589  18.031  1.00  0.00     0.146 C 
HETATM    4  N2  UNL     1      16.974  15.759  19.228  1.00  0.00    -0.347 N 
HETATM    5  C20 UNL     1      17.773  16.379  20.265  1.00  0.00     0.251 C 
ENDROOT
BRANCH   1   6
HETATM    6  C8  UNL     1      18.989  18.668  20.241  1.00  0.00     0.081 A 
HETATM    7  C3  UNL     1      20.306  18.701  20.634  1.00  0.00     0.010 A 
HETATM    8  C4  UNL     1      20.817  19.872  21.208  1.00  0.00     0.132 A 
HETATM    9  F1  UNL     1      22.127  19.851  21.580  1.00  0.00    -0.205 F 
HETATM   10  C5  UNL     1      20.003  20.958  21.367  1.00  0.00    -0.002 A 
HETATM   11  C6  UNL     1      18.690  20.943  20.981  1.00  0.00     0.063 A 
HETATM   12  C24 UNL     1      20.571  22.195  21.982  1.00  0.00     0.046 C 
HETATM   13  C7  UNL     1      18.184  19.774  20.410  1.00  0.00     0.158 A 
HETATM   14  C21 UNL     1      17.857  22.121  21.166  1.00  0.00     0.197 C 
HETATM   15  F2  UNL     1      16.900  19.762  20.033  1.00  0.00    -0.203 F 
HETATM   16  O3  UNL     1      16.698  22.129  20.675  1.00  0.00    -0.289 OA
HETATM   17  C22 UNL     1      18.376  23.285  21.922  1.00  0.00     0.245 C 
HETATM   18  F4  UNL     1      18.303  23.098  23.279  1.00  0.00    -0.241 F 
HETATM   19  C23 UNL     1      19.845  23.433  21.523  1.00  0.00     0.050 C 
BRANCH   7  20
HETATM   20  C2  UNL     1      21.138  17.509  20.442  1.00  0.00     0.040 C 
HETATM   21  C1  UNL     1      21.320  16.694  21.689  1.00  0.00     0.010 C 
ENDBRANCH   7  20
ENDBRANCH   1   6
BRANCH   4  22
HETATM   22  C11 UNL     1      16.239  14.546  19.293  1.00  0.00     0.149 A 
HETATM   23  N3  UNL     1      16.651  13.434  18.664  1.00  0.00    -0.330 N 
HETATM   24  C12 UNL     1      16.004  12.255  18.686  1.00  0.00     0.080 A 
ATOM     25  H3  UNL     1      17.518  13.488  18.129  1.00  0.00     0.168 HD
HETATM   26  C13 UNL     1      16.546  11.066  17.948  1.00  0.00     0.089 C 
HETATM   27  N4  UNL     1      14.871  12.197  19.387  1.00  0.00    -0.324 N 
HETATM   28  C14 UNL     1      14.352  13.242  20.063  1.00  0.00     0.187 A 
ATOM     29  H4  UNL     1      14.368  11.310  19.413  1.00  0.00     0.169 HD
HETATM   30  C19 UNL     1      15.049  14.431  20.012  1.00  0.00     0.210 A 
HETATM   31  F3  UNL     1      14.581  15.516  20.666  1.00  0.00    -0.197 F 
BRANCH  28  32
HETATM   32  O1  UNL     1      13.179  13.164  20.783  1.00  0.00    -0.326 OA
BRANCH  32  33
HETATM   33  C15 UNL     1      12.027  12.461  20.357  1.00  0.00     0.150 C 
HETATM   34  C16 UNL     1      11.031  12.233  21.461  1.00  0.00     0.042 C 
BRANCH  33  35
HETATM   35  C17 UNL     1      11.387  13.060  19.156  1.00  0.00     0.199 C 
BRANCH  35  36
HETATM   36  O2  UNL     1      11.887  12.484  18.006  1.00  0.00    -0.393 OA
HETATM   37  C18 UNL     1      11.594  11.147  17.910  1.00  0.00     0.201 C 
ENDBRANCH  35  36
ENDBRANCH  33  35
ENDBRANCH  32  33
ENDBRANCH  28  32
ENDBRANCH   4  22
TORSDOF 7
ENDMDL
MODEL 3
REMARK VINA RESULT: -6.247837414      5.438      9.452
REMARK  7 active torsions:
REMARK  status: ('A' for Active; 'I' for Inactive)
REMARK    1  A    between atoms: C2_2  and  C3_3 
REMARK    2  A    between atoms: C8_10  and  N1_11 
REMARK    3  A    between atoms: N2_14  and  C11_15 
REMARK    4  A    between atoms: C14_22  and  O1_23 
REMARK    5  A    between atoms: O1_23  and  C15_24 
REMARK    6  A    between atoms: C15_24  and  C17_26 
REMARK    7  A    between atoms: C17_26  and  O2_27 
ROOT
HETATM    1  N1  UNL     1      18.863  22.749  21.186  1.00  0.00    -0.360 N 
HETATM    2  C9  UNL     1      18.896  23.609  20.031  1.00  0.00     0.145 C 
HETATM    3  C10 UNL     1      18.680  24.973  20.597  1.00  0.00     0.146 C 
HETATM    4  N2  UNL     1      17.809  24.708  21.735  1.00  0.00    -0.347 N 
HETATM    5  C20 UNL     1      17.973  23.327  22.142  1.00  0.00     0.251 C 
ENDROOT
BRANCH   1   6
HETATM    6  C8  UNL     1      19.629  21.547  21.247  1.00  0.00     0.081 A 
HETATM    7  C3  UNL     1      20.886  21.481  21.800  1.00  0.00     0.010 A 
HETATM    8  C4  UNL     1      21.564  20.255  21.811  1.00  0.00     0.132 A 
HETATM    9  F1  UNL     1      22.806  20.246  22.369  1.00  0.00    -0.205 F 
HETATM   10  C5  UNL     1      20.968  19.149  21.274  1.00  0.00    -0.002 A 
HETATM   11  C6  UNL     1      19.716  19.196  20.720  1.00  0.00     0.063 A 
HETATM   12  C24 UNL     1      21.711  17.853  21.296  1.00  0.00     0.046 C 
HETATM   13  C7  UNL     1      19.045  20.418  20.712  1.00  0.00     0.158 A 
HETATM   14  C21 UNL     1      19.118  17.995  20.161  1.00  0.00     0.197 C 
HETATM   15  F2  UNL     1      17.822  20.462  20.170  1.00  0.00    -0.203 F 
HETATM   16  O3  UNL     1      17.915  18.033  19.788  1.00  0.00    -0.289 OA
HETATM   17  C22 UNL     1      19.918  16.754  20.037  1.00  0.00     0.245 C 
HETATM   18  F4  UNL     1      20.743  16.775  18.942  1.00  0.00    -0.241 F 
HETATM   19  C23 UNL     1      20.777  16.671  21.300  1.00  0.00     0.050 C 
BRANCH   7  20
HETATM   20  C2  UNL     1      21.482  22.697  22.363  1.00  0.00     0.040 C 
HETATM   21  C1  UNL     1      22.437  23.386  21.433  1.00  0.00     0.010 C 
ENDBRANCH   7  20
ENDBRANCH   1   6
BRANCH   4  22
HETATM   22  C11 UNL     1      16.959  25.696  22.300  1.00  0.00     0.149 A 
HETATM   23  N3  UNL     1      17.439  26.681  23.075  1.00  0.00    -0.330 N 
HETATM   24  C12 UNL     1      16.691  27.646  23.639  1.00  0.00     0.080 A 
ATOM     25  H3  UNL     1      18.444  26.700  23.248  1.00  0.00     0.168 HD
HETATM   26  C13 UNL     1      17.321  28.708  24.492  1.00  0.00     0.089 C 
HETATM   27  N4  UNL     1      15.379  27.612  23.406  1.00  0.00    -0.324 N 
HETATM   28  C14 UNL     1      14.775  26.676  22.647  1.00  0.00     0.187 A 
ATOM     29  H4  UNL     1      14.797  28.337  23.827  1.00  0.00     0.169 HD
HETATM   30  C19 UNL     1      15.580  25.706  22.088  1.00  0.00     0.210 A 
HETATM   31  F3  UNL     1      15.037  24.738  21.318  1.00  0.00    -0.197 F 
BRANCH  28  32
HETATM   32  O1  UNL     1      13.415  26.656  22.416  1.00  0.00    -0.326 OA
BRANCH  32  33
HETATM   33  C15 UNL     1      12.499  25.839  23.121  1.00  0.00     0.150 C 
HETATM   34  C16 UNL     1      12.000  24.675  22.310  1.00  0.00     0.042 C 
BRANCH  33  35
HETATM   35  C17 UNL     1      13.004  25.407  24.451  1.00  0.00     0.199 C 
BRANCH  35  36
HETATM   36  O2  UNL     1      12.145  25.816  25.450  1.00  0.00    -0.393 OA
HETATM   37  C18 UNL     1      11.476  24.771  26.037  1.00  0.00     0.201 C 
ENDBRANCH  35  36
ENDBRANCH  33  35
ENDBRANCH  32  33
ENDBRANCH  28  32
ENDBRANCH   4  22
TORSDOF 7
ENDMDL
MODEL 4
REMARK VINA RESULT: -6.174119504      2.713      4.104
REMARK  7 active torsions:
REMARK  status: ('A' for Active; 'I' for Inactive)
REMARK    1  A    between atoms: C2_2  and  C3_3 
REMARK    2  A    between atoms: C8_10  and  N1_11 
REMARK    3  A    between atoms: N2_14  and  C11_15 
REMARK    4  A    between atoms: C14_22  and  O1_23 
REMARK    5  A    between atoms: O1_23  and  C15_24 
REMARK    6  A    between atoms: C15_24  and  C17_26 
REMARK    7  A    between atoms: C17_26  and  O2_27 
ROOT
HETATM    1  N1  UNL     1      20.334  16.979  20.272  1.00  0.00    -0.360 N 
HETATM    2  C9  UNL     1      20.841  16.574  18.985  1.00  0.00     0.145 C 
HETATM    3  C10 UNL     1      19.614  16.222  18.214  1.00  0.00     0.146 C 
HETATM    4  N2  UNL     1      18.728  15.704  19.248  1.00  0.00    -0.347 N 
HETATM    5  C20 UNL     1      19.144  16.231  20.532  1.00  0.00     0.251 C 
ENDROOT
BRANCH   1   6
HETATM    6  C8  UNL     1      20.995  17.966  21.062  1.00  0.00     0.081 A 
HETATM    7  C3  UNL     1      20.735  19.312  20.961  1.00  0.00     0.010 A 
HETATM    8  C4  UNL     1      21.439  20.206  21.777  1.00  0.00     0.132 A 
HETATM    9  F1  UNL     1      21.143  21.528  21.636  1.00  0.00    -0.205 F 
HETATM   10  C5  UNL     1      22.370  19.730  22.656  1.00  0.00    -0.002 A 
HETATM   11  C6  UNL     1      22.642  18.392  22.771  1.00  0.00     0.063 A 
HETATM   12  C24 UNL     1      23.109  20.702  23.515  1.00  0.00     0.046 C 
HETATM   13  C7  UNL     1      21.937  17.505  21.957  1.00  0.00     0.158 A 
HETATM   14  C21 UNL     1      23.640  17.926  23.720  1.00  0.00     0.197 C 
HETATM   15  F2  UNL     1      22.205  16.198  22.070  1.00  0.00    -0.203 F 
HETATM   16  O3  UNL     1      23.768  16.687  23.906  1.00  0.00    -0.289 OA
HETATM   17  C22 UNL     1      24.483  18.901  24.450  1.00  0.00     0.245 C 
HETATM   18  F4  UNL     1      25.522  19.365  23.684  1.00  0.00    -0.241 F 
HETATM   19  C23 UNL     1      23.570  20.075  24.805  1.00  0.00     0.050 C 
BRANCH   7  20
HETATM   20  C2  UNL     1      19.725  19.773  20.002  1.00  0.00     0.040 C 
HETATM   21  C1  UNL     1      18.379  20.021  20.616  1.00  0.00     0.010 C 
ENDBRANCH   7  20
ENDBRANCH   1   6
BRANCH   4  22
HETATM   22  C11 UNL     1      17.649  14.824  18.969  1.00  0.00     0.149 A 
HETATM   23  N3  UNL     1      17.854  13.568  18.542  1.00  0.00    -0.330 N 
HETATM   24  C12 UNL     1      16.879  12.684  18.262  1.00  0.00     0.080 A 
ATOM     25  H3  UNL     1      18.819  13.261  18.423  1.00  0.00     0.168 HD
HETATM   26  C13 UNL     1      17.209  11.299  17.790  1.00  0.00     0.089 C 
HETATM   27  N4  UNL     1      15.621  13.097  18.422  1.00  0.00    -0.324 N 
HETATM   28  C14 UNL     1      15.284  14.332  18.843  1.00  0.00     0.187 A 
ATOM     29  H4  UNL     1      14.870  12.439  18.212  1.00  0.00     0.169 HD
HETATM   30  C19 UNL     1      16.315  15.204  19.119  1.00  0.00     0.210 A 
HETATM   31  F3  UNL     1      16.045  16.458  19.544  1.00  0.00    -0.197 F 
BRANCH  28  32
HETATM   32  O1  UNL     1      13.977  14.742  19.003  1.00  0.00    -0.326 OA
BRANCH  32  33
HETATM   33  C15 UNL     1      13.271  14.694  20.229  1.00  0.00     0.150 C 
HETATM   34  C16 UNL     1      12.334  15.856  20.417  1.00  0.00     0.042 C 
BRANCH  33  35
HETATM   35  C17 UNL     1      12.587  13.394  20.460  1.00  0.00     0.199 C 
BRANCH  35  36
HETATM   36  O2  UNL     1      13.361  12.578  21.259  1.00  0.00    -0.393 OA
HETATM   37  C18 UNL     1      12.695  11.451  21.672  1.00  0.00     0.201 C 
ENDBRANCH  35  36
ENDBRANCH  33  35
ENDBRANCH  32  33
ENDBRANCH  28  32
ENDBRANCH   4  22
TORSDOF 7
ENDMDL
MODEL 5
REMARK VINA RESULT: -6.087474934      2.405      3.581
REMARK  7 active torsions:
REMARK  status: ('A' for Active; 'I' for Inactive)
REMARK    1  A    between atoms: C2_2  and  C3_3 
REMARK    2  A    between atoms: C8_10  and  N1_11 
REMARK    3  A    between atoms: N2_14  and  C11_15 
REMARK    4  A    between atoms: C14_22  and  O1_23 
REMARK    5  A    between atoms: O1_23  and  C15_24 
REMARK    6  A    between atoms: C15_24  and  C17_26 
REMARK    7  A    between atoms: C17_26  and  O2_27 
ROOT
HETATM    1  N1  UNL     1      19.861  16.714  20.140  1.00  0.00    -0.360 N 
HETATM    2  C9  UNL     1      20.214  16.273  18.815  1.00  0.00     0.145 C 
HETATM    3  C10 UNL     1      18.922  15.798  18.241  1.00  0.00     0.146 C 
HETATM    4  N2  UNL     1      18.227  15.281  19.413  1.00  0.00    -0.347 N 
HETATM    5  C20 UNL     1      18.776  15.905  20.600  1.00  0.00     0.251 C 
ENDROOT
BRANCH   1   6
HETATM    6  C8  UNL     1      20.550  17.784  20.784  1.00  0.00     0.081 A 
HETATM    7  C3  UNL     1      20.251  19.109  20.573  1.00  0.00     0.010 A 
HETATM    8  C4  UNL     1      20.988  20.091  21.248  1.00  0.00     0.132 A 
HETATM    9  F1  UNL     1      20.651  21.388  21.002  1.00  0.00    -0.205 F 
HETATM   10  C5  UNL     1      21.988  19.719  22.101  1.00  0.00    -0.002 A 
HETATM   11  C6  UNL     1      22.299  18.404  22.323  1.00  0.00     0.063 A 
HETATM   12  C24 UNL     1      22.761  20.783  22.808  1.00  0.00     0.046 C 
HETATM   13  C7  UNL     1      21.563  17.429  21.650  1.00  0.00     0.158 A 
HETATM   14  C21 UNL     1      23.371  18.050  23.240  1.00  0.00     0.197 C 
HETATM   15  F2  UNL     1      21.869  16.144  21.868  1.00  0.00    -0.203 F 
HETATM   16  O3  UNL     1      23.542  16.837  23.535  1.00  0.00    -0.289 OA
HETATM   17  C22 UNL     1      24.239  19.106  23.812  1.00  0.00     0.245 C 
HETATM   18  F4  UNL     1      25.211  19.511  22.934  1.00  0.00    -0.241 F 
HETATM   19  C23 UNL     1      23.324  20.293  24.116  1.00  0.00     0.050 C 
BRANCH   7  20
HETATM   20  C2  UNL     1      19.168  19.457  19.647  1.00  0.00     0.040 C 
HETATM   21  C1  UNL     1      17.854  19.713  20.327  1.00  0.00     0.010 C 
ENDBRANCH   7  20
ENDBRANCH   1   6
BRANCH   4  22
HETATM   22  C11 UNL     1      17.187  14.317  19.329  1.00  0.00     0.149 A 
HETATM   23  N3  UNL     1      17.342  13.168  18.653  1.00  0.00    -0.330 N 
HETATM   24  C12 UNL     1      16.400  12.214  18.536  1.00  0.00     0.080 A 
ATOM     25  H3  UNL     1      18.239  13.005  18.195  1.00  0.00     0.168 HD
HETATM   26  C13 UNL     1      16.668  10.960  17.757  1.00  0.00     0.089 C 
HETATM   27  N4  UNL     1      15.231  12.438  19.137  1.00  0.00    -0.324 N 
HETATM   28  C14 UNL     1      14.952  13.551  19.845  1.00  0.00     0.187 A 
ATOM     29  H4  UNL     1      14.506  11.725  19.057  1.00  0.00     0.169 HD
HETATM   30  C19 UNL     1      15.946  14.501  19.939  1.00  0.00     0.210 A 
HETATM   31  F3  UNL     1      15.729  15.639  20.633  1.00  0.00    -0.197 F 
BRANCH  28  32
HETATM   32  O1  UNL     1      13.737  13.765  20.462  1.00  0.00    -0.326 OA
BRANCH  32  33
HETATM   33  C15 UNL     1      12.610  12.921  20.317  1.00  0.00     0.150 C 
HETATM   34  C16 UNL     1      12.588  11.790  21.308  1.00  0.00     0.042 C 
BRANCH  33  35
HETATM   35  C17 UNL     1      11.321  13.663  20.302  1.00  0.00     0.199 C 
BRANCH  35  36
HETATM   36  O2  UNL     1      11.207  14.453  21.428  1.00  0.00    -0.393 OA
HETATM   37  C18 UNL     1      11.022  15.780  21.130  1.00  0.00     0.201 C 
ENDBRANCH  35  36
ENDBRANCH  33  35
ENDBRANCH  32  33
ENDBRANCH  28  32
ENDBRANCH   4  22
TORSDOF 7
ENDMDL
