MODEL 1
REMARK VINA RESULT: -6.397207588      0.000      0.000
REMARK  12 active torsions:
REMARK  status: ('A' for Active; 'I' for Inactive)
REMARK    1  A    between atoms: S1_2  and  C2_3 
REMARK    2  A    between atoms: N3_9  and  S2_11 
REMARK    3  A    between atoms: S2_11  and  N4_14 
REMARK    4  A    between atoms: N4_14  and  C4_16 
REMARK    5  A    between atoms: C4_16  and  C5_17 
REMARK    6  A    between atoms: C7_21  and  O4_22 
REMARK    7  A    between atoms: O4_22  and  C8_23 
REMARK    8  A    between atoms: C8_23  and  C9_24 
REMARK    9  A    between atoms: C9_24  and  C10_25 
REMARK   10  A    between atoms: C10_25  and  C11_26 
REMARK   11  A    between atoms: C12_27  and  O5_28 
REMARK   12  A    between atoms: C15_38  and  N8_39 
ROOT
HETATM    1  C4  UNL     1      38.658  89.054  -5.181  1.00  0.00     0.226 C 
HETATM    2  C6  UNL     1      37.766  90.121  -4.618  1.00  0.00     0.106 C 
HETATM    3  C7  UNL     1      37.751  91.420  -5.341  1.00  0.00     0.159 C 
HETATM    4  C15 UNL     1      38.225  91.397  -6.753  1.00  0.00     0.236 C 
HETATM    5  C16 UNL     1      39.158  90.281  -7.101  1.00  0.00     0.207 C 
HETATM    6  O8  UNL     1      38.849  89.084  -6.532  1.00  0.00    -0.350 OA
ENDROOT
BRANCH   1   7
HETATM    7  N4  UNL     1      37.953  87.786  -4.904  1.00  0.00    -0.261 N 
ATOM      8  H4  UNL     1      37.554  87.555  -3.995  1.00  0.00     0.177 HD
BRANCH   7   9
HETATM    9  S2  UNL     1      37.873  86.751  -6.247  1.00  0.00     0.323 S 
HETATM   10  O1  UNL     1      37.211  87.324  -7.440  1.00  0.00    -0.182 OA
HETATM   11  O2  UNL     1      37.316  85.418  -5.829  1.00  0.00    -0.182 OA
BRANCH   9  12
HETATM   12  N3  UNL     1      39.531  86.402  -6.712  1.00  0.00    -0.246 N 
HETATM   13  C3  UNL     1      39.633  85.636  -7.775  1.00  0.00     0.176 A 
HETATM   14  N2  UNL     1      40.756  85.206  -8.359  1.00  0.00    -0.278 N 
HETATM   15  S3  UNL     1      38.435  84.930  -8.772  1.00  0.00    -0.026 SA
HETATM   16  N1  UNL     1      40.671  84.467  -9.385  1.00  0.00    -0.286 N 
ATOM     17  H2  UNL     1      41.667  85.468  -7.984  1.00  0.00     0.189 HD
HETATM   18  C2  UNL     1      39.483  84.130  -9.870  1.00  0.00     0.129 A 
ATOM     19  H1  UNL     1      41.519  84.131  -9.840  1.00  0.00     0.188 HD
ATOM     20  H3  UNL     1      40.339  86.761  -6.203  1.00  0.00     0.182 HD
BRANCH  18  21
HETATM   21  S1  UNL     1      39.091  83.106 -11.299  1.00  0.00    -0.108 SA
HETATM   22  C1  UNL     1      40.565  82.052 -11.579  1.00  0.00     0.097 C 
ENDBRANCH  18  21
ENDBRANCH   9  12
ENDBRANCH   7   9
ENDBRANCH   1   7
BRANCH   1  23
HETATM   23  C5  UNL     1      39.920  89.063  -4.402  1.00  0.00     0.287 C 
HETATM   24  N5  UNL     1      41.036  88.284  -4.800  1.00  0.00    -0.058 NA
HETATM   25  O3  UNL     1      40.090  89.752  -3.343  1.00  0.00    -0.271 OA
ENDBRANCH   1  23
BRANCH   3  26
HETATM   26  O4  UNL     1      36.477  92.010  -5.308  1.00  0.00    -0.384 OA
BRANCH  26  27
HETATM   27  C8  UNL     1      36.534  93.121  -4.486  1.00  0.00     0.168 C 
BRANCH  27  28
HETATM   28  C9  UNL     1      35.503  92.972  -3.380  1.00  0.00     0.031 C 
BRANCH  28  29
HETATM   29  C10 UNL     1      36.134  93.268  -2.032  1.00  0.00     0.051 C 
BRANCH  29  30
HETATM   30  C11 UNL     1      36.042  92.104  -1.138  1.00  0.00     0.061 A 
HETATM   31  C12 UNL     1      37.153  91.309  -0.963  1.00  0.00     0.155 A 
HETATM   32  N6  UNL     1      37.091  90.238  -0.150  1.00  0.00    -0.288 N 
HETATM   33  C13 UNL     1      35.967  89.916   0.503  1.00  0.00     0.329 A 
ATOM     34  H6  UNL     1      37.920  89.657  -0.029  1.00  0.00     0.172 HD
HETATM   35  O6  UNL     1      35.942  88.902   1.260  1.00  0.00    -0.247 OA
HETATM   36  N7  UNL     1      34.878  90.688   0.336  1.00  0.00    -0.275 N 
HETATM   37  C14 UNL     1      34.890  91.761  -0.460  1.00  0.00     0.259 A 
ATOM     38  H7  UNL     1      34.019  90.448   0.831  1.00  0.00     0.173 HD
HETATM   39  O7  UNL     1      33.880  92.493  -0.626  1.00  0.00    -0.267 OA
BRANCH  31  40
HETATM   40  O5  UNL     1      38.340  91.609  -1.622  1.00  0.00    -0.345 OA
ATOM     41  H5  UNL     1      38.347  91.724  -2.566  1.00  0.00     0.219 HD
ENDBRANCH  31  40
ENDBRANCH  29  30
ENDBRANCH  28  29
ENDBRANCH  27  28
ENDBRANCH  26  27
ENDBRANCH   3  26
BRANCH   4  42
HETATM   42  N8  UNL     1      38.810  92.701  -7.067  1.00  0.00    -0.070 N 
ATOM     43  H83 UNL     1      39.700  92.855  -6.592  1.00  0.00     0.274 HD
ATOM     44  H82 UNL     1      39.153  92.757  -8.026  1.00  0.00     0.274 HD
ATOM     45  H81 UNL     1      38.123  93.423  -6.854  1.00  0.00     0.274 HD
ENDBRANCH   4  42
TORSDOF 12
ENDMDL
MODEL 2
REMARK VINA RESULT: -6.244482982      4.246      9.797
REMARK  12 active torsions:
REMARK  status: ('A' for Active; 'I' for Inactive)
REMARK    1  A    between atoms: S1_2  and  C2_3 
REMARK    2  A    between atoms: N3_9  and  S2_11 
REMARK    3  A    between atoms: S2_11  and  N4_14 
REMARK    4  A    between atoms: N4_14  and  C4_16 
REMARK    5  A    between atoms: C4_16  and  C5_17 
REMARK    6  A    between atoms: C7_21  and  O4_22 
REMARK    7  A    between atoms: O4_22  and  C8_23 
REMARK    8  A    between atoms: C8_23  and  C9_24 
REMARK    9  A    between atoms: C9_24  and  C10_25 
REMARK   10  A    between atoms: C10_25  and  C11_26 
REMARK   11  A    between atoms: C12_27  and  O5_28 
REMARK   12  A    between atoms: C15_38  and  N8_39 
ROOT
HETATM    1  C4  UNL     1      36.771  91.657  -2.749  1.00  0.00     0.226 C 
HETATM    2  C6  UNL     1      36.955  91.558  -4.236  1.00  0.00     0.106 C 
HETATM    3  C7  UNL     1      36.426  90.330  -4.886  1.00  0.00     0.159 C 
HETATM    4  C15 UNL     1      35.394  89.571  -4.126  1.00  0.00     0.236 C 
HETATM    5  C16 UNL     1      35.414  89.763  -2.643  1.00  0.00     0.207 C 
HETATM    6  O8  UNL     1      35.668  91.038  -2.239  1.00  0.00    -0.350 OA
ENDROOT
BRANCH   1   7
HETATM    7  N4  UNL     1      36.578  93.098  -2.487  1.00  0.00    -0.261 N 
ATOM      8  H4  UNL     1      37.339  93.778  -2.507  1.00  0.00     0.177 HD
BRANCH   7   9
HETATM    9  S2  UNL     1      34.967  93.514  -2.152  1.00  0.00     0.323 S 
HETATM   10  O1  UNL     1      33.960  92.874  -3.028  1.00  0.00    -0.182 OA
HETATM   11  O2  UNL     1      34.834  95.009  -2.070  1.00  0.00    -0.182 OA
BRANCH   9  12
HETATM   12  N3  UNL     1      34.636  92.959  -0.518  1.00  0.00    -0.246 N 
HETATM   13  C3  UNL     1      33.552  93.484   0.011  1.00  0.00     0.176 A 
HETATM   14  N2  UNL     1      33.052  93.254   1.228  1.00  0.00    -0.278 N 
HETATM   15  S3  UNL     1      32.423  94.603  -0.620  1.00  0.00    -0.026 SA
HETATM   16  N1  UNL     1      31.990  93.850   1.578  1.00  0.00    -0.286 N 
ATOM     17  H2  UNL     1      33.517  92.608   1.865  1.00  0.00     0.189 HD
HETATM   18  C2  UNL     1      31.387  94.688   0.745  1.00  0.00     0.129 A 
ATOM     19  H1  UNL     1      31.598  93.685   2.505  1.00  0.00     0.188 HD
ATOM     20  H3  UNL     1      35.230  92.292  -0.025  1.00  0.00     0.182 HD
BRANCH  18  21
HETATM   21  S1  UNL     1      29.884  95.649   0.994  1.00  0.00    -0.108 SA
HETATM   22  C1  UNL     1      29.252  96.035  -0.683  1.00  0.00     0.097 C 
ENDBRANCH  18  21
ENDBRANCH   9  12
ENDBRANCH   7   9
ENDBRANCH   1   7
BRANCH   1  23
HETATM   23  C5  UNL     1      38.040  91.236  -2.108  1.00  0.00     0.287 C 
HETATM   24  N5  UNL     1      38.237  91.368  -0.711  1.00  0.00    -0.058 NA
HETATM   25  O3  UNL     1      39.023  90.738  -2.749  1.00  0.00    -0.271 OA
ENDBRANCH   1  23
BRANCH   3  26
HETATM   26  O4  UNL     1      35.923  90.606  -6.168  1.00  0.00    -0.384 OA
BRANCH  26  27
HETATM   27  C8  UNL     1      36.990  90.691  -7.044  1.00  0.00     0.168 C 
BRANCH  27  28
HETATM   28  C9  UNL     1      37.570  89.301  -7.252  1.00  0.00     0.031 C 
BRANCH  28  29
HETATM   29  C10 UNL     1      39.072  89.385  -7.456  1.00  0.00     0.051 C 
BRANCH  29  30
HETATM   30  C11 UNL     1      39.737  88.158  -6.995  1.00  0.00     0.061 A 
HETATM   31  C12 UNL     1      40.278  88.129  -5.728  1.00  0.00     0.155 A 
HETATM   32  N6  UNL     1      40.892  87.016  -5.286  1.00  0.00    -0.288 N 
HETATM   33  C13 UNL     1      40.996  85.920  -6.049  1.00  0.00     0.329 A 
ATOM     34  H6  UNL     1      41.289  87.008  -4.347  1.00  0.00     0.172 HD
HETATM   35  O6  UNL     1      41.581  84.890  -5.603  1.00  0.00    -0.247 OA
HETATM   36  N7  UNL     1      40.470  85.942  -7.287  1.00  0.00    -0.275 N 
HETATM   37  C14 UNL     1      39.851  87.023  -7.771  1.00  0.00     0.259 A 
ATOM     38  H7  UNL     1      40.546  85.111  -7.873  1.00  0.00     0.173 HD
HETATM   39  O7  UNL     1      39.355  87.059  -8.926  1.00  0.00    -0.267 OA
BRANCH  31  40
HETATM   40  O5  UNL     1      40.191  89.245  -4.904  1.00  0.00    -0.345 OA
ATOM     41  H5  UNL     1      40.829  89.945  -4.977  1.00  0.00     0.219 HD
ENDBRANCH  31  40
ENDBRANCH  29  30
ENDBRANCH  28  29
ENDBRANCH  27  28
ENDBRANCH  26  27
ENDBRANCH   3  26
BRANCH   4  42
HETATM   42  N8  UNL     1      35.503  88.156  -4.484  1.00  0.00    -0.070 N 
ATOM     43  H83 UNL     1      36.267  87.974  -5.134  1.00  0.00     0.274 HD
ATOM     44  H82 UNL     1      35.837  87.581  -3.711  1.00  0.00     0.274 HD
ATOM     45  H81 UNL     1      34.601  87.844  -4.843  1.00  0.00     0.274 HD
ENDBRANCH   4  42
TORSDOF 12
ENDMDL
MODEL 3
REMARK VINA RESULT: -6.237809542      3.586      9.006
REMARK  12 active torsions:
REMARK  status: ('A' for Active; 'I' for Inactive)
REMARK    1  A    between atoms: S1_2  and  C2_3 
REMARK    2  A    between atoms: N3_9  and  S2_11 
REMARK    3  A    between atoms: S2_11  and  N4_14 
REMARK    4  A    between atoms: N4_14  and  C4_16 
REMARK    5  A    between atoms: C4_16  and  C5_17 
REMARK    6  A    between atoms: C7_21  and  O4_22 
REMARK    7  A    between atoms: O4_22  and  C8_23 
REMARK    8  A    between atoms: C8_23  and  C9_24 
REMARK    9  A    between atoms: C9_24  and  C10_25 
REMARK   10  A    between atoms: C10_25  and  C11_26 
REMARK   11  A    between atoms: C12_27  and  O5_28 
REMARK   12  A    between atoms: C15_38  and  N8_39 
ROOT
HETATM    1  C4  UNL     1      36.647  90.051  -3.713  1.00  0.00     0.226 C 
HETATM    2  C6  UNL     1      37.897  89.366  -4.182  1.00  0.00     0.106 C 
HETATM    3  C7  UNL     1      38.438  89.805  -5.496  1.00  0.00     0.159 C 
HETATM    4  C15 UNL     1      37.993  91.140  -5.982  1.00  0.00     0.236 C 
HETATM    5  C16 UNL     1      36.685  91.621  -5.437  1.00  0.00     0.207 C 
HETATM    6  O8  UNL     1      36.482  91.342  -4.120  1.00  0.00    -0.350 OA
ENDROOT
BRANCH   1   7
HETATM    7  N4  UNL     1      36.776  90.108  -2.243  1.00  0.00    -0.261 N 
ATOM      8  H4  UNL     1      36.333  89.436  -1.616  1.00  0.00     0.177 HD
BRANCH   7   9
HETATM    9  S2  UNL     1      37.732  91.401  -1.698  1.00  0.00     0.323 S 
HETATM   10  O1  UNL     1      38.917  91.697  -2.534  1.00  0.00    -0.182 OA
HETATM   11  O2  UNL     1      38.051  91.218  -0.241  1.00  0.00    -0.182 OA
BRANCH   9  12
HETATM   12  N3  UNL     1      36.713  92.832  -1.745  1.00  0.00    -0.246 N 
HETATM   13  C3  UNL     1      35.523  92.652  -1.216  1.00  0.00     0.176 A 
HETATM   14  N2  UNL     1      34.540  93.550  -1.109  1.00  0.00    -0.278 N 
HETATM   15  S3  UNL     1      34.808  91.273  -0.497  1.00  0.00    -0.026 SA
HETATM   16  N1  UNL     1      33.448  93.204  -0.567  1.00  0.00    -0.286 N 
ATOM     17  H2  UNL     1      34.667  94.500  -1.458  1.00  0.00     0.189 HD
HETATM   18  C2  UNL     1      33.288  91.968  -0.113  1.00  0.00     0.129 A 
ATOM     19  H1  UNL     1      32.689  93.880  -0.480  1.00  0.00     0.188 HD
ATOM     20  H3  UNL     1      37.017  93.719  -2.145  1.00  0.00     0.182 HD
BRANCH  18  21
HETATM   21  S1  UNL     1      31.853  91.232   0.689  1.00  0.00    -0.108 SA
HETATM   22  C1  UNL     1      32.135  89.421   0.656  1.00  0.00     0.097 C 
ENDBRANCH  18  21
ENDBRANCH   9  12
ENDBRANCH   7   9
ENDBRANCH   1   7
BRANCH   1  23
HETATM   23  C5  UNL     1      35.500  89.171  -4.044  1.00  0.00     0.287 C 
HETATM   24  N5  UNL     1      35.697  87.843  -4.498  1.00  0.00    -0.058 NA
HETATM   25  O3  UNL     1      34.281  89.535  -3.947  1.00  0.00    -0.271 OA
ENDBRANCH   1  23
BRANCH   3  26
HETATM   26  O4  UNL     1      39.842  89.771  -5.509  1.00  0.00    -0.384 OA
BRANCH  26  27
HETATM   27  C8  UNL     1      40.272  89.132  -4.360  1.00  0.00     0.168 C 
BRANCH  27  28
HETATM   28  C9  UNL     1      41.375  88.151  -4.722  1.00  0.00     0.031 C 
BRANCH  28  29
HETATM   29  C10 UNL     1      40.842  86.730  -4.698  1.00  0.00     0.051 C 
BRANCH  29  30
HETATM   30  C11 UNL     1      40.625  86.223  -6.061  1.00  0.00     0.061 A 
HETATM   31  C12 UNL     1      39.334  86.051  -6.510  1.00  0.00     0.155 A 
HETATM   32  N6  UNL     1      39.113  85.587  -7.754  1.00  0.00    -0.288 N 
HETATM   33  C13 UNL     1      40.122  85.284  -8.581  1.00  0.00     0.329 A 
ATOM     34  H6  UNL     1      38.152  85.464  -8.074  1.00  0.00     0.172 HD
HETATM   35  O6  UNL     1      39.879  84.849  -9.744  1.00  0.00    -0.247 OA
HETATM   36  N7  UNL     1      41.384  85.450  -8.148  1.00  0.00    -0.275 N 
HETATM   37  C14 UNL     1      41.655  85.907  -6.922  1.00  0.00     0.259 A 
ATOM     38  H7  UNL     1      42.157  85.220  -8.773  1.00  0.00     0.173 HD
HETATM   39  O7  UNL     1      42.830  86.067  -6.503  1.00  0.00    -0.267 OA
BRANCH  31  40
HETATM   40  O5  UNL     1      38.258  86.355  -5.683  1.00  0.00    -0.345 OA
ATOM     41  H5  UNL     1      37.577  86.947  -5.981  1.00  0.00     0.219 HD
ENDBRANCH  31  40
ENDBRANCH  29  30
ENDBRANCH  28  29
ENDBRANCH  27  28
ENDBRANCH  26  27
ENDBRANCH   3  26
BRANCH   4  42
HETATM   42  N8  UNL     1      37.987  91.122  -7.446  1.00  0.00    -0.070 N 
ATOM     43  H83 UNL     1      37.772  92.034  -7.847  1.00  0.00     0.274 HD
ATOM     44  H82 UNL     1      38.922  91.014  -7.840  1.00  0.00     0.274 HD
ATOM     45  H81 UNL     1      37.344  90.395  -7.757  1.00  0.00     0.274 HD
ENDBRANCH   4  42
TORSDOF 12
ENDMDL
MODEL 4
REMARK VINA RESULT: -6.227396839      3.263      7.557
REMARK  12 active torsions:
REMARK  status: ('A' for Active; 'I' for Inactive)
REMARK    1  A    between atoms: S1_2  and  C2_3 
REMARK    2  A    between atoms: N3_9  and  S2_11 
REMARK    3  A    between atoms: S2_11  and  N4_14 
REMARK    4  A    between atoms: N4_14  and  C4_16 
REMARK    5  A    between atoms: C4_16  and  C5_17 
REMARK    6  A    between atoms: C7_21  and  O4_22 
REMARK    7  A    between atoms: O4_22  and  C8_23 
REMARK    8  A    between atoms: C8_23  and  C9_24 
REMARK    9  A    between atoms: C9_24  and  C10_25 
REMARK   10  A    between atoms: C10_25  and  C11_26 
REMARK   11  A    between atoms: C12_27  and  O5_28 
REMARK   12  A    between atoms: C15_38  and  N8_39 
ROOT
HETATM    1  C4  UNL     1      34.930  93.151  -1.889  1.00  0.00     0.226 C 
HETATM    2  C6  UNL     1      36.423  93.024  -1.963  1.00  0.00     0.106 C 
HETATM    3  C7  UNL     1      37.044  91.998  -1.083  1.00  0.00     0.159 C 
HETATM    4  C15 UNL     1      36.144  90.920  -0.588  1.00  0.00     0.236 C 
HETATM    5  C16 UNL     1      34.690  91.267  -0.534  1.00  0.00     0.207 C 
HETATM    6  O8  UNL     1      34.245  92.011  -1.584  1.00  0.00    -0.350 OA
ENDROOT
BRANCH   1   7
HETATM    7  N4  UNL     1      34.512  93.515  -3.258  1.00  0.00    -0.261 N 
ATOM      8  H4  UNL     1      34.971  94.241  -3.809  1.00  0.00     0.177 HD
BRANCH   7   9
HETATM    9  S2  UNL     1      33.194  92.608  -3.826  1.00  0.00     0.323 S 
HETATM   10  O1  UNL     1      32.603  93.090  -5.094  1.00  0.00    -0.182 OA
HETATM   11  O2  UNL     1      32.190  92.425  -2.722  1.00  0.00    -0.182 OA
BRANCH   9  12
HETATM   12  N3  UNL     1      33.798  90.988  -4.137  1.00  0.00    -0.246 N 
HETATM   13  C3  UNL     1      34.698  90.933  -5.094  1.00  0.00     0.176 A 
HETATM   14  N2  UNL     1      35.331  89.848  -5.549  1.00  0.00    -0.278 N 
HETATM   15  S3  UNL     1      35.372  92.161  -6.076  1.00  0.00    -0.026 SA
HETATM   16  N1  UNL     1      36.175  89.977  -6.485  1.00  0.00    -0.286 N 
ATOM     17  H2  UNL     1      35.138  88.930  -5.149  1.00  0.00     0.189 HD
HETATM   18  C2  UNL     1      36.425  91.173  -7.002  1.00  0.00     0.129 A 
ATOM     19  H1  UNL     1      36.665  89.157  -6.843  1.00  0.00     0.188 HD
ATOM     20  H3  UNL     1      33.480  90.166  -3.623  1.00  0.00     0.182 HD
BRANCH  18  21
HETATM   21  S1  UNL     1      37.564  91.623  -8.322  1.00  0.00    -0.108 SA
HETATM   22  C1  UNL     1      38.968  92.473  -7.504  1.00  0.00     0.097 C 
ENDBRANCH  18  21
ENDBRANCH   9  12
ENDBRANCH   7   9
ENDBRANCH   1   7
BRANCH   1  23
HETATM   23  C5  UNL     1      34.618  94.290  -0.991  1.00  0.00     0.287 C 
HETATM   24  N5  UNL     1      33.427  94.317  -0.224  1.00  0.00    -0.058 NA
HETATM   25  O3  UNL     1      35.378  95.304  -0.848  1.00  0.00    -0.271 OA
ENDBRANCH   1  23
BRANCH   3  26
HETATM   26  O4  UNL     1      38.158  91.402  -1.698  1.00  0.00    -0.384 OA
BRANCH  26  27
HETATM   27  C8  UNL     1      37.802  91.042  -2.985  1.00  0.00     0.168 C 
BRANCH  27  28
HETATM   28  C9  UNL     1      38.398  89.680  -3.299  1.00  0.00     0.031 C 
BRANCH  28  29
HETATM   29  C10 UNL     1      38.946  89.661  -4.715  1.00  0.00     0.051 C 
BRANCH  29  30
HETATM   30  C11 UNL     1      39.559  88.361  -5.027  1.00  0.00     0.061 A 
HETATM   31  C12 UNL     1      40.888  88.162  -4.725  1.00  0.00     0.155 A 
HETATM   32  N6  UNL     1      41.469  86.980  -5.004  1.00  0.00    -0.288 N 
HETATM   33  C13 UNL     1      40.787  85.978  -5.574  1.00  0.00     0.329 A 
ATOM     34  H6  UNL     1      42.454  86.845  -4.775  1.00  0.00     0.172 HD
HETATM   35  O6  UNL     1      41.363  84.880  -5.823  1.00  0.00    -0.247 OA
HETATM   36  N7  UNL     1      39.489  86.167  -5.871  1.00  0.00    -0.275 N 
HETATM   37  C14 UNL     1      38.867  87.322  -5.615  1.00  0.00     0.259 A 
ATOM     38  H7  UNL     1      38.964  85.408  -6.306  1.00  0.00     0.173 HD
HETATM   39  O7  UNL     1      37.654  87.514  -5.888  1.00  0.00    -0.267 OA
BRANCH  31  40
HETATM   40  O5  UNL     1      41.631  89.176  -4.132  1.00  0.00    -0.345 OA
ATOM     41  H5  UNL     1      42.356  89.575  -4.600  1.00  0.00     0.219 HD
ENDBRANCH  31  40
ENDBRANCH  29  30
ENDBRANCH  28  29
ENDBRANCH  27  28
ENDBRANCH  26  27
ENDBRANCH   3  26
BRANCH   4  42
HETATM   42  N8  UNL     1      36.634  90.470   0.716  1.00  0.00    -0.070 N 
ATOM     43  H83 UNL     1      36.928  89.494   0.709  1.00  0.00     0.274 HD
ATOM     44  H82 UNL     1      37.533  90.885   0.961  1.00  0.00     0.274 HD
ATOM     45  H81 UNL     1      35.914  90.657   1.413  1.00  0.00     0.274 HD
ENDBRANCH   4  42
TORSDOF 12
ENDMDL
MODEL 5
REMARK VINA RESULT: -6.223297073      3.231      4.403
REMARK  12 active torsions:
REMARK  status: ('A' for Active; 'I' for Inactive)
REMARK    1  A    between atoms: S1_2  and  C2_3 
REMARK    2  A    between atoms: N3_9  and  S2_11 
REMARK    3  A    between atoms: S2_11  and  N4_14 
REMARK    4  A    between atoms: N4_14  and  C4_16 
REMARK    5  A    between atoms: C4_16  and  C5_17 
REMARK    6  A    between atoms: C7_21  and  O4_22 
REMARK    7  A    between atoms: O4_22  and  C8_23 
REMARK    8  A    between atoms: C8_23  and  C9_24 
REMARK    9  A    between atoms: C9_24  and  C10_25 
REMARK   10  A    between atoms: C10_25  and  C11_26 
REMARK   11  A    between atoms: C12_27  and  O5_28 
REMARK   12  A    between atoms: C15_38  and  N8_39 
ROOT
HETATM    1  C4  UNL     1      37.909  92.207  -6.883  1.00  0.00     0.226 C 
HETATM    2  C6  UNL     1      37.735  93.567  -6.273  1.00  0.00     0.106 C 
HETATM    3  C7  UNL     1      36.490  94.298  -6.631  1.00  0.00     0.159 C 
HETATM    4  C15 UNL     1      35.364  93.472  -7.148  1.00  0.00     0.236 C 
HETATM    5  C16 UNL     1      35.754  92.170  -7.774  1.00  0.00     0.207 C 
HETATM    6  O8  UNL     1      36.762  91.513  -7.137  1.00  0.00    -0.350 OA
ENDROOT
BRANCH   1   7
HETATM    7  N4  UNL     1      38.631  91.423  -5.860  1.00  0.00    -0.261 N 
ATOM      8  H4  UNL     1      39.631  91.519  -5.684  1.00  0.00     0.177 HD
BRANCH   7   9
HETATM    9  S2  UNL     1      37.634  90.347  -5.005  1.00  0.00     0.323 S 
HETATM   10  O1  UNL     1      37.207  89.152  -5.766  1.00  0.00    -0.182 OA
HETATM   11  O2  UNL     1      36.496  91.100  -4.375  1.00  0.00    -0.182 OA
BRANCH   9  12
HETATM   12  N3  UNL     1      38.578  89.765  -3.642  1.00  0.00    -0.246 N 
HETATM   13  C3  UNL     1      39.534  88.928  -3.979  1.00  0.00     0.176 A 
HETATM   14  N2  UNL     1      40.407  88.325  -3.166  1.00  0.00    -0.278 N 
HETATM   15  S3  UNL     1      40.009  88.319  -5.506  1.00  0.00    -0.026 SA
HETATM   16  N1  UNL     1      41.270  87.542  -3.664  1.00  0.00    -0.286 N 
ATOM     17  H2  UNL     1      40.378  88.493  -2.161  1.00  0.00     0.189 HD
HETATM   18  C2  UNL     1      41.304  87.328  -4.973  1.00  0.00     0.129 A 
ATOM     19  H1  UNL     1      41.941  87.074  -3.055  1.00  0.00     0.188 HD
ATOM     20  H3  UNL     1      38.400  90.050  -2.679  1.00  0.00     0.182 HD
BRANCH  18  21
HETATM   21  S1  UNL     1      42.416  86.275  -5.920  1.00  0.00    -0.108 SA
HETATM   22  C1  UNL     1      41.535  85.891  -7.481  1.00  0.00     0.097 C 
ENDBRANCH  18  21
ENDBRANCH   9  12
ENDBRANCH   7   9
ENDBRANCH   1   7
BRANCH   1  23
HETATM   23  C5  UNL     1      38.792  92.351  -8.065  1.00  0.00     0.287 C 
HETATM   24  N5  UNL     1      39.373  91.220  -8.692  1.00  0.00    -0.058 NA
HETATM   25  O3  UNL     1      39.089  93.474  -8.591  1.00  0.00    -0.271 OA
ENDBRANCH   1  23
BRANCH   3  26
HETATM   26  O4  UNL     1      36.021  95.068  -5.554  1.00  0.00    -0.384 OA
BRANCH  26  27
HETATM   27  C8  UNL     1      35.556  94.208  -4.576  1.00  0.00     0.168 C 
BRANCH  27  28
HETATM   28  C9  UNL     1      34.819  95.014  -3.518  1.00  0.00     0.031 C 
BRANCH  28  29
HETATM   29  C10 UNL     1      35.511  94.870  -2.174  1.00  0.00     0.051 C 
BRANCH  29  30
HETATM   30  C11 UNL     1      34.621  94.243  -1.186  1.00  0.00     0.061 A 
HETATM   31  C12 UNL     1      34.696  92.881  -0.992  1.00  0.00     0.155 A 
HETATM   32  N6  UNL     1      33.890  92.287  -0.093  1.00  0.00    -0.288 N 
HETATM   33  C13 UNL     1      33.004  92.986   0.629  1.00  0.00     0.329 A 
ATOM     34  H6  UNL     1      33.956  91.278   0.041  1.00  0.00     0.172 HD
HETATM   35  O6  UNL     1      32.261  92.396   1.466  1.00  0.00    -0.247 OA
HETATM   36  N7  UNL     1      32.926  94.316   0.443  1.00  0.00    -0.275 N 
HETATM   37  C14 UNL     1      33.705  94.952  -0.437  1.00  0.00     0.259 A 
ATOM     38  H7  UNL     1      32.254  94.854   0.990  1.00  0.00     0.173 HD
HETATM   39  O7  UNL     1      33.642  96.195  -0.622  1.00  0.00    -0.267 OA
BRANCH  31  40
HETATM   40  O5  UNL     1      35.602  92.119  -1.720  1.00  0.00    -0.345 OA
ATOM     41  H5  UNL     1      35.412  91.880  -2.620  1.00  0.00     0.219 HD
ENDBRANCH  31  40
ENDBRANCH  29  30
ENDBRANCH  28  29
ENDBRANCH  27  28
ENDBRANCH  26  27
ENDBRANCH   3  26
BRANCH   4  42
HETATM   42  N8  UNL     1      34.573  94.291  -8.067  1.00  0.00    -0.070 N 
ATOM     43  H83 UNL     1      33.938  94.923  -7.581  1.00  0.00     0.274 HD
ATOM     44  H82 UNL     1      35.133  94.997  -8.545  1.00  0.00     0.274 HD
ATOM     45  H81 UNL     1      34.088  93.672  -8.716  1.00  0.00     0.274 HD
ENDBRANCH   4  42
TORSDOF 12
ENDMDL
