MODEL 1
REMARK VINA RESULT: -6.607880876      0.000      0.000
REMARK  14 active torsions:
REMARK  status: ('A' for Active; 'I' for Inactive)
REMARK    1  A    between atoms: N1_1  and  N2_4 
REMARK    2  A    between atoms: N2_4  and  N3_5 
REMARK    3  A    between atoms: N3_5  and  C1_7 
REMARK    4  A    between atoms: C2_14  and  C3_15 
REMARK    5  A    between atoms: C3_15  and  C4_16 
REMARK    6  A    between atoms: C4_16  and  N7_17 
REMARK    7  A    between atoms: C8_26  and  C9_27 
REMARK    8  A    between atoms: N11_29  and  N12_31 
REMARK       I    between atoms: N12_31  and  C10_33 
REMARK    9  A    between atoms: C11_38  and  C12_39 
REMARK   10  A    between atoms: C12_39  and  O2_40 
REMARK   11  A    between atoms: C12_39  and  C13_42 
REMARK   12  A    between atoms: C13_42  and  N15_43 
REMARK   13  A    between atoms: C16_46  and  C17_47 
REMARK   14  A    between atoms: C17_47  and  O3_48 
ROOT
HETATM    1  N7  UNL     1      37.121  91.872  -2.342  1.00  0.00    -0.225 N 
ATOM      2  H7  UNL     1      36.842  92.662  -2.923  1.00  0.00     0.177 HD
HETATM    3  C5  UNL     1      36.382  91.616  -1.352  1.00  0.00     0.688 A 
HETATM    4  N8  UNL     1      36.608  90.607  -0.481  1.00  0.00    -0.187 N 
ATOM      5  H8  UNL     1      37.426  90.015  -0.626  1.00  0.00     0.185 HD
HETATM    6  C6  UNL     1      35.804  90.346   0.567  1.00  0.00     0.199 A 
HETATM    7  N9  UNL     1      34.733  91.124   0.754  1.00  0.00    -0.335 N 
ATOM      8  H9  UNL     1      34.104  90.955   1.539  1.00  0.00     0.168 HD
HETATM    9  C7  UNL     1      34.493  92.137  -0.106  1.00  0.00     0.161 A 
HETATM   10  C8  UNL     1      33.439  93.061  -0.095  1.00  0.00     0.122 A 
HETATM   11  N14 UNL     1      33.666  93.839  -1.151  1.00  0.00    -0.337 N 
ATOM     12  H14 UNL     1      33.076  94.622  -1.432  1.00  0.00     0.167 HD
HETATM   13  C11 UNL     1      34.801  93.443  -1.807  1.00  0.00     0.138 A 
HETATM   14  N16 UNL     1      35.281  92.405  -1.148  1.00  0.00    -0.116 N 
ENDROOT
BRANCH   1  15
HETATM   15  C4  UNL     1      38.290  91.188  -2.736  1.00  0.00     0.144 C 
BRANCH  15  16
HETATM   16  C3  UNL     1      38.006  89.703  -3.042  1.00  0.00     0.083 C 
BRANCH  16  17
HETATM   17  C2  UNL     1      38.405  89.371  -4.422  1.00  0.00     0.076 A 
HETATM   18  C1  UNL     1      39.651  89.091  -4.936  1.00  0.00     0.172 A 
HETATM   19  N4  UNL     1      39.528  88.852  -6.246  1.00  0.00    -0.268 N 
HETATM   20  N5  UNL     1      38.257  88.977  -6.548  1.00  0.00    -0.241 N 
ATOM     21  H4  UNL     1      40.283  88.616  -6.890  1.00  0.00     0.190 HD
HETATM   22  N6  UNL     1      37.572  89.286  -5.475  1.00  0.00    -0.287 N 
ATOM     23  H5  UNL     1      37.861  88.852  -7.480  1.00  0.00     0.208 HD
ATOM     24  H6  UNL     1      36.563  89.439  -5.443  1.00  0.00     0.188 HD
BRANCH  18  25
HETATM   25  N3  UNL     1      40.862  89.061  -4.193  1.00  0.00    -0.197 N 
ATOM     26  H3  UNL     1      41.030  89.695  -3.412  1.00  0.00     0.205 HD
BRANCH  25  27
HETATM   27  N2  UNL     1      41.705  88.217  -4.549  1.00  0.00    -0.242 NA
BRANCH  27  28
HETATM   28  N1  UNL     1      42.495  87.291  -4.583  1.00  0.00    -0.260 N 
ATOM     29  H12 UNL     1      42.570  87.231  -3.567  1.00  0.00     0.193 HD
ATOM     30  H11 UNL     1      43.124  86.547  -4.885  1.00  0.00     0.193 HD
ENDBRANCH  27  28
ENDBRANCH  25  27
ENDBRANCH  18  25
ENDBRANCH  16  17
ENDBRANCH  15  16
ENDBRANCH   1  15
BRANCH  13  31
HETATM   31  C12 UNL     1      35.268  94.159  -3.037  1.00  0.00     0.205 C 
BRANCH  31  32
HETATM   32  O2  UNL     1      34.926  95.518  -2.825  1.00  0.00    -0.386 OA
ATOM     33  H2  UNL     1      34.191  95.497  -2.224  1.00  0.00     0.210 HD
ENDBRANCH  31  32
BRANCH  31  34
HETATM   34  C13 UNL     1      34.471  93.673  -4.218  1.00  0.00     0.167 C 
BRANCH  34  35
HETATM   35  N15 UNL     1      35.249  93.280  -5.358  1.00  0.00    -0.325 N 
HETATM   36  C14 UNL     1      35.597  94.221  -6.429  1.00  0.00     0.131 C 
HETATM   37  C15 UNL     1      37.104  94.230  -6.537  1.00  0.00     0.055 C 
HETATM   38  C16 UNL     1      37.739  92.884  -6.414  1.00  0.00     0.158 C 
HETATM   39  O4  UNL     1      36.812  91.813  -6.401  1.00  0.00    -0.296 OA
HETATM   40  C18 UNL     1      35.721  91.956  -5.519  1.00  0.00     0.363 C 
HETATM   41  O5  UNL     1      35.211  90.999  -4.926  1.00  0.00    -0.238 OA
BRANCH  38  42
HETATM   42  C17 UNL     1      38.781  92.703  -7.498  1.00  0.00     0.196 C 
BRANCH  42  43
HETATM   43  O3  UNL     1      39.705  91.720  -7.152  1.00  0.00    -0.398 OA
ATOM     44  H3  UNL     1      40.131  91.360  -7.921  1.00  0.00     0.209 HD
ENDBRANCH  42  43
ENDBRANCH  38  42
ENDBRANCH  34  35
ENDBRANCH  31  34
ENDBRANCH  13  31
BRANCH  10  45
HETATM   45  C9  UNL     1      32.357  93.123   0.874  1.00  0.00     0.161 C 
HETATM   46  N10 UNL     1      31.643  91.950   1.192  1.00  0.00    -0.079 NA
HETATM   47  N11 UNL     1      32.070  94.245   1.421  1.00  0.00    -0.282 N 
ATOM     48  H11 UNL     1      32.611  95.070   1.161  1.00  0.00     0.188 HD
BRANCH  47  49
HETATM   49  N12 UNL     1      31.044  94.384   2.360  1.00  0.00    -0.253 N 
HETATM   50  C10 UNL     1      30.087  95.401   2.192  1.00  0.00     0.347 C 
HETATM   51  N13 UNL     1      29.046  95.551   3.133  1.00  0.00    -0.038 NA
HETATM   52  O1  UNL     1      30.150  96.172   1.216  1.00  0.00    -0.249 OA
ATOM     53  H12 UNL     1      30.991  93.755   3.161  1.00  0.00     0.191 HD
ENDBRANCH  47  49
ENDBRANCH  10  45
TORSDOF 14
ENDMDL
MODEL 2
REMARK VINA RESULT: -6.559953681      2.696      4.321
REMARK  14 active torsions:
REMARK  status: ('A' for Active; 'I' for Inactive)
REMARK    1  A    between atoms: N1_1  and  N2_4 
REMARK    2  A    between atoms: N2_4  and  N3_5 
REMARK    3  A    between atoms: N3_5  and  C1_7 
REMARK    4  A    between atoms: C2_14  and  C3_15 
REMARK    5  A    between atoms: C3_15  and  C4_16 
REMARK    6  A    between atoms: C4_16  and  N7_17 
REMARK    7  A    between atoms: C8_26  and  C9_27 
REMARK    8  A    between atoms: N11_29  and  N12_31 
REMARK       I    between atoms: N12_31  and  C10_33 
REMARK    9  A    between atoms: C11_38  and  C12_39 
REMARK   10  A    between atoms: C12_39  and  O2_40 
REMARK   11  A    between atoms: C12_39  and  C13_42 
REMARK   12  A    between atoms: C13_42  and  N15_43 
REMARK   13  A    between atoms: C16_46  and  C17_47 
REMARK   14  A    between atoms: C17_47  and  O3_48 
ROOT
HETATM    1  N7  UNL     1      38.274  90.645  -3.833  1.00  0.00    -0.225 N 
ATOM      2  H7  UNL     1      38.640  91.171  -4.627  1.00  0.00     0.177 HD
HETATM    3  C5  UNL     1      37.201  91.074  -3.323  1.00  0.00     0.688 A 
HETATM    4  N8  UNL     1      36.584  90.497  -2.268  1.00  0.00    -0.187 N 
ATOM      5  H8  UNL     1      37.007  89.667  -1.851  1.00  0.00     0.185 HD
HETATM    6  C6  UNL     1      35.437  90.966  -1.741  1.00  0.00     0.199 A 
HETATM    7  N9  UNL     1      34.886  92.054  -2.289  1.00  0.00    -0.335 N 
ATOM      8  H9  UNL     1      34.017  92.435  -1.915  1.00  0.00     0.168 HD
HETATM    9  C7  UNL     1      35.490  92.643  -3.343  1.00  0.00     0.161 A 
HETATM   10  C8  UNL     1      35.086  93.777  -4.061  1.00  0.00     0.122 A 
HETATM   11  N14 UNL     1      36.022  93.933  -4.993  1.00  0.00    -0.337 N 
ATOM     12  H14 UNL     1      36.027  94.676  -5.691  1.00  0.00     0.167 HD
HETATM   13  C11 UNL     1      36.977  92.958  -4.887  1.00  0.00     0.138 A 
HETATM   14  N16 UNL     1      36.625  92.188  -3.874  1.00  0.00    -0.116 N 
ENDROOT
BRANCH   1  15
HETATM   15  C4  UNL     1      39.024  89.522  -3.429  1.00  0.00     0.144 C 
BRANCH  15  16
HETATM   16  C3  UNL     1      38.971  88.393  -4.480  1.00  0.00     0.083 C 
BRANCH  16  17
HETATM   17  C2  UNL     1      40.326  87.892  -4.773  1.00  0.00     0.076 A 
HETATM   18  C1  UNL     1      40.747  87.005  -5.738  1.00  0.00     0.172 A 
HETATM   19  N4  UNL     1      42.070  86.846  -5.623  1.00  0.00    -0.268 N 
HETATM   20  N5  UNL     1      42.468  87.600  -4.625  1.00  0.00    -0.241 N 
ATOM     21  H4  UNL     1      42.659  86.249  -6.203  1.00  0.00     0.190 HD
HETATM   22  N6  UNL     1      41.443  88.230  -4.106  1.00  0.00    -0.287 N 
ATOM     23  H5  UNL     1      43.432  87.683  -4.301  1.00  0.00     0.208 HD
ATOM     24  H6  UNL     1      41.487  88.878  -3.318  1.00  0.00     0.188 HD
BRANCH  18  25
HETATM   25  N3  UNL     1      39.912  86.370  -6.696  1.00  0.00    -0.197 N 
ATOM     26  H3  UNL     1      38.909  86.256  -6.545  1.00  0.00     0.205 HD
BRANCH  25  27
HETATM   27  N2  UNL     1      40.472  85.960  -7.729  1.00  0.00    -0.242 NA
BRANCH  27  28
HETATM   28  N1  UNL     1      41.003  85.269  -8.580  1.00  0.00    -0.260 N 
ATOM     29  H12 UNL     1      40.327  84.511  -8.481  1.00  0.00     0.193 HD
ATOM     30  H11 UNL     1      41.621  84.906  -9.306  1.00  0.00     0.193 HD
ENDBRANCH  27  28
ENDBRANCH  25  27
ENDBRANCH  18  25
ENDBRANCH  16  17
ENDBRANCH  15  16
ENDBRANCH   1  15
BRANCH  13  31
HETATM   31  C12 UNL     1      38.139  92.912  -5.831  1.00  0.00     0.205 C 
BRANCH  31  32
HETATM   32  O2  UNL     1      38.380  94.263  -6.185  1.00  0.00    -0.386 OA
ATOM     33  H2  UNL     1      38.572  94.244  -7.116  1.00  0.00     0.210 HD
ENDBRANCH  31  32
BRANCH  31  34
HETATM   34  C13 UNL     1      37.723  92.186  -7.083  1.00  0.00     0.167 C 
BRANCH  34  35
HETATM   35  N15 UNL     1      38.784  91.510  -7.775  1.00  0.00    -0.325 N 
HETATM   36  C14 UNL     1      39.172  90.132  -7.453  1.00  0.00     0.131 C 
HETATM   37  C15 UNL     1      39.048  89.328  -8.726  1.00  0.00     0.055 C 
HETATM   38  C16 UNL     1      39.532  90.034  -9.950  1.00  0.00     0.158 C 
HETATM   39  O4  UNL     1      40.192  91.259  -9.682  1.00  0.00    -0.296 OA
HETATM   40  C18 UNL     1      39.521  92.138  -8.806  1.00  0.00     0.363 C 
HETATM   41  O5  UNL     1      39.570  93.366  -8.926  1.00  0.00    -0.238 OA
BRANCH  38  42
HETATM   42  C17 UNL     1      40.401  89.105 -10.773  1.00  0.00     0.196 C 
BRANCH  42  43
HETATM   43  O3  UNL     1      40.461  87.834 -10.206  1.00  0.00    -0.398 OA
ATOM     44  H3  UNL     1      41.345  87.486 -10.234  1.00  0.00     0.209 HD
ENDBRANCH  42  43
ENDBRANCH  38  42
ENDBRANCH  34  35
ENDBRANCH  31  34
ENDBRANCH  13  31
BRANCH  10  45
HETATM   45  C9  UNL     1      33.899  94.578  -3.809  1.00  0.00     0.161 C 
HETATM   46  N10 UNL     1      32.664  94.180  -4.359  1.00  0.00    -0.079 NA
HETATM   47  N11 UNL     1      33.998  95.635  -3.093  1.00  0.00    -0.282 N 
ATOM     48  H11 UNL     1      34.912  95.889  -2.716  1.00  0.00     0.188 HD
BRANCH  47  49
HETATM   49  N12 UNL     1      32.904  96.457  -2.807  1.00  0.00    -0.253 N 
HETATM   50  C10 UNL     1      32.586  96.743  -1.467  1.00  0.00     0.347 C 
HETATM   51  N13 UNL     1      31.484  97.572  -1.166  1.00  0.00    -0.038 NA
HETATM   52  O1  UNL     1      33.271  96.269  -0.541  1.00  0.00    -0.249 OA
ATOM     53  H12 UNL     1      32.341  96.845  -3.564  1.00  0.00     0.191 HD
ENDBRANCH  47  49
ENDBRANCH  10  45
TORSDOF 14
ENDMDL
MODEL 3
REMARK VINA RESULT: -6.547725190      2.509      5.197
REMARK  14 active torsions:
REMARK  status: ('A' for Active; 'I' for Inactive)
REMARK    1  A    between atoms: N1_1  and  N2_4 
REMARK    2  A    between atoms: N2_4  and  N3_5 
REMARK    3  A    between atoms: N3_5  and  C1_7 
REMARK    4  A    between atoms: C2_14  and  C3_15 
REMARK    5  A    between atoms: C3_15  and  C4_16 
REMARK    6  A    between atoms: C4_16  and  N7_17 
REMARK    7  A    between atoms: C8_26  and  C9_27 
REMARK    8  A    between atoms: N11_29  and  N12_31 
REMARK       I    between atoms: N12_31  and  C10_33 
REMARK    9  A    between atoms: C11_38  and  C12_39 
REMARK   10  A    between atoms: C12_39  and  O2_40 
REMARK   11  A    between atoms: C12_39  and  C13_42 
REMARK   12  A    between atoms: C13_42  and  N15_43 
REMARK   13  A    between atoms: C16_46  and  C17_47 
REMARK   14  A    between atoms: C17_47  and  O3_48 
ROOT
HETATM    1  N7  UNL     1      37.978  90.578  -4.351  1.00  0.00    -0.225 N 
ATOM      2  H7  UNL     1      38.301  90.577  -3.384  1.00  0.00     0.177 HD
HETATM    3  C5  UNL     1      37.079  91.416  -4.640  1.00  0.00     0.688 A 
HETATM    4  N8  UNL     1      36.539  91.548  -5.873  1.00  0.00    -0.187 N 
ATOM      5  H8  UNL     1      36.871  90.935  -6.617  1.00  0.00     0.185 HD
HETATM    6  C6  UNL     1      35.584  92.452  -6.163  1.00  0.00     0.199 A 
HETATM    7  N9  UNL     1      35.150  93.253  -5.185  1.00  0.00    -0.335 N 
ATOM      8  H9  UNL     1      34.428  93.949  -5.371  1.00  0.00     0.168 HD
HETATM    9  C7  UNL     1      35.679  93.134  -3.948  1.00  0.00     0.161 A 
HETATM   10  C8  UNL     1      35.373  93.866  -2.793  1.00  0.00     0.122 A 
HETATM   11  N14 UNL     1      36.170  93.359  -1.856  1.00  0.00    -0.337 N 
ATOM     12  H14 UNL     1      36.199  93.674  -0.886  1.00  0.00     0.167 HD
HETATM   13  C11 UNL     1      36.947  92.357  -2.373  1.00  0.00     0.138 A 
HETATM   14  N16 UNL     1      36.625  92.244  -3.648  1.00  0.00    -0.116 N 
ENDROOT
BRANCH   1  15
HETATM   15  C4  UNL     1      38.585  89.643  -5.214  1.00  0.00     0.144 C 
BRANCH  15  16
HETATM   16  C3  UNL     1      38.824  88.290  -4.511  1.00  0.00     0.083 C 
BRANCH  16  17
HETATM   17  C2  UNL     1      40.221  87.853  -4.684  1.00  0.00     0.076 A 
HETATM   18  C1  UNL     1      40.726  86.764  -5.358  1.00  0.00     0.172 A 
HETATM   19  N4  UNL     1      42.058  86.770  -5.240  1.00  0.00    -0.268 N 
HETATM   20  N5  UNL     1      42.382  87.819  -4.520  1.00  0.00    -0.241 N 
ATOM     21  H4  UNL     1      42.703  86.086  -5.636  1.00  0.00     0.190 HD
HETATM   22  N6  UNL     1      41.300  88.476  -4.179  1.00  0.00    -0.287 N 
ATOM     23  H5  UNL     1      43.333  88.083  -4.264  1.00  0.00     0.208 HD
ATOM     24  H6  UNL     1      41.280  89.328  -3.618  1.00  0.00     0.188 HD
BRANCH  18  25
HETATM   25  N3  UNL     1      39.956  85.799  -6.061  1.00  0.00    -0.197 N 
ATOM     26  H3  UNL     1      39.029  85.514  -5.744  1.00  0.00     0.205 HD
BRANCH  25  27
HETATM   27  N2  UNL     1      40.476  85.320  -7.086  1.00  0.00    -0.242 NA
BRANCH  27  28
HETATM   28  N1  UNL     1      41.006  85.172  -8.173  1.00  0.00    -0.260 N 
ATOM     29  H12 UNL     1      40.477  84.327  -8.389  1.00  0.00     0.193 HD
ATOM     30  H11 UNL     1      41.583  85.279  -9.006  1.00  0.00     0.193 HD
ENDBRANCH  27  28
ENDBRANCH  25  27
ENDBRANCH  18  25
ENDBRANCH  16  17
ENDBRANCH  15  16
ENDBRANCH   1  15
BRANCH  13  31
HETATM   31  C12 UNL     1      37.936  91.629  -1.515  1.00  0.00     0.205 C 
BRANCH  31  32
HETATM   32  O2  UNL     1      39.140  91.627  -2.262  1.00  0.00    -0.386 OA
ATOM     33  H2  UNL     1      38.921  92.047  -3.086  1.00  0.00     0.210 HD
ENDBRANCH  31  32
BRANCH  31  34
HETATM   34  C13 UNL     1      37.495  90.197  -1.368  1.00  0.00     0.167 C 
BRANCH  34  35
HETATM   35  N15 UNL     1      36.189  90.017  -0.800  1.00  0.00    -0.325 N 
HETATM   36  C14 UNL     1      35.928  90.198   0.632  1.00  0.00     0.131 C 
HETATM   37  C15 UNL     1      34.848  91.246   0.756  1.00  0.00     0.055 C 
HETATM   38  C16 UNL     1      33.751  91.124  -0.250  1.00  0.00     0.158 C 
HETATM   39  O4  UNL     1      33.817  89.942  -1.028  1.00  0.00    -0.296 OA
HETATM   40  C18 UNL     1      35.076  89.648  -1.592  1.00  0.00     0.363 C 
HETATM   41  O5  UNL     1      35.204  89.108  -2.696  1.00  0.00    -0.238 OA
BRANCH  38  42
HETATM   42  C17 UNL     1      32.406  91.265   0.431  1.00  0.00     0.196 C 
BRANCH  42  43
HETATM   43  O3  UNL     1      32.367  92.395   1.244  1.00  0.00    -0.398 OA
ATOM     44  H3  UNL     1      31.711  93.014   0.944  1.00  0.00     0.209 HD
ENDBRANCH  42  43
ENDBRANCH  38  42
ENDBRANCH  34  35
ENDBRANCH  31  34
ENDBRANCH  13  31
BRANCH  10  45
HETATM   45  C9  UNL     1      34.394  94.935  -2.684  1.00  0.00     0.161 C 
HETATM   46  N10 UNL     1      33.795  95.449  -3.852  1.00  0.00    -0.079 NA
HETATM   47  N11 UNL     1      34.093  95.393  -1.526  1.00  0.00    -0.282 N 
ATOM     48  H11 UNL     1      34.551  94.994  -0.707  1.00  0.00     0.188 HD
BRANCH  47  49
HETATM   49  N12 UNL     1      33.162  96.419  -1.341  1.00  0.00    -0.253 N 
HETATM   50  C10 UNL     1      31.966  96.150  -0.653  1.00  0.00     0.347 C 
HETATM   51  N13 UNL     1      31.018  97.178  -0.458  1.00  0.00    -0.038 NA
HETATM   52  O1  UNL     1      31.734  95.009  -0.212  1.00  0.00    -0.249 OA
ATOM     53  H12 UNL     1      33.349  97.355  -1.702  1.00  0.00     0.191 HD
ENDBRANCH  47  49
ENDBRANCH  10  45
TORSDOF 14
ENDMDL
MODEL 4
REMARK VINA RESULT: -6.517643921      2.665      3.923
REMARK  14 active torsions:
REMARK  status: ('A' for Active; 'I' for Inactive)
REMARK    1  A    between atoms: N1_1  and  N2_4 
REMARK    2  A    between atoms: N2_4  and  N3_5 
REMARK    3  A    between atoms: N3_5  and  C1_7 
REMARK    4  A    between atoms: C2_14  and  C3_15 
REMARK    5  A    between atoms: C3_15  and  C4_16 
REMARK    6  A    between atoms: C4_16  and  N7_17 
REMARK    7  A    between atoms: C8_26  and  C9_27 
REMARK    8  A    between atoms: N11_29  and  N12_31 
REMARK       I    between atoms: N12_31  and  C10_33 
REMARK    9  A    between atoms: C11_38  and  C12_39 
REMARK   10  A    between atoms: C12_39  and  O2_40 
REMARK   11  A    between atoms: C12_39  and  C13_42 
REMARK   12  A    between atoms: C13_42  and  N15_43 
REMARK   13  A    between atoms: C16_46  and  C17_47 
REMARK   14  A    between atoms: C17_47  and  O3_48 
ROOT
HETATM    1  N7  UNL     1      38.375  90.397  -3.628  1.00  0.00    -0.225 N 
ATOM      2  H7  UNL     1      38.469  90.824  -4.550  1.00  0.00     0.177 HD
HETATM    3  C5  UNL     1      37.641  91.007  -2.801  1.00  0.00     0.688 A 
HETATM    4  N8  UNL     1      37.412  90.580  -1.539  1.00  0.00    -0.187 N 
ATOM      5  H8  UNL     1      37.857  89.717  -1.229  1.00  0.00     0.185 HD
HETATM    6  C6  UNL     1      36.621  91.242  -0.672  1.00  0.00     0.199 A 
HETATM    7  N9  UNL     1      36.038  92.373  -1.082  1.00  0.00    -0.335 N 
ATOM      8  H9  UNL     1      35.433  92.899  -0.451  1.00  0.00     0.168 HD
HETATM    9  C7  UNL     1      36.258  92.813  -2.339  1.00  0.00     0.161 A 
HETATM   10  C8  UNL     1      35.751  93.961  -2.965  1.00  0.00     0.122 A 
HETATM   11  N14 UNL     1      36.269  93.929  -4.190  1.00  0.00    -0.337 N 
ATOM     12  H14 UNL     1      36.096  94.630  -4.910  1.00  0.00     0.167 HD
HETATM   13  C11 UNL     1      37.065  92.827  -4.350  1.00  0.00     0.138 A 
HETATM   14  N16 UNL     1      37.038  92.168  -3.207  1.00  0.00    -0.116 N 
ENDROOT
BRANCH   1  15
HETATM   15  C4  UNL     1      39.080  89.194  -3.422  1.00  0.00     0.144 C 
BRANCH  15  16
HETATM   16  C3  UNL     1      39.138  88.340  -4.706  1.00  0.00     0.083 C 
BRANCH  16  17
HETATM   17  C2  UNL     1      40.482  87.764  -4.888  1.00  0.00     0.076 A 
HETATM   18  C1  UNL     1      40.885  86.688  -5.646  1.00  0.00     0.172 A 
HETATM   19  N4  UNL     1      42.205  86.533  -5.500  1.00  0.00    -0.268 N 
HETATM   20  N5  UNL     1      42.620  87.472  -4.681  1.00  0.00    -0.241 N 
ATOM     21  H4  UNL     1      42.782  85.818  -5.942  1.00  0.00     0.190 HD
HETATM   22  N6  UNL     1      41.608  88.215  -4.306  1.00  0.00    -0.287 N 
ATOM     23  H5  UNL     1      43.586  87.603  -4.382  1.00  0.00     0.208 HD
ATOM     24  H6  UNL     1      41.665  89.012  -3.671  1.00  0.00     0.188 HD
BRANCH  18  25
HETATM   25  N3  UNL     1      40.035  85.881  -6.449  1.00  0.00    -0.197 N 
ATOM     26  H3  UNL     1      39.043  85.770  -6.240  1.00  0.00     0.205 HD
BRANCH  25  27
HETATM   27  N2  UNL     1      40.569  85.318  -7.422  1.00  0.00    -0.242 NA
BRANCH  27  28
HETATM   28  N1  UNL     1      40.906  84.983  -8.544  1.00  0.00    -0.260 N 
ATOM     29  H12 UNL     1      39.999  84.572  -8.765  1.00  0.00     0.193 HD
ATOM     30  H11 UNL     1      41.427  84.819  -9.405  1.00  0.00     0.193 HD
ENDBRANCH  27  28
ENDBRANCH  25  27
ENDBRANCH  18  25
ENDBRANCH  16  17
ENDBRANCH  15  16
ENDBRANCH   1  15
BRANCH  13  31
HETATM   31  C12 UNL     1      37.760  92.561  -5.650  1.00  0.00     0.205 C 
BRANCH  31  32
HETATM   32  O2  UNL     1      38.421  93.774  -5.969  1.00  0.00    -0.386 OA
ATOM     33  H2  UNL     1      38.829  93.619  -6.813  1.00  0.00     0.210 HD
ENDBRANCH  31  32
BRANCH  31  34
HETATM   34  C13 UNL     1      36.726  92.319  -6.716  1.00  0.00     0.167 C 
BRANCH  34  35
HETATM   35  N15 UNL     1      36.952  91.158  -7.531  1.00  0.00    -0.325 N 
HETATM   36  C14 UNL     1      37.319  91.257  -8.948  1.00  0.00     0.131 C 
HETATM   37  C15 UNL     1      38.625  90.519  -9.120  1.00  0.00     0.055 C 
HETATM   38  C16 UNL     1      38.714  89.239  -8.356  1.00  0.00     0.158 C 
HETATM   39  O4  UNL     1      37.495  88.847  -7.750  1.00  0.00    -0.296 OA
HETATM   40  C18 UNL     1      36.827  89.847  -7.013  1.00  0.00     0.363 C 
HETATM   41  O5  UNL     1      36.180  89.604  -5.989  1.00  0.00    -0.238 OA
BRANCH  38  42
HETATM   42  C17 UNL     1      39.269  88.144  -9.244  1.00  0.00     0.196 C 
BRANCH  42  43
HETATM   43  O3  UNL     1      38.626  86.931  -9.011  1.00  0.00    -0.398 OA
ATOM     44  H3  UNL     1      38.740  86.646  -8.112  1.00  0.00     0.209 HD
ENDBRANCH  42  43
ENDBRANCH  38  42
ENDBRANCH  34  35
ENDBRANCH  31  34
ENDBRANCH  13  31
BRANCH  10  45
HETATM   45  C9  UNL     1      34.860  94.943  -2.371  1.00  0.00     0.161 C 
HETATM   46  N10 UNL     1      34.934  95.200  -0.986  1.00  0.00    -0.079 NA
HETATM   47  N11 UNL     1      34.019  95.559  -3.116  1.00  0.00    -0.282 N 
ATOM     48  H11 UNL     1      33.998  95.342  -4.113  1.00  0.00     0.188 HD
BRANCH  47  49
HETATM   49  N12 UNL     1      33.130  96.516  -2.618  1.00  0.00    -0.253 N 
HETATM   50  C10 UNL     1      31.773  96.183  -2.463  1.00  0.00     0.347 C 
HETATM   51  N13 UNL     1      30.865  97.140  -1.960  1.00  0.00    -0.038 NA
HETATM   52  O1  UNL     1      31.363  95.046  -2.765  1.00  0.00    -0.249 OA
ATOM     53  H12 UNL     1      33.463  97.448  -2.371  1.00  0.00     0.191 HD
ENDBRANCH  47  49
ENDBRANCH  10  45
TORSDOF 14
ENDMDL
MODEL 5
REMARK VINA RESULT: -6.266880655      2.579      4.034
REMARK  14 active torsions:
REMARK  status: ('A' for Active; 'I' for Inactive)
REMARK    1  A    between atoms: N1_1  and  N2_4 
REMARK    2  A    between atoms: N2_4  and  N3_5 
REMARK    3  A    between atoms: N3_5  and  C1_7 
REMARK    4  A    between atoms: C2_14  and  C3_15 
REMARK    5  A    between atoms: C3_15  and  C4_16 
REMARK    6  A    between atoms: C4_16  and  N7_17 
REMARK    7  A    between atoms: C8_26  and  C9_27 
REMARK    8  A    between atoms: N11_29  and  N12_31 
REMARK       I    between atoms: N12_31  and  C10_33 
REMARK    9  A    between atoms: C11_38  and  C12_39 
REMARK   10  A    between atoms: C12_39  and  O2_40 
REMARK   11  A    between atoms: C12_39  and  C13_42 
REMARK   12  A    between atoms: C13_42  and  N15_43 
REMARK   13  A    between atoms: C16_46  and  C17_47 
REMARK   14  A    between atoms: C17_47  and  O3_48 
ROOT
HETATM    1  N7  UNL     1      38.352  90.450  -3.961  1.00  0.00    -0.225 N 
ATOM      2  H7  UNL     1      38.583  90.967  -4.810  1.00  0.00     0.177 HD
HETATM    3  C5  UNL     1      37.367  90.875  -3.296  1.00  0.00     0.688 A 
HETATM    4  N8  UNL     1      36.930  90.308  -2.150  1.00  0.00    -0.187 N 
ATOM      5  H8  UNL     1      37.424  89.490  -1.793  1.00  0.00     0.185 HD
HETATM    6  C6  UNL     1      35.873  90.773  -1.457  1.00  0.00     0.199 A 
HETATM    7  N9  UNL     1      35.229  91.846  -1.927  1.00  0.00    -0.335 N 
ATOM      8  H9  UNL     1      34.424  92.224  -1.426  1.00  0.00     0.168 HD
HETATM    9  C7  UNL     1      35.653  92.424  -3.070  1.00  0.00     0.161 A 
HETATM   10  C8  UNL     1      35.127  93.543  -3.732  1.00  0.00     0.122 A 
HETATM   11  N14 UNL     1      35.904  93.694  -4.801  1.00  0.00    -0.337 N 
ATOM     12  H14 UNL     1      35.790  94.426  -5.501  1.00  0.00     0.167 HD
HETATM   13  C11 UNL     1      36.877  92.731  -4.832  1.00  0.00     0.138 A 
HETATM   14  N16 UNL     1      36.698  91.974  -3.766  1.00  0.00    -0.116 N 
ENDROOT
BRANCH   1  15
HETATM   15  C4  UNL     1      39.171  89.341  -3.664  1.00  0.00     0.144 C 
BRANCH  15  16
HETATM   16  C3  UNL     1      39.200  88.326  -4.826  1.00  0.00     0.083 C 
BRANCH  16  17
HETATM   17  C2  UNL     1      40.545  87.741  -4.973  1.00  0.00     0.076 A 
HETATM   18  C1  UNL     1      40.941  86.593  -5.621  1.00  0.00     0.172 A 
HETATM   19  N4  UNL     1      42.265  86.461  -5.486  1.00  0.00    -0.268 N 
HETATM   20  N5  UNL     1      42.688  87.484  -4.780  1.00  0.00    -0.241 N 
ATOM     21  H4  UNL     1      42.838  85.707  -5.861  1.00  0.00     0.190 HD
HETATM   22  N6  UNL     1      41.679  88.257  -4.465  1.00  0.00    -0.287 N 
ATOM     23  H5  UNL     1      43.659  87.652  -4.516  1.00  0.00     0.208 HD
ATOM     24  H6  UNL     1      41.742  89.117  -3.919  1.00  0.00     0.188 HD
BRANCH  18  25
HETATM   25  N3  UNL     1      40.081  85.701  -6.317  1.00  0.00    -0.197 N 
ATOM     26  H3  UNL     1      39.171  85.430  -5.945  1.00  0.00     0.205 HD
BRANCH  25  27
HETATM   27  N2  UNL     1      40.502  85.269  -7.406  1.00  0.00    -0.242 NA
BRANCH  27  28
HETATM   28  N1  UNL     1      40.905  85.168  -8.551  1.00  0.00    -0.260 N 
ATOM     29  H12 UNL     1      39.969  85.054  -8.940  1.00  0.00     0.193 HD
ATOM     30  H11 UNL     1      41.488  85.117  -9.386  1.00  0.00     0.193 HD
ENDBRANCH  27  28
ENDBRANCH  25  27
ENDBRANCH  18  25
ENDBRANCH  16  17
ENDBRANCH  15  16
ENDBRANCH   1  15
BRANCH  13  31
HETATM   31  C12 UNL     1      37.877  92.683  -5.945  1.00  0.00     0.205 C 
BRANCH  31  32
HETATM   32  O2  UNL     1      38.123  94.038  -6.279  1.00  0.00    -0.386 OA
ATOM     33  H2  UNL     1      39.063  94.149  -6.187  1.00  0.00     0.210 HD
ENDBRANCH  31  32
BRANCH  31  34
HETATM   34  C13 UNL     1      37.242  92.032  -7.145  1.00  0.00     0.167 C 
BRANCH  34  35
HETATM   35  N15 UNL     1      38.041  92.045  -8.339  1.00  0.00    -0.325 N 
HETATM   36  C14 UNL     1      37.681  92.851  -9.511  1.00  0.00     0.131 C 
HETATM   37  C15 UNL     1      38.854  93.758  -9.800  1.00  0.00     0.055 C 
HETATM   38  C16 UNL     1      40.189  93.105  -9.654  1.00  0.00     0.158 C 
HETATM   39  O4  UNL     1      40.122  91.705  -9.449  1.00  0.00    -0.296 OA
HETATM   40  C18 UNL     1      39.220  91.272  -8.455  1.00  0.00     0.363 C 
HETATM   41  O5  UNL     1      39.438  90.292  -7.735  1.00  0.00    -0.238 OA
BRANCH  38  42
HETATM   42  C17 UNL     1      41.067  93.451 -10.839  1.00  0.00     0.196 C 
BRANCH  42  43
HETATM   43  O3  UNL     1      41.809  94.604 -10.599  1.00  0.00    -0.398 OA
ATOM     44  H3  UNL     1      41.552  95.308 -11.182  1.00  0.00     0.209 HD
ENDBRANCH  42  43
ENDBRANCH  38  42
ENDBRANCH  34  35
ENDBRANCH  31  34
ENDBRANCH  13  31
BRANCH  10  45
HETATM   45  C9  UNL     1      33.984  94.335  -3.308  1.00  0.00     0.161 C 
HETATM   46  N10 UNL     1      32.704  93.746  -3.281  1.00  0.00    -0.079 NA
HETATM   47  N11 UNL     1      34.161  95.558  -2.970  1.00  0.00    -0.282 N 
ATOM     48  H11 UNL     1      35.104  95.945  -3.006  1.00  0.00     0.188 HD
BRANCH  47  49
HETATM   49  N12 UNL     1      33.112  96.383  -2.553  1.00  0.00    -0.253 N 
HETATM   50  C10 UNL     1      32.820  96.488  -1.181  1.00  0.00     0.347 C 
HETATM   51  N13 UNL     1      31.764  97.318  -0.747  1.00  0.00    -0.038 NA
HETATM   52  O1  UNL     1      33.487  95.852  -0.343  1.00  0.00    -0.249 OA
ATOM     53  H12 UNL     1      32.564  96.904  -3.237  1.00  0.00     0.191 HD
ENDBRANCH  47  49
ENDBRANCH  10  45
TORSDOF 14
ENDMDL
