MODEL 1
REMARK VINA RESULT: -6.662689701      0.000      0.000
REMARK  13 active torsions:
REMARK  status: ('A' for Active; 'I' for Inactive)
REMARK    1  A    between atoms: N1_2  and  C3_4 
REMARK    2  A    between atoms: C4_7  and  N3_8 
REMARK    3  A    between atoms: N3_8  and  C5_10 
REMARK    4  A    between atoms: C6_14  and  O1_15 
REMARK    5  A    between atoms: O1_15  and  C7_16 
REMARK    6  A    between atoms: C7_16  and  C8_17 
REMARK    7  A    between atoms: C8_17  and  N5_18 
REMARK    8  A    between atoms: N6_21  and  C11_22 
REMARK    9  A    between atoms: C11_22  and  C12_23 
REMARK   10  A    between atoms: C15_26  and  C16_27 
REMARK   11  A    between atoms: C20_41  and  N12_42 
REMARK   12  A    between atoms: C22_47  and  N13_48 
REMARK   13  A    between atoms: C23_54  and  N15_55 
ROOT
HETATM    1  C5  UNL     1      37.913  90.083  -4.581  1.00  0.00     0.333 C 
HETATM    2  N4  UNL     1      38.185  90.062  -3.133  1.00  0.00    -0.023 N 
ATOM      3  H41 UNL     1      38.933  90.690  -2.839  1.00  0.00     0.282 HD
ATOM      4  H42 UNL     1      38.624  89.203  -2.802  1.00  0.00     0.282 HD
HETATM    5  C6  UNL     1      36.853  90.354  -2.507  1.00  0.00     0.354 C 
HETATM    6  C20 UNL     1      36.621  91.854  -2.702  1.00  0.00     0.241 C 
HETATM    7  C21 UNL     1      37.557  92.378  -3.764  1.00  0.00     0.074 C 
HETATM    8  C22 UNL     1      37.432  91.480  -4.966  1.00  0.00     0.236 C 
ENDROOT
BRANCH   5   9
HETATM    9  O1  UNL     1      35.911  89.559  -3.027  1.00  0.00    -0.356 OA
BRANCH   9  10
HETATM   10  C7  UNL     1      34.629  89.495  -2.654  1.00  0.00     0.190 C 
BRANCH  10  11
HETATM   11  C8  UNL     1      34.162  88.299  -1.890  1.00  0.00     0.148 C 
BRANCH  11  12
HETATM   12  N5  UNL     1      33.831  88.501  -0.534  1.00  0.00    -0.385 N 
HETATM   13  C9  UNL     1      32.514  88.896  -0.262  1.00  0.00     0.102 C 
HETATM   14  C10 UNL     1      32.394  90.081   0.679  1.00  0.00     0.107 C 
HETATM   15  N6  UNL     1      33.434  91.000   0.466  1.00  0.00    -0.361 N 
HETATM   16  C18 UNL     1      34.712  90.414   0.764  1.00  0.00     0.147 C 
HETATM   17  C19 UNL     1      34.897  89.033   0.252  1.00  0.00     0.142 C 
BRANCH  15  18
HETATM   18  C11 UNL     1      33.272  92.362   0.740  1.00  0.00     0.119 C 
BRANCH  18  19
HETATM   19  C12 UNL     1      33.523  93.195  -0.454  1.00  0.00     0.047 A 
HETATM   20  C13 UNL     1      34.113  94.450  -0.336  1.00  0.00     0.032 A 
HETATM   21  C14 UNL     1      34.378  95.239  -1.428  1.00  0.00     0.019 A 
HETATM   22  C15 UNL     1      34.056  94.794  -2.687  1.00  0.00     0.026 A 
HETATM   23  C17 UNL     1      33.472  93.546  -2.769  1.00  0.00     0.103 A 
HETATM   24  N11 UNL     1      33.221  92.789  -1.690  1.00  0.00    -0.364 N 
ATOM     25  H11 UNL     1      32.787  91.875  -1.817  1.00  0.00     0.165 HD
BRANCH  22  26
HETATM   26  C16 UNL     1      34.301  95.581  -3.902  1.00  0.00     0.148 A 
HETATM   27  N7  UNL     1      33.525  96.483  -4.510  1.00  0.00    -0.268 N 
HETATM   28  N8  UNL     1      34.155  96.938  -5.597  1.00  0.00    -0.227 N 
ATOM     29  H7  UNL     1      32.601  96.776  -4.195  1.00  0.00     0.190 HD
HETATM   30  N9  UNL     1      35.313  96.337  -5.683  1.00  0.00    -0.227 N 
ATOM     31  H8  UNL     1      33.795  97.634  -6.249  1.00  0.00     0.210 HD
HETATM   32  N10 UNL     1      35.413  95.508  -4.655  1.00  0.00    -0.268 N 
ATOM     33  H9  UNL     1      36.013  96.481  -6.411  1.00  0.00     0.210 HD
ATOM     34  H10 UNL     1      36.213  94.904  -4.464  1.00  0.00     0.190 HD
ENDBRANCH  22  26
ENDBRANCH  18  19
ENDBRANCH  15  18
ENDBRANCH  11  12
ENDBRANCH  10  11
ENDBRANCH   9  10
ENDBRANCH   5   9
BRANCH   6  35
HETATM   35  N12 UNL     1      37.001  92.556  -1.474  1.00  0.00    -0.071 N 
ATOM     36 3H12 UNL     1      37.502  91.954  -0.820  1.00  0.00     0.274 HD
ATOM     37 2H12 UNL     1      37.739  93.242  -1.630  1.00  0.00     0.274 HD
ATOM     38 1H12 UNL     1      36.166  92.970  -1.060  1.00  0.00     0.274 HD
ENDBRANCH   6  35
BRANCH   1  39
HETATM   39  N3  UNL     1      38.865  89.557  -5.398  1.00  0.00    -0.193 N 
ATOM     40  H3  UNL     1      38.916  90.206  -6.182  1.00  0.00     0.180 HD
BRANCH  39  41
HETATM   41  C4  UNL     1      39.688  88.698  -5.658  1.00  0.00     0.709 A 
HETATM   42  N2  UNL     1      39.552  87.857  -6.744  1.00  0.00    -0.021 N 
HETATM   43  C3  UNL     1      40.401  86.889  -7.058  1.00  0.00     0.708 A 
ATOM     44  H2  UNL     1      38.741  87.991  -7.348  1.00  0.00     0.203 HD
HETATM   45  N16 UNL     1      41.487  86.709  -6.257  1.00  0.00    -0.022 N 
HETATM   46  C23 UNL     1      41.681  87.491  -5.185  1.00  0.00     0.705 A 
ATOM     47  H16 UNL     1      42.159  85.973  -6.474  1.00  0.00     0.203 HD
HETATM   48  N14 UNL     1      40.782  88.461  -4.913  1.00  0.00    -0.022 N 
ATOM     49  H14 UNL     1      40.942  89.050  -4.095  1.00  0.00     0.203 HD
BRANCH  43  50
HETATM   50  N1  UNL     1      40.245  86.046  -8.189  1.00  0.00    -0.225 N 
HETATM   51  C1  UNL     1      39.047  85.258  -8.321  1.00  0.00     0.168 C 
HETATM   52  C2  UNL     1      41.296  85.990  -9.175  1.00  0.00     0.168 C 
ENDBRANCH  43  50
BRANCH  46  53
HETATM   53  N15 UNL     1      42.736  87.269  -4.474  1.00  0.00    -0.234 N 
ATOM     54 2H15 UNL     1      42.748  87.645  -3.526  1.00  0.00     0.174 HD
ATOM     55 1H15 UNL     1      43.542  86.740  -4.805  1.00  0.00     0.174 HD
ENDBRANCH  46  53
ENDBRANCH  39  41
ENDBRANCH   1  39
BRANCH   8  56
HETATM   56  N13 UNL     1      36.081  91.464  -5.423  1.00  0.00    -0.071 N 
ATOM     57 3H13 UNL     1      35.434  91.251  -4.663  1.00  0.00     0.274 HD
ATOM     58 2H13 UNL     1      35.754  92.403  -5.651  1.00  0.00     0.274 HD
ATOM     59 1H13 UNL     1      35.957  90.826  -6.208  1.00  0.00     0.274 HD
ENDBRANCH   8  56
TORSDOF 13
ENDMDL
MODEL 2
REMARK VINA RESULT: -6.330167095      1.826      2.604
REMARK  13 active torsions:
REMARK  status: ('A' for Active; 'I' for Inactive)
REMARK    1  A    between atoms: N1_2  and  C3_4 
REMARK    2  A    between atoms: C4_7  and  N3_8 
REMARK    3  A    between atoms: N3_8  and  C5_10 
REMARK    4  A    between atoms: C6_14  and  O1_15 
REMARK    5  A    between atoms: O1_15  and  C7_16 
REMARK    6  A    between atoms: C7_16  and  C8_17 
REMARK    7  A    between atoms: C8_17  and  N5_18 
REMARK    8  A    between atoms: N6_21  and  C11_22 
REMARK    9  A    between atoms: C11_22  and  C12_23 
REMARK   10  A    between atoms: C15_26  and  C16_27 
REMARK   11  A    between atoms: C20_41  and  N12_42 
REMARK   12  A    between atoms: C22_47  and  N13_48 
REMARK   13  A    between atoms: C23_54  and  N15_55 
ROOT
HETATM    1  C5  UNL     1      37.687  90.660  -2.706  1.00  0.00     0.333 C 
HETATM    2  N4  UNL     1      37.960  91.630  -1.630  1.00  0.00    -0.023 N 
ATOM      3  H41 UNL     1      38.404  92.492  -1.947  1.00  0.00     0.282 HD
ATOM      4  H42 UNL     1      38.704  91.349  -0.992  1.00  0.00     0.282 HD
HETATM    5  C6  UNL     1      36.626  91.830  -0.971  1.00  0.00     0.354 C 
HETATM    6  C20 UNL     1      35.822  92.720  -1.921  1.00  0.00     0.241 C 
HETATM    7  C21 UNL     1      36.466  92.718  -3.285  1.00  0.00     0.074 C 
HETATM    8  C22 UNL     1      36.692  91.284  -3.682  1.00  0.00     0.236 C 
ENDROOT
BRANCH   5   9
HETATM    9  O1  UNL     1      36.068  90.648  -0.687  1.00  0.00    -0.356 OA
BRANCH   9  10
HETATM   10  C7  UNL     1      35.159  90.405   0.263  1.00  0.00     0.190 C 
BRANCH  10  11
HETATM   11  C8  UNL     1      33.710  90.452  -0.099  1.00  0.00     0.148 C 
BRANCH  11  12
HETATM   12  N5  UNL     1      32.868  91.202   0.746  1.00  0.00    -0.385 N 
HETATM   13  C9  UNL     1      31.489  91.076   0.529  1.00  0.00     0.102 C 
HETATM   14  C10 UNL     1      30.741  92.394   0.453  1.00  0.00     0.107 C 
HETATM   15  N6  UNL     1      31.521  93.380  -0.172  1.00  0.00    -0.361 N 
HETATM   16  C18 UNL     1      32.704  93.665   0.593  1.00  0.00     0.147 C 
HETATM   17  C19 UNL     1      33.403  92.469   1.127  1.00  0.00     0.142 C 
BRANCH  15  18
HETATM   18  C11 UNL     1      30.935  94.442  -0.869  1.00  0.00     0.119 C 
BRANCH  18  19
HETATM   19  C12 UNL     1      31.743  94.839  -2.042  1.00  0.00     0.047 A 
HETATM   20  C13 UNL     1      32.288  93.880  -2.889  1.00  0.00     0.032 A 
HETATM   21  C14 UNL     1      33.026  94.217  -3.997  1.00  0.00     0.019 A 
HETATM   22  C15 UNL     1      33.245  95.540  -4.296  1.00  0.00     0.026 A 
HETATM   23  C17 UNL     1      32.690  96.466  -3.434  1.00  0.00     0.103 A 
HETATM   24  N11 UNL     1      31.972  96.116  -2.356  1.00  0.00    -0.364 N 
ATOM     25  H11 UNL     1      31.589  96.849  -1.758  1.00  0.00     0.165 HD
BRANCH  22  26
HETATM   26  C16 UNL     1      34.027  95.981  -5.457  1.00  0.00     0.148 A 
HETATM   27  N7  UNL     1      34.718  95.262  -6.347  1.00  0.00    -0.268 N 
HETATM   28  N8  UNL     1      35.284  96.090  -7.230  1.00  0.00    -0.227 N 
ATOM     29  H7  UNL     1      34.801  94.246  -6.351  1.00  0.00     0.190 HD
HETATM   30  N9  UNL     1      34.960  97.315  -6.910  1.00  0.00    -0.227 N 
ATOM     31  H8  UNL     1      35.869  95.814  -8.019  1.00  0.00     0.210 HD
HETATM   32  N10 UNL     1      34.194  97.262  -5.832  1.00  0.00    -0.268 N 
ATOM     33  H9  UNL     1      35.247  98.161  -7.403  1.00  0.00     0.210 HD
ATOM     34  H10 UNL     1      33.792  98.069  -5.357  1.00  0.00     0.190 HD
ENDBRANCH  22  26
ENDBRANCH  18  19
ENDBRANCH  15  18
ENDBRANCH  11  12
ENDBRANCH  10  11
ENDBRANCH   9  10
ENDBRANCH   5   9
BRANCH   6  35
HETATM   35  N12 UNL     1      35.908  94.107  -1.456  1.00  0.00    -0.071 N 
ATOM     36 3H12 UNL     1      35.135  94.680  -1.795  1.00  0.00     0.274 HD
ATOM     37 2H12 UNL     1      35.724  94.195  -0.457  1.00  0.00     0.274 HD
ATOM     38 1H12 UNL     1      36.818  94.486  -1.719  1.00  0.00     0.274 HD
ENDBRANCH   6  35
BRANCH   1  39
HETATM   39  N3  UNL     1      38.761  90.059  -3.284  1.00  0.00    -0.193 N 
ATOM     40  H3  UNL     1      39.530  90.712  -3.137  1.00  0.00     0.180 HD
BRANCH  39  41
HETATM   41  C4  UNL     1      39.262  89.129  -3.891  1.00  0.00     0.709 A 
HETATM   42  N2  UNL     1      38.501  88.211  -4.585  1.00  0.00    -0.021 N 
HETATM   43  C3  UNL     1      38.992  87.167  -5.237  1.00  0.00     0.708 A 
ATOM     44  H2  UNL     1      37.490  88.345  -4.597  1.00  0.00     0.203 HD
HETATM   45  N16 UNL     1      40.341  86.985  -5.227  1.00  0.00    -0.022 N 
HETATM   46  C23 UNL     1      41.140  87.840  -4.573  1.00  0.00     0.705 A 
ATOM     47  H16 UNL     1      40.748  86.191  -5.722  1.00  0.00     0.203 HD
HETATM   48  N14 UNL     1      40.583  88.886  -3.924  1.00  0.00    -0.022 N 
ATOM     49  H14 UNL     1      41.203  89.530  -3.430  1.00  0.00     0.203 HD
BRANCH  43  50
HETATM   50  N1  UNL     1      38.188  86.243  -5.956  1.00  0.00    -0.225 N 
HETATM   51  C1  UNL     1      38.823  85.213  -6.734  1.00  0.00     0.168 C 
HETATM   52  C2  UNL     1      36.752  86.367  -5.897  1.00  0.00     0.168 C 
ENDBRANCH  43  50
BRANCH  46  53
HETATM   53  N15 UNL     1      42.410  87.611  -4.611  1.00  0.00    -0.234 N 
ATOM     54 2H15 UNL     1      42.795  87.251  -5.484  1.00  0.00     0.174 HD
ATOM     55 1H15 UNL     1      43.039  87.776  -3.825  1.00  0.00     0.174 HD
ENDBRANCH  46  53
ENDBRANCH  39  41
ENDBRANCH   1  39
BRANCH   8  56
HETATM   56  N13 UNL     1      35.451  90.581  -3.689  1.00  0.00    -0.071 N 
ATOM     57 3H13 UNL     1      35.434  89.849  -2.979  1.00  0.00     0.274 HD
ATOM     58 2H13 UNL     1      34.691  91.163  -3.337  1.00  0.00     0.274 HD
ATOM     59 1H13 UNL     1      35.236  90.208  -4.613  1.00  0.00     0.274 HD
ENDBRANCH   8  56
TORSDOF 13
ENDMDL
MODEL 3
REMARK VINA RESULT: -6.233174432      2.425      8.414
REMARK  13 active torsions:
REMARK  status: ('A' for Active; 'I' for Inactive)
REMARK    1  A    between atoms: N1_2  and  C3_4 
REMARK    2  A    between atoms: C4_7  and  N3_8 
REMARK    3  A    between atoms: N3_8  and  C5_10 
REMARK    4  A    between atoms: C6_14  and  O1_15 
REMARK    5  A    between atoms: O1_15  and  C7_16 
REMARK    6  A    between atoms: C7_16  and  C8_17 
REMARK    7  A    between atoms: C8_17  and  N5_18 
REMARK    8  A    between atoms: N6_21  and  C11_22 
REMARK    9  A    between atoms: C11_22  and  C12_23 
REMARK   10  A    between atoms: C15_26  and  C16_27 
REMARK   11  A    between atoms: C20_41  and  N12_42 
REMARK   12  A    between atoms: C22_47  and  N13_48 
REMARK   13  A    between atoms: C23_54  and  N15_55 
ROOT
HETATM    1  C5  UNL     1      31.911  93.004   0.370  1.00  0.00     0.333 C 
HETATM    2  N4  UNL     1      31.529  93.223  -1.037  1.00  0.00    -0.023 N 
ATOM      3  H41 UNL     1      30.707  92.697  -1.333  1.00  0.00     0.282 HD
ATOM      4  H42 UNL     1      32.173  92.815  -1.714  1.00  0.00     0.282 HD
HETATM    5  C6  UNL     1      31.380  94.713  -1.147  1.00  0.00     0.354 C 
HETATM    6  C20 UNL     1      30.053  95.050  -0.465  1.00  0.00     0.241 C 
HETATM    7  C21 UNL     1      29.614  93.889   0.393  1.00  0.00     0.074 C 
HETATM    8  C22 UNL     1      30.777  93.500   1.265  1.00  0.00     0.236 C 
ENDROOT
BRANCH   5   9
HETATM    9  O1  UNL     1      32.455  95.325  -0.638  1.00  0.00    -0.356 OA
BRANCH   9  10
HETATM   10  C7  UNL     1      33.439  95.911  -1.329  1.00  0.00     0.190 C 
BRANCH  10  11
HETATM   11  C8  UNL     1      33.680  95.482  -2.739  1.00  0.00     0.148 C 
BRANCH  11  12
HETATM   12  N5  UNL     1      34.933  94.898  -3.020  1.00  0.00    -0.385 N 
HETATM   13  C9  UNL     1      35.040  94.197  -4.229  1.00  0.00     0.102 C 
HETATM   14  C10 UNL     1      35.668  92.821  -4.104  1.00  0.00     0.107 C 
HETATM   15  N6  UNL     1      35.295  92.205  -2.899  1.00  0.00    -0.361 N 
HETATM   16  C18 UNL     1      35.784  92.943  -1.767  1.00  0.00     0.147 C 
HETATM   17  C19 UNL     1      35.622  94.415  -1.867  1.00  0.00     0.142 C 
BRANCH  15  18
HETATM   18  C11 UNL     1      35.232  90.813  -2.780  1.00  0.00     0.119 C 
BRANCH  18  19
HETATM   19  C12 UNL     1      36.490  90.168  -3.212  1.00  0.00     0.047 A 
HETATM   20  C13 UNL     1      36.525  89.365  -4.348  1.00  0.00     0.032 A 
HETATM   21  C14 UNL     1      37.681  88.769  -4.787  1.00  0.00     0.019 A 
HETATM   22  C15 UNL     1      38.853  88.957  -4.095  1.00  0.00     0.026 A 
HETATM   23  C17 UNL     1      38.783  89.759  -2.973  1.00  0.00     0.103 A 
HETATM   24  N11 UNL     1      37.643  90.333  -2.560  1.00  0.00    -0.364 N 
ATOM     25  H11 UNL     1      37.658  90.914  -1.722  1.00  0.00     0.165 HD
BRANCH  22  26
HETATM   26  C16 UNL     1      40.127  88.350  -4.497  1.00  0.00     0.148 A 
HETATM   27  N7  UNL     1      40.400  87.521  -5.509  1.00  0.00    -0.268 N 
HETATM   28  N8  UNL     1      41.701  87.215  -5.483  1.00  0.00    -0.227 N 
ATOM     29  H7  UNL     1      39.724  87.177  -6.191  1.00  0.00     0.190 HD
HETATM   30  N9  UNL     1      42.249  87.836  -4.473  1.00  0.00    -0.227 N 
ATOM     31  H8  UNL     1      42.183  86.601  -6.139  1.00  0.00     0.210 HD
HETATM   32  N10 UNL     1      41.300  88.532  -3.864  1.00  0.00    -0.268 N 
ATOM     33  H9  UNL     1      43.231  87.793  -4.201  1.00  0.00     0.210 HD
ATOM     34  H10 UNL     1      41.438  89.116  -3.040  1.00  0.00     0.190 HD
ENDBRANCH  22  26
ENDBRANCH  18  19
ENDBRANCH  15  18
ENDBRANCH  11  12
ENDBRANCH  10  11
ENDBRANCH   9  10
ENDBRANCH   5   9
BRANCH   6  35
HETATM   35  N12 UNL     1      29.015  95.185  -1.490  1.00  0.00    -0.071 N 
ATOM     36 3H12 UNL     1      29.087  96.063  -2.004  1.00  0.00     0.274 HD
ATOM     37 2H12 UNL     1      29.158  94.549  -2.274  1.00  0.00     0.274 HD
ATOM     38 1H12 UNL     1      28.102  95.064  -1.052  1.00  0.00     0.274 HD
ENDBRANCH   6  35
BRANCH   1  39
HETATM   39  N3  UNL     1      32.406  91.779   0.693  1.00  0.00    -0.193 N 
ATOM     40  H3  UNL     1      31.696  91.369   1.299  1.00  0.00     0.180 HD
BRANCH  39  41
HETATM   41  C4  UNL     1      33.274  90.928   0.619  1.00  0.00     0.709 A 
HETATM   42  N2  UNL     1      32.980  89.597   0.404  1.00  0.00    -0.021 N 
HETATM   43  C3  UNL     1      33.881  88.628   0.343  1.00  0.00     0.708 A 
ATOM     44  H2  UNL     1      32.000  89.341   0.284  1.00  0.00     0.203 HD
HETATM   45  N16 UNL     1      35.192  88.964   0.500  1.00  0.00    -0.022 N 
HETATM   46  C23 UNL     1      35.548  90.239   0.712  1.00  0.00     0.705 A 
ATOM     47  H16 UNL     1      35.908  88.239   0.457  1.00  0.00     0.203 HD
HETATM   48  N14 UNL     1      34.585  91.185   0.766  1.00  0.00    -0.022 N 
ATOM     49  H14 UNL     1      34.870  92.152   0.926  1.00  0.00     0.203 HD
BRANCH  43  50
HETATM   50  N1  UNL     1      33.554  87.266   0.107  1.00  0.00    -0.225 N 
HETATM   51  C1  UNL     1      32.662  86.933  -0.973  1.00  0.00     0.168 C 
HETATM   52  C2  UNL     1      34.114  86.250   0.964  1.00  0.00     0.168 C 
ENDBRANCH  43  50
BRANCH  46  53
HETATM   53  N15 UNL     1      36.807  90.488   0.845  1.00  0.00    -0.234 N 
ATOM     54 2H15 UNL     1      37.136  90.760   1.771  1.00  0.00     0.174 HD
ATOM     55 1H15 UNL     1      37.482  90.420   0.083  1.00  0.00     0.174 HD
ENDBRANCH  46  53
ENDBRANCH  39  41
ENDBRANCH   1  39
BRANCH   8  56
HETATM   56  N13 UNL     1      31.184  94.613   2.059  1.00  0.00    -0.071 N 
ATOM     57 3H13 UNL     1      32.150  94.515   2.371  1.00  0.00     0.274 HD
ATOM     58 2H13 UNL     1      31.283  95.457   1.495  1.00  0.00     0.274 HD
ATOM     59 1H13 UNL     1      30.552  94.764   2.845  1.00  0.00     0.274 HD
ENDBRANCH   8  56
TORSDOF 13
ENDMDL
MODEL 4
REMARK VINA RESULT: -6.224903190      2.180      2.837
REMARK  13 active torsions:
REMARK  status: ('A' for Active; 'I' for Inactive)
REMARK    1  A    between atoms: N1_2  and  C3_4 
REMARK    2  A    between atoms: C4_7  and  N3_8 
REMARK    3  A    between atoms: N3_8  and  C5_10 
REMARK    4  A    between atoms: C6_14  and  O1_15 
REMARK    5  A    between atoms: O1_15  and  C7_16 
REMARK    6  A    between atoms: C7_16  and  C8_17 
REMARK    7  A    between atoms: C8_17  and  N5_18 
REMARK    8  A    between atoms: N6_21  and  C11_22 
REMARK    9  A    between atoms: C11_22  and  C12_23 
REMARK   10  A    between atoms: C15_26  and  C16_27 
REMARK   11  A    between atoms: C20_41  and  N12_42 
REMARK   12  A    between atoms: C22_47  and  N13_48 
REMARK   13  A    between atoms: C23_54  and  N15_55 
ROOT
HETATM    1  C5  UNL     1      37.798  90.392  -2.450  1.00  0.00     0.333 C 
HETATM    2  N4  UNL     1      38.005  91.357  -1.356  1.00  0.00    -0.023 N 
ATOM      3  H41 UNL     1      38.517  92.196  -1.630  1.00  0.00     0.282 HD
ATOM      4  H42 UNL     1      38.669  91.049  -0.645  1.00  0.00     0.282 HD
HETATM    5  C6  UNL     1      36.622  91.621  -0.835  1.00  0.00     0.354 C 
HETATM    6  C20 UNL     1      35.958  92.538  -1.864  1.00  0.00     0.241 C 
HETATM    7  C21 UNL     1      36.735  92.497  -3.157  1.00  0.00     0.074 C 
HETATM    8  C22 UNL     1      36.935  91.051  -3.524  1.00  0.00     0.236 C 
ENDROOT
BRANCH   5   9
HETATM    9  O1  UNL     1      35.986  90.467  -0.604  1.00  0.00    -0.356 OA
BRANCH   9  10
HETATM   10  C7  UNL     1      35.628  89.981   0.589  1.00  0.00     0.190 C 
BRANCH  10  11
HETATM   11  C8  UNL     1      35.651  88.503   0.799  1.00  0.00     0.148 C 
BRANCH  11  12
HETATM   12  N5  UNL     1      34.470  87.798   0.488  1.00  0.00    -0.385 N 
HETATM   13  C9  UNL     1      33.841  88.131  -0.720  1.00  0.00     0.102 C 
HETATM   14  C10 UNL     1      32.348  88.376  -0.605  1.00  0.00     0.107 C 
HETATM   15  N6  UNL     1      32.033  89.001   0.611  1.00  0.00    -0.361 N 
HETATM   16  C18 UNL     1      32.359  88.156   1.727  1.00  0.00     0.147 C 
HETATM   17  C19 UNL     1      33.671  87.469   1.624  1.00  0.00     0.142 C 
BRANCH  15  18
HETATM   18  C11 UNL     1      30.913  89.829   0.739  1.00  0.00     0.119 C 
BRANCH  18  19
HETATM   19  C12 UNL     1      31.218  91.226   0.366  1.00  0.00     0.047 A 
HETATM   20  C13 UNL     1      32.457  91.787   0.661  1.00  0.00     0.032 A 
HETATM   21  C14 UNL     1      32.780  93.075   0.310  1.00  0.00     0.019 A 
HETATM   22  C15 UNL     1      31.862  93.853  -0.353  1.00  0.00     0.026 A 
HETATM   23  C17 UNL     1      30.643  93.266  -0.630  1.00  0.00     0.103 A 
HETATM   24  N11 UNL     1      30.347  92.005  -0.279  1.00  0.00    -0.364 N 
ATOM     25  H11 UNL     1      29.427  91.629  -0.512  1.00  0.00     0.165 HD
BRANCH  22  26
HETATM   26  C16 UNL     1      32.128  95.238  -0.756  1.00  0.00     0.148 A 
HETATM   27  N7  UNL     1      31.631  96.381  -0.274  1.00  0.00    -0.268 N 
HETATM   28  N8  UNL     1      32.150  97.405  -0.958  1.00  0.00    -0.227 N 
ATOM     29  H7  UNL     1      30.963  96.459   0.492  1.00  0.00     0.190 HD
HETATM   30  N9  UNL     1      32.964  96.925  -1.861  1.00  0.00    -0.227 N 
ATOM     31  H8  UNL     1      31.947  98.393  -0.802  1.00  0.00     0.210 HD
HETATM   32  N10 UNL     1      32.959  95.606  -1.748  1.00  0.00    -0.268 N 
ATOM     33  H9  UNL     1      33.505  97.470  -2.532  1.00  0.00     0.210 HD
ATOM     34  H10 UNL     1      33.503  94.965  -2.326  1.00  0.00     0.190 HD
ENDBRANCH  22  26
ENDBRANCH  18  19
ENDBRANCH  15  18
ENDBRANCH  11  12
ENDBRANCH  10  11
ENDBRANCH   9  10
ENDBRANCH   5   9
BRANCH   6  35
HETATM   35  N12 UNL     1      36.059  93.923  -1.398  1.00  0.00    -0.071 N 
ATOM     36 3H12 UNL     1      37.023  94.203  -1.212  1.00  0.00     0.274 HD
ATOM     37 2H12 UNL     1      35.855  94.598  -2.135  1.00  0.00     0.274 HD
ATOM     38 1H12 UNL     1      35.456  94.042  -0.584  1.00  0.00     0.274 HD
ENDBRANCH   6  35
BRANCH   1  39
HETATM   39  N3  UNL     1      38.897  89.739  -2.916  1.00  0.00    -0.193 N 
ATOM     40  H3  UNL     1      39.670  90.120  -2.371  1.00  0.00     0.180 HD
BRANCH  39  41
HETATM   41  C4  UNL     1      39.417  88.927  -3.659  1.00  0.00     0.709 A 
HETATM   42  N2  UNL     1      38.677  88.128  -4.506  1.00  0.00    -0.021 N 
HETATM   43  C3  UNL     1      39.189  87.211  -5.314  1.00  0.00     0.708 A 
ATOM     44  H2  UNL     1      37.665  88.253  -4.512  1.00  0.00     0.203 HD
HETATM   45  N16 UNL     1      40.540  87.042  -5.313  1.00  0.00    -0.022 N 
HETATM   46  C23 UNL     1      41.319  87.785  -4.515  1.00  0.00     0.705 A 
ATOM     47  H16 UNL     1      40.963  86.344  -5.926  1.00  0.00     0.203 HD
HETATM   48  N14 UNL     1      40.742  88.705  -3.711  1.00  0.00    -0.022 N 
ATOM     49  H14 UNL     1      41.347  89.264  -3.109  1.00  0.00     0.203 HD
BRANCH  43  50
HETATM   50  N1  UNL     1      38.406  86.410  -6.187  1.00  0.00    -0.225 N 
HETATM   51  C1  UNL     1      38.960  85.189  -6.710  1.00  0.00     0.168 C 
HETATM   52  C2  UNL     1      37.077  86.846  -6.538  1.00  0.00     0.168 C 
ENDBRANCH  43  50
BRANCH  46  53
HETATM   53  N15 UNL     1      42.593  87.578  -4.570  1.00  0.00    -0.234 N 
ATOM     54 2H15 UNL     1      42.984  86.895  -3.922  1.00  0.00     0.174 HD
ATOM     55 1H15 UNL     1      43.216  88.051  -5.224  1.00  0.00     0.174 HD
ENDBRANCH  46  53
ENDBRANCH  39  41
ENDBRANCH   1  39
BRANCH   8  56
HETATM   56  N13 UNL     1      35.671  90.403  -3.653  1.00  0.00    -0.071 N 
ATOM     57 3H13 UNL     1      35.308  90.481  -4.603  1.00  0.00     0.274 HD
ATOM     58 2H13 UNL     1      35.765  89.389  -3.601  1.00  0.00     0.274 HD
ATOM     59 1H13 UNL     1      34.999  90.749  -2.968  1.00  0.00     0.274 HD
ENDBRANCH   8  56
TORSDOF 13
ENDMDL
MODEL 5
REMARK VINA RESULT: -6.207759546      2.110      3.876
REMARK  13 active torsions:
REMARK  status: ('A' for Active; 'I' for Inactive)
REMARK    1  A    between atoms: N1_2  and  C3_4 
REMARK    2  A    between atoms: C4_7  and  N3_8 
REMARK    3  A    between atoms: N3_8  and  C5_10 
REMARK    4  A    between atoms: C6_14  and  O1_15 
REMARK    5  A    between atoms: O1_15  and  C7_16 
REMARK    6  A    between atoms: C7_16  and  C8_17 
REMARK    7  A    between atoms: C8_17  and  N5_18 
REMARK    8  A    between atoms: N6_21  and  C11_22 
REMARK    9  A    between atoms: C11_22  and  C12_23 
REMARK   10  A    between atoms: C15_26  and  C16_27 
REMARK   11  A    between atoms: C20_41  and  N12_42 
REMARK   12  A    between atoms: C22_47  and  N13_48 
REMARK   13  A    between atoms: C23_54  and  N15_55 
ROOT
HETATM    1  C5  UNL     1      36.801  90.852  -2.720  1.00  0.00     0.333 C 
HETATM    2  N4  UNL     1      36.123  89.714  -2.073  1.00  0.00    -0.023 N 
ATOM      3  H41 UNL     1      36.757  89.019  -1.680  1.00  0.00     0.282 HD
ATOM      4  H42 UNL     1      35.653  89.083  -2.723  1.00  0.00     0.282 HD
HETATM    5  C6  UNL     1      35.210  90.356  -1.069  1.00  0.00     0.354 C 
HETATM    6  C20 UNL     1      36.110  90.806   0.083  1.00  0.00     0.241 C 
HETATM    7  C21 UNL     1      37.549  90.826  -0.374  1.00  0.00     0.074 C 
HETATM    8  C22 UNL     1      37.608  91.602  -1.661  1.00  0.00     0.236 C 
ENDROOT
BRANCH   5   9
HETATM    9  O1  UNL     1      34.495  91.328  -1.647  1.00  0.00    -0.356 OA
BRANCH   9  10
HETATM   10  C7  UNL     1      33.216  91.630  -1.397  1.00  0.00     0.190 C 
BRANCH  10  11
HETATM   11  C8  UNL     1      32.863  92.217  -0.070  1.00  0.00     0.148 C 
BRANCH  11  12
HETATM   12  N5  UNL     1      32.006  93.337  -0.079  1.00  0.00    -0.385 N 
HETATM   13  C9  UNL     1      31.070  93.401  -1.120  1.00  0.00     0.102 C 
HETATM   14  C10 UNL     1      31.012  94.740  -1.832  1.00  0.00     0.107 C 
HETATM   15  N6  UNL     1      32.288  95.318  -1.922  1.00  0.00    -0.361 N 
HETATM   16  C18 UNL     1      32.817  95.611  -0.618  1.00  0.00     0.147 C 
HETATM   17  C19 UNL     1      32.615  94.540   0.390  1.00  0.00     0.142 C 
BRANCH  15  18
HETATM   18  C11 UNL     1      32.622  96.191  -2.962  1.00  0.00     0.119 C 
BRANCH  18  19
HETATM   19  C12 UNL     1      33.715  95.653  -3.800  1.00  0.00     0.047 A 
HETATM   20  C13 UNL     1      34.319  94.439  -3.489  1.00  0.00     0.032 A 
HETATM   21  C14 UNL     1      35.322  93.902  -4.258  1.00  0.00     0.019 A 
HETATM   22  C15 UNL     1      35.759  94.572  -5.375  1.00  0.00     0.026 A 
HETATM   23  C17 UNL     1      35.139  95.774  -5.654  1.00  0.00     0.103 A 
HETATM   24  N11 UNL     1      34.160  96.282  -4.890  1.00  0.00    -0.364 N 
ATOM     25  H11 UNL     1      33.742  97.175  -5.151  1.00  0.00     0.165 HD
BRANCH  22  26
HETATM   26  C16 UNL     1      36.829  94.068  -6.244  1.00  0.00     0.148 A 
HETATM   27  N7  UNL     1      38.001  93.511  -5.924  1.00  0.00    -0.268 N 
HETATM   28  N8  UNL     1      38.664  93.215  -7.047  1.00  0.00    -0.227 N 
ATOM     29  H7  UNL     1      38.336  93.340  -4.976  1.00  0.00     0.190 HD
HETATM   30  N9  UNL     1      37.929  93.577  -8.065  1.00  0.00    -0.227 N 
ATOM     31  H8  UNL     1      39.585  92.781  -7.100  1.00  0.00     0.210 HD
HETATM   32  N10 UNL     1      36.808  94.098  -7.588  1.00  0.00    -0.268 N 
ATOM     33  H9  UNL     1      38.174  93.476  -9.050  1.00  0.00     0.210 HD
ATOM     34  H10 UNL     1      36.045  94.467  -8.155  1.00  0.00     0.190 HD
ENDBRANCH  22  26
ENDBRANCH  18  19
ENDBRANCH  15  18
ENDBRANCH  11  12
ENDBRANCH  10  11
ENDBRANCH   9  10
ENDBRANCH   5   9
BRANCH   6  35
HETATM   35  N12 UNL     1      36.059  89.798   1.146  1.00  0.00    -0.071 N 
ATOM     36 3H12 UNL     1      35.552  90.126   1.968  1.00  0.00     0.274 HD
ATOM     37 2H12 UNL     1      35.452  89.013   0.908  1.00  0.00     0.274 HD
ATOM     38 1H12 UNL     1      37.010  89.503   1.366  1.00  0.00     0.274 HD
ENDBRANCH   6  35
BRANCH   1  39
HETATM   39  N3  UNL     1      37.467  90.599  -3.878  1.00  0.00    -0.193 N 
ATOM     40  H3  UNL     1      37.041  91.225  -4.561  1.00  0.00     0.180 HD
BRANCH  39  41
HETATM   41  C4  UNL     1      38.320  89.997  -4.506  1.00  0.00     0.709 A 
HETATM   42  N2  UNL     1      38.252  89.846  -5.876  1.00  0.00    -0.021 N 
HETATM   43  C3  UNL     1      39.135  89.179  -6.604  1.00  0.00     0.708 A 
ATOM     44  H2  UNL     1      37.466  90.278  -6.362  1.00  0.00     0.203 HD
HETATM   45  N16 UNL     1      40.188  88.602  -5.961  1.00  0.00    -0.022 N 
HETATM   46  C23 UNL     1      40.316  88.711  -4.631  1.00  0.00     0.705 A 
ATOM     47  H16 UNL     1      40.885  88.084  -6.496  1.00  0.00     0.203 HD
HETATM   48  N14 UNL     1      39.384  89.402  -3.939  1.00  0.00    -0.022 N 
ATOM     49  H14 UNL     1      39.494  89.477  -2.928  1.00  0.00     0.203 HD
BRANCH  43  50
HETATM   50  N1  UNL     1      39.049  89.049  -8.016  1.00  0.00    -0.225 N 
HETATM   51  C1  UNL     1      38.583  87.810  -8.582  1.00  0.00     0.168 C 
HETATM   52  C2  UNL     1      39.441  90.159  -8.849  1.00  0.00     0.168 C 
ENDBRANCH  43  50
BRANCH  46  53
HETATM   53  N15 UNL     1      41.342  88.146  -4.087  1.00  0.00    -0.234 N 
ATOM     54 2H15 UNL     1      42.262  88.512  -4.332  1.00  0.00     0.174 HD
ATOM     55 1H15 UNL     1      41.279  87.369  -3.430  1.00  0.00     0.174 HD
ENDBRANCH  46  53
ENDBRANCH  39  41
ENDBRANCH   1  39
BRANCH   8  56
HETATM   56  N13 UNL     1      37.106  92.922  -1.457  1.00  0.00    -0.071 N 
ATOM     57 3H13 UNL     1      36.140  93.006  -1.773  1.00  0.00     0.274 HD
ATOM     58 2H13 UNL     1      36.967  93.118  -0.465  1.00  0.00     0.274 HD
ATOM     59 1H13 UNL     1      37.703  93.623  -1.894  1.00  0.00     0.274 HD
ENDBRANCH   8  56
TORSDOF 13
ENDMDL
