MODEL 1
REMARK VINA RESULT: -7.217911176      0.000      0.000
REMARK  6 active torsions:
REMARK  status: ('A' for Active; 'I' for Inactive)
REMARK    1  A    between atoms: N1_5  and  C4_6 
REMARK    2  A    between atoms: C4_6  and  C5_7 
REMARK    3  A    between atoms: C5_7  and  N2_8 
REMARK    4  A    between atoms: C6_9  and  N3_10 
REMARK    5  A    between atoms: N3_10  and  N4_12 
REMARK    6  A    between atoms: C7_14  and  C8_15 
ROOT
HETATM    1  N2  UNL     1      29.952  46.555   7.784  1.00  0.00    -0.310 N 
HETATM    2  C6  UNL     1      28.833  46.943   8.366  1.00  0.00     0.168 A 
HETATM    3  S1  UNL     1      28.404  45.613   9.342  1.00  0.00    -0.049 SA
HETATM    4  C12 UNL     1      29.715  44.590   8.950  1.00  0.00     0.052 A 
HETATM    5  C13 UNL     1      30.106  43.293   9.340  1.00  0.00     0.024 A 
HETATM    6  C14 UNL     1      31.257  42.730   8.827  1.00  0.00     0.018 A 
HETATM    7  C15 UNL     1      31.941  43.533   7.940  1.00  0.00     0.090 A 
HETATM    8  N6  UNL     1      31.576  44.740   7.578  1.00  0.00    -0.351 N 
ATOM      9  H6  UNL     1      32.158  45.249   6.913  1.00  0.00     0.166 HD
HETATM   10  C16 UNL     1      30.426  45.350   8.067  1.00  0.00     0.126 A 
ENDROOT
BRANCH   2  11
HETATM   11  N3  UNL     1      28.197  48.094   8.221  1.00  0.00    -0.280 N 
ATOM     12  H3  UNL     1      28.706  48.978   8.253  1.00  0.00     0.189 HD
BRANCH  11  13
HETATM   13  N4  UNL     1      26.811  48.073   8.023  1.00  0.00    -0.308 N 
HETATM   14  C7  UNL     1      26.201  49.102   7.553  1.00  0.00     0.136 C 
ATOM     15  H4  UNL     1      26.281  47.234   8.254  1.00  0.00     0.186 HD
BRANCH  14  16
HETATM   16  C8  UNL     1      24.764  49.092   7.343  1.00  0.00     0.049 A 
HETATM   17  C9  UNL     1      23.944  47.960   7.238  1.00  0.00     0.032 A 
HETATM   18  C10 UNL     1      22.676  48.441   7.046  1.00  0.00     0.019 A 
HETATM   19  C11 UNL     1      22.711  49.810   7.035  1.00  0.00     0.088 A 
HETATM   20  N5  UNL     1      23.989  50.178   7.217  1.00  0.00    -0.365 N 
ATOM     21  H5  UNL     1      24.321  51.142   7.254  1.00  0.00     0.165 HD
ENDBRANCH  14  16
ENDBRANCH  11  13
ENDBRANCH   2  11
BRANCH   1  22
HETATM   22  C5  UNL     1      30.634  47.483   6.842  1.00  0.00     0.152 C 
BRANCH  22  23
HETATM   23  C4  UNL     1      31.607  48.338   7.606  1.00  0.00     0.137 C 
BRANCH  23  24
HETATM   24  N1  UNL     1      32.966  48.057   7.321  1.00  0.00    -0.411 N 
HETATM   25  C3  UNL     1      33.718  47.400   8.329  1.00  0.00     0.118 C 
HETATM   26  C2  UNL     1      35.202  47.739   8.271  1.00  0.00     0.039 C 
HETATM   27  C1  UNL     1      35.601  47.994   6.833  1.00  0.00     0.085 C 
HETATM   28 CL1  UNL     1      35.491  49.718   6.451  1.00  0.00    -0.125 Cl
HETATM   29  C18 UNL     1      34.701  47.186   5.929  1.00  0.00     0.039 C 
HETATM   30  C17 UNL     1      33.310  47.774   5.977  1.00  0.00     0.118 C 
ENDBRANCH  23  24
ENDBRANCH  22  23
ENDBRANCH   1  22
TORSDOF 6
ENDMDL
MODEL 2
REMARK VINA RESULT: -7.161773177      3.526      7.076
REMARK  6 active torsions:
REMARK  status: ('A' for Active; 'I' for Inactive)
REMARK    1  A    between atoms: N1_5  and  C4_6 
REMARK    2  A    between atoms: C4_6  and  C5_7 
REMARK    3  A    between atoms: C5_7  and  N2_8 
REMARK    4  A    between atoms: C6_9  and  N3_10 
REMARK    5  A    between atoms: N3_10  and  N4_12 
REMARK    6  A    between atoms: C7_14  and  C8_15 
ROOT
HETATM    1  N2  UNL     1      30.935  46.712   6.221  1.00  0.00    -0.310 N 
HETATM    2  C6  UNL     1      31.046  47.879   5.614  1.00  0.00     0.168 A 
HETATM    3  S1  UNL     1      29.644  48.719   6.095  1.00  0.00    -0.049 SA
HETATM    4  C12 UNL     1      28.956  47.505   7.080  1.00  0.00     0.052 A 
HETATM    5  C13 UNL     1      27.782  47.408   7.853  1.00  0.00     0.024 A 
HETATM    6  C14 UNL     1      27.507  46.253   8.557  1.00  0.00     0.018 A 
HETATM    7  C15 UNL     1      28.455  45.262   8.426  1.00  0.00     0.090 A 
HETATM    8  N6  UNL     1      29.548  45.353   7.707  1.00  0.00    -0.351 N 
ATOM      9  H6  UNL     1      30.185  44.558   7.679  1.00  0.00     0.166 HD
HETATM   10  C16 UNL     1      29.870  46.495   6.980  1.00  0.00     0.126 A 
ENDROOT
BRANCH   2  11
HETATM   11  N3  UNL     1      32.020  48.293   4.820  1.00  0.00    -0.280 N 
ATOM     12  H3  UNL     1      32.080  47.966   3.856  1.00  0.00     0.189 HD
BRANCH  11  13
HETATM   13  N4  UNL     1      32.966  49.190   5.332  1.00  0.00    -0.308 N 
HETATM   14  C7  UNL     1      34.195  48.840   5.465  1.00  0.00     0.136 C 
ATOM     15  H4  UNL     1      32.677  50.129   5.602  1.00  0.00     0.186 HD
BRANCH  14  16
HETATM   16  C8  UNL     1      35.185  49.761   5.994  1.00  0.00     0.049 A 
HETATM   17  C9  UNL     1      36.211  49.455   6.898  1.00  0.00     0.032 A 
HETATM   18  C10 UNL     1      36.884  50.630   7.104  1.00  0.00     0.019 A 
HETATM   19  C11 UNL     1      36.300  51.619   6.358  1.00  0.00     0.088 A 
HETATM   20  N5  UNL     1      35.273  51.065   5.694  1.00  0.00    -0.365 N 
ATOM     21  H5  UNL     1      34.651  51.562   5.057  1.00  0.00     0.165 HD
ENDBRANCH  14  16
ENDBRANCH  11  13
ENDBRANCH   2  11
BRANCH   1  22
HETATM   22  C5  UNL     1      32.004  45.696   6.033  1.00  0.00     0.152 C 
BRANCH  22  23
HETATM   23  C4  UNL     1      33.018  45.832   7.137  1.00  0.00     0.137 C 
BRANCH  23  24
HETATM   24  N1  UNL     1      33.099  44.701   7.985  1.00  0.00    -0.411 N 
HETATM   25  C3  UNL     1      33.740  43.546   7.467  1.00  0.00     0.118 C 
HETATM   26  C2  UNL     1      33.212  42.255   8.081  1.00  0.00     0.039 C 
HETATM   27  C1  UNL     1      32.787  42.519   9.510  1.00  0.00     0.085 C 
HETATM   28 CL1  UNL     1      31.064  42.915   9.584  1.00  0.00    -0.125 Cl
HETATM   29  C18 UNL     1      33.621  43.648  10.066  1.00  0.00     0.039 C 
HETATM   30  C17 UNL     1      33.220  44.932   9.378  1.00  0.00     0.118 C 
ENDBRANCH  23  24
ENDBRANCH  22  23
ENDBRANCH   1  22
TORSDOF 6
ENDMDL
MODEL 3
REMARK VINA RESULT: -7.154661556      0.919      1.282
REMARK  6 active torsions:
REMARK  status: ('A' for Active; 'I' for Inactive)
REMARK    1  A    between atoms: N1_5  and  C4_6 
REMARK    2  A    between atoms: C4_6  and  C5_7 
REMARK    3  A    between atoms: C5_7  and  N2_8 
REMARK    4  A    between atoms: C6_9  and  N3_10 
REMARK    5  A    between atoms: N3_10  and  N4_12 
REMARK    6  A    between atoms: C7_14  and  C8_15 
ROOT
HETATM    1  N2  UNL     1      29.923  46.467   7.806  1.00  0.00    -0.310 N 
HETATM    2  C6  UNL     1      28.779  46.877   8.320  1.00  0.00     0.168 A 
HETATM    3  S1  UNL     1      28.293  45.578   9.310  1.00  0.00    -0.049 SA
HETATM    4  C12 UNL     1      29.614  44.536   9.013  1.00  0.00     0.052 A 
HETATM    5  C13 UNL     1      29.976  43.249   9.457  1.00  0.00     0.024 A 
HETATM    6  C14 UNL     1      31.147  42.665   9.018  1.00  0.00     0.018 A 
HETATM    7  C15 UNL     1      31.880  43.439   8.145  1.00  0.00     0.090 A 
HETATM    8  N6  UNL     1      31.543  44.637   7.732  1.00  0.00    -0.351 N 
ATOM      9  H6  UNL     1      32.160  45.125   7.083  1.00  0.00     0.166 HD
HETATM   10  C16 UNL     1      30.374  45.268   8.146  1.00  0.00     0.126 A 
ENDROOT
BRANCH   2  11
HETATM   11  N3  UNL     1      28.160  48.028   8.112  1.00  0.00    -0.280 N 
ATOM     12  H3  UNL     1      28.684  48.902   8.073  1.00  0.00     0.189 HD
BRANCH  11  13
HETATM   13  N4  UNL     1      26.769  48.019   7.946  1.00  0.00    -0.308 N 
HETATM   14  C7  UNL     1      26.151  49.072   7.549  1.00  0.00     0.136 C 
ATOM     15  H4  UNL     1      26.243  47.168   8.142  1.00  0.00     0.186 HD
BRANCH  14  16
HETATM   16  C8  UNL     1      24.709  49.075   7.373  1.00  0.00     0.049 A 
HETATM   17  C9  UNL     1      23.869  47.954   7.350  1.00  0.00     0.032 A 
HETATM   18  C10 UNL     1      22.604  48.444   7.160  1.00  0.00     0.019 A 
HETATM   19  C11 UNL     1      22.660  49.810   7.071  1.00  0.00     0.088 A 
HETATM   20  N5  UNL     1      23.948  50.166   7.203  1.00  0.00    -0.365 N 
ATOM     21  H5  UNL     1      24.296  51.124   7.179  1.00  0.00     0.165 HD
ENDBRANCH  14  16
ENDBRANCH  11  13
ENDBRANCH   2  11
BRANCH   1  22
HETATM   22  C5  UNL     1      30.658  47.364   6.874  1.00  0.00     0.152 C 
BRANCH  22  23
HETATM   23  C4  UNL     1      31.599  48.234   7.661  1.00  0.00     0.137 C 
BRANCH  23  24
HETATM   24  N1  UNL     1      32.968  47.980   7.403  1.00  0.00    -0.411 N 
HETATM   25  C3  UNL     1      33.638  48.868   6.522  1.00  0.00     0.118 C 
HETATM   26  C2  UNL     1      34.790  48.202   5.779  1.00  0.00     0.039 C 
HETATM   27  C1  UNL     1      35.400  47.132   6.659  1.00  0.00     0.085 C 
HETATM   28 CL1  UNL     1      34.662  45.558   6.328  1.00  0.00    -0.125 Cl
HETATM   29  C18 UNL     1      35.206  47.522   8.105  1.00  0.00     0.039 C 
HETATM   30  C17 UNL     1      33.738  47.408   8.446  1.00  0.00     0.118 C 
ENDBRANCH  23  24
ENDBRANCH  22  23
ENDBRANCH   1  22
TORSDOF 6
ENDMDL
MODEL 4
REMARK VINA RESULT: -7.043947729      2.600      4.558
REMARK  6 active torsions:
REMARK  status: ('A' for Active; 'I' for Inactive)
REMARK    1  A    between atoms: N1_5  and  C4_6 
REMARK    2  A    between atoms: C4_6  and  C5_7 
REMARK    3  A    between atoms: C5_7  and  N2_8 
REMARK    4  A    between atoms: C6_9  and  N3_10 
REMARK    5  A    between atoms: N3_10  and  N4_12 
REMARK    6  A    between atoms: C7_14  and  C8_15 
ROOT
HETATM    1  N2  UNL     1      29.160  47.609   7.654  1.00  0.00    -0.310 N 
HETATM    2  C6  UNL     1      27.943  48.078   7.455  1.00  0.00     0.168 A 
HETATM    3  S1  UNL     1      28.190  49.428   6.445  1.00  0.00    -0.049 SA
HETATM    4  C12 UNL     1      29.891  49.330   6.319  1.00  0.00     0.052 A 
HETATM    5  C13 UNL     1      30.877  50.086   5.654  1.00  0.00     0.024 A 
HETATM    6  C14 UNL     1      32.208  49.734   5.754  1.00  0.00     0.018 A 
HETATM    7  C15 UNL     1      32.450  48.624   6.533  1.00  0.00     0.090 A 
HETATM    8  N6  UNL     1      31.532  47.921   7.152  1.00  0.00    -0.351 N 
ATOM      9  H6  UNL     1      31.821  47.114   7.705  1.00  0.00     0.166 HD
HETATM   10  C16 UNL     1      30.178  48.235   7.082  1.00  0.00     0.126 A 
ENDROOT
BRANCH   2  11
HETATM   11  N3  UNL     1      26.801  47.607   7.930  1.00  0.00    -0.280 N 
ATOM     12  H3  UNL     1      26.746  46.661   8.309  1.00  0.00     0.189 HD
BRANCH  11  13
HETATM   13  N4  UNL     1      25.672  48.434   7.902  1.00  0.00    -0.308 N 
HETATM   14  C7  UNL     1      24.536  47.978   7.511  1.00  0.00     0.136 C 
ATOM     15  H4  UNL     1      25.752  49.408   8.195  1.00  0.00     0.186 HD
BRANCH  14  16
HETATM   16  C8  UNL     1      23.358  48.827   7.478  1.00  0.00     0.049 A 
HETATM   17  C9  UNL     1      22.024  48.407   7.565  1.00  0.00     0.032 A 
HETATM   18  C10 UNL     1      21.272  49.549   7.490  1.00  0.00     0.019 A 
HETATM   19  C11 UNL     1      22.105  50.629   7.363  1.00  0.00     0.088 A 
HETATM   20  N5  UNL     1      23.364  50.163   7.359  1.00  0.00    -0.365 N 
ATOM     21  H5  UNL     1      24.201  50.739   7.277  1.00  0.00     0.165 HD
ENDBRANCH  14  16
ENDBRANCH  11  13
ENDBRANCH   2  11
BRANCH   1  22
HETATM   22  C5  UNL     1      29.337  46.403   8.505  1.00  0.00     0.152 C 
BRANCH  22  23
HETATM   23  C4  UNL     1      29.507  45.195   7.625  1.00  0.00     0.137 C 
BRANCH  23  24
HETATM   24  N1  UNL     1      30.504  44.294   8.070  1.00  0.00    -0.411 N 
HETATM   25  C3  UNL     1      31.854  44.628   7.787  1.00  0.00     0.118 C 
HETATM   26  C2  UNL     1      32.748  43.401   7.653  1.00  0.00     0.039 C 
HETATM   27  C1  UNL     1      32.234  42.307   8.565  1.00  0.00     0.085 C 
HETATM   28 CL1  UNL     1      31.130  41.235   7.692  1.00  0.00    -0.125 Cl
HETATM   29  C18 UNL     1      31.542  42.943   9.747  1.00  0.00     0.039 C 
HETATM   30  C17 UNL     1      30.258  43.582   9.270  1.00  0.00     0.118 C 
ENDBRANCH  23  24
ENDBRANCH  22  23
ENDBRANCH   1  22
TORSDOF 6
ENDMDL
MODEL 5
REMARK VINA RESULT: -6.952227674      4.306      9.288
REMARK  6 active torsions:
REMARK  status: ('A' for Active; 'I' for Inactive)
REMARK    1  A    between atoms: N1_5  and  C4_6 
REMARK    2  A    between atoms: C4_6  and  C5_7 
REMARK    3  A    between atoms: C5_7  and  N2_8 
REMARK    4  A    between atoms: C6_9  and  N3_10 
REMARK    5  A    between atoms: N3_10  and  N4_12 
REMARK    6  A    between atoms: C7_14  and  C8_15 
ROOT
HETATM    1  N2  UNL     1      34.576  45.662   8.349  1.00  0.00    -0.310 N 
HETATM    2  C6  UNL     1      35.470  45.651   9.319  1.00  0.00     0.168 A 
HETATM    3  S1  UNL     1      34.846  44.518  10.429  1.00  0.00    -0.049 SA
HETATM    4  C12 UNL     1      33.427  44.097   9.577  1.00  0.00     0.052 A 
HETATM    5  C13 UNL     1      32.356  43.214   9.818  1.00  0.00     0.024 A 
HETATM    6  C14 UNL     1      31.329  43.098   8.902  1.00  0.00     0.018 A 
HETATM    7  C15 UNL     1      31.463  43.900   7.789  1.00  0.00     0.090 A 
HETATM    8  N6  UNL     1      32.460  44.722   7.565  1.00  0.00    -0.351 N 
ATOM      9  H6  UNL     1      32.460  45.271   6.706  1.00  0.00     0.166 HD
HETATM   10  C16 UNL     1      33.517  44.873   8.457  1.00  0.00     0.126 A 
ENDROOT
BRANCH   2  11
HETATM   11  N3  UNL     1      36.586  46.356   9.405  1.00  0.00    -0.280 N 
ATOM     12  H3  UNL     1      36.556  47.372   9.486  1.00  0.00     0.189 HD
BRANCH  11  13
HETATM   13  N4  UNL     1      37.811  45.676   9.383  1.00  0.00    -0.308 N 
HETATM   14  C7  UNL     1      38.414  45.449   8.272  1.00  0.00     0.136 C 
ATOM     15  H4  UNL     1      38.228  45.358  10.258  1.00  0.00     0.186 HD
BRANCH  14  16
HETATM   16  C8  UNL     1      39.684  44.746   8.237  1.00  0.00     0.049 A 
HETATM   17  C9  UNL     1      40.328  44.243   7.098  1.00  0.00     0.032 A 
HETATM   18  C10 UNL     1      41.484  43.666   7.553  1.00  0.00     0.019 A 
HETATM   19  C11 UNL     1      41.552  43.807   8.914  1.00  0.00     0.088 A 
HETATM   20  N5  UNL     1      40.447  44.465   9.302  1.00  0.00    -0.365 N 
ATOM     21  H5  UNL     1      40.223  44.715  10.265  1.00  0.00     0.165 HD
ENDBRANCH  14  16
ENDBRANCH  11  13
ENDBRANCH   2  11
BRANCH   1  22
HETATM   22  C5  UNL     1      34.795  46.552   7.177  1.00  0.00     0.152 C 
BRANCH  22  23
HETATM   23  C4  UNL     1      34.230  47.914   7.476  1.00  0.00     0.137 C 
BRANCH  23  24
HETATM   24  N1  UNL     1      32.921  48.116   6.976  1.00  0.00    -0.411 N 
HETATM   25  C3  UNL     1      31.886  48.318   7.926  1.00  0.00     0.118 C 
HETATM   26  C2  UNL     1      30.526  47.849   7.424  1.00  0.00     0.039 C 
HETATM   27  C1  UNL     1      30.457  48.036   5.923  1.00  0.00     0.085 C 
HETATM   28 CL1  UNL     1      30.949  46.556   5.087  1.00  0.00    -0.125 Cl
HETATM   29  C18 UNL     1      31.347  49.192   5.534  1.00  0.00     0.039 C 
HETATM   30  C17 UNL     1      32.789  48.783   5.733  1.00  0.00     0.118 C 
ENDBRANCH  23  24
ENDBRANCH  22  23
ENDBRANCH   1  22
TORSDOF 6
ENDMDL
