MODEL 1
REMARK VINA RESULT: -7.257519296      0.000      0.000
REMARK  6 active torsions:
REMARK  status: ('A' for Active; 'I' for Inactive)
REMARK    1  A    between atoms: N1_1  and  C1_4 
REMARK    2  A    between atoms: N4_10  and  C3_11 
REMARK    3  A    between atoms: N5_14  and  C6_15 
REMARK    4  A    between atoms: C6_15  and  C7_16 
REMARK    5  A    between atoms: C7_16  and  C8_17 
REMARK    6  A    between atoms: C7_16  and  N6_24 
ROOT
HETATM    1  C3  UNL     1      29.685  47.643   7.646  1.00  0.00     0.130 C 
HETATM    2  C4  UNL     1      30.001  46.646   6.521  1.00  0.00     0.058 C 
HETATM    3  C5  UNL     1      31.413  46.905   6.015  1.00  0.00     0.275 C 
HETATM    4  N5  UNL     1      32.234  47.227   7.197  1.00  0.00     0.094 N 
HETATM    5  C19 UNL     1      31.960  48.613   7.463  1.00  0.00     0.275 C 
HETATM    6  C20 UNL     1      30.456  48.892   7.300  1.00  0.00     0.058 C 
ENDROOT
BRANCH   4   7
HETATM    7  C6  UNL     1      33.590  46.858   6.958  1.00  0.00     0.330 C 
BRANCH   7   8
HETATM    8  C7  UNL     1      34.335  46.211   8.050  1.00  0.00     0.046 C 
BRANCH   8   9
HETATM    9  C8  UNL     1      35.770  46.416   8.180  1.00  0.00    -0.012 A 
HETATM   10  C9  UNL     1      36.588  45.484   8.832  1.00  0.00     0.015 A 
HETATM   11  C10 UNL     1      37.938  45.658   8.927  1.00  0.00     0.024 A 
HETATM   12  C11 UNL     1      38.552  46.750   8.390  1.00  0.00     0.034 A 
HETATM   13 CL1  UNL     1      40.299  47.006   8.495  1.00  0.00    -0.084 Cl
HETATM   14  C12 UNL     1      37.801  47.689   7.742  1.00  0.00     0.024 A 
HETATM   15  C13 UNL     1      36.439  47.496   7.657  1.00  0.00     0.015 A 
ENDBRANCH   8   9
BRANCH   8  16
HETATM   16  N6  UNL     1      34.009  44.847   8.304  1.00  0.00    -0.382 N 
HETATM   17  C14 UNL     1      33.097  44.649   9.399  1.00  0.00     0.123 C 
HETATM   18  C15 UNL     1      33.180  43.253   9.896  1.00  0.00     0.020 C 
HETATM   19  C16 UNL     1      33.335  42.201   8.855  1.00  0.00     0.003 C 
HETATM   20  C17 UNL     1      34.165  42.586   7.682  1.00  0.00     0.020 C 
HETATM   21  C18 UNL     1      33.710  43.990   7.238  1.00  0.00     0.123 C 
ENDBRANCH   8  16
ENDBRANCH   7   8
ENDBRANCH   4   7
BRANCH   1  22
HETATM   22  N4  UNL     1      28.262  47.967   7.630  1.00  0.00    -0.118 N 
HETATM   23  C1  UNL     1      27.250  47.287   8.177  1.00  0.00     0.694 A 
HETATM   24  N2  UNL     1      26.078  47.930   7.933  1.00  0.00    -0.185 N 
HETATM   25  C2  UNL     1      26.372  49.026   7.224  1.00  0.00     0.215 A 
ATOM     26  H2  UNL     1      25.150  47.634   8.233  1.00  0.00     0.185 HD
HETATM   27  N3  UNL     1      27.701  49.035   7.047  1.00  0.00    -0.279 N 
ATOM     28  H3  UNL     1      28.214  49.755   6.539  1.00  0.00     0.188 HD
BRANCH  23  29
HETATM   29  N1  UNL     1      27.354  46.190   8.835  1.00  0.00    -0.233 N 
ATOM     30  H12 UNL     1      26.911  45.305   8.590  1.00  0.00     0.174 HD
ATOM     31  H11 UNL     1      27.897  46.079   9.690  1.00  0.00     0.174 HD
ENDBRANCH  23  29
ENDBRANCH   1  22
TORSDOF 6
ENDMDL
MODEL 2
REMARK VINA RESULT: -7.114197604      2.717      4.238
REMARK  6 active torsions:
REMARK  status: ('A' for Active; 'I' for Inactive)
REMARK    1  A    between atoms: N1_1  and  C1_4 
REMARK    2  A    between atoms: N4_10  and  C3_11 
REMARK    3  A    between atoms: N5_14  and  C6_15 
REMARK    4  A    between atoms: C6_15  and  C7_16 
REMARK    5  A    between atoms: C7_16  and  C8_17 
REMARK    6  A    between atoms: C7_16  and  N6_24 
ROOT
HETATM    1  C3  UNL     1      29.745  48.306   7.034  1.00  0.00     0.130 C 
HETATM    2  C4  UNL     1      30.050  47.602   5.704  1.00  0.00     0.058 C 
HETATM    3  C5  UNL     1      31.554  47.623   5.468  1.00  0.00     0.275 C 
HETATM    4  N5  UNL     1      32.190  47.398   6.780  1.00  0.00     0.094 N 
HETATM    5  C19 UNL     1      32.165  48.684   7.422  1.00  0.00     0.275 C 
HETATM    6  C20 UNL     1      30.808  49.366   7.178  1.00  0.00     0.058 C 
ENDROOT
BRANCH   4   7
HETATM    7  C6  UNL     1      33.461  46.778   6.600  1.00  0.00     0.330 C 
BRANCH   7   8
HETATM    8  C7  UNL     1      33.548  45.317   6.755  1.00  0.00     0.046 C 
BRANCH   8   9
HETATM    9  C8  UNL     1      32.633  44.619   7.645  1.00  0.00    -0.012 A 
HETATM   10  C9  UNL     1      33.073  44.037   8.841  1.00  0.00     0.015 A 
HETATM   11  C10 UNL     1      32.211  43.410   9.694  1.00  0.00     0.024 A 
HETATM   12  C11 UNL     1      30.880  43.323   9.418  1.00  0.00     0.034 A 
HETATM   13 CL1  UNL     1      29.735  42.518  10.500  1.00  0.00    -0.084 Cl
HETATM   14  C12 UNL     1      30.398  43.874   8.265  1.00  0.00     0.024 A 
HETATM   15  C13 UNL     1      31.283  44.502   7.417  1.00  0.00     0.015 A 
ENDBRANCH   8   9
BRANCH   8  16
HETATM   16  N6  UNL     1      34.863  44.780   6.883  1.00  0.00    -0.382 N 
HETATM   17  C14 UNL     1      35.189  43.771   5.912  1.00  0.00     0.123 C 
HETATM   18  C15 UNL     1      36.332  42.950   6.382  1.00  0.00     0.020 C 
HETATM   19  C16 UNL     1      37.417  43.689   7.083  1.00  0.00     0.003 C 
HETATM   20  C17 UNL     1      36.967  44.827   7.929  1.00  0.00     0.020 C 
HETATM   21  C18 UNL     1      35.948  45.637   7.104  1.00  0.00     0.123 C 
ENDBRANCH   8  16
ENDBRANCH   7   8
ENDBRANCH   4   7
BRANCH   1  22
HETATM   22  N4  UNL     1      28.447  48.971   6.952  1.00  0.00    -0.118 N 
HETATM   23  C1  UNL     1      27.270  48.553   7.427  1.00  0.00     0.694 A 
HETATM   24  N2  UNL     1      26.308  49.468   7.139  1.00  0.00    -0.185 N 
HETATM   25  C2  UNL     1      26.901  50.467   6.476  1.00  0.00     0.215 A 
ATOM     26  H2  UNL     1      25.319  49.405   7.382  1.00  0.00     0.185 HD
HETATM   27  N3  UNL     1      28.199  50.151   6.370  1.00  0.00    -0.279 N 
ATOM     28  H3  UNL     1      28.902  50.730   5.909  1.00  0.00     0.188 HD
BRANCH  23  29
HETATM   29  N1  UNL     1      27.064  47.456   8.060  1.00  0.00    -0.233 N 
ATOM     30  H12 UNL     1      26.184  46.942   8.089  1.00  0.00     0.174 HD
ATOM     31  H11 UNL     1      27.767  46.968   8.614  1.00  0.00     0.174 HD
ENDBRANCH  23  29
ENDBRANCH   1  22
TORSDOF 6
ENDMDL
MODEL 3
REMARK VINA RESULT: -7.099237301      1.634      2.138
REMARK  6 active torsions:
REMARK  status: ('A' for Active; 'I' for Inactive)
REMARK    1  A    between atoms: N1_1  and  C1_4 
REMARK    2  A    between atoms: N4_10  and  C3_11 
REMARK    3  A    between atoms: N5_14  and  C6_15 
REMARK    4  A    between atoms: C6_15  and  C7_16 
REMARK    5  A    between atoms: C7_16  and  C8_17 
REMARK    6  A    between atoms: C7_16  and  N6_24 
ROOT
HETATM    1  C3  UNL     1      28.440  48.018   6.831  1.00  0.00     0.130 C 
HETATM    2  C4  UNL     1      29.578  48.514   5.927  1.00  0.00     0.058 C 
HETATM    3  C5  UNL     1      30.878  47.853   6.363  1.00  0.00     0.275 C 
HETATM    4  N5  UNL     1      30.545  46.461   6.721  1.00  0.00     0.094 N 
HETATM    5  C19 UNL     1      30.016  46.545   8.054  1.00  0.00     0.275 C 
HETATM    6  C20 UNL     1      29.080  47.759   8.172  1.00  0.00     0.058 C 
ENDROOT
BRANCH   4   7
HETATM    7  C6  UNL     1      31.682  45.625   6.515  1.00  0.00     0.330 C 
BRANCH   7   8
HETATM    8  C7  UNL     1      32.693  45.554   7.582  1.00  0.00     0.046 C 
BRANCH   8   9
HETATM    9  C8  UNL     1      33.951  46.272   7.448  1.00  0.00    -0.012 A 
HETATM   10  C9  UNL     1      34.150  47.523   8.047  1.00  0.00     0.015 A 
HETATM   11  C10 UNL     1      35.340  48.184   7.950  1.00  0.00     0.024 A 
HETATM   12  C11 UNL     1      36.391  47.654   7.263  1.00  0.00     0.034 A 
HETATM   13 CL1  UNL     1      37.947  48.483   7.117  1.00  0.00    -0.084 Cl
HETATM   14  C12 UNL     1      36.250  46.437   6.660  1.00  0.00     0.024 A 
HETATM   15  C13 UNL     1      35.042  45.785   6.769  1.00  0.00     0.015 A 
ENDBRANCH   8   9
BRANCH   8  16
HETATM   16  N6  UNL     1      32.922  44.262   8.140  1.00  0.00    -0.382 N 
HETATM   17  C14 UNL     1      33.468  44.279   9.471  1.00  0.00     0.123 C 
HETATM   18  C15 UNL     1      34.106  42.976   9.784  1.00  0.00     0.020 C 
HETATM   19  C16 UNL     1      33.396  41.768   9.284  1.00  0.00     0.003 C 
HETATM   20  C17 UNL     1      32.720  41.927   7.969  1.00  0.00     0.020 C 
HETATM   21  C18 UNL     1      31.951  43.262   8.006  1.00  0.00     0.123 C 
ENDBRANCH   8  16
ENDBRANCH   7   8
ENDBRANCH   4   7
BRANCH   1  22
HETATM   22  N4  UNL     1      27.447  49.076   6.996  1.00  0.00    -0.118 N 
HETATM   23  C1  UNL     1      26.208  48.982   7.486  1.00  0.00     0.694 A 
HETATM   24  N2  UNL     1      25.611  50.202   7.468  1.00  0.00    -0.185 N 
HETATM   25  C2  UNL     1      26.498  51.065   6.960  1.00  0.00     0.215 A 
ATOM     26  H2  UNL     1      24.666  50.420   7.783  1.00  0.00     0.185 HD
HETATM   27  N3  UNL     1      27.608  50.367   6.678  1.00  0.00    -0.279 N 
ATOM     28  H3  UNL     1      28.457  50.764   6.275  1.00  0.00     0.188 HD
BRANCH  23  29
HETATM   29  N1  UNL     1      25.650  47.906   7.911  1.00  0.00    -0.233 N 
ATOM     30  H12 UNL     1      24.696  47.609   7.707  1.00  0.00     0.174 HD
ATOM     31  H11 UNL     1      26.105  47.219   8.511  1.00  0.00     0.174 HD
ENDBRANCH  23  29
ENDBRANCH   1  22
TORSDOF 6
ENDMDL
MODEL 4
REMARK VINA RESULT: -7.084621279      2.498      4.013
REMARK  6 active torsions:
REMARK  status: ('A' for Active; 'I' for Inactive)
REMARK    1  A    between atoms: N1_1  and  C1_4 
REMARK    2  A    between atoms: N4_10  and  C3_11 
REMARK    3  A    between atoms: N5_14  and  C6_15 
REMARK    4  A    between atoms: C6_15  and  C7_16 
REMARK    5  A    between atoms: C7_16  and  C8_17 
REMARK    6  A    between atoms: C7_16  and  N6_24 
ROOT
HETATM    1  C3  UNL     1      30.080  47.374   7.355  1.00  0.00     0.130 C 
HETATM    2  C4  UNL     1      30.183  46.358   6.209  1.00  0.00     0.058 C 
HETATM    3  C5  UNL     1      31.569  46.456   5.586  1.00  0.00     0.275 C 
HETATM    4  N5  UNL     1      32.517  46.670   6.696  1.00  0.00     0.094 N 
HETATM    5  C19 UNL     1      32.429  48.075   6.983  1.00  0.00     0.275 C 
HETATM    6  C20 UNL     1      30.960  48.528   6.946  1.00  0.00     0.058 C 
ENDROOT
BRANCH   4   7
HETATM    7  C6  UNL     1      33.796  46.148   6.346  1.00  0.00     0.330 C 
BRANCH   7   8
HETATM    8  C7  UNL     1      34.094  44.750   6.694  1.00  0.00     0.046 C 
BRANCH   8   9
HETATM    9  C8  UNL     1      33.439  44.122   7.831  1.00  0.00    -0.012 A 
HETATM   10  C9  UNL     1      33.920  44.285   9.137  1.00  0.00     0.015 A 
HETATM   11  C10 UNL     1      33.289  43.724  10.210  1.00  0.00     0.024 A 
HETATM   12  C11 UNL     1      32.159  42.979  10.056  1.00  0.00     0.034 A 
HETATM   13 CL1  UNL     1      31.316  42.238  11.423  1.00  0.00    -0.084 Cl
HETATM   14  C12 UNL     1      31.647  42.790   8.805  1.00  0.00     0.024 A 
HETATM   15  C13 UNL     1      32.298  43.363   7.735  1.00  0.00     0.015 A 
ENDBRANCH   8   9
BRANCH   8  16
HETATM   16  N6  UNL     1      35.470  44.376   6.652  1.00  0.00    -0.382 N 
HETATM   17  C14 UNL     1      35.718  43.093   6.051  1.00  0.00     0.123 C 
HETATM   18  C15 UNL     1      37.048  42.578   6.461  1.00  0.00     0.020 C 
HETATM   19  C16 UNL     1      38.138  43.587   6.543  1.00  0.00     0.003 C 
HETATM   20  C17 UNL     1      37.723  44.934   7.019  1.00  0.00     0.020 C 
HETATM   21  C18 UNL     1      36.435  45.312   6.261  1.00  0.00     0.123 C 
ENDBRANCH   8  16
ENDBRANCH   7   8
ENDBRANCH   4   7
BRANCH   1  22
HETATM   22  N4  UNL     1      28.707  47.862   7.458  1.00  0.00    -0.118 N 
HETATM   23  C1  UNL     1      27.692  47.342   8.154  1.00  0.00     0.694 A 
HETATM   24  N2  UNL     1      26.579  48.101   7.980  1.00  0.00    -0.185 N 
HETATM   25  C2  UNL     1      26.913  49.106   7.163  1.00  0.00     0.215 A 
ATOM     26  H2  UNL     1      25.661  47.936   8.395  1.00  0.00     0.185 HD
HETATM   27  N3  UNL     1      28.207  48.948   6.854  1.00  0.00    -0.279 N 
ATOM     28  H3  UNL     1      28.738  49.568   6.243  1.00  0.00     0.188 HD
BRANCH  23  29
HETATM   29  N1  UNL     1      27.745  46.286   8.881  1.00  0.00    -0.233 N 
ATOM     30  H12 UNL     1      27.406  45.362   8.614  1.00  0.00     0.174 HD
ATOM     31  H11 UNL     1      28.137  46.251   9.821  1.00  0.00     0.174 HD
ENDBRANCH  23  29
ENDBRANCH   1  22
TORSDOF 6
ENDMDL
MODEL 5
REMARK VINA RESULT: -7.075543949      3.377      6.498
REMARK  6 active torsions:
REMARK  status: ('A' for Active; 'I' for Inactive)
REMARK    1  A    between atoms: N1_1  and  C1_4 
REMARK    2  A    between atoms: N4_10  and  C3_11 
REMARK    3  A    between atoms: N5_14  and  C6_15 
REMARK    4  A    between atoms: C6_15  and  C7_16 
REMARK    5  A    between atoms: C7_16  and  C8_17 
REMARK    6  A    between atoms: C7_16  and  N6_24 
ROOT
HETATM    1  C3  UNL     1      34.951  49.117   6.018  1.00  0.00     0.130 C 
HETATM    2  C4  UNL     1      34.693  48.588   7.436  1.00  0.00     0.058 C 
HETATM    3  C5  UNL     1      33.262  48.073   7.518  1.00  0.00     0.275 C 
HETATM    4  N5  UNL     1      32.979  47.403   6.235  1.00  0.00     0.094 N 
HETATM    5  C19 UNL     1      32.657  48.472   5.330  1.00  0.00     0.275 C 
HETATM    6  C20 UNL     1      33.622  49.650   5.544  1.00  0.00     0.058 C 
ENDROOT
BRANCH   4   7
HETATM    7  C6  UNL     1      32.000  46.386   6.427  1.00  0.00     0.330 C 
BRANCH   7   8
HETATM    8  C7  UNL     1      31.781  45.883   7.793  1.00  0.00     0.046 C 
BRANCH   8   9
HETATM    9  C8  UNL     1      32.534  44.738   8.281  1.00  0.00    -0.012 A 
HETATM   10  C9  UNL     1      32.718  43.591   7.496  1.00  0.00     0.015 A 
HETATM   11  C10 UNL     1      33.451  42.529   7.939  1.00  0.00     0.024 A 
HETATM   12  C11 UNL     1      34.038  42.536   9.168  1.00  0.00     0.034 A 
HETATM   13 CL1  UNL     1      34.994  41.176   9.773  1.00  0.00    -0.084 Cl
HETATM   14  C12 UNL     1      33.891  43.629   9.974  1.00  0.00     0.024 A 
HETATM   15  C13 UNL     1      33.147  44.691   9.510  1.00  0.00     0.015 A 
ENDBRANCH   8   9
BRANCH   8  16
HETATM   16  N6  UNL     1      30.422  45.793   8.215  1.00  0.00    -0.382 N 
HETATM   17  C14 UNL     1      29.513  46.618   7.465  1.00  0.00     0.123 C 
HETATM   18  C15 UNL     1      28.262  46.839   8.232  1.00  0.00     0.020 C 
HETATM   19  C16 UNL     1      27.751  45.667   8.993  1.00  0.00     0.003 C 
HETATM   20  C17 UNL     1      28.796  44.787   9.582  1.00  0.00     0.020 C 
HETATM   21  C18 UNL     1      29.858  44.542   8.491  1.00  0.00     0.123 C 
ENDBRANCH   8  16
ENDBRANCH   7   8
ENDBRANCH   4   7
BRANCH   1  22
HETATM   22  N4  UNL     1      35.895  50.230   6.073  1.00  0.00    -0.118 N 
HETATM   23  C1  UNL     1      37.228  50.190   5.998  1.00  0.00     0.694 A 
HETATM   24  N2  UNL     1      37.732  51.449   6.090  1.00  0.00    -0.185 N 
HETATM   25  C2  UNL     1      36.691  52.279   6.224  1.00  0.00     0.215 A 
ATOM     26  H2  UNL     1      38.717  51.712   6.062  1.00  0.00     0.185 HD
HETATM   27  N3  UNL     1      35.583  51.524   6.212  1.00  0.00    -0.279 N 
ATOM     28  H3  UNL     1      34.633  51.887   6.298  1.00  0.00     0.188 HD
BRANCH  23  29
HETATM   29  N1  UNL     1      37.940  49.131   5.860  1.00  0.00    -0.233 N 
ATOM     30  H12 UNL     1      38.640  48.974   5.135  1.00  0.00     0.174 HD
ATOM     31  H11 UNL     1      37.884  48.314   6.468  1.00  0.00     0.174 HD
ENDBRANCH  23  29
ENDBRANCH   1  22
TORSDOF 6
ENDMDL
