MODEL 1
REMARK VINA RESULT: -6.746821688      0.000      0.000
REMARK  7 active torsions:
REMARK  status: ('A' for Active; 'I' for Inactive)
REMARK    1  A    between atoms: C2_2  and  O1_3 
REMARK    2  A    between atoms: O1_3  and  C3_4 
REMARK    3  A    between atoms: C3_4  and  C4_6 
REMARK    4  A    between atoms: C7_9  and  O3_10 
REMARK    5  A    between atoms: C10_16  and  C11_17 
REMARK    6  A    between atoms: C11_17  and  C12_19 
REMARK    7  A    between atoms: C12_19  and  C13_20 
ROOT
HETATM    1  C4  UNL     1      30.049  46.702   7.306  1.00  0.00     0.054 C 
HETATM    2  C5  UNL     1      28.705  47.447   7.227  1.00  0.00     0.027 C 
HETATM    3  C6  UNL     1      30.295  46.115   5.956  1.00  0.00     0.054 C 
HETATM    4  C7  UNL     1      31.700  45.875   5.579  1.00  0.00     0.153 C 
HETATM    5  C8  UNL     1      32.737  46.093   6.599  1.00  0.00     0.190 C 
HETATM    6  O4  UNL     1      33.272  44.844   7.085  1.00  0.00    -0.308 OA
HETATM    7  C9  UNL     1      34.186  44.698   8.157  1.00  0.00     0.266 C 
HETATM    8  O5  UNL     1      34.155  43.633   8.821  1.00  0.00    -0.265 OA
HETATM    9  C10 UNL     1      35.153  45.772   8.490  1.00  0.00     0.123 C 
HETATM   10  C17 UNL     1      34.488  46.872   9.260  1.00  0.00     0.045 C 
HETATM   11  C18 UNL     1      33.156  47.247   8.777  1.00  0.00    -0.020 C 
HETATM   12  C19 UNL     1      32.395  46.973   7.723  1.00  0.00    -0.047 C 
HETATM   13  C20 UNL     1      31.086  47.665   7.760  1.00  0.00     0.031 C 
HETATM   14  C21 UNL     1      31.091  48.947   6.957  1.00  0.00     0.016 C 
ENDROOT
BRANCH   9  15
HETATM   15  C11 UNL     1      36.269  45.192   9.326  1.00  0.00     0.186 C 
HETATM   16  F1  UNL     1      36.139  45.583  10.660  1.00  0.00    -0.248 F 
BRANCH  15  17
HETATM   17  C12 UNL     1      37.583  45.809   8.825  1.00  0.00     0.073 C 
BRANCH  17  18
HETATM   18  C13 UNL     1      37.581  45.974   7.327  1.00  0.00     0.159 A 
HETATM   19  O6  UNL     1      38.892  46.422   6.849  1.00  0.00    -0.370 OA
HETATM   20  C14 UNL     1      37.845  47.318   6.713  1.00  0.00     0.080 A 
HETATM   21  C15 UNL     1      37.792  48.510   7.635  1.00  0.00     0.048 C 
HETATM   22  C16 UNL     1      37.257  47.510   5.314  1.00  0.00     0.048 C 
ENDBRANCH  17  18
ENDBRANCH  15  17
ENDBRANCH   9  15
BRANCH   4  23
HETATM   23  O3  UNL     1      32.025  46.566   4.382  1.00  0.00    -0.393 OA
ATOM     24  H3  UNL     1      32.146  45.957   3.663  1.00  0.00     0.210 HD
ENDBRANCH   4  23
BRANCH   1  25
HETATM   25  C3  UNL     1      29.873  45.647   8.320  1.00  0.00     0.268 C 
HETATM   26  O2  UNL     1      29.430  45.930   9.447  1.00  0.00    -0.264 OA
BRANCH  25  27
HETATM   27  O1  UNL     1      30.200  44.340   8.027  1.00  0.00    -0.321 OA
BRANCH  27  28
HETATM   28  C2  UNL     1      30.621  43.431   9.054  1.00  0.00     0.174 C 
HETATM   29  C1  UNL     1      30.992  42.136   8.345  1.00  0.00     0.034 C 
ENDBRANCH  27  28
ENDBRANCH  25  27
ENDBRANCH   1  25
TORSDOF 7
ENDMDL
MODEL 2
REMARK VINA RESULT: -6.729340860      2.631      6.495
REMARK  7 active torsions:
REMARK  status: ('A' for Active; 'I' for Inactive)
REMARK    1  A    between atoms: C2_2  and  O1_3 
REMARK    2  A    between atoms: O1_3  and  C3_4 
REMARK    3  A    between atoms: C3_4  and  C4_6 
REMARK    4  A    between atoms: C7_9  and  O3_10 
REMARK    5  A    between atoms: C10_16  and  C11_17 
REMARK    6  A    between atoms: C11_17  and  C12_19 
REMARK    7  A    between atoms: C12_19  and  C13_20 
ROOT
HETATM    1  C4  UNL     1      36.011  44.385   7.388  1.00  0.00     0.054 C 
HETATM    2  C5  UNL     1      37.370  44.203   6.689  1.00  0.00     0.027 C 
HETATM    3  C6  UNL     1      36.272  45.146   8.645  1.00  0.00     0.054 C 
HETATM    4  C7  UNL     1      35.157  45.946   9.183  1.00  0.00     0.153 C 
HETATM    5  C8  UNL     1      33.843  45.825   8.535  1.00  0.00     0.190 C 
HETATM    6  O4  UNL     1      32.918  45.072   9.349  1.00  0.00    -0.308 OA
HETATM    7  C9  UNL     1      31.619  44.665   8.961  1.00  0.00     0.266 C 
HETATM    8  O5  UNL     1      31.149  43.619   9.471  1.00  0.00    -0.265 OA
HETATM    9  C10 UNL     1      30.831  45.449   7.979  1.00  0.00     0.123 C 
HETATM   10  C17 UNL     1      31.291  45.173   6.581  1.00  0.00     0.045 C 
HETATM   11  C18 UNL     1      32.745  45.088   6.413  1.00  0.00    -0.020 C 
HETATM   12  C19 UNL     1      33.821  45.333   7.152  1.00  0.00    -0.047 C 
HETATM   13  C20 UNL     1      35.088  45.057   6.437  1.00  0.00     0.031 C 
HETATM   14  C21 UNL     1      35.684  46.305   5.822  1.00  0.00     0.016 C 
ENDROOT
BRANCH   9  15
HETATM   15  C11 UNL     1      29.373  45.075   8.101  1.00  0.00     0.186 C 
HETATM   16  F1  UNL     1      28.954  44.359   6.977  1.00  0.00    -0.248 F 
BRANCH  15  17
HETATM   17  C12 UNL     1      28.565  46.381   8.102  1.00  0.00     0.073 C 
BRANCH  17  18
HETATM   18  C13 UNL     1      29.121  47.376   7.115  1.00  0.00     0.159 A 
HETATM   19  O6  UNL     1      29.452  48.640   7.779  1.00  0.00    -0.370 OA
HETATM   20  C14 UNL     1      28.409  48.674   6.868  1.00  0.00     0.080 A 
HETATM   21  C15 UNL     1      26.999  48.788   7.390  1.00  0.00     0.048 C 
HETATM   22  C16 UNL     1      28.685  49.305   5.503  1.00  0.00     0.048 C 
ENDBRANCH  17  18
ENDBRANCH  15  17
ENDBRANCH   9  15
BRANCH   4  23
HETATM   23  O3  UNL     1      35.529  47.311   9.305  1.00  0.00    -0.393 OA
ATOM     24  H3  UNL     1      34.864  47.801   9.773  1.00  0.00     0.210 HD
ENDBRANCH   4  23
BRANCH   1  25
HETATM   25  C3  UNL     1      35.518  43.027   7.682  1.00  0.00     0.268 C 
HETATM   26  O2  UNL     1      35.267  42.238   6.755  1.00  0.00    -0.264 OA
BRANCH  25  27
HETATM   27  O1  UNL     1      35.330  42.624   8.987  1.00  0.00    -0.321 OA
BRANCH  27  28
HETATM   28  C2  UNL     1      34.281  41.711   9.339  1.00  0.00     0.174 C 
HETATM   29  C1  UNL     1      34.947  40.579  10.108  1.00  0.00     0.034 C 
ENDBRANCH  27  28
ENDBRANCH  25  27
ENDBRANCH   1  25
TORSDOF 7
ENDMDL
MODEL 3
REMARK VINA RESULT: -6.695022360      2.290      6.648
REMARK  7 active torsions:
REMARK  status: ('A' for Active; 'I' for Inactive)
REMARK    1  A    between atoms: C2_2  and  O1_3 
REMARK    2  A    between atoms: O1_3  and  C3_4 
REMARK    3  A    between atoms: C3_4  and  C4_6 
REMARK    4  A    between atoms: C7_9  and  O3_10 
REMARK    5  A    between atoms: C10_16  and  C11_17 
REMARK    6  A    between atoms: C11_17  and  C12_19 
REMARK    7  A    between atoms: C12_19  and  C13_20 
ROOT
HETATM    1  C4  UNL     1      36.246  46.624   6.264  1.00  0.00     0.054 C 
HETATM    2  C5  UNL     1      37.214  46.958   5.116  1.00  0.00     0.027 C 
HETATM    3  C6  UNL     1      35.910  47.915   6.933  1.00  0.00     0.054 C 
HETATM    4  C7  UNL     1      34.616  47.985   7.636  1.00  0.00     0.153 C 
HETATM    5  C8  UNL     1      33.823  46.752   7.750  1.00  0.00     0.190 C 
HETATM    6  O4  UNL     1      33.854  46.225   9.094  1.00  0.00    -0.308 OA
HETATM    7  C9  UNL     1      33.306  44.987   9.509  1.00  0.00     0.266 C 
HETATM    8  O5  UNL     1      33.834  44.403  10.486  1.00  0.00    -0.265 OA
HETATM    9  C10 UNL     1      32.140  44.394   8.811  1.00  0.00     0.123 C 
HETATM   10  C17 UNL     1      32.559  43.734   7.533  1.00  0.00     0.045 C 
HETATM   11  C18 UNL     1      33.548  44.478   6.748  1.00  0.00    -0.020 C 
HETATM   12  C19 UNL     1      34.099  45.687   6.779  1.00  0.00    -0.047 C 
HETATM   13  C20 UNL     1      35.079  45.903   5.691  1.00  0.00     0.031 C 
HETATM   14  C21 UNL     1      34.471  46.618   4.503  1.00  0.00     0.016 C 
ENDROOT
BRANCH   9  15
HETATM   15  C11 UNL     1      31.496  43.364   9.708  1.00  0.00     0.186 C 
HETATM   16  F1  UNL     1      31.919  42.078   9.364  1.00  0.00    -0.248 F 
BRANCH  15  17
HETATM   17  C12 UNL     1      29.985  43.404   9.438  1.00  0.00     0.073 C 
BRANCH  17  18
HETATM   18  C13 UNL     1      29.399  44.752   9.770  1.00  0.00     0.159 A 
HETATM   19  O6  UNL     1      27.954  44.768   9.521  1.00  0.00    -0.370 OA
HETATM   20  C14 UNL     1      28.732  45.571   8.703  1.00  0.00     0.080 A 
HETATM   21  C15 UNL     1      28.958  45.142   7.275  1.00  0.00     0.048 C 
HETATM   22  C16 UNL     1      28.716  47.077   8.969  1.00  0.00     0.048 C 
ENDBRANCH  17  18
ENDBRANCH  15  17
ENDBRANCH   9  15
BRANCH   4  23
HETATM   23  O3  UNL     1      33.821  49.044   7.123  1.00  0.00    -0.393 OA
ATOM     24  H3  UNL     1      32.897  48.855   7.234  1.00  0.00     0.210 HD
ENDBRANCH   4  23
BRANCH   1  25
HETATM   25  C3  UNL     1      36.983  45.730   7.174  1.00  0.00     0.268 C 
HETATM   26  O2  UNL     1      37.182  44.543   6.861  1.00  0.00    -0.264 OA
BRANCH  25  27
HETATM   27  O1  UNL     1      37.456  46.203   8.380  1.00  0.00    -0.321 OA
BRANCH  27  28
HETATM   28  C2  UNL     1      38.862  46.235   8.666  1.00  0.00     0.174 C 
HETATM   29  C1  UNL     1      39.349  47.611   8.234  1.00  0.00     0.034 C 
ENDBRANCH  27  28
ENDBRANCH  25  27
ENDBRANCH   1  25
TORSDOF 7
ENDMDL
MODEL 4
REMARK VINA RESULT: -6.682767412      2.762      7.400
REMARK  7 active torsions:
REMARK  status: ('A' for Active; 'I' for Inactive)
REMARK    1  A    between atoms: C2_2  and  O1_3 
REMARK    2  A    between atoms: O1_3  and  C3_4 
REMARK    3  A    between atoms: C3_4  and  C4_6 
REMARK    4  A    between atoms: C7_9  and  O3_10 
REMARK    5  A    between atoms: C10_16  and  C11_17 
REMARK    6  A    between atoms: C11_17  and  C12_19 
REMARK    7  A    between atoms: C12_19  and  C13_20 
ROOT
HETATM    1  C4  UNL     1      35.009  45.011   8.164  1.00  0.00     0.054 C 
HETATM    2  C5  UNL     1      36.449  44.884   8.693  1.00  0.00     0.027 C 
HETATM    3  C6  UNL     1      34.327  43.716   8.457  1.00  0.00     0.054 C 
HETATM    4  C7  UNL     1      32.861  43.753   8.605  1.00  0.00     0.153 C 
HETATM    5  C8  UNL     1      32.168  45.018   8.316  1.00  0.00     0.190 C 
HETATM    6  O4  UNL     1      31.448  44.954   7.066  1.00  0.00    -0.308 OA
HETATM    7  C9  UNL     1      30.788  46.036   6.436  1.00  0.00     0.266 C 
HETATM    8  O5  UNL     1      30.687  46.022   5.186  1.00  0.00    -0.265 OA
HETATM    9  C10 UNL     1      30.231  47.159   7.229  1.00  0.00     0.123 C 
HETATM   10  C17 UNL     1      31.311  48.111   7.642  1.00  0.00     0.045 C 
HETATM   11  C18 UNL     1      32.554  47.478   8.093  1.00  0.00    -0.020 C 
HETATM   12  C19 UNL     1      32.966  46.248   8.382  1.00  0.00    -0.047 C 
HETATM   13  C20 UNL     1      34.384  46.198   8.805  1.00  0.00     0.031 C 
HETATM   14  C21 UNL     1      34.535  46.202  10.310  1.00  0.00     0.016 C 
ENDROOT
BRANCH   9  15
HETATM   15  C11 UNL     1      29.215  47.901   6.393  1.00  0.00     0.186 C 
HETATM   16  F1  UNL     1      29.726  49.133   5.977  1.00  0.00    -0.248 F 
BRANCH  15  17
HETATM   17  C12 UNL     1      28.019  48.218   7.302  1.00  0.00     0.073 C 
BRANCH  17  18
HETATM   18  C13 UNL     1      27.250  49.415   6.806  1.00  0.00     0.159 A 
HETATM   19  O6  UNL     1      26.677  50.167   7.926  1.00  0.00    -0.370 OA
HETATM   20  C14 UNL     1      25.779  49.536   7.081  1.00  0.00     0.080 A 
HETATM   21  C15 UNL     1      25.074  48.297   7.572  1.00  0.00     0.048 C 
HETATM   22  C16 UNL     1      25.012  50.409   6.086  1.00  0.00     0.048 C 
ENDBRANCH  17  18
ENDBRANCH  15  17
ENDBRANCH   9  15
BRANCH   4  23
HETATM   23  O3  UNL     1      32.470  43.250   9.874  1.00  0.00    -0.393 OA
ATOM     24  H3  UNL     1      33.201  42.825  10.307  1.00  0.00     0.210 HD
ENDBRANCH   4  23
BRANCH   1  25
HETATM   25  C3  UNL     1      35.125  45.234   6.712  1.00  0.00     0.268 C 
HETATM   26  O2  UNL     1      34.893  44.308   5.916  1.00  0.00    -0.264 OA
BRANCH  25  27
HETATM   27  O1  UNL     1      35.495  46.471   6.227  1.00  0.00    -0.321 OA
BRANCH  27  28
HETATM   28  C2  UNL     1      35.315  46.811   4.844  1.00  0.00     0.174 C 
HETATM   29  C1  UNL     1      33.947  47.472   4.748  1.00  0.00     0.034 C 
ENDBRANCH  27  28
ENDBRANCH  25  27
ENDBRANCH   1  25
TORSDOF 7
ENDMDL
MODEL 5
REMARK VINA RESULT: -6.676899708      0.988      1.308
REMARK  7 active torsions:
REMARK  status: ('A' for Active; 'I' for Inactive)
REMARK    1  A    between atoms: C2_2  and  O1_3 
REMARK    2  A    between atoms: O1_3  and  C3_4 
REMARK    3  A    between atoms: C3_4  and  C4_6 
REMARK    4  A    between atoms: C7_9  and  O3_10 
REMARK    5  A    between atoms: C10_16  and  C11_17 
REMARK    6  A    between atoms: C11_17  and  C12_19 
REMARK    7  A    between atoms: C12_19  and  C13_20 
ROOT
HETATM    1  C4  UNL     1      30.024  46.525   7.345  1.00  0.00     0.054 C 
HETATM    2  C5  UNL     1      28.643  47.201   7.283  1.00  0.00     0.027 C 
HETATM    3  C6  UNL     1      30.308  46.000   5.977  1.00  0.00     0.054 C 
HETATM    4  C7  UNL     1      31.726  45.848   5.602  1.00  0.00     0.153 C 
HETATM    5  C8  UNL     1      32.744  46.084   6.637  1.00  0.00     0.190 C 
HETATM    6  O4  UNL     1      33.342  44.847   7.082  1.00  0.00    -0.308 OA
HETATM    7  C9  UNL     1      34.255  44.711   8.155  1.00  0.00     0.266 C 
HETATM    8  O5  UNL     1      34.277  43.623   8.780  1.00  0.00    -0.265 OA
HETATM    9  C10 UNL     1      35.164  45.821   8.533  1.00  0.00     0.123 C 
HETATM   10  C17 UNL     1      34.438  46.856   9.336  1.00  0.00     0.045 C 
HETATM   11  C18 UNL     1      33.091  47.179   8.857  1.00  0.00    -0.020 C 
HETATM   12  C19 UNL     1      32.350  46.904   7.789  1.00  0.00    -0.047 C 
HETATM   13  C20 UNL     1      31.007  47.524   7.841  1.00  0.00     0.031 C 
HETATM   14  C21 UNL     1      30.949  48.833   7.083  1.00  0.00     0.016 C 
ENDROOT
BRANCH   9  15
HETATM   15  C11 UNL     1      36.304  45.270   9.355  1.00  0.00     0.186 C 
HETATM   16  F1  UNL     1      36.156  45.622  10.700  1.00  0.00    -0.248 F 
BRANCH  15  17
HETATM   17  C12 UNL     1      37.589  45.958   8.872  1.00  0.00     0.073 C 
BRANCH  17  18
HETATM   18  C13 UNL     1      37.906  45.597   7.444  1.00  0.00     0.159 A 
HETATM   19  O6  UNL     1      37.955  44.143   7.272  1.00  0.00    -0.370 OA
HETATM   20  C14 UNL     1      39.150  44.824   7.117  1.00  0.00     0.080 A 
HETATM   21  C15 UNL     1      40.189  44.715   8.204  1.00  0.00     0.048 C 
HETATM   22  C16 UNL     1      39.671  45.023   5.693  1.00  0.00     0.048 C 
ENDBRANCH  17  18
ENDBRANCH  15  17
ENDBRANCH   9  15
BRANCH   4  23
HETATM   23  O3  UNL     1      32.020  46.598   4.433  1.00  0.00    -0.393 OA
ATOM     24  H3  UNL     1      32.241  47.495   4.654  1.00  0.00     0.210 HD
ENDBRANCH   4  23
BRANCH   1  25
HETATM   25  C3  UNL     1      29.898  45.427   8.319  1.00  0.00     0.268 C 
HETATM   26  O2  UNL     1      29.451  45.649   9.458  1.00  0.00    -0.264 OA
BRANCH  25  27
HETATM   27  O1  UNL     1      30.277  44.146   7.976  1.00  0.00    -0.321 OA
BRANCH  27  28
HETATM   28  C2  UNL     1      30.675  43.196   8.974  1.00  0.00     0.174 C 
HETATM   29  C1  UNL     1      31.237  42.000   8.218  1.00  0.00     0.034 C 
ENDBRANCH  27  28
ENDBRANCH  25  27
ENDBRANCH   1  25
TORSDOF 7
ENDMDL
