MODEL 1
REMARK VINA RESULT: -6.590827725      0.000      0.000
REMARK  8 active torsions:
REMARK  status: ('A' for Active; 'I' for Inactive)
REMARK    1  A    between atoms: C3_4  and  C4_5 
REMARK    2  A    between atoms: C5_6  and  C6_7 
REMARK    3  A    between atoms: C6_7  and  O3_9 
REMARK    4  A    between atoms: O3_9  and  C7_10 
REMARK    5  A    between atoms: C7_10  and  C8_11 
REMARK    6  A    between atoms: C14_19  and  N1_20 
REMARK       I    between atoms: N1_20  and  C15_22 
REMARK    7  A    between atoms: C15_22  and  O6_24 
REMARK    8  A    between atoms: O6_24  and  C16_25 
ROOT
HETATM    1  C1  UNL     1      34.296  44.866  10.797  1.00  0.00     0.042 C 
HETATM    2  C2  UNL     1      33.925  45.267   9.389  1.00  0.00     0.149 C 
HETATM    3  O1  UNL     1      32.566  44.941   9.200  1.00  0.00    -0.344 OA
HETATM    4  C3  UNL     1      32.162  43.645   8.894  1.00  0.00     0.067 C 
HETATM    5  C12 UNL     1      32.924  43.062   7.962  1.00  0.00     0.032 C 
HETATM    6  C13 UNL     1      34.062  43.793   7.365  1.00  0.00     0.133 C 
HETATM    7 CL1  UNL     1      35.193  42.593   6.700  1.00  0.00    -0.118 Cl
HETATM    8  C14 UNL     1      34.822  44.613   8.373  1.00  0.00     0.138 C 
ENDROOT
BRANCH   4   9
HETATM    9  C4  UNL     1      31.067  42.925   9.459  1.00  0.00     0.042 C 
HETATM   10  C5  UNL     1      29.829  43.251   9.671  1.00  0.00     0.085 C 
BRANCH  10  11
HETATM   11  C6  UNL     1      29.119  44.470   9.406  1.00  0.00     0.283 C 
HETATM   12  O2  UNL     1      28.306  45.052  10.139  1.00  0.00    -0.260 OA
BRANCH  11  13
HETATM   13  O3  UNL     1      29.343  45.124   8.166  1.00  0.00    -0.316 OA
BRANCH  13  14
HETATM   14  C7  UNL     1      29.464  46.540   8.106  1.00  0.00     0.211 C 
BRANCH  14  15
HETATM   15  C8  UNL     1      30.025  46.855   6.715  1.00  0.00     0.145 C 
HETATM   16  C9  UNL     1      31.151  47.845   6.807  1.00  0.00     0.036 C 
HETATM   17  C10 UNL     1      32.348  47.003   6.420  1.00  0.00     0.029 C 
HETATM   18  C11 UNL     1      31.704  45.955   5.537  1.00  0.00     0.168 C 
HETATM   19  O4  UNL     1      30.529  45.674   6.217  1.00  0.00    -0.384 OA
ENDBRANCH  14  15
ENDBRANCH  13  14
ENDBRANCH  11  13
ENDBRANCH  10  11
ENDBRANCH   4   9
BRANCH   8  20
HETATM   20  N1  UNL     1      35.644  45.552   7.640  1.00  0.00    -0.328 N 
HETATM   21  C15 UNL     1      36.897  46.017   8.113  1.00  0.00     0.361 C 
HETATM   22  O5  UNL     1      37.303  45.588   9.221  1.00  0.00    -0.238 OA
ATOM     23  H1  UNL     1      35.306  45.895   6.741  1.00  0.00     0.165 HD
BRANCH  21  24
HETATM   24  O6  UNL     1      37.682  46.899   7.438  1.00  0.00    -0.294 OA
BRANCH  24  25
HETATM   25  C16 UNL     1      37.379  48.223   7.123  1.00  0.00     0.061 C 
HETATM   26  C17 UNL     1      37.070  48.282   5.635  1.00  0.00     0.046 C 
HETATM   27  C18 UNL     1      36.203  48.794   7.846  1.00  0.00     0.046 C 
HETATM   28  C19 UNL     1      38.563  49.144   7.354  1.00  0.00     0.046 C 
ENDBRANCH  24  25
ENDBRANCH  21  24
ENDBRANCH   8  20
TORSDOF 8
ENDMDL
MODEL 2
REMARK VINA RESULT: -6.462878015      1.692      2.196
REMARK  8 active torsions:
REMARK  status: ('A' for Active; 'I' for Inactive)
REMARK    1  A    between atoms: C3_4  and  C4_5 
REMARK    2  A    between atoms: C5_6  and  C6_7 
REMARK    3  A    between atoms: C6_7  and  O3_9 
REMARK    4  A    between atoms: O3_9  and  C7_10 
REMARK    5  A    between atoms: C7_10  and  C8_11 
REMARK    6  A    between atoms: C14_19  and  N1_20 
REMARK       I    between atoms: N1_20  and  C15_22 
REMARK    7  A    between atoms: C15_22  and  O6_24 
REMARK    8  A    between atoms: O6_24  and  C16_25 
ROOT
HETATM    1  C1  UNL     1      35.198  44.146   9.049  1.00  0.00     0.042 C 
HETATM    2  C2  UNL     1      34.356  45.377   8.811  1.00  0.00     0.149 C 
HETATM    3  O1  UNL     1      33.049  45.088   9.258  1.00  0.00    -0.344 OA
HETATM    4  C3  UNL     1      32.152  44.371   8.473  1.00  0.00     0.067 C 
HETATM    5  C12 UNL     1      32.140  44.763   7.194  1.00  0.00     0.032 C 
HETATM    6  C13 UNL     1      33.024  45.859   6.743  1.00  0.00     0.133 C 
HETATM    7 CL1  UNL     1      33.240  45.697   4.985  1.00  0.00    -0.118 Cl
HETATM    8  C14 UNL     1      34.392  45.801   7.368  1.00  0.00     0.138 C 
ENDROOT
BRANCH   4   9
HETATM    9  C4  UNL     1      31.292  43.312   8.892  1.00  0.00     0.042 C 
HETATM   10  C5  UNL     1      30.056  43.302   9.290  1.00  0.00     0.085 C 
BRANCH  10  11
HETATM   11  C6  UNL     1      29.111  44.370   9.451  1.00  0.00     0.283 C 
HETATM   12  O2  UNL     1      28.440  44.647  10.457  1.00  0.00    -0.260 OA
BRANCH  11  13
HETATM   13  O3  UNL     1      28.884  45.239   8.352  1.00  0.00    -0.316 OA
BRANCH  13  14
HETATM   14  C7  UNL     1      27.779  46.134   8.355  1.00  0.00     0.211 C 
BRANCH  14  15
HETATM   15  C8  UNL     1      28.372  47.533   8.159  1.00  0.00     0.145 C 
HETATM   16  C9  UNL     1      29.803  47.446   7.707  1.00  0.00     0.036 C 
HETATM   17  C10 UNL     1      29.719  47.957   6.284  1.00  0.00     0.029 C 
HETATM   18  C11 UNL     1      28.511  48.864   6.362  1.00  0.00     0.168 C 
HETATM   19  O4  UNL     1      27.641  48.135   7.159  1.00  0.00    -0.384 OA
ENDBRANCH  14  15
ENDBRANCH  13  14
ENDBRANCH  11  13
ENDBRANCH  10  11
ENDBRANCH   4   9
BRANCH   8  20
HETATM   20  N1  UNL     1      35.021  47.088   7.161  1.00  0.00    -0.328 N 
HETATM   21  C15 UNL     1      36.230  47.252   6.441  1.00  0.00     0.361 C 
HETATM   22  O5  UNL     1      36.773  46.225   5.964  1.00  0.00    -0.238 OA
ATOM     23  H1  UNL     1      34.572  47.917   7.552  1.00  0.00     0.165 HD
BRANCH  21  24
HETATM   24  O6  UNL     1      36.835  48.452   6.236  1.00  0.00    -0.294 OA
BRANCH  24  25
HETATM   25  C16 UNL     1      37.822  49.041   7.027  1.00  0.00     0.061 C 
HETATM   26  C17 UNL     1      37.150  50.097   7.890  1.00  0.00     0.046 C 
HETATM   27  C18 UNL     1      38.542  48.106   7.943  1.00  0.00     0.046 C 
HETATM   28  C19 UNL     1      38.859  49.766   6.188  1.00  0.00     0.046 C 
ENDBRANCH  24  25
ENDBRANCH  21  24
ENDBRANCH   8  20
TORSDOF 8
ENDMDL
MODEL 3
REMARK VINA RESULT: -6.456403440      2.135      2.827
REMARK  8 active torsions:
REMARK  status: ('A' for Active; 'I' for Inactive)
REMARK    1  A    between atoms: C3_4  and  C4_5 
REMARK    2  A    between atoms: C5_6  and  C6_7 
REMARK    3  A    between atoms: C6_7  and  O3_9 
REMARK    4  A    between atoms: O3_9  and  C7_10 
REMARK    5  A    between atoms: C7_10  and  C8_11 
REMARK    6  A    between atoms: C14_19  and  N1_20 
REMARK       I    between atoms: N1_20  and  C15_22 
REMARK    7  A    between atoms: C15_22  and  O6_24 
REMARK    8  A    between atoms: O6_24  and  C16_25 
ROOT
HETATM    1  C1  UNL     1      34.382  44.505   6.196  1.00  0.00     0.042 C 
HETATM    2  C2  UNL     1      35.132  43.639   7.180  1.00  0.00     0.149 C 
HETATM    3  O1  UNL     1      34.396  42.445   7.339  1.00  0.00    -0.344 OA
HETATM    4  C3  UNL     1      33.291  42.376   8.181  1.00  0.00     0.067 C 
HETATM    5  C12 UNL     1      33.491  42.970   9.362  1.00  0.00     0.032 C 
HETATM    6  C13 UNL     1      34.788  43.613   9.663  1.00  0.00     0.133 C 
HETATM    7 CL1  UNL     1      34.519  44.805  10.955  1.00  0.00    -0.118 Cl
HETATM    8  C14 UNL     1      35.361  44.353   8.484  1.00  0.00     0.138 C 
ENDROOT
BRANCH   4   9
HETATM    9  C4  UNL     1      32.033  41.759   7.907  1.00  0.00     0.042 C 
HETATM   10  C5  UNL     1      30.843  41.966   8.381  1.00  0.00     0.085 C 
BRANCH  10  11
HETATM   11  C6  UNL     1      30.370  42.901   9.361  1.00  0.00     0.283 C 
HETATM   12  O2  UNL     1      29.935  42.659  10.497  1.00  0.00    -0.260 OA
BRANCH  11  13
HETATM   13  O3  UNL     1      30.381  44.283   9.034  1.00  0.00    -0.316 OA
BRANCH  13  14
HETATM   14  C7  UNL     1      29.779  44.746   7.832  1.00  0.00     0.211 C 
BRANCH  14  15
HETATM   15  C8  UNL     1      30.857  45.564   7.112  1.00  0.00     0.145 C 
HETATM   16  C9  UNL     1      30.290  46.858   6.600  1.00  0.00     0.036 C 
HETATM   17  C10 UNL     1      30.981  47.878   7.480  1.00  0.00     0.029 C 
HETATM   18  C11 UNL     1      32.263  47.153   7.830  1.00  0.00     0.168 C 
HETATM   19  O4  UNL     1      31.822  45.857   8.050  1.00  0.00    -0.384 OA
ENDBRANCH  14  15
ENDBRANCH  13  14
ENDBRANCH  11  13
ENDBRANCH  10  11
ENDBRANCH   4   9
BRANCH   8  20
HETATM   20  N1  UNL     1      36.757  44.607   8.765  1.00  0.00    -0.328 N 
HETATM   21  C15 UNL     1      37.383  45.854   8.515  1.00  0.00     0.361 C 
HETATM   22  O5  UNL     1      36.683  46.775   8.027  1.00  0.00    -0.238 OA
ATOM     23  H1  UNL     1      37.318  43.853   9.162  1.00  0.00     0.165 HD
BRANCH  21  24
HETATM   24  O6  UNL     1      38.693  46.111   8.773  1.00  0.00    -0.294 OA
BRANCH  24  25
HETATM   25  C16 UNL     1      39.782  45.821   7.952  1.00  0.00     0.061 C 
HETATM   26  C17 UNL     1      40.487  44.605   8.533  1.00  0.00     0.046 C 
HETATM   27  C18 UNL     1      39.440  45.504   6.533  1.00  0.00     0.046 C 
HETATM   28  C19 UNL     1      40.801  46.947   7.947  1.00  0.00     0.046 C 
ENDBRANCH  24  25
ENDBRANCH  21  24
ENDBRANCH   8  20
TORSDOF 8
ENDMDL
MODEL 4
REMARK VINA RESULT: -6.445413118      2.154      2.863
REMARK  8 active torsions:
REMARK  status: ('A' for Active; 'I' for Inactive)
REMARK    1  A    between atoms: C3_4  and  C4_5 
REMARK    2  A    between atoms: C5_6  and  C6_7 
REMARK    3  A    between atoms: C6_7  and  O3_9 
REMARK    4  A    between atoms: O3_9  and  C7_10 
REMARK    5  A    between atoms: C7_10  and  C8_11 
REMARK    6  A    between atoms: C14_19  and  N1_20 
REMARK       I    between atoms: N1_20  and  C15_22 
REMARK    7  A    between atoms: C15_22  and  O6_24 
REMARK    8  A    between atoms: O6_24  and  C16_25 
ROOT
HETATM    1  C1  UNL     1      34.306  44.509   6.351  1.00  0.00     0.042 C 
HETATM    2  C2  UNL     1      35.102  43.679   7.329  1.00  0.00     0.149 C 
HETATM    3  O1  UNL     1      34.371  42.496   7.573  1.00  0.00    -0.344 OA
HETATM    4  C3  UNL     1      33.310  42.468   8.473  1.00  0.00     0.067 C 
HETATM    5  C12 UNL     1      33.574  43.107   9.618  1.00  0.00     0.032 C 
HETATM    6  C13 UNL     1      34.888  43.754   9.826  1.00  0.00     0.133 C 
HETATM    7 CL1  UNL     1      34.691  44.998  11.081  1.00  0.00    -0.118 Cl
HETATM    8  C14 UNL     1      35.401  44.442   8.590  1.00  0.00     0.138 C 
ENDROOT
BRANCH   4   9
HETATM    9  C4  UNL     1      32.038  41.849   8.290  1.00  0.00     0.042 C 
HETATM   10  C5  UNL     1      30.829  42.321   8.320  1.00  0.00     0.085 C 
BRANCH  10  11
HETATM   11  C6  UNL     1      30.345  43.651   8.553  1.00  0.00     0.283 C 
HETATM   12  O2  UNL     1      29.554  44.030   9.431  1.00  0.00    -0.260 OA
BRANCH  11  13
HETATM   13  O3  UNL     1      30.798  44.692   7.701  1.00  0.00    -0.316 OA
BRANCH  13  14
HETATM   14  C7  UNL     1      31.485  45.817   8.235  1.00  0.00     0.211 C 
BRANCH  14  15
HETATM   15  C8  UNL     1      31.367  46.921   7.179  1.00  0.00     0.145 C 
HETATM   16  C9  UNL     1      30.220  46.646   6.247  1.00  0.00     0.036 C 
HETATM   17  C10 UNL     1      29.244  47.744   6.611  1.00  0.00     0.029 C 
HETATM   18  C11 UNL     1      30.179  48.819   7.122  1.00  0.00     0.168 C 
HETATM   19  O4  UNL     1      31.099  48.089   7.858  1.00  0.00    -0.384 OA
ENDBRANCH  14  15
ENDBRANCH  13  14
ENDBRANCH  11  13
ENDBRANCH  10  11
ENDBRANCH   4   9
BRANCH   8  20
HETATM   20  N1  UNL     1      36.812  44.699   8.788  1.00  0.00    -0.328 N 
HETATM   21  C15 UNL     1      37.407  45.966   8.566  1.00  0.00     0.361 C 
HETATM   22  O5  UNL     1      36.666  46.903   8.178  1.00  0.00    -0.238 OA
ATOM     23  H1  UNL     1      37.405  43.931   9.103  1.00  0.00     0.165 HD
BRANCH  21  24
HETATM   24  O6  UNL     1      38.729  46.224   8.747  1.00  0.00    -0.294 OA
BRANCH  24  25
HETATM   25  C16 UNL     1      39.771  45.924   7.870  1.00  0.00     0.061 C 
HETATM   26  C17 UNL     1      40.519  44.727   8.436  1.00  0.00     0.046 C 
HETATM   27  C18 UNL     1      39.350  45.572   6.481  1.00  0.00     0.046 C 
HETATM   28  C19 UNL     1      40.779  47.057   7.780  1.00  0.00     0.046 C 
ENDBRANCH  24  25
ENDBRANCH  21  24
ENDBRANCH   8  20
TORSDOF 8
ENDMDL
MODEL 5
REMARK VINA RESULT: -6.422115032      1.337      1.713
REMARK  8 active torsions:
REMARK  status: ('A' for Active; 'I' for Inactive)
REMARK    1  A    between atoms: C3_4  and  C4_5 
REMARK    2  A    between atoms: C5_6  and  C6_7 
REMARK    3  A    between atoms: C6_7  and  O3_9 
REMARK    4  A    between atoms: O3_9  and  C7_10 
REMARK    5  A    between atoms: C7_10  and  C8_11 
REMARK    6  A    between atoms: C14_19  and  N1_20 
REMARK       I    between atoms: N1_20  and  C15_22 
REMARK    7  A    between atoms: C15_22  and  O6_24 
REMARK    8  A    between atoms: O6_24  and  C16_25 
ROOT
HETATM    1  C1  UNL     1      34.397  44.151  10.434  1.00  0.00     0.042 C 
HETATM    2  C2  UNL     1      34.032  45.363   9.610  1.00  0.00     0.149 C 
HETATM    3  O1  UNL     1      32.649  45.289   9.340  1.00  0.00    -0.344 OA
HETATM    4  C3  UNL     1      32.147  44.492   8.316  1.00  0.00     0.067 C 
HETATM    5  C12 UNL     1      32.848  44.590   7.181  1.00  0.00     0.032 C 
HETATM    6  C13 UNL     1      34.026  45.481   7.106  1.00  0.00     0.133 C 
HETATM    7 CL1  UNL     1      35.054  44.914   5.771  1.00  0.00    -0.118 Cl
HETATM    8  C14 UNL     1      34.860  45.452   8.358  1.00  0.00     0.138 C 
ENDROOT
BRANCH   4   9
HETATM    9  C4  UNL     1      31.013  43.627   8.371  1.00  0.00     0.042 C 
HETATM   10  C5  UNL     1      29.764  43.849   8.642  1.00  0.00     0.085 C 
BRANCH  10  11
HETATM   11  C6  UNL     1      29.077  45.060   8.987  1.00  0.00     0.283 C 
HETATM   12  O2  UNL     1      28.514  45.338  10.058  1.00  0.00    -0.260 OA
BRANCH  11  13
HETATM   13  O3  UNL     1      29.007  46.095   8.018  1.00  0.00    -0.316 OA
BRANCH  13  14
HETATM   14  C7  UNL     1      29.350  47.432   8.361  1.00  0.00     0.211 C 
BRANCH  14  15
HETATM   15  C8  UNL     1      30.713  47.695   7.710  1.00  0.00     0.145 C 
HETATM   16  C9  UNL     1      30.676  47.360   6.245  1.00  0.00     0.036 C 
HETATM   17  C10 UNL     1      30.799  48.725   5.604  1.00  0.00     0.029 C 
HETATM   18  C11 UNL     1      31.554  49.491   6.669  1.00  0.00     0.168 C 
HETATM   19  O4  UNL     1      30.956  49.045   7.837  1.00  0.00    -0.384 OA
ENDBRANCH  14  15
ENDBRANCH  13  14
ENDBRANCH  11  13
ENDBRANCH  10  11
ENDBRANCH   4   9
BRANCH   8  20
HETATM   20  N1  UNL     1      35.735  46.604   8.326  1.00  0.00    -0.328 N 
HETATM   21  C15 UNL     1      37.145  46.503   8.218  1.00  0.00     0.361 C 
HETATM   22  O5  UNL     1      37.648  45.355   8.148  1.00  0.00    -0.238 OA
ATOM     23  H1  UNL     1      35.317  47.533   8.383  1.00  0.00     0.165 HD
BRANCH  21  24
HETATM   24  O6  UNL     1      37.981  47.575   8.186  1.00  0.00    -0.294 OA
BRANCH  24  25
HETATM   25  C16 UNL     1      37.948  48.639   7.285  1.00  0.00     0.061 C 
HETATM   26  C17 UNL     1      39.360  49.194   7.177  1.00  0.00     0.046 C 
HETATM   27  C18 UNL     1      37.498  48.289   5.905  1.00  0.00     0.046 C 
HETATM   28  C19 UNL     1      37.076  49.777   7.788  1.00  0.00     0.046 C 
ENDBRANCH  24  25
ENDBRANCH  21  24
ENDBRANCH   8  20
TORSDOF 8
ENDMDL
