MODEL 1
REMARK VINA RESULT: -7.744612906      0.000      0.000
REMARK  5 active torsions:
REMARK  status: ('A' for Active; 'I' for Inactive)
REMARK    1  A    between atoms: C3_7  and  S1_8 
REMARK    2  A    between atoms: S1_8  and  C4_9 
REMARK    3  A    between atoms: C4_9  and  C5_10 
REMARK    4  A    between atoms: C5_10  and  C6_11 
REMARK       I    between atoms: C6_11  and  N3_13 
REMARK    5  A    between atoms: N3_13  and  C7_15 
ROOT
HETATM    1  C6  UNL     1      28.756  45.229   9.209  1.00  0.00     0.218 C 
HETATM    2  O1  UNL     1      28.392  44.585  10.252  1.00  0.00    -0.274 OA
HETATM    3  N3  UNL     1      30.051  45.029   8.668  1.00  0.00    -0.356 N 
ATOM      4  H3  UNL     1      30.327  45.550   7.835  1.00  0.00     0.162 HD
ENDROOT
BRANCH   3   5
HETATM    5  C7  UNL     1      30.972  44.124   9.254  1.00  0.00     0.092 C 
HETATM    6  C8  UNL     1      30.647  42.639   8.952  1.00  0.00     0.052 C 
HETATM    7  C9  UNL     1      31.372  42.006   7.829  1.00  0.00    -0.026 C 
HETATM    8  C10 UNL     1      32.742  41.512   7.904  1.00  0.00     0.003 C 
HETATM    9  C11 UNL     1      33.928  42.379   7.816  1.00  0.00     0.168 C 
HETATM   10  O2  UNL     1      34.020  43.533   7.184  1.00  0.00    -0.375 OA
HETATM   11  C16 UNL     1      34.337  42.702   9.267  1.00  0.00     0.069 C 
HETATM   12  C12 UNL     1      34.485  44.593   7.998  1.00  0.00     0.124 C 
HETATM   13  C13 UNL     1      33.286  45.322   8.692  1.00  0.00     0.038 C 
HETATM   14  C17 UNL     1      35.294  43.843   9.043  1.00  0.00     0.060 C 
HETATM   15  C14 UNL     1      32.357  44.215   8.850  1.00  0.00     0.013 C 
HETATM   16  C15 UNL     1      33.054  43.278   9.765  1.00  0.00     0.035 C 
HETATM   17 CL1  UNL     1      34.953  41.360  10.144  1.00  0.00    -0.116 Cl
ENDBRANCH   3   5
BRANCH   1  18
HETATM   18  C5  UNL     1      27.788  46.161   8.617  1.00  0.00     0.113 C 
BRANCH  18  19
HETATM   19  C4  UNL     1      28.346  47.538   8.499  1.00  0.00     0.091 C 
BRANCH  19  20
HETATM   20  S1  UNL     1      28.892  47.940   6.843  1.00  0.00    -0.092 SA
BRANCH  20  21
HETATM   21  C3  UNL     1      30.620  48.327   6.776  1.00  0.00     0.162 A 
HETATM   22  N2  UNL     1      31.302  49.372   7.276  1.00  0.00    -0.278 N 
HETATM   23  N1  UNL     1      32.601  49.257   6.987  1.00  0.00    -0.287 N 
ATOM     24  H2  UNL     1      30.887  50.142   7.801  1.00  0.00     0.189 HD
HETATM   25  C2  UNL     1      32.737  48.109   6.287  1.00  0.00     0.095 A 
ATOM     26  H1  UNL     1      33.344  49.907   7.244  1.00  0.00     0.188 HD
HETATM   27  C1  UNL     1      34.023  47.569   5.750  1.00  0.00     0.091 C 
HETATM   28  N4  UNL     1      31.538  47.552   6.162  1.00  0.00    -0.320 N 
HETATM   29  C18 UNL     1      31.264  46.292   5.463  1.00  0.00     0.159 C 
ENDBRANCH  20  21
ENDBRANCH  19  20
ENDBRANCH  18  19
ENDBRANCH   1  18
TORSDOF 5
ENDMDL
MODEL 2
REMARK VINA RESULT: -7.565936203      4.007      6.276
REMARK  5 active torsions:
REMARK  status: ('A' for Active; 'I' for Inactive)
REMARK    1  A    between atoms: C3_7  and  S1_8 
REMARK    2  A    between atoms: S1_8  and  C4_9 
REMARK    3  A    between atoms: C4_9  and  C5_10 
REMARK    4  A    between atoms: C5_10  and  C6_11 
REMARK       I    between atoms: C6_11  and  N3_13 
REMARK    5  A    between atoms: N3_13  and  C7_15 
ROOT
HETATM    1  C6  UNL     1      37.425  42.598   6.597  1.00  0.00     0.218 C 
HETATM    2  O1  UNL     1      36.806  42.065   5.613  1.00  0.00    -0.274 OA
HETATM    3  N3  UNL     1      36.717  42.949   7.774  1.00  0.00    -0.356 N 
ATOM      4  H3  UNL     1      37.225  43.374   8.551  1.00  0.00     0.162 HD
ENDROOT
BRANCH   3   5
HETATM    5  C7  UNL     1      35.322  42.724   7.900  1.00  0.00     0.092 C 
HETATM    6  C8  UNL     1      34.880  42.416   9.353  1.00  0.00     0.052 C 
HETATM    7  C9  UNL     1      34.353  43.544  10.150  1.00  0.00    -0.026 C 
HETATM    8  C10 UNL     1      33.001  44.077  10.035  1.00  0.00     0.003 C 
HETATM    9  C11 UNL     1      32.574  44.995   8.968  1.00  0.00     0.168 C 
HETATM   10  O2  UNL     1      33.331  45.853   8.312  1.00  0.00    -0.375 OA
HETATM   11  C16 UNL     1      31.946  44.117   7.866  1.00  0.00     0.069 C 
HETATM   12  C12 UNL     1      33.266  45.711   6.904  1.00  0.00     0.124 C 
HETATM   13  C13 UNL     1      34.355  44.706   6.401  1.00  0.00     0.038 C 
HETATM   14  C17 UNL     1      31.888  45.096   6.723  1.00  0.00     0.060 C 
HETATM   15  C14 UNL     1      34.431  43.804   7.539  1.00  0.00     0.013 C 
HETATM   16  C15 UNL     1      33.083  43.187   7.610  1.00  0.00     0.035 C 
HETATM   17 CL1  UNL     1      30.457  43.384   8.309  1.00  0.00    -0.116 Cl
ENDBRANCH   3   5
BRANCH   1  18
HETATM   18  C5  UNL     1      38.868  42.821   6.447  1.00  0.00     0.113 C 
BRANCH  18  19
HETATM   19  C4  UNL     1      39.181  44.250   6.158  1.00  0.00     0.091 C 
BRANCH  19  20
HETATM   20  S1  UNL     1      39.375  45.243   7.634  1.00  0.00    -0.092 SA
BRANCH  20  21
HETATM   21  C3  UNL     1      37.908  46.154   8.034  1.00  0.00     0.162 A 
HETATM   22  N2  UNL     1      37.063  46.038   9.073  1.00  0.00    -0.278 N 
HETATM   23  N1  UNL     1      36.082  46.939   8.973  1.00  0.00    -0.287 N 
ATOM     24  H2  UNL     1      37.157  45.359   9.828  1.00  0.00     0.189 HD
HETATM   25  C2  UNL     1      36.318  47.639   7.841  1.00  0.00     0.095 A 
ATOM     26  H1  UNL     1      35.307  47.073   9.623  1.00  0.00     0.188 HD
HETATM   27  C1  UNL     1      35.475  48.758   7.323  1.00  0.00     0.091 C 
HETATM   28  N4  UNL     1      37.422  47.161   7.278  1.00  0.00    -0.320 N 
HETATM   29  C18 UNL     1      38.011  47.654   6.029  1.00  0.00     0.159 C 
ENDBRANCH  20  21
ENDBRANCH  19  20
ENDBRANCH  18  19
ENDBRANCH   1  18
TORSDOF 5
ENDMDL
MODEL 3
REMARK VINA RESULT: -7.468806368      0.691      1.272
REMARK  5 active torsions:
REMARK  status: ('A' for Active; 'I' for Inactive)
REMARK    1  A    between atoms: C3_7  and  S1_8 
REMARK    2  A    between atoms: S1_8  and  C4_9 
REMARK    3  A    between atoms: C4_9  and  C5_10 
REMARK    4  A    between atoms: C5_10  and  C6_11 
REMARK       I    between atoms: C6_11  and  N3_13 
REMARK    5  A    between atoms: N3_13  and  C7_15 
ROOT
HETATM    1  C6  UNL     1      28.711  45.109   9.351  1.00  0.00     0.218 C 
HETATM    2  O1  UNL     1      28.332  44.405  10.348  1.00  0.00    -0.274 OA
HETATM    3  N3  UNL     1      30.014  44.942   8.818  1.00  0.00    -0.356 N 
ATOM      4  H3  UNL     1      30.302  45.511   8.022  1.00  0.00     0.162 HD
ENDROOT
BRANCH   3   5
HETATM    5  C7  UNL     1      30.927  44.003   9.363  1.00  0.00     0.092 C 
HETATM    6  C8  UNL     1      30.604  42.538   8.976  1.00  0.00     0.052 C 
HETATM    7  C9  UNL     1      31.339  41.967   7.828  1.00  0.00    -0.026 C 
HETATM    8  C10 UNL     1      32.708  41.467   7.889  1.00  0.00     0.003 C 
HETATM    9  C11 UNL     1      33.896  42.334   7.862  1.00  0.00     0.168 C 
HETATM   10  O2  UNL     1      33.996  43.521   7.295  1.00  0.00    -0.375 OA
HETATM   11  C16 UNL     1      34.290  42.576   9.332  1.00  0.00     0.069 C 
HETATM   12  C12 UNL     1      34.454  44.534   8.172  1.00  0.00     0.124 C 
HETATM   13  C13 UNL     1      33.249  45.226   8.892  1.00  0.00     0.038 C 
HETATM   14  C17 UNL     1      35.251  43.726   9.182  1.00  0.00     0.060 C 
HETATM   15  C14 UNL     1      32.316  44.114   8.979  1.00  0.00     0.013 C 
HETATM   16  C15 UNL     1      33.002  43.126   9.848  1.00  0.00     0.035 C 
HETATM   17 CL1  UNL     1      34.894  41.186  10.141  1.00  0.00    -0.116 Cl
ENDBRANCH   3   5
BRANCH   1  18
HETATM   18  C5  UNL     1      27.751  46.074   8.801  1.00  0.00     0.113 C 
BRANCH  18  19
HETATM   19  C4  UNL     1      28.373  47.411   8.579  1.00  0.00     0.091 C 
BRANCH  19  20
HETATM   20  S1  UNL     1      28.675  47.772   6.852  1.00  0.00    -0.092 SA
BRANCH  20  21
HETATM   21  C3  UNL     1      30.259  47.193   6.308  1.00  0.00     0.162 A 
HETATM   22  N2  UNL     1      30.601  46.073   5.647  1.00  0.00    -0.278 N 
HETATM   23  N1  UNL     1      31.921  46.044   5.440  1.00  0.00    -0.287 N 
ATOM     24  H2  UNL     1      29.947  45.349   5.349  1.00  0.00     0.189 HD
HETATM   25  C2  UNL     1      32.419  47.177   5.984  1.00  0.00     0.095 A 
ATOM     26  H1  UNL     1      32.448  45.312   4.964  1.00  0.00     0.188 HD
HETATM   27  C1  UNL     1      33.859  47.574   5.989  1.00  0.00     0.091 C 
HETATM   28  N4  UNL     1      31.412  47.867   6.507  1.00  0.00    -0.320 N 
HETATM   29  C18 UNL     1      31.541  49.157   7.192  1.00  0.00     0.159 C 
ENDBRANCH  20  21
ENDBRANCH  19  20
ENDBRANCH  18  19
ENDBRANCH   1  18
TORSDOF 5
ENDMDL
MODEL 4
REMARK VINA RESULT: -7.401320532      6.274      8.745
REMARK  5 active torsions:
REMARK  status: ('A' for Active; 'I' for Inactive)
REMARK    1  A    between atoms: C3_7  and  S1_8 
REMARK    2  A    between atoms: S1_8  and  C4_9 
REMARK    3  A    between atoms: C4_9  and  C5_10 
REMARK    4  A    between atoms: C5_10  and  C6_11 
REMARK       I    between atoms: C6_11  and  N3_13 
REMARK    5  A    between atoms: N3_13  and  C7_15 
ROOT
HETATM    1  C6  UNL     1      37.650  42.649   6.442  1.00  0.00     0.218 C 
HETATM    2  O1  UNL     1      37.063  41.876   5.609  1.00  0.00    -0.274 OA
HETATM    3  N3  UNL     1      36.928  43.201   7.529  1.00  0.00    -0.356 N 
ATOM      4  H3  UNL     1      37.409  43.816   8.185  1.00  0.00     0.162 HD
ENDROOT
BRANCH   3   5
HETATM    5  C7  UNL     1      35.552  42.919   7.728  1.00  0.00     0.092 C 
HETATM    6  C8  UNL     1      35.194  42.630   9.208  1.00  0.00     0.052 C 
HETATM    7  C9  UNL     1      34.655  43.755  10.003  1.00  0.00    -0.026 C 
HETATM    8  C10 UNL     1      33.277  44.225   9.941  1.00  0.00     0.003 C 
HETATM    9  C11 UNL     1      32.758  45.095   8.874  1.00  0.00     0.168 C 
HETATM   10  O2  UNL     1      33.444  45.968   8.161  1.00  0.00    -0.375 OA
HETATM   11  C16 UNL     1      32.118  44.163   7.826  1.00  0.00     0.069 C 
HETATM   12  C12 UNL     1      33.318  45.786   6.763  1.00  0.00     0.124 C 
HETATM   13  C13 UNL     1      34.426  44.817   6.232  1.00  0.00     0.038 C 
HETATM   14  C17 UNL     1      31.962  45.108   6.664  1.00  0.00     0.060 C 
HETATM   15  C14 UNL     1      34.597  43.949   7.386  1.00  0.00     0.013 C 
HETATM   16  C15 UNL     1      33.283  43.276   7.537  1.00  0.00     0.035 C 
HETATM   17 CL1  UNL     1      30.686  43.377   8.360  1.00  0.00    -0.116 Cl
ENDBRANCH   3   5
BRANCH   1  18
HETATM   18  C5  UNL     1      39.074  42.927   6.218  1.00  0.00     0.113 C 
BRANCH  18  19
HETATM   19  C4  UNL     1      39.833  43.002   7.499  1.00  0.00     0.091 C 
BRANCH  19  20
HETATM   20  S1  UNL     1      41.080  41.727   7.657  1.00  0.00    -0.092 SA
BRANCH  20  21
HETATM   21  C3  UNL     1      40.493  40.140   7.132  1.00  0.00     0.162 A 
HETATM   22  N2  UNL     1      39.811  39.194   7.801  1.00  0.00    -0.278 N 
HETATM   23  N1  UNL     1      39.575  38.146   7.007  1.00  0.00    -0.287 N 
ATOM     24  H2  UNL     1      39.516  39.267   8.775  1.00  0.00     0.189 HD
HETATM   25  C2  UNL     1      40.123  38.442   5.808  1.00  0.00     0.095 A 
ATOM     26  H1  UNL     1      39.078  37.291   7.257  1.00  0.00     0.188 HD
HETATM   27  C1  UNL     1      40.104  37.557   4.604  1.00  0.00     0.091 C 
HETATM   28  N4  UNL     1      40.677  39.647   5.889  1.00  0.00    -0.320 N 
HETATM   29  C18 UNL     1      41.378  40.326   4.794  1.00  0.00     0.159 C 
ENDBRANCH  20  21
ENDBRANCH  19  20
ENDBRANCH  18  19
ENDBRANCH   1  18
TORSDOF 5
ENDMDL
MODEL 5
REMARK VINA RESULT: -7.307232716      2.134      2.836
REMARK  5 active torsions:
REMARK  status: ('A' for Active; 'I' for Inactive)
REMARK    1  A    between atoms: C3_7  and  S1_8 
REMARK    2  A    between atoms: S1_8  and  C4_9 
REMARK    3  A    between atoms: C4_9  and  C5_10 
REMARK    4  A    between atoms: C5_10  and  C6_11 
REMARK       I    between atoms: C6_11  and  N3_13 
REMARK    5  A    between atoms: N3_13  and  C7_15 
ROOT
HETATM    1  C6  UNL     1      28.709  45.163   9.328  1.00  0.00     0.218 C 
HETATM    2  O1  UNL     1      28.356  44.476  10.347  1.00  0.00    -0.274 OA
HETATM    3  N3  UNL     1      30.007  45.006   8.781  1.00  0.00    -0.356 N 
ATOM      4  H3  UNL     1      30.274  45.562   7.969  1.00  0.00     0.162 HD
ENDROOT
BRANCH   3   5
HETATM    5  C7  UNL     1      30.943  44.096   9.335  1.00  0.00     0.092 C 
HETATM    6  C8  UNL     1      30.628  42.616   9.003  1.00  0.00     0.052 C 
HETATM    7  C9  UNL     1      31.345  42.016   7.857  1.00  0.00    -0.026 C 
HETATM    8  C10 UNL     1      32.720  41.533   7.903  1.00  0.00     0.003 C 
HETATM    9  C11 UNL     1      33.896  42.412   7.820  1.00  0.00     0.168 C 
HETATM   10  O2  UNL     1      33.970  43.581   7.214  1.00  0.00    -0.375 OA
HETATM   11  C16 UNL     1      34.321  42.706   9.273  1.00  0.00     0.069 C 
HETATM   12  C12 UNL     1      34.436  44.627   8.047  1.00  0.00     0.124 C 
HETATM   13  C13 UNL     1      33.239  45.329   8.772  1.00  0.00     0.038 C 
HETATM   14  C17 UNL     1      35.265  43.860   9.064  1.00  0.00     0.060 C 
HETATM   15  C14 UNL     1      32.322  44.210   8.916  1.00  0.00     0.013 C 
HETATM   16  C15 UNL     1      33.039  43.258   9.801  1.00  0.00     0.035 C 
HETATM   17 CL1  UNL     1      34.960  41.350  10.112  1.00  0.00    -0.116 Cl
ENDBRANCH   3   5
BRANCH   1  18
HETATM   18  C5  UNL     1      27.725  46.100   8.771  1.00  0.00     0.113 C 
BRANCH  18  19
HETATM   19  C4  UNL     1      28.365  47.116   7.887  1.00  0.00     0.091 C 
BRANCH  19  20
HETATM   20  S1  UNL     1      27.266  48.454   7.437  1.00  0.00    -0.092 SA
BRANCH  20  21
HETATM   21  C3  UNL     1      27.998  49.568   6.269  1.00  0.00     0.162 A 
HETATM   22  N2  UNL     1      28.888  49.343   5.287  1.00  0.00    -0.278 N 
HETATM   23  N1  UNL     1      29.165  50.482   4.646  1.00  0.00    -0.287 N 
ATOM     24  H2  UNL     1      29.294  48.434   5.064  1.00  0.00     0.189 HD
HETATM   25  C2  UNL     1      28.429  51.446   5.242  1.00  0.00     0.095 A 
ATOM     26  H1  UNL     1      29.806  50.601   3.861  1.00  0.00     0.188 HD
HETATM   27  C1  UNL     1      28.415  52.889   4.855  1.00  0.00     0.091 C 
HETATM   28  N4  UNL     1      27.726  50.889   6.221  1.00  0.00    -0.320 N 
HETATM   29  C18 UNL     1      26.803  51.605   7.108  1.00  0.00     0.159 C 
ENDBRANCH  20  21
ENDBRANCH  19  20
ENDBRANCH  18  19
ENDBRANCH   1  18
TORSDOF 5
ENDMDL
