MODEL 1
REMARK VINA RESULT: -6.176607843      0.000      0.000
REMARK  13 active torsions:
REMARK  status: ('A' for Active; 'I' for Inactive)
REMARK    1  A    between atoms: C1_4  and  C2_6 
REMARK    2  A    between atoms: C2_6  and  N3_7 
REMARK    3  A    between atoms: N3_7  and  C3_9 
REMARK    4  A    between atoms: C3_9  and  C4_10 
REMARK    5  A    between atoms: C4_10  and  C5_11 
REMARK    6  A    between atoms: C5_11  and  N4_12 
REMARK    7  A    between atoms: N4_12  and  C6_15 
REMARK    8  A    between atoms: C6_15  and  C7_16 
REMARK    9  A    between atoms: C8_18  and  C9_19 
REMARK   10  A    between atoms: C9_19  and  N5_20 
REMARK   11  A    between atoms: C10_24  and  O2_25 
REMARK   12  A    between atoms: C11_27  and  O3_28 
REMARK   13  A    between atoms: C12_30  and  N6_31 
ROOT
HETATM    1  C7  UNL     1      32.479 -19.123 -17.288  1.00  0.00     0.180 C 
HETATM    2  O1  UNL     1      32.494 -20.328 -18.004  1.00  0.00    -0.372 OA
HETATM    3  C8  UNL     1      32.667 -21.451 -17.246  1.00  0.00     0.178 C 
HETATM    4  C10 UNL     1      32.647 -21.163 -15.784  1.00  0.00     0.179 C 
HETATM    5  C11 UNL     1      31.472 -20.318 -15.344  1.00  0.00     0.182 C 
HETATM    6  C12 UNL     1      31.433 -19.090 -16.247  1.00  0.00     0.244 C 
ENDROOT
BRANCH   1   7
HETATM    7  C6  UNL     1      32.295 -18.073 -18.338  1.00  0.00     0.266 C 
BRANCH   7   8
HETATM    8  N4  UNL     1      30.978 -17.832 -18.819  1.00  0.00    -0.072 N 
ATOM      9  H42 UNL     1      30.270 -17.940 -18.093  1.00  0.00     0.277 HD
ATOM     10  H41 UNL     1      30.649 -18.566 -19.445  1.00  0.00     0.277 HD
BRANCH   8  11
HETATM   11  C5  UNL     1      30.946 -16.480 -19.454  1.00  0.00     0.237 C 
BRANCH  11  12
HETATM   12  C4  UNL     1      31.886 -16.506 -20.605  1.00  0.00     0.071 C 
BRANCH  12  13
HETATM   13  C3  UNL     1      31.346 -16.811 -21.927  1.00  0.00     0.057 C 
BRANCH  13  14
HETATM   14  N3  UNL     1      30.573 -17.909 -22.241  1.00  0.00    -0.396 N 
ATOM     15  H3  UNL     1      29.562 -17.874 -22.116  1.00  0.00     0.159 HD
BRANCH  14  16
HETATM   16  C2  UNL     1      31.191 -19.098 -22.741  1.00  0.00     0.191 C 
BRANCH  16  17
HETATM   17  C1  UNL     1      31.505 -19.959 -21.530  1.00  0.00     0.104 C 
HETATM   18  N1  UNL     1      32.710 -20.240 -21.254  1.00  0.00    -0.390 N 
ATOM     19  H12 UNL     1      32.922 -20.818 -20.441  1.00  0.00     0.157 HD
ATOM     20  H11 UNL     1      33.495 -19.905 -21.814  1.00  0.00     0.157 HD
HETATM   21  N2  UNL     1      30.412 -20.424 -20.751  1.00  0.00    -0.086 NA
ENDBRANCH  16  17
ENDBRANCH  14  16
ENDBRANCH  13  14
ENDBRANCH  12  13
ENDBRANCH  11  12
ENDBRANCH   8  11
ENDBRANCH   7   8
ENDBRANCH   1   7
BRANCH   6  22
HETATM   22  N6  UNL     1      31.673 -17.945 -15.351  1.00  0.00    -0.070 N 
ATOM     23  H63 UNL     1      30.957 -17.863 -14.628  1.00  0.00     0.274 HD
ATOM     24  H62 UNL     1      32.477 -18.092 -14.742  1.00  0.00     0.274 HD
ATOM     25  H61 UNL     1      31.759 -17.094 -15.906  1.00  0.00     0.274 HD
ENDBRANCH   6  22
BRANCH   3  26
HETATM   26  C9  UNL     1      31.681 -22.482 -17.711  1.00  0.00     0.264 C 
BRANCH  26  27
HETATM   27  N5  UNL     1      30.478 -21.959 -18.290  1.00  0.00    -0.077 N 
ATOM     28  H53 UNL     1      29.984 -21.381 -17.609  1.00  0.00     0.274 HD
ATOM     29  H52 UNL     1      30.704 -21.254 -18.992  1.00  0.00     0.274 HD
ATOM     30  H51 UNL     1      29.846 -22.656 -18.683  1.00  0.00     0.274 HD
ENDBRANCH  26  27
ENDBRANCH   3  26
BRANCH   5  31
HETATM   31  O3  UNL     1      30.276 -21.028 -15.354  1.00  0.00    -0.391 OA
ATOM     32  H3  UNL     1      30.269 -21.734 -14.718  1.00  0.00     0.210 HD
ENDBRANCH   5  31
BRANCH   4  33
HETATM   33  O2  UNL     1      32.833 -22.299 -15.043  1.00  0.00    -0.390 OA
ATOM     34  H2  UNL     1      32.021 -22.601 -14.653  1.00  0.00     0.210 HD
ENDBRANCH   4  33
TORSDOF 13
ENDMDL
MODEL 2
REMARK VINA RESULT: -5.992692608      2.784      5.186
REMARK  13 active torsions:
REMARK  status: ('A' for Active; 'I' for Inactive)
REMARK    1  A    between atoms: C1_4  and  C2_6 
REMARK    2  A    between atoms: C2_6  and  N3_7 
REMARK    3  A    between atoms: N3_7  and  C3_9 
REMARK    4  A    between atoms: C3_9  and  C4_10 
REMARK    5  A    between atoms: C4_10  and  C5_11 
REMARK    6  A    between atoms: C5_11  and  N4_12 
REMARK    7  A    between atoms: N4_12  and  C6_15 
REMARK    8  A    between atoms: C6_15  and  C7_16 
REMARK    9  A    between atoms: C8_18  and  C9_19 
REMARK   10  A    between atoms: C9_19  and  N5_20 
REMARK   11  A    between atoms: C10_24  and  O2_25 
REMARK   12  A    between atoms: C11_27  and  O3_28 
REMARK   13  A    between atoms: C12_30  and  N6_31 
ROOT
HETATM    1  C7  UNL     1      32.065 -18.461 -18.524  1.00  0.00     0.180 C 
HETATM    2  O1  UNL     1      31.572 -17.628 -17.510  1.00  0.00    -0.372 OA
HETATM    3  C8  UNL     1      30.285 -17.882 -17.126  1.00  0.00     0.178 C 
HETATM    4  C10 UNL     1      29.728 -19.106 -17.769  1.00  0.00     0.179 C 
HETATM    5  C11 UNL     1      30.632 -20.314 -17.668  1.00  0.00     0.182 C 
HETATM    6  C12 UNL     1      32.010 -19.892 -18.166  1.00  0.00     0.244 C 
ENDROOT
BRANCH   1   7
HETATM    7  C6  UNL     1      33.459 -17.969 -18.759  1.00  0.00     0.266 C 
BRANCH   7   8
HETATM    8  N4  UNL     1      34.476 -18.386 -17.856  1.00  0.00    -0.072 N 
ATOM      9  H42 UNL     1      34.162 -19.124 -17.226  1.00  0.00     0.277 HD
ATOM     10  H41 UNL     1      34.687 -17.681 -17.151  1.00  0.00     0.277 HD
BRANCH   8  11
HETATM   11  C5  UNL     1      35.679 -18.783 -18.649  1.00  0.00     0.237 C 
BRANCH  11  12
HETATM   12  C4  UNL     1      36.464 -19.736 -17.822  1.00  0.00     0.071 C 
BRANCH  12  13
HETATM   13  C3  UNL     1      35.872 -21.037 -17.523  1.00  0.00     0.057 C 
BRANCH  13  14
HETATM   14  N3  UNL     1      35.749 -21.588 -16.264  1.00  0.00    -0.396 N 
ATOM     15  H3  UNL     1      36.149 -21.111 -15.457  1.00  0.00     0.159 HD
BRANCH  14  16
HETATM   16  C2  UNL     1      35.061 -22.830 -16.093  1.00  0.00     0.191 C 
BRANCH  16  17
HETATM   17  C1  UNL     1      33.580 -22.498 -16.066  1.00  0.00     0.104 C 
HETATM   18  N1  UNL     1      33.137 -21.668 -15.216  1.00  0.00    -0.390 N 
ATOM     19  H12 UNL     1      32.142 -21.446 -15.198  1.00  0.00     0.157 HD
ATOM     20  H11 UNL     1      33.739 -21.199 -14.540  1.00  0.00     0.157 HD
HETATM   21  N2  UNL     1      32.742 -23.151 -17.009  1.00  0.00    -0.086 NA
ENDBRANCH  16  17
ENDBRANCH  14  16
ENDBRANCH  13  14
ENDBRANCH  12  13
ENDBRANCH  11  12
ENDBRANCH   8  11
ENDBRANCH   7   8
ENDBRANCH   1   7
BRANCH   6  22
HETATM   22  N6  UNL     1      32.251 -20.706 -19.371  1.00  0.00    -0.070 N 
ATOM     23  H63 UNL     1      32.653 -20.160 -20.132  1.00  0.00     0.274 HD
ATOM     24  H62 UNL     1      33.018 -21.366 -19.244  1.00  0.00     0.274 HD
ATOM     25  H61 UNL     1      31.385 -21.170 -19.644  1.00  0.00     0.274 HD
ENDBRANCH   6  22
BRANCH   3  26
HETATM   26  C9  UNL     1      30.235 -17.864 -15.627  1.00  0.00     0.264 C 
BRANCH  26  27
HETATM   27  N5  UNL     1      31.468 -18.189 -14.971  1.00  0.00    -0.077 N 
ATOM     28  H53 UNL     1      31.966 -17.335 -14.718  1.00  0.00     0.274 HD
ATOM     29  H52 UNL     1      31.282 -18.569 -14.044  1.00  0.00     0.274 HD
ATOM     30  H51 UNL     1      32.084 -18.814 -15.491  1.00  0.00     0.274 HD
ENDBRANCH  26  27
ENDBRANCH   3  26
BRANCH   5  31
HETATM   31  O3  UNL     1      30.666 -20.845 -16.383  1.00  0.00    -0.391 OA
ATOM     32  H3  UNL     1      31.552 -20.952 -16.059  1.00  0.00     0.210 HD
ENDBRANCH   5  31
BRANCH   4  33
HETATM   33  O2  UNL     1      28.435 -19.335 -17.380  1.00  0.00    -0.390 OA
ATOM     34  H2  UNL     1      28.246 -20.265 -17.324  1.00  0.00     0.210 HD
ENDBRANCH   4  33
TORSDOF 13
ENDMDL
MODEL 3
REMARK VINA RESULT: -5.691412864      3.018      5.458
REMARK  13 active torsions:
REMARK  status: ('A' for Active; 'I' for Inactive)
REMARK    1  A    between atoms: C1_4  and  C2_6 
REMARK    2  A    between atoms: C2_6  and  N3_7 
REMARK    3  A    between atoms: N3_7  and  C3_9 
REMARK    4  A    between atoms: C3_9  and  C4_10 
REMARK    5  A    between atoms: C4_10  and  C5_11 
REMARK    6  A    between atoms: C5_11  and  N4_12 
REMARK    7  A    between atoms: N4_12  and  C6_15 
REMARK    8  A    between atoms: C6_15  and  C7_16 
REMARK    9  A    between atoms: C8_18  and  C9_19 
REMARK   10  A    between atoms: C9_19  and  N5_20 
REMARK   11  A    between atoms: C10_24  and  O2_25 
REMARK   12  A    between atoms: C11_27  and  O3_28 
REMARK   13  A    between atoms: C12_30  and  N6_31 
ROOT
HETATM    1  C7  UNL     1      31.589 -20.504 -17.301  1.00  0.00     0.180 C 
HETATM    2  O1  UNL     1      30.341 -20.369 -16.679  1.00  0.00    -0.372 OA
HETATM    3  C8  UNL     1      30.252 -19.350 -15.772  1.00  0.00     0.178 C 
HETATM    4  C10 UNL     1      31.471 -18.494 -15.753  1.00  0.00     0.179 C 
HETATM    5  C11 UNL     1      31.919 -18.038 -17.124  1.00  0.00     0.182 C 
HETATM    6  C12 UNL     1      32.013 -19.278 -18.007  1.00  0.00     0.244 C 
ENDROOT
BRANCH   1   7
HETATM    7  C6  UNL     1      31.420 -21.677 -18.214  1.00  0.00     0.266 C 
BRANCH   7   8
HETATM    8  N4  UNL     1      31.429 -22.979 -17.640  1.00  0.00    -0.072 N 
ATOM      9  H42 UNL     1      30.539 -23.221 -17.205  1.00  0.00     0.277 HD
ATOM     10  H41 UNL     1      32.012 -23.034 -16.805  1.00  0.00     0.277 HD
BRANCH   8  11
HETATM   11  C5  UNL     1      31.839 -23.957 -18.692  1.00  0.00     0.237 C 
BRANCH  11  12
HETATM   12  C4  UNL     1      32.912 -23.320 -19.499  1.00  0.00     0.071 C 
BRANCH  12  13
HETATM   13  C3  UNL     1      34.283 -23.788 -19.315  1.00  0.00     0.057 C 
BRANCH  13  14
HETATM   14  N3  UNL     1      34.847 -24.154 -18.110  1.00  0.00    -0.396 N 
ATOM     15  H3  UNL     1      34.729 -25.105 -17.760  1.00  0.00     0.159 HD
BRANCH  14  16
HETATM   16  C2  UNL     1      35.595 -23.200 -17.353  1.00  0.00     0.191 C 
BRANCH  16  17
HETATM   17  C1  UNL     1      34.695 -22.758 -16.212  1.00  0.00     0.104 C 
HETATM   18  N1  UNL     1      34.787 -21.577 -15.760  1.00  0.00    -0.390 N 
ATOM     19  H12 UNL     1      34.183 -21.280 -14.994  1.00  0.00     0.157 HD
ATOM     20  H11 UNL     1      35.445 -20.894 -16.136  1.00  0.00     0.157 HD
HETATM   21  N2  UNL     1      33.778 -23.709 -15.690  1.00  0.00    -0.086 NA
ENDBRANCH  16  17
ENDBRANCH  14  16
ENDBRANCH  13  14
ENDBRANCH  12  13
ENDBRANCH  11  12
ENDBRANCH   8  11
ENDBRANCH   7   8
ENDBRANCH   1   7
BRANCH   6  22
HETATM   22  N6  UNL     1      33.437 -19.389 -18.366  1.00  0.00    -0.070 N 
ATOM     23  H63 UNL     1      33.721 -18.682 -19.045  1.00  0.00     0.274 HD
ATOM     24  H62 UNL     1      34.052 -19.110 -17.602  1.00  0.00     0.274 HD
ATOM     25  H61 UNL     1      33.631 -20.336 -18.691  1.00  0.00     0.274 HD
ENDBRANCH   6  22
BRANCH   3  26
HETATM   26  C9  UNL     1      28.961 -18.625 -16.013  1.00  0.00     0.264 C 
BRANCH  26  27
HETATM   27  N5  UNL     1      28.368 -18.845 -17.300  1.00  0.00    -0.077 N 
ATOM     28  H53 UNL     1      28.495 -19.817 -17.583  1.00  0.00     0.274 HD
ATOM     29  H52 UNL     1      27.351 -18.811 -17.228  1.00  0.00     0.274 HD
ATOM     30  H51 UNL     1      28.689 -18.220 -18.039  1.00  0.00     0.274 HD
ENDBRANCH  26  27
ENDBRANCH   3  26
BRANCH   5  31
HETATM   31  O3  UNL     1      31.083 -17.063 -17.658  1.00  0.00    -0.391 OA
ATOM     32  H3  UNL     1      31.419 -16.185 -17.523  1.00  0.00     0.210 HD
ENDBRANCH   5  31
BRANCH   4  33
HETATM   33  O2  UNL     1      31.367 -17.487 -14.831  1.00  0.00    -0.390 OA
ATOM     34  H2  UNL     1      30.878 -16.747 -15.173  1.00  0.00     0.210 HD
ENDBRANCH   4  33
TORSDOF 13
ENDMDL
MODEL 4
REMARK VINA RESULT: -5.658851235      2.591      3.146
REMARK  13 active torsions:
REMARK  status: ('A' for Active; 'I' for Inactive)
REMARK    1  A    between atoms: C1_4  and  C2_6 
REMARK    2  A    between atoms: C2_6  and  N3_7 
REMARK    3  A    between atoms: N3_7  and  C3_9 
REMARK    4  A    between atoms: C3_9  and  C4_10 
REMARK    5  A    between atoms: C4_10  and  C5_11 
REMARK    6  A    between atoms: C5_11  and  N4_12 
REMARK    7  A    between atoms: N4_12  and  C6_15 
REMARK    8  A    between atoms: C6_15  and  C7_16 
REMARK    9  A    between atoms: C8_18  and  C9_19 
REMARK   10  A    between atoms: C9_19  and  N5_20 
REMARK   11  A    between atoms: C10_24  and  O2_25 
REMARK   12  A    between atoms: C11_27  and  O3_28 
REMARK   13  A    between atoms: C12_30  and  N6_31 
ROOT
HETATM    1  C7  UNL     1      32.426 -18.988 -17.156  1.00  0.00     0.180 C 
HETATM    2  O1  UNL     1      32.409 -20.167 -17.914  1.00  0.00    -0.372 OA
HETATM    3  C8  UNL     1      32.551 -21.320 -17.195  1.00  0.00     0.178 C 
HETATM    4  C10 UNL     1      32.537 -21.083 -15.724  1.00  0.00     0.179 C 
HETATM    5  C11 UNL     1      31.385 -20.223 -15.255  1.00  0.00     0.182 C 
HETATM    6  C12 UNL     1      31.379 -18.963 -16.114  1.00  0.00     0.244 C 
ENDROOT
BRANCH   1   7
HETATM    7  C6  UNL     1      32.270 -17.897 -18.168  1.00  0.00     0.266 C 
BRANCH   7   8
HETATM    8  N4  UNL     1      31.003 -17.743 -18.796  1.00  0.00    -0.072 N 
ATOM      9  H42 UNL     1      30.234 -17.729 -18.127  1.00  0.00     0.277 HD
ATOM     10  H41 UNL     1      30.720 -18.573 -19.316  1.00  0.00     0.277 HD
BRANCH   8  11
HETATM   11  C5  UNL     1      31.044 -16.517 -19.650  1.00  0.00     0.237 C 
BRANCH  11  12
HETATM   12  C4  UNL     1      32.336 -16.529 -20.385  1.00  0.00     0.071 C 
BRANCH  12  13
HETATM   13  C3  UNL     1      32.565 -15.496 -21.391  1.00  0.00     0.057 C 
BRANCH  13  14
HETATM   14  N3  UNL     1      33.750 -14.816 -21.582  1.00  0.00    -0.396 N 
ATOM     15  H3  UNL     1      33.918 -13.936 -21.096  1.00  0.00     0.159 HD
BRANCH  14  16
HETATM   16  C2  UNL     1      34.743 -15.347 -22.464  1.00  0.00     0.191 C 
BRANCH  16  17
HETATM   17  C1  UNL     1      36.073 -15.209 -21.744  1.00  0.00     0.104 C 
HETATM   18  N1  UNL     1      36.645 -16.240 -21.277  1.00  0.00    -0.390 N 
ATOM     19  H12 UNL     1      37.538 -16.147 -20.793  1.00  0.00     0.157 HD
ATOM     20  H11 UNL     1      36.250 -17.176 -21.368  1.00  0.00     0.157 HD
HETATM   21  N2  UNL     1      36.622 -13.905 -21.618  1.00  0.00    -0.086 NA
ENDBRANCH  16  17
ENDBRANCH  14  16
ENDBRANCH  13  14
ENDBRANCH  12  13
ENDBRANCH  11  12
ENDBRANCH   8  11
ENDBRANCH   7   8
ENDBRANCH   1   7
BRANCH   6  22
HETATM   22  N6  UNL     1      31.648 -17.857 -15.179  1.00  0.00    -0.070 N 
ATOM     23  H63 UNL     1      32.181 -17.103 -15.614  1.00  0.00     0.274 HD
ATOM     24  H62 UNL     1      30.806 -17.328 -14.954  1.00  0.00     0.274 HD
ATOM     25  H61 UNL     1      32.108 -18.223 -14.345  1.00  0.00     0.274 HD
ENDBRANCH   6  22
BRANCH   3  26
HETATM   26  C9  UNL     1      31.539 -22.308 -17.696  1.00  0.00     0.264 C 
BRANCH  26  27
HETATM   27  N5  UNL     1      30.401 -21.734 -18.353  1.00  0.00    -0.077 N 
ATOM     28  H53 UNL     1      30.347 -20.735 -18.154  1.00  0.00     0.274 HD
ATOM     29  H52 UNL     1      30.554 -21.708 -19.361  1.00  0.00     0.274 HD
ATOM     30  H51 UNL     1      29.508 -22.182 -18.144  1.00  0.00     0.274 HD
ENDBRANCH  26  27
ENDBRANCH   3  26
BRANCH   5  31
HETATM   31  O3  UNL     1      30.170 -20.900 -15.289  1.00  0.00    -0.391 OA
ATOM     32  H3  UNL     1      30.072 -21.427 -16.074  1.00  0.00     0.210 HD
ENDBRANCH   5  31
BRANCH   4  33
HETATM   33  O2  UNL     1      32.692 -22.248 -15.023  1.00  0.00    -0.390 OA
ATOM     34  H2  UNL     1      33.601 -22.397 -14.786  1.00  0.00     0.210 HD
ENDBRANCH   4  33
TORSDOF 13
ENDMDL
MODEL 5
REMARK VINA RESULT: -5.654484946      2.805      4.847
REMARK  13 active torsions:
REMARK  status: ('A' for Active; 'I' for Inactive)
REMARK    1  A    between atoms: C1_4  and  C2_6 
REMARK    2  A    between atoms: C2_6  and  N3_7 
REMARK    3  A    between atoms: N3_7  and  C3_9 
REMARK    4  A    between atoms: C3_9  and  C4_10 
REMARK    5  A    between atoms: C4_10  and  C5_11 
REMARK    6  A    between atoms: C5_11  and  N4_12 
REMARK    7  A    between atoms: N4_12  and  C6_15 
REMARK    8  A    between atoms: C6_15  and  C7_16 
REMARK    9  A    between atoms: C8_18  and  C9_19 
REMARK   10  A    between atoms: C9_19  and  N5_20 
REMARK   11  A    between atoms: C10_24  and  O2_25 
REMARK   12  A    between atoms: C11_27  and  O3_28 
REMARK   13  A    between atoms: C12_30  and  N6_31 
ROOT
HETATM    1  C7  UNL     1      33.081 -21.979 -17.554  1.00  0.00     0.180 C 
HETATM    2  O1  UNL     1      33.807 -22.591 -18.585  1.00  0.00    -0.372 OA
HETATM    3  C8  UNL     1      35.153 -22.361 -18.563  1.00  0.00     0.178 C 
HETATM    4  C10 UNL     1      35.587 -21.626 -17.342  1.00  0.00     0.179 C 
HETATM    5  C11 UNL     1      35.059 -22.216 -16.053  1.00  0.00     0.182 C 
HETATM    6  C12 UNL     1      33.551 -22.375 -16.211  1.00  0.00     0.244 C 
ENDROOT
BRANCH   1   7
HETATM    7  C6  UNL     1      31.662 -22.373 -17.818  1.00  0.00     0.266 C 
BRANCH   7   8
HETATM    8  N4  UNL     1      30.749 -21.357 -18.215  1.00  0.00    -0.072 N 
ATOM      9  H42 UNL     1      30.337 -20.869 -17.420  1.00  0.00     0.277 HD
ATOM     10  H41 UNL     1      29.887 -21.736 -18.607  1.00  0.00     0.277 HD
BRANCH   8  11
HETATM   11  C5  UNL     1      31.450 -20.432 -19.157  1.00  0.00     0.237 C 
BRANCH  11  12
HETATM   12  C4  UNL     1      31.084 -19.044 -18.773  1.00  0.00     0.071 C 
BRANCH  12  13
HETATM   13  C3  UNL     1      32.008 -18.299 -17.922  1.00  0.00     0.057 C 
BRANCH  13  14
HETATM   14  N3  UNL     1      32.227 -18.538 -16.580  1.00  0.00    -0.396 N 
ATOM     15  H3  UNL     1      32.989 -19.149 -16.289  1.00  0.00     0.159 HD
BRANCH  14  16
HETATM   16  C2  UNL     1      31.384 -17.927 -15.600  1.00  0.00     0.191 C 
BRANCH  16  17
HETATM   17  C1  UNL     1      30.151 -18.805 -15.488  1.00  0.00     0.104 C 
HETATM   18  N1  UNL     1      28.999 -18.291 -15.623  1.00  0.00    -0.390 N 
ATOM     19  H12 UNL     1      28.171 -18.881 -15.548  1.00  0.00     0.157 HD
ATOM     20  H11 UNL     1      28.858 -17.299 -15.812  1.00  0.00     0.157 HD
HETATM   21  N2  UNL     1      30.348 -20.187 -15.225  1.00  0.00    -0.086 NA
ENDBRANCH  16  17
ENDBRANCH  14  16
ENDBRANCH  13  14
ENDBRANCH  12  13
ENDBRANCH  11  12
ENDBRANCH   8  11
ENDBRANCH   7   8
ENDBRANCH   1   7
BRANCH   6  22
HETATM   22  N6  UNL     1      32.960 -21.477 -15.203  1.00  0.00    -0.070 N 
ATOM     23  H63 UNL     1      33.069 -20.493 -15.451  1.00  0.00     0.274 HD
ATOM     24  H62 UNL     1      31.941 -21.515 -15.202  1.00  0.00     0.274 HD
ATOM     25  H61 UNL     1      33.355 -21.690 -14.288  1.00  0.00     0.274 HD
ENDBRANCH   6  22
BRANCH   3  26
HETATM   26  C9  UNL     1      35.852 -23.666 -18.810  1.00  0.00     0.264 C 
BRANCH  26  27
HETATM   27  N5  UNL     1      37.206 -23.555 -19.268  1.00  0.00    -0.077 N 
ATOM     28  H53 UNL     1      37.252 -23.730 -20.272  1.00  0.00     0.274 HD
ATOM     29  H52 UNL     1      37.507 -22.581 -19.242  1.00  0.00     0.274 HD
ATOM     30  H51 UNL     1      37.880 -24.144 -18.778  1.00  0.00     0.274 HD
ENDBRANCH  26  27
ENDBRANCH   3  26
BRANCH   5  31
HETATM   31  O3  UNL     1      35.691 -23.410 -15.719  1.00  0.00    -0.391 OA
ATOM     32  H3  UNL     1      35.126 -23.993 -15.226  1.00  0.00     0.210 HD
ENDBRANCH   5  31
BRANCH   4  33
HETATM   33  O2  UNL     1      36.937 -21.395 -17.344  1.00  0.00    -0.390 OA
ATOM     34  H2  UNL     1      37.201 -20.851 -16.611  1.00  0.00     0.210 HD
ENDBRANCH   4  33
TORSDOF 13
ENDMDL
