MODEL 1
REMARK VINA RESULT: -6.166756091      0.000      0.000
REMARK  13 active torsions:
REMARK  status: ('A' for Active; 'I' for Inactive)
REMARK    1  A    between atoms: O1_2  and  C2_3 
REMARK    2  A    between atoms: C2_3  and  N1_4 
REMARK    3  A    between atoms: C2_3  and  N2_8 
REMARK    4  A    between atoms: C4_13  and  N4_14 
REMARK    5  A    between atoms: C5_19  and  N6_20 
REMARK    6  A    between atoms: N6_20  and  C6_22 
REMARK    7  A    between atoms: C6_22  and  C7_23 
REMARK    8  A    between atoms: C7_23  and  C8_24 
REMARK    9  A    between atoms: C8_24  and  N7_25 
REMARK   10  A    between atoms: N7_25  and  C9_28 
REMARK   11  A    between atoms: C9_28  and  C10_29 
REMARK   12  A    between atoms: C10_29  and  N8_30 
REMARK   13  A    between atoms: C10_29  and  C11_34 
ROOT
HETATM    1  N2  UNL     1      31.678 -19.864 -18.922  1.00  0.00    -0.078 N 
HETATM    2  C3  UNL     1      30.567 -20.223 -18.274  1.00  0.00     0.358 A 
HETATM    3  O2  UNL     1      29.562 -20.718 -18.862  1.00  0.00    -0.245 OA
HETATM    4  N3  UNL     1      30.478 -20.065 -16.926  1.00  0.00    -0.140 N 
ATOM      5  H3  UNL     1      29.625 -20.342 -16.440  1.00  0.00     0.189 HD
HETATM    6  C4  UNL     1      31.497 -19.550 -16.235  1.00  0.00     0.694 A 
HETATM    7  N5  UNL     1      32.605 -19.194 -16.902  1.00  0.00    -0.022 N 
ATOM      8  H5  UNL     1      33.391 -18.799 -16.385  1.00  0.00     0.203 HD
HETATM    9  C5  UNL     1      32.705 -19.346 -18.231  1.00  0.00     0.702 A 
ENDROOT
BRANCH   9  10
HETATM   10  N6  UNL     1      33.775 -19.001 -18.863  1.00  0.00    -0.225 N 
ATOM     11  H6  UNL     1      33.649 -18.557 -19.773  1.00  0.00     0.177 HD
BRANCH  10  12
HETATM   12  C6  UNL     1      35.120 -19.179 -18.416  1.00  0.00     0.139 C 
BRANCH  12  13
HETATM   13  C7  UNL     1      35.647 -20.561 -18.596  1.00  0.00     0.048 C 
BRANCH  13  14
HETATM   14  C8  UNL     1      36.345 -21.063 -17.365  1.00  0.00     0.234 C 
BRANCH  14  15
HETATM   15  N7  UNL     1      35.422 -21.505 -16.363  1.00  0.00    -0.073 N 
ATOM     16  H72 UNL     1      35.699 -21.181 -15.436  1.00  0.00     0.277 HD
ATOM     17  H71 UNL     1      34.529 -21.019 -16.442  1.00  0.00     0.277 HD
BRANCH  15  18
HETATM   18  C9  UNL     1      35.245 -22.948 -16.388  1.00  0.00     0.270 C 
BRANCH  18  19
HETATM   19  C10 UNL     1      33.771 -23.301 -16.309  1.00  0.00     0.246 C 
BRANCH  19  20
HETATM   20  N8  UNL     1      33.160 -22.513 -15.248  1.00  0.00    -0.069 N 
ATOM     21  H83 UNL     1      32.955 -21.557 -15.539  1.00  0.00     0.275 HD
ATOM     22  H82 UNL     1      32.205 -22.806 -15.043  1.00  0.00     0.275 HD
ATOM     23  H81 UNL     1      33.764 -22.550 -14.427  1.00  0.00     0.275 HD
ENDBRANCH  19  20
BRANCH  19  24
HETATM   24  C11 UNL     1      33.050 -23.003 -17.563  1.00  0.00     0.087 C 
HETATM   25  N9  UNL     1      31.932 -23.552 -17.795  1.00  0.00    -0.409 N 
ATOM     26  H92 UNL     1      31.543 -24.196 -17.106  1.00  0.00     0.155 HD
ATOM     27  H91 UNL     1      31.434 -23.346 -18.661  1.00  0.00     0.155 HD
ENDBRANCH  19  24
ENDBRANCH  18  19
ENDBRANCH  15  18
ENDBRANCH  14  15
ENDBRANCH  13  14
ENDBRANCH  12  13
ENDBRANCH  10  12
ENDBRANCH   9  10
BRANCH   1  28
HETATM   28  C2  UNL     1      31.709 -20.060 -20.365  1.00  0.00     0.452 C 
BRANCH  28  29
HETATM   29  O1  UNL     1      30.761 -19.316 -21.016  1.00  0.00    -0.348 OA
HETATM   30  C1  UNL     1      31.373 -18.286 -21.722  1.00  0.00     0.206 C 
ENDBRANCH  28  29
BRANCH  28  31
HETATM   31  N1  UNL     1      31.517 -21.490 -20.580  1.00  0.00    -0.034 N 
ATOM     32  H13 UNL     1      31.372 -21.701 -21.567  1.00  0.00     0.279 HD
ATOM     33  H12 UNL     1      32.384 -22.008 -20.431  1.00  0.00     0.279 HD
ATOM     34  H11 UNL     1      30.761 -21.861 -20.006  1.00  0.00     0.279 HD
ENDBRANCH  28  31
ENDBRANCH   1  28
BRANCH   6  35
HETATM   35  N4  UNL     1      31.462 -19.378 -14.945  1.00  0.00    -0.234 N 
ATOM     36  H42 UNL     1      31.178 -20.159 -14.355  1.00  0.00     0.174 HD
ATOM     37  H41 UNL     1      31.708 -18.496 -14.497  1.00  0.00     0.174 HD
ENDBRANCH   6  35
TORSDOF 13
ENDMDL
MODEL 2
REMARK VINA RESULT: -6.065439792      0.763      1.034
REMARK  13 active torsions:
REMARK  status: ('A' for Active; 'I' for Inactive)
REMARK    1  A    between atoms: O1_2  and  C2_3 
REMARK    2  A    between atoms: C2_3  and  N1_4 
REMARK    3  A    between atoms: C2_3  and  N2_8 
REMARK    4  A    between atoms: C4_13  and  N4_14 
REMARK    5  A    between atoms: C5_19  and  N6_20 
REMARK    6  A    between atoms: N6_20  and  C6_22 
REMARK    7  A    between atoms: C6_22  and  C7_23 
REMARK    8  A    between atoms: C7_23  and  C8_24 
REMARK    9  A    between atoms: C8_24  and  N7_25 
REMARK   10  A    between atoms: N7_25  and  C9_28 
REMARK   11  A    between atoms: C9_28  and  C10_29 
REMARK   12  A    between atoms: C10_29  and  N8_30 
REMARK   13  A    between atoms: C10_29  and  C11_34 
ROOT
HETATM    1  N2  UNL     1      31.723 -20.027 -18.778  1.00  0.00    -0.078 N 
HETATM    2  C3  UNL     1      30.559 -20.228 -18.155  1.00  0.00     0.358 A 
HETATM    3  O2  UNL     1      29.550 -20.724 -18.735  1.00  0.00    -0.245 OA
HETATM    4  N3  UNL     1      30.418 -19.897 -16.844  1.00  0.00    -0.140 N 
ATOM      5  H3  UNL     1      29.525 -20.054 -16.376  1.00  0.00     0.189 HD
HETATM    6  C4  UNL     1      31.438 -19.370 -16.164  1.00  0.00     0.694 A 
HETATM    7  N5  UNL     1      32.600 -19.175 -16.805  1.00  0.00    -0.022 N 
ATOM      8  H5  UNL     1      33.387 -18.771 -16.297  1.00  0.00     0.203 HD
HETATM    9  C5  UNL     1      32.752 -19.497 -18.099  1.00  0.00     0.702 A 
ENDROOT
BRANCH   9  10
HETATM   10  N6  UNL     1      33.873 -19.306 -18.706  1.00  0.00    -0.225 N 
ATOM     11  H6  UNL     1      34.127 -19.983 -19.427  1.00  0.00     0.177 HD
BRANCH  10  12
HETATM   12  C6  UNL     1      34.796 -18.242 -18.471  1.00  0.00     0.139 C 
BRANCH  12  13
HETATM   13  C7  UNL     1      36.112 -18.682 -17.929  1.00  0.00     0.048 C 
BRANCH  13  14
HETATM   14  C8  UNL     1      36.515 -20.031 -18.453  1.00  0.00     0.234 C 
BRANCH  14  15
HETATM   15  N7  UNL     1      36.610 -21.009 -17.411  1.00  0.00    -0.073 N 
ATOM     16  H72 UNL     1      37.579 -21.156 -17.130  1.00  0.00     0.277 HD
ATOM     17  H71 UNL     1      36.240 -20.650 -16.531  1.00  0.00     0.277 HD
BRANCH  15  18
HETATM   18  C9  UNL     1      35.971 -22.261 -17.783  1.00  0.00     0.270 C 
BRANCH  18  19
HETATM   19  C10 UNL     1      35.007 -22.705 -16.698  1.00  0.00     0.246 C 
BRANCH  19  20
HETATM   20  N8  UNL     1      34.846 -21.617 -15.746  1.00  0.00    -0.069 N 
ATOM     21  H83 UNL     1      34.170 -21.834 -15.013  1.00  0.00     0.275 HD
ATOM     22  H82 UNL     1      35.664 -21.495 -15.149  1.00  0.00     0.275 HD
ATOM     23  H81 UNL     1      34.606 -20.768 -16.258  1.00  0.00     0.275 HD
ENDBRANCH  19  20
BRANCH  19  24
HETATM   24  C11 UNL     1      33.671 -23.039 -17.232  1.00  0.00     0.087 C 
HETATM   25  N9  UNL     1      32.635 -22.781 -16.549  1.00  0.00    -0.409 N 
ATOM     26  H92 UNL     1      32.741 -22.343 -15.634  1.00  0.00     0.155 HD
ATOM     27  H91 UNL     1      31.712 -23.012 -16.918  1.00  0.00     0.155 HD
ENDBRANCH  19  24
ENDBRANCH  18  19
ENDBRANCH  15  18
ENDBRANCH  14  15
ENDBRANCH  13  14
ENDBRANCH  12  13
ENDBRANCH  10  12
ENDBRANCH   9  10
BRANCH   1  28
HETATM   28  C2  UNL     1      31.809 -20.403 -20.184  1.00  0.00     0.452 C 
BRANCH  28  29
HETATM   29  O1  UNL     1      30.875 -19.766 -20.955  1.00  0.00    -0.348 OA
HETATM   30  C1  UNL     1      31.466 -18.705 -21.632  1.00  0.00     0.206 C 
ENDBRANCH  28  29
BRANCH  28  31
HETATM   31  N1  UNL     1      31.645 -21.853 -20.221  1.00  0.00    -0.034 N 
ATOM     32  H13 UNL     1      32.186 -22.307 -19.485  1.00  0.00     0.279 HD
ATOM     33  H12 UNL     1      30.709 -22.129 -19.924  1.00  0.00     0.279 HD
ATOM     34  H11 UNL     1      31.871 -22.236 -21.138  1.00  0.00     0.279 HD
ENDBRANCH  28  31
ENDBRANCH   1  28
BRANCH   6  35
HETATM   35  N4  UNL     1      31.355 -19.036 -14.908  1.00  0.00    -0.234 N 
ATOM     36  H42 UNL     1      30.603 -19.433 -14.346  1.00  0.00     0.174 HD
ATOM     37  H41 UNL     1      32.009 -18.394 -14.461  1.00  0.00     0.174 HD
ENDBRANCH   6  35
TORSDOF 13
ENDMDL
MODEL 3
REMARK VINA RESULT: -5.991150250      1.828      3.377
REMARK  13 active torsions:
REMARK  status: ('A' for Active; 'I' for Inactive)
REMARK    1  A    between atoms: O1_2  and  C2_3 
REMARK    2  A    between atoms: C2_3  and  N1_4 
REMARK    3  A    between atoms: C2_3  and  N2_8 
REMARK    4  A    between atoms: C4_13  and  N4_14 
REMARK    5  A    between atoms: C5_19  and  N6_20 
REMARK    6  A    between atoms: N6_20  and  C6_22 
REMARK    7  A    between atoms: C6_22  and  C7_23 
REMARK    8  A    between atoms: C7_23  and  C8_24 
REMARK    9  A    between atoms: C8_24  and  N7_25 
REMARK   10  A    between atoms: N7_25  and  C9_28 
REMARK   11  A    between atoms: C9_28  and  C10_29 
REMARK   12  A    between atoms: C10_29  and  N8_30 
REMARK   13  A    between atoms: C10_29  and  C11_34 
ROOT
HETATM    1  N2  UNL     1      31.759 -20.812 -17.123  1.00  0.00    -0.078 N 
HETATM    2  C3  UNL     1      31.933 -20.862 -15.800  1.00  0.00     0.358 A 
HETATM    3  O2  UNL     1      32.265 -21.922 -15.193  1.00  0.00    -0.245 OA
HETATM    4  N3  UNL     1      31.753 -19.748 -15.042  1.00  0.00    -0.140 N 
ATOM      5  H3  UNL     1      31.888 -19.795 -14.033  1.00  0.00     0.189 HD
HETATM    6  C4  UNL     1      31.402 -18.592 -15.610  1.00  0.00     0.694 A 
HETATM    7  N5  UNL     1      31.231 -18.559 -16.940  1.00  0.00    -0.022 N 
ATOM      8  H5  UNL     1      30.962 -17.682 -17.386  1.00  0.00     0.203 HD
HETATM    9  C5  UNL     1      31.406 -19.653 -17.698  1.00  0.00     0.702 A 
ENDROOT
BRANCH   9  10
HETATM   10  N6  UNL     1      31.240 -19.611 -18.976  1.00  0.00    -0.225 N 
ATOM     11  H6  UNL     1      30.816 -20.430 -19.412  1.00  0.00     0.177 HD
BRANCH  10  12
HETATM   12  C6  UNL     1      31.591 -18.531 -19.844  1.00  0.00     0.139 C 
BRANCH  12  13
HETATM   13  C7  UNL     1      32.867 -18.731 -20.584  1.00  0.00     0.048 C 
BRANCH  13  14
HETATM   14  C8  UNL     1      34.064 -18.618 -19.684  1.00  0.00     0.234 C 
BRANCH  14  15
HETATM   15  N7  UNL     1      34.728 -19.874 -19.506  1.00  0.00    -0.073 N 
ATOM     16  H72 UNL     1      34.138 -20.650 -19.805  1.00  0.00     0.277 HD
ATOM     17  H71 UNL     1      35.492 -19.987 -20.173  1.00  0.00     0.277 HD
BRANCH  15  18
HETATM   18  C9  UNL     1      35.189 -20.056 -18.139  1.00  0.00     0.270 C 
BRANCH  18  19
HETATM   19  C10 UNL     1      36.013 -21.325 -18.023  1.00  0.00     0.246 C 
BRANCH  19  20
HETATM   20  N8  UNL     1      37.378 -20.961 -17.672  1.00  0.00    -0.069 N 
ATOM     21  H83 UNL     1      37.419 -20.180 -17.016  1.00  0.00     0.275 HD
ATOM     22  H82 UNL     1      37.831 -21.661 -17.084  1.00  0.00     0.275 HD
ATOM     23  H81 UNL     1      37.897 -20.778 -18.530  1.00  0.00     0.275 HD
ENDBRANCH  19  20
BRANCH  19  24
HETATM   24  C11 UNL     1      35.506 -22.234 -16.975  1.00  0.00     0.087 C 
HETATM   25  N9  UNL     1      35.318 -21.801 -15.799  1.00  0.00    -0.409 N 
ATOM     26  H92 UNL     1      35.522 -20.824 -15.592  1.00  0.00     0.155 HD
ATOM     27  H91 UNL     1      34.968 -22.430 -15.076  1.00  0.00     0.155 HD
ENDBRANCH  19  24
ENDBRANCH  18  19
ENDBRANCH  15  18
ENDBRANCH  14  15
ENDBRANCH  13  14
ENDBRANCH  12  13
ENDBRANCH  10  12
ENDBRANCH   9  10
BRANCH   1  28
HETATM   28  C2  UNL     1      31.967 -22.042 -17.877  1.00  0.00     0.452 C 
BRANCH  28  29
HETATM   29  O1  UNL     1      32.393 -21.806 -19.157  1.00  0.00    -0.348 OA
HETATM   30  C1  UNL     1      32.787 -23.000 -19.751  1.00  0.00     0.206 C 
ENDBRANCH  28  29
BRANCH  28  31
HETATM   31  N1  UNL     1      30.691 -22.748 -17.852  1.00  0.00    -0.034 N 
ATOM     32  H13 UNL     1      30.095 -22.466 -18.630  1.00  0.00     0.279 HD
ATOM     33  H12 UNL     1      30.806 -23.734 -18.088  1.00  0.00     0.279 HD
ATOM     34  H11 UNL     1      30.212 -22.635 -16.959  1.00  0.00     0.279 HD
ENDBRANCH  28  31
ENDBRANCH   1  28
BRANCH   6  35
HETATM   35  N4  UNL     1      31.217 -17.497 -14.930  1.00  0.00    -0.234 N 
ATOM     36  H42 UNL     1      32.017 -17.072 -14.461  1.00  0.00     0.174 HD
ATOM     37  H41 UNL     1      30.308 -17.043 -14.846  1.00  0.00     0.174 HD
ENDBRANCH   6  35
TORSDOF 13
ENDMDL
MODEL 4
REMARK VINA RESULT: -5.990347665      2.707      5.853
REMARK  13 active torsions:
REMARK  status: ('A' for Active; 'I' for Inactive)
REMARK    1  A    between atoms: O1_2  and  C2_3 
REMARK    2  A    between atoms: C2_3  and  N1_4 
REMARK    3  A    between atoms: C2_3  and  N2_8 
REMARK    4  A    between atoms: C4_13  and  N4_14 
REMARK    5  A    between atoms: C5_19  and  N6_20 
REMARK    6  A    between atoms: N6_20  and  C6_22 
REMARK    7  A    between atoms: C6_22  and  C7_23 
REMARK    8  A    between atoms: C7_23  and  C8_24 
REMARK    9  A    between atoms: C8_24  and  N7_25 
REMARK   10  A    between atoms: N7_25  and  C9_28 
REMARK   11  A    between atoms: C9_28  and  C10_29 
REMARK   12  A    between atoms: C10_29  and  N8_30 
REMARK   13  A    between atoms: C10_29  and  C11_34 
ROOT
HETATM    1  N2  UNL     1      30.609 -19.251 -16.698  1.00  0.00    -0.078 N 
HETATM    2  C3  UNL     1      31.220 -19.105 -15.519  1.00  0.00     0.358 A 
HETATM    3  O2  UNL     1      31.114 -18.057 -14.819  1.00  0.00    -0.245 OA
HETATM    4  N3  UNL     1      31.995 -20.105 -15.021  1.00  0.00    -0.140 N 
ATOM      5  H3  UNL     1      32.458 -19.986 -14.120  1.00  0.00     0.189 HD
HETATM    6  C4  UNL     1      32.155 -21.242 -15.701  1.00  0.00     0.694 A 
HETATM    7  N5  UNL     1      31.534 -21.371 -16.883  1.00  0.00    -0.022 N 
ATOM      8  H5  UNL     1      31.649 -22.235 -17.414  1.00  0.00     0.203 HD
HETATM    9  C5  UNL     1      30.767 -20.392 -17.385  1.00  0.00     0.702 A 
ENDROOT
BRANCH   9  10
HETATM   10  N6  UNL     1      30.174 -20.526 -18.523  1.00  0.00    -0.225 N 
ATOM     11  H6  UNL     1      29.175 -20.317 -18.548  1.00  0.00     0.177 HD
BRANCH  10  12
HETATM   12  C6  UNL     1      30.775 -20.940 -19.751  1.00  0.00     0.139 C 
BRANCH  12  13
HETATM   13  C7  UNL     1      31.628 -19.902 -20.394  1.00  0.00     0.048 C 
BRANCH  13  14
HETATM   14  C8  UNL     1      31.325 -19.752 -21.858  1.00  0.00     0.234 C 
BRANCH  14  15
HETATM   15  N7  UNL     1      30.621 -18.538 -22.143  1.00  0.00    -0.073 N 
ATOM     16  H72 UNL     1      29.792 -18.715 -22.709  1.00  0.00     0.277 HD
ATOM     17  H71 UNL     1      30.169 -18.167 -21.307  1.00  0.00     0.277 HD
BRANCH  15  18
HETATM   18  C9  UNL     1      31.483 -17.545 -22.763  1.00  0.00     0.270 C 
BRANCH  18  19
HETATM   19  C10 UNL     1      31.330 -16.203 -22.069  1.00  0.00     0.246 C 
BRANCH  19  20
HETATM   20  N8  UNL     1      30.139 -16.246 -21.233  1.00  0.00    -0.069 N 
ATOM     21  H83 UNL     1      29.402 -16.829 -21.631  1.00  0.00     0.275 HD
ATOM     22  H82 UNL     1      30.285 -16.773 -20.372  1.00  0.00     0.275 HD
ATOM     23  H81 UNL     1      29.830 -15.291 -21.058  1.00  0.00     0.275 HD
ENDBRANCH  19  20
BRANCH  19  24
HETATM   24  C11 UNL     1      32.480 -15.883 -21.199  1.00  0.00     0.087 C 
HETATM   25  N9  UNL     1      32.711 -14.679 -20.876  1.00  0.00    -0.409 N 
ATOM     26  H92 UNL     1      32.094 -13.945 -21.223  1.00  0.00     0.155 HD
ATOM     27  H91 UNL     1      33.506 -14.458 -20.275  1.00  0.00     0.155 HD
ENDBRANCH  19  24
ENDBRANCH  18  19
ENDBRANCH  15  18
ENDBRANCH  14  15
ENDBRANCH  13  14
ENDBRANCH  12  13
ENDBRANCH  10  12
ENDBRANCH   9  10
BRANCH   1  28
HETATM   28  C2  UNL     1      29.792 -18.142 -17.175  1.00  0.00     0.452 C 
BRANCH  28  29
HETATM   29  O1  UNL     1      28.526 -18.533 -17.519  1.00  0.00    -0.348 OA
HETATM   30  C1  UNL     1      27.692 -18.462 -16.408  1.00  0.00     0.206 C 
ENDBRANCH  28  29
BRANCH  28  31
HETATM   31  N1  UNL     1      30.512 -17.575 -18.311  1.00  0.00    -0.034 N 
ATOM     32  H13 UNL     1      29.986 -17.690 -19.178  1.00  0.00     0.279 HD
ATOM     33  H12 UNL     1      30.530 -16.556 -18.269  1.00  0.00     0.279 HD
ATOM     34  H11 UNL     1      31.452 -17.960 -18.394  1.00  0.00     0.279 HD
ENDBRANCH  28  31
ENDBRANCH   1  28
BRANCH   6  35
HETATM   35  N4  UNL     1      32.886 -22.229 -15.269  1.00  0.00    -0.234 N 
ATOM     36  H42 UNL     1      32.581 -22.736 -14.438  1.00  0.00     0.174 HD
ATOM     37  H41 UNL     1      33.750 -22.520 -15.725  1.00  0.00     0.174 HD
ENDBRANCH   6  35
TORSDOF 13
ENDMDL
MODEL 5
REMARK VINA RESULT: -5.962004718      1.868      2.989
REMARK  13 active torsions:
REMARK  status: ('A' for Active; 'I' for Inactive)
REMARK    1  A    between atoms: O1_2  and  C2_3 
REMARK    2  A    between atoms: C2_3  and  N1_4 
REMARK    3  A    between atoms: C2_3  and  N2_8 
REMARK    4  A    between atoms: C4_13  and  N4_14 
REMARK    5  A    between atoms: C5_19  and  N6_20 
REMARK    6  A    between atoms: N6_20  and  C6_22 
REMARK    7  A    between atoms: C6_22  and  C7_23 
REMARK    8  A    between atoms: C7_23  and  C8_24 
REMARK    9  A    between atoms: C8_24  and  N7_25 
REMARK   10  A    between atoms: N7_25  and  C9_28 
REMARK   11  A    between atoms: C9_28  and  C10_29 
REMARK   12  A    between atoms: C10_29  and  N8_30 
REMARK   13  A    between atoms: C10_29  and  C11_34 
ROOT
HETATM    1  N2  UNL     1      31.379 -19.412 -17.819  1.00  0.00    -0.078 N 
HETATM    2  C3  UNL     1      30.285 -20.157 -18.001  1.00  0.00     0.358 A 
HETATM    3  O2  UNL     1      29.115 -19.681 -17.931  1.00  0.00    -0.245 OA
HETATM    4  N3  UNL     1      30.397 -21.484 -18.274  1.00  0.00    -0.140 N 
ATOM      5  H3  UNL     1      29.557 -22.045 -18.411  1.00  0.00     0.189 HD
HETATM    6  C4  UNL     1      31.598 -22.058 -18.364  1.00  0.00     0.694 A 
HETATM    7  N5  UNL     1      32.686 -21.296 -18.178  1.00  0.00    -0.022 N 
ATOM      8  H5  UNL     1      33.610 -21.724 -18.244  1.00  0.00     0.203 HD
HETATM    9  C5  UNL     1      32.589 -19.986 -17.909  1.00  0.00     0.702 A 
ENDROOT
BRANCH   9  10
HETATM   10  N6  UNL     1      33.641 -19.261 -17.732  1.00  0.00    -0.225 N 
ATOM     11  H6  UNL     1      33.797 -18.899 -16.791  1.00  0.00     0.177 HD
BRANCH  10  12
HETATM   12  C6  UNL     1      34.610 -18.915 -18.723  1.00  0.00     0.139 C 
BRANCH  12  13
HETATM   13  C7  UNL     1      35.660 -19.949 -18.940  1.00  0.00     0.048 C 
BRANCH  13  14
HETATM   14  C8  UNL     1      36.545 -20.114 -17.738  1.00  0.00     0.234 C 
BRANCH  14  15
HETATM   15  N7  UNL     1      36.354 -21.379 -17.095  1.00  0.00    -0.073 N 
ATOM     16  H72 UNL     1      37.178 -21.650 -16.559  1.00  0.00     0.277 HD
ATOM     17  H71 UNL     1      35.682 -21.307 -16.330  1.00  0.00     0.277 HD
BRANCH  15  18
HETATM   18  C9  UNL     1      35.971 -22.415 -18.040  1.00  0.00     0.270 C 
BRANCH  18  19
HETATM   19  C10 UNL     1      35.350 -23.593 -17.311  1.00  0.00     0.246 C 
BRANCH  19  20
HETATM   20  N8  UNL     1      36.382 -24.593 -17.079  1.00  0.00    -0.069 N 
ATOM     21  H83 UNL     1      36.225 -25.449 -17.611  1.00  0.00     0.275 HD
ATOM     22  H82 UNL     1      37.277 -24.333 -17.493  1.00  0.00     0.275 HD
ATOM     23  H81 UNL     1      36.451 -24.763 -16.076  1.00  0.00     0.275 HD
ENDBRANCH  19  20
BRANCH  19  24
HETATM   24  C11 UNL     1      34.787 -23.214 -15.999  1.00  0.00     0.087 C 
HETATM   25  N9  UNL     1      33.721 -23.760 -15.587  1.00  0.00    -0.409 N 
ATOM     26  H92 UNL     1      33.265 -24.460 -16.171  1.00  0.00     0.155 HD
ATOM     27  H91 UNL     1      33.333 -23.498 -14.680  1.00  0.00     0.155 HD
ENDBRANCH  19  24
ENDBRANCH  18  19
ENDBRANCH  15  18
ENDBRANCH  14  15
ENDBRANCH  13  14
ENDBRANCH  12  13
ENDBRANCH  10  12
ENDBRANCH   9  10
BRANCH   1  28
HETATM   28  C2  UNL     1      31.191 -17.997 -17.530  1.00  0.00     0.452 C 
BRANCH  28  29
HETATM   29  O1  UNL     1      30.424 -17.786 -16.415  1.00  0.00    -0.348 OA
HETATM   30  C1  UNL     1      31.242 -17.664 -15.296  1.00  0.00     0.206 C 
ENDBRANCH  28  29
BRANCH  28  31
HETATM   31  N1  UNL     1      30.579 -17.422 -18.724  1.00  0.00    -0.034 N 
ATOM     32  H13 UNL     1      29.625 -17.760 -18.852  1.00  0.00     0.279 HD
ATOM     33  H12 UNL     1      30.381 -16.429 -18.599  1.00  0.00     0.279 HD
ATOM     34  H11 UNL     1      31.145 -17.585 -19.555  1.00  0.00     0.279 HD
ENDBRANCH  28  31
ENDBRANCH   1  28
BRANCH   6  35
HETATM   35  N4  UNL     1      31.760 -23.324 -18.623  1.00  0.00    -0.234 N 
ATOM     36  H42 UNL     1      30.943 -23.935 -18.608  1.00  0.00     0.174 HD
ATOM     37  H41 UNL     1      32.668 -23.734 -18.841  1.00  0.00     0.174 HD
ENDBRANCH   6  35
TORSDOF 13
ENDMDL
