MODEL 1
REMARK VINA RESULT: -6.808661353      0.000      0.000
REMARK  10 active torsions:
REMARK  status: ('A' for Active; 'I' for Inactive)
REMARK    1  A    between atoms: N1_2  and  C2_3 
REMARK    2  A    between atoms: N1_2  and  C6_13 
REMARK    3  A    between atoms: C2_3  and  C3_4 
REMARK    4  A    between atoms: C3_4  and  N2_5 
REMARK    5  A    between atoms: N2_5  and  C4_7 
REMARK    6  A    between atoms: C4_7  and  C5_8 
REMARK    7  A    between atoms: C5_8  and  N3_9 
REMARK    8  A    between atoms: C6_13  and  C7_14 
REMARK    9  A    between atoms: C7_14  and  N4_15 
REMARK       I    between atoms: N4_15  and  C8_17 
REMARK       I    between atoms: C8_17  and  N6_21 
REMARK   10  A    between atoms: N6_21  and  C9_23 
ROOT
HETATM    1  N4  UNL     1      31.634 -16.697 -21.891  1.00  0.00    -0.225 N 
ATOM      2  H4  UNL     1      31.798 -15.769 -22.281  1.00  0.00     0.177 HD
HETATM    3  C8  UNL     1      31.006 -16.833 -20.605  1.00  0.00     0.669 C 
HETATM    4  N5  UNL     1      29.907 -16.192 -20.464  1.00  0.00    -0.235 N 
ATOM      5  H51 UNL     1      29.461 -16.288 -19.551  1.00  0.00     0.174 HD
ATOM      6  H52 UNL     1      29.500 -15.623 -21.206  1.00  0.00     0.174 HD
HETATM    7  N6  UNL     1      31.568 -17.618 -19.580  1.00  0.00    -0.201 N 
ATOM      8  H6  UNL     1      32.256 -18.317 -19.862  1.00  0.00     0.180 HD
ENDROOT
BRANCH   1   9
HETATM    9  C7  UNL     1      32.041 -17.892 -22.646  1.00  0.00     0.157 C 
BRANCH   9  10
HETATM   10  C6  UNL     1      30.777 -18.571 -23.077  1.00  0.00     0.141 C 
BRANCH  10  11
HETATM   11  N1  UNL     1      30.799 -19.998 -22.918  1.00  0.00    -0.394 N 
HETATM   12  C1  UNL     1      30.914 -20.783 -24.063  1.00  0.00     0.148 C 
BRANCH  11  13
HETATM   13  C2  UNL     1      31.122 -20.476 -21.640  1.00  0.00     0.077 C 
BRANCH  13  14
HETATM   14  C3  UNL     1      32.169 -21.550 -21.582  1.00  0.00     0.158 C 
BRANCH  14  15
HETATM   15  N2  UNL     1      31.981 -22.387 -20.437  1.00  0.00    -0.415 N 
ATOM     16  H2  UNL     1      31.414 -23.234 -20.484  1.00  0.00     0.153 HD
BRANCH  15  17
HETATM   17  C4  UNL     1      32.612 -21.989 -19.238  1.00  0.00     0.141 C 
BRANCH  17  18
HETATM   18  C5  UNL     1      32.342 -23.039 -18.170  1.00  0.00     0.248 C 
BRANCH  18  19
HETATM   19  N3  UNL     1      30.921 -22.925 -17.848  1.00  0.00    -0.078 N 
ATOM     20  H33 UNL     1      30.743 -22.633 -16.886  1.00  0.00     0.274 HD
ATOM     21  H32 UNL     1      30.463 -22.135 -18.303  1.00  0.00     0.274 HD
ATOM     22  H31 UNL     1      30.508 -23.827 -18.082  1.00  0.00     0.274 HD
ENDBRANCH  18  19
ENDBRANCH  17  18
ENDBRANCH  15  17
ENDBRANCH  14  15
ENDBRANCH  13  14
ENDBRANCH  11  13
ENDBRANCH  10  11
ENDBRANCH   9  10
ENDBRANCH   1   9
BRANCH   7  23
HETATM   23  C9  UNL     1      31.267 -17.534 -18.165  1.00  0.00     0.240 C 
HETATM   24  C10 UNL     1      32.388 -17.913 -17.281  1.00  0.00     0.110 C 
HETATM   25  N7  UNL     1      32.408 -19.194 -16.697  1.00  0.00    -0.340 N 
HETATM   26  C11 UNL     1      31.385 -19.965 -16.106  1.00  0.00     0.194 C 
ATOM     27  H7  UNL     1      33.324 -19.643 -16.702  1.00  0.00     0.167 HD
HETATM   28  N8  UNL     1      31.785 -20.998 -15.188  1.00  0.00    -0.063 NA
HETATM   29  N9  UNL     1      30.116 -19.831 -16.331  1.00  0.00    -0.305 N 
HETATM   30  C12 UNL     1      29.416 -18.930 -17.180  1.00  0.00     0.192 C 
ATOM     31  H9  UNL     1      29.520 -20.478 -15.814  1.00  0.00     0.171 HD
HETATM   32  N10 UNL     1      28.004 -19.069 -17.194  1.00  0.00    -0.063 NA
HETATM   33  N11 UNL     1      29.979 -18.044 -17.878  1.00  0.00    -0.338 N 
ATOM     34  H11 UNL     1      29.277 -17.525 -18.407  1.00  0.00     0.164 HD
ENDBRANCH   7  23
TORSDOF 10
ENDMDL
MODEL 2
REMARK VINA RESULT: -6.775500775      1.016      1.161
REMARK  10 active torsions:
REMARK  status: ('A' for Active; 'I' for Inactive)
REMARK    1  A    between atoms: N1_2  and  C2_3 
REMARK    2  A    between atoms: N1_2  and  C6_13 
REMARK    3  A    between atoms: C2_3  and  C3_4 
REMARK    4  A    between atoms: C3_4  and  N2_5 
REMARK    5  A    between atoms: N2_5  and  C4_7 
REMARK    6  A    between atoms: C4_7  and  C5_8 
REMARK    7  A    between atoms: C5_8  and  N3_9 
REMARK    8  A    between atoms: C6_13  and  C7_14 
REMARK    9  A    between atoms: C7_14  and  N4_15 
REMARK       I    between atoms: N4_15  and  C8_17 
REMARK       I    between atoms: C8_17  and  N6_21 
REMARK   10  A    between atoms: N6_21  and  C9_23 
ROOT
HETATM    1  N4  UNL     1      32.481 -16.997 -21.682  1.00  0.00    -0.225 N 
ATOM      2  H4  UNL     1      33.451 -16.779 -21.912  1.00  0.00     0.177 HD
HETATM    3  C8  UNL     1      31.961 -16.663 -20.384  1.00  0.00     0.669 C 
HETATM    4  N5  UNL     1      32.148 -15.451 -20.016  1.00  0.00    -0.235 N 
ATOM      5  H51 UNL     1      31.779 -15.214 -19.095  1.00  0.00     0.174 HD
ATOM      6  H52 UNL     1      32.632 -14.766 -20.596  1.00  0.00     0.174 HD
HETATM    7  N6  UNL     1      31.294 -17.609 -19.582  1.00  0.00    -0.201 N 
ATOM      8  H6  UNL     1      30.927 -18.435 -20.056  1.00  0.00     0.180 HD
ENDROOT
BRANCH   1   9
HETATM    9  C7  UNL     1      31.619 -17.650 -22.680  1.00  0.00     0.157 C 
BRANCH   9  10
HETATM   10  C6  UNL     1      32.187 -19.019 -22.897  1.00  0.00     0.141 C 
BRANCH  10  11
HETATM   11  N1  UNL     1      31.566 -20.040 -22.099  1.00  0.00    -0.394 N 
HETATM   12  C1  UNL     1      30.339 -20.546 -22.521  1.00  0.00     0.148 C 
BRANCH  11  13
HETATM   13  C2  UNL     1      32.406 -20.733 -21.216  1.00  0.00     0.077 C 
BRANCH  13  14
HETATM   14  C3  UNL     1      31.819 -21.071 -19.875  1.00  0.00     0.158 C 
BRANCH  14  15
HETATM   15  N2  UNL     1      31.789 -22.487 -19.672  1.00  0.00    -0.415 N 
ATOM     16  H2  UNL     1      31.742 -23.136 -20.458  1.00  0.00     0.153 HD
BRANCH  15  17
HETATM   17  C4  UNL     1      31.829 -22.947 -18.338  1.00  0.00     0.141 C 
BRANCH  17  18
HETATM   18  C5  UNL     1      33.277 -22.979 -17.873  1.00  0.00     0.248 C 
BRANCH  18  19
HETATM   19  N3  UNL     1      33.239 -23.404 -16.475  1.00  0.00    -0.078 N 
ATOM     20  H33 UNL     1      32.794 -24.312 -16.338  1.00  0.00     0.274 HD
ATOM     21  H32 UNL     1      34.154 -23.658 -16.102  1.00  0.00     0.274 HD
ATOM     22  H31 UNL     1      32.785 -22.647 -15.965  1.00  0.00     0.274 HD
ENDBRANCH  18  19
ENDBRANCH  17  18
ENDBRANCH  15  17
ENDBRANCH  14  15
ENDBRANCH  13  14
ENDBRANCH  11  13
ENDBRANCH  10  11
ENDBRANCH   9  10
ENDBRANCH   1   9
BRANCH   7  23
HETATM   23  C9  UNL     1      31.076 -17.528 -18.152  1.00  0.00     0.240 C 
HETATM   24  C10 UNL     1      32.241 -17.921 -17.335  1.00  0.00     0.110 C 
HETATM   25  N7  UNL     1      32.284 -19.203 -16.758  1.00  0.00    -0.340 N 
HETATM   26  C11 UNL     1      31.289 -19.967 -16.111  1.00  0.00     0.194 C 
ATOM     27  H7  UNL     1      33.194 -19.661 -16.817  1.00  0.00     0.167 HD
HETATM   28  N8  UNL     1      31.731 -21.008 -15.221  1.00  0.00    -0.063 NA
HETATM   29  N9  UNL     1      30.010 -19.821 -16.263  1.00  0.00    -0.305 N 
HETATM   30  C12 UNL     1      29.271 -18.911 -17.067  1.00  0.00     0.192 C 
ATOM     31  H9  UNL     1      29.439 -20.465 -15.714  1.00  0.00     0.171 HD
HETATM   32  N10 UNL     1      27.859 -19.037 -17.000  1.00  0.00    -0.063 NA
HETATM   33  N11 UNL     1      29.801 -18.027 -17.793  1.00  0.00    -0.338 N 
ATOM     34  H11 UNL     1      29.075 -17.500 -18.279  1.00  0.00     0.164 HD
ENDBRANCH   7  23
TORSDOF 10
ENDMDL
MODEL 3
REMARK VINA RESULT: -6.724551758      1.205      1.545
REMARK  10 active torsions:
REMARK  status: ('A' for Active; 'I' for Inactive)
REMARK    1  A    between atoms: N1_2  and  C2_3 
REMARK    2  A    between atoms: N1_2  and  C6_13 
REMARK    3  A    between atoms: C2_3  and  C3_4 
REMARK    4  A    between atoms: C3_4  and  N2_5 
REMARK    5  A    between atoms: N2_5  and  C4_7 
REMARK    6  A    between atoms: C4_7  and  C5_8 
REMARK    7  A    between atoms: C5_8  and  N3_9 
REMARK    8  A    between atoms: C6_13  and  C7_14 
REMARK    9  A    between atoms: C7_14  and  N4_15 
REMARK       I    between atoms: N4_15  and  C8_17 
REMARK       I    between atoms: C8_17  and  N6_21 
REMARK   10  A    between atoms: N6_21  and  C9_23 
ROOT
HETATM    1  N4  UNL     1      31.577 -17.641 -22.283  1.00  0.00    -0.225 N 
ATOM      2  H4  UNL     1      32.092 -16.917 -22.784  1.00  0.00     0.177 HD
HETATM    3  C8  UNL     1      31.037 -17.362 -20.980  1.00  0.00     0.669 C 
HETATM    4  N5  UNL     1      30.324 -16.302 -20.899  1.00  0.00    -0.235 N 
ATOM      5  H51 UNL     1      29.941 -16.104 -19.975  1.00  0.00     0.174 HD
ATOM      6  H52 UNL     1      30.149 -15.692 -21.698  1.00  0.00     0.174 HD
HETATM    7  N6  UNL     1      31.279 -18.204 -19.877  1.00  0.00    -0.201 N 
ATOM      8  H6  UNL     1      31.586 -19.154 -20.084  1.00  0.00     0.180 HD
ENDROOT
BRANCH   1   9
HETATM    9  C7  UNL     1      31.389 -18.965 -22.895  1.00  0.00     0.157 C 
BRANCH   9  10
HETATM   10  C6  UNL     1      32.759 -19.538 -23.092  1.00  0.00     0.141 C 
BRANCH  10  11
HETATM   11  N1  UNL     1      33.258 -20.256 -21.952  1.00  0.00    -0.394 N 
HETATM   12  C1  UNL     1      34.357 -19.731 -21.276  1.00  0.00     0.148 C 
BRANCH  11  13
HETATM   13  C2  UNL     1      32.377 -21.174 -21.362  1.00  0.00     0.077 C 
BRANCH  13  14
HETATM   14  C3  UNL     1      32.671 -21.550 -19.938  1.00  0.00     0.158 C 
BRANCH  14  15
HETATM   15  N2  UNL     1      31.469 -21.892 -19.241  1.00  0.00    -0.415 N 
ATOM     16  H2  UNL     1      30.571 -21.480 -19.495  1.00  0.00     0.153 HD
BRANCH  15  17
HETATM   17  C4  UNL     1      31.580 -22.824 -18.186  1.00  0.00     0.141 C 
BRANCH  17  18
HETATM   18  C5  UNL     1      33.054 -23.028 -17.866  1.00  0.00     0.248 C 
BRANCH  18  19
HETATM   19  N3  UNL     1      33.131 -23.169 -16.413  1.00  0.00    -0.078 N 
ATOM     20  H33 UNL     1      32.342 -22.750 -15.921  1.00  0.00     0.274 HD
ATOM     21  H32 UNL     1      32.986 -24.125 -16.088  1.00  0.00     0.274 HD
ATOM     22  H31 UNL     1      34.033 -22.778 -16.143  1.00  0.00     0.274 HD
ENDBRANCH  18  19
ENDBRANCH  17  18
ENDBRANCH  15  17
ENDBRANCH  14  15
ENDBRANCH  13  14
ENDBRANCH  11  13
ENDBRANCH  10  11
ENDBRANCH   9  10
ENDBRANCH   1   9
BRANCH   7  23
HETATM   23  C9  UNL     1      31.136 -17.856 -18.478  1.00  0.00     0.240 C 
HETATM   24  C10 UNL     1      32.328 -18.140 -17.655  1.00  0.00     0.110 C 
HETATM   25  N7  UNL     1      32.359 -19.298 -16.855  1.00  0.00    -0.340 N 
HETATM   26  C11 UNL     1      31.375 -19.891 -16.036  1.00  0.00     0.194 C 
ATOM     27  H7  UNL     1      33.250 -19.794 -16.869  1.00  0.00     0.167 HD
HETATM   28  N8  UNL     1      31.828 -20.770 -14.991  1.00  0.00    -0.063 NA
HETATM   29  N9  UNL     1      30.095 -19.723 -16.156  1.00  0.00    -0.305 N 
HETATM   30  C12 UNL     1      29.345 -18.945 -17.080  1.00  0.00     0.192 C 
ATOM     31  H9  UNL     1      29.533 -20.233 -15.474  1.00  0.00     0.171 HD
HETATM   32  N10 UNL     1      27.936 -19.000 -16.929  1.00  0.00    -0.063 NA
HETATM   33  N11 UNL     1      29.866 -18.230 -17.978  1.00  0.00    -0.338 N 
ATOM     34  H11 UNL     1      29.134 -17.771 -18.520  1.00  0.00     0.164 HD
ENDBRANCH   7  23
TORSDOF 10
ENDMDL
MODEL 4
REMARK VINA RESULT: -6.648680026      3.089      5.834
REMARK  10 active torsions:
REMARK  status: ('A' for Active; 'I' for Inactive)
REMARK    1  A    between atoms: N1_2  and  C2_3 
REMARK    2  A    between atoms: N1_2  and  C6_13 
REMARK    3  A    between atoms: C2_3  and  C3_4 
REMARK    4  A    between atoms: C3_4  and  N2_5 
REMARK    5  A    between atoms: N2_5  and  C4_7 
REMARK    6  A    between atoms: C4_7  and  C5_8 
REMARK    7  A    between atoms: C5_8  and  N3_9 
REMARK    8  A    between atoms: C6_13  and  C7_14 
REMARK    9  A    between atoms: C7_14  and  N4_15 
REMARK       I    between atoms: N4_15  and  C8_17 
REMARK       I    between atoms: C8_17  and  N6_21 
REMARK   10  A    between atoms: N6_21  and  C9_23 
ROOT
HETATM    1  N4  UNL     1      37.318 -21.465 -18.087  1.00  0.00    -0.225 N 
ATOM      2  H4  UNL     1      38.097 -21.962 -17.655  1.00  0.00     0.177 HD
HETATM    3  C8  UNL     1      35.975 -21.702 -17.629  1.00  0.00     0.669 C 
HETATM    4  N5  UNL     1      35.804 -21.595 -16.365  1.00  0.00    -0.235 N 
ATOM      5  H51 UNL     1      34.851 -21.762 -16.040  1.00  0.00     0.174 HD
ATOM      6  H52 UNL     1      36.560 -21.361 -15.722  1.00  0.00     0.174 HD
HETATM    7  N6  UNL     1      34.931 -22.025 -18.516  1.00  0.00    -0.201 N 
ATOM      8  H6  UNL     1      35.077 -21.795 -19.499  1.00  0.00     0.180 HD
ENDROOT
BRANCH   1   9
HETATM    9  C7  UNL     1      37.571 -20.511 -19.177  1.00  0.00     0.157 C 
BRANCH   9  10
HETATM   10  C6  UNL     1      37.288 -19.149 -18.620  1.00  0.00     0.141 C 
BRANCH  10  11
HETATM   11  N1  UNL     1      36.060 -18.571 -19.090  1.00  0.00    -0.394 N 
HETATM   12  C1  UNL     1      35.661 -18.853 -20.395  1.00  0.00     0.148 C 
BRANCH  11  13
HETATM   13  C2  UNL     1      35.164 -18.130 -18.106  1.00  0.00     0.077 C 
BRANCH  13  14
HETATM   14  C3  UNL     1      33.748 -18.613 -18.238  1.00  0.00     0.158 C 
BRANCH  14  15
HETATM   15  N2  UNL     1      32.951 -18.167 -17.136  1.00  0.00    -0.415 N 
ATOM     16  H2  UNL     1      33.297 -18.209 -16.178  1.00  0.00     0.153 HD
BRANCH  15  17
HETATM   17  C4  UNL     1      31.665 -17.666 -17.434  1.00  0.00     0.141 C 
BRANCH  17  18
HETATM   18  C5  UNL     1      30.781 -17.823 -16.204  1.00  0.00     0.248 C 
BRANCH  18  19
HETATM   19  N3  UNL     1      31.661 -18.295 -15.138  1.00  0.00    -0.078 N 
ATOM     20  H33 UNL     1      31.375 -19.189 -14.739  1.00  0.00     0.274 HD
ATOM     21  H32 UNL     1      32.578 -18.595 -15.469  1.00  0.00     0.274 HD
ATOM     22  H31 UNL     1      31.701 -17.539 -14.454  1.00  0.00     0.274 HD
ENDBRANCH  18  19
ENDBRANCH  17  18
ENDBRANCH  15  17
ENDBRANCH  14  15
ENDBRANCH  13  14
ENDBRANCH  11  13
ENDBRANCH  10  11
ENDBRANCH   9  10
ENDBRANCH   1   9
BRANCH   7  23
HETATM   23  C9  UNL     1      33.670 -22.651 -18.173  1.00  0.00     0.240 C 
HETATM   24  C10 UNL     1      32.722 -22.765 -19.299  1.00  0.00     0.110 C 
HETATM   25  N7  UNL     1      31.666 -21.841 -19.414  1.00  0.00    -0.340 N 
HETATM   26  C11 UNL     1      30.800 -21.290 -18.446  1.00  0.00     0.194 C 
ATOM     27  H7  UNL     1      31.498 -21.512 -20.365  1.00  0.00     0.167 HD
HETATM   28  N8  UNL     1      29.545 -20.760 -18.909  1.00  0.00    -0.063 NA
HETATM   29  N9  UNL     1      31.046 -21.208 -17.176  1.00  0.00    -0.305 N 
HETATM   30  C12 UNL     1      32.180 -21.619 -16.423  1.00  0.00     0.192 C 
ATOM     31  H9  UNL     1      30.303 -20.778 -16.625  1.00  0.00     0.171 HD
HETATM   32  N10 UNL     1      32.119 -21.362 -15.029  1.00  0.00    -0.063 NA
HETATM   33  N11 UNL     1      33.185 -22.191 -16.926  1.00  0.00    -0.338 N 
ATOM     34  H11 UNL     1      33.871 -22.384 -16.197  1.00  0.00     0.164 HD
ENDBRANCH   7  23
TORSDOF 10
ENDMDL
MODEL 5
REMARK VINA RESULT: -6.596478953      2.971      5.092
REMARK  10 active torsions:
REMARK  status: ('A' for Active; 'I' for Inactive)
REMARK    1  A    between atoms: N1_2  and  C2_3 
REMARK    2  A    between atoms: N1_2  and  C6_13 
REMARK    3  A    between atoms: C2_3  and  C3_4 
REMARK    4  A    between atoms: C3_4  and  N2_5 
REMARK    5  A    between atoms: N2_5  and  C4_7 
REMARK    6  A    between atoms: C4_7  and  C5_8 
REMARK    7  A    between atoms: C5_8  and  N3_9 
REMARK    8  A    between atoms: C6_13  and  C7_14 
REMARK    9  A    between atoms: C7_14  and  N4_15 
REMARK       I    between atoms: N4_15  and  C8_17 
REMARK       I    between atoms: C8_17  and  N6_21 
REMARK   10  A    between atoms: N6_21  and  C9_23 
ROOT
HETATM    1  N4  UNL     1      31.534 -23.402 -17.897  1.00  0.00    -0.225 N 
ATOM      2  H4  UNL     1      30.816 -24.003 -17.492  1.00  0.00     0.177 HD
HETATM    3  C8  UNL     1      31.512 -21.987 -17.637  1.00  0.00     0.669 C 
HETATM    4  N5  UNL     1      31.433 -21.660 -16.402  1.00  0.00    -0.235 N 
ATOM      5  H51 UNL     1      31.418 -20.658 -16.217  1.00  0.00     0.174 HD
ATOM      6  H52 UNL     1      31.387 -22.348 -15.650  1.00  0.00     0.174 HD
HETATM    7  N6  UNL     1      31.575 -21.038 -18.674  1.00  0.00    -0.201 N 
ATOM      8  H6  UNL     1      31.935 -21.362 -19.572  1.00  0.00     0.180 HD
ENDROOT
BRANCH   1   9
HETATM    9  C7  UNL     1      32.586 -23.983 -18.744  1.00  0.00     0.157 C 
BRANCH   9  10
HETATM   10  C6  UNL     1      33.866 -23.859 -17.973  1.00  0.00     0.141 C 
BRANCH  10  11
HETATM   11  N1  UNL     1      34.942 -23.274 -18.722  1.00  0.00    -0.394 N 
HETATM   12  C1  UNL     1      34.752 -23.062 -20.086  1.00  0.00     0.148 C 
BRANCH  11  13
HETATM   13  C2  UNL     1      35.915 -22.589 -17.980  1.00  0.00     0.077 C 
BRANCH  13  14
HETATM   14  C3  UNL     1      35.405 -21.733 -16.856  1.00  0.00     0.158 C 
BRANCH  14  15
HETATM   15  N2  UNL     1      35.449 -20.347 -17.208  1.00  0.00    -0.415 N 
ATOM     16  H2  UNL     1      34.858 -19.660 -16.740  1.00  0.00     0.153 HD
BRANCH  15  17
HETATM   17  C4  UNL     1      36.346 -19.971 -18.232  1.00  0.00     0.141 C 
BRANCH  17  18
HETATM   18  C5  UNL     1      36.013 -18.555 -18.680  1.00  0.00     0.248 C 
BRANCH  18  19
HETATM   19  N3  UNL     1      36.261 -17.701 -17.521  1.00  0.00    -0.078 N 
ATOM     20  H33 UNL     1      35.605 -16.924 -17.440  1.00  0.00     0.274 HD
ATOM     21  H32 UNL     1      36.035 -18.146 -16.631  1.00  0.00     0.274 HD
ATOM     22  H31 UNL     1      37.234 -17.406 -17.594  1.00  0.00     0.274 HD
ENDBRANCH  18  19
ENDBRANCH  17  18
ENDBRANCH  15  17
ENDBRANCH  14  15
ENDBRANCH  13  14
ENDBRANCH  11  13
ENDBRANCH  10  11
ENDBRANCH   9  10
ENDBRANCH   1   9
BRANCH   7  23
HETATM   23  C9  UNL     1      31.182 -19.646 -18.595  1.00  0.00     0.240 C 
HETATM   24  C10 UNL     1      32.238 -18.742 -18.097  1.00  0.00     0.110 C 
HETATM   25  N7  UNL     1      32.210 -18.314 -16.757  1.00  0.00    -0.340 N 
HETATM   26  C11 UNL     1      31.144 -17.886 -15.937  1.00  0.00     0.194 C 
ATOM     27  H7  UNL     1      33.120 -18.312 -16.297  1.00  0.00     0.167 HD
HETATM   28  N8  UNL     1      31.474 -17.073 -14.796  1.00  0.00    -0.063 NA
HETATM   29  N9  UNL     1      29.893 -18.176 -16.116  1.00  0.00    -0.305 N 
HETATM   30  C12 UNL     1      29.258 -18.957 -17.121  1.00  0.00     0.192 C 
ATOM     31  H9  UNL     1      29.260 -17.780 -15.422  1.00  0.00     0.171 HD
HETATM   32  N10 UNL     1      27.849 -19.079 -17.007  1.00  0.00    -0.063 NA
HETATM   33  N11 UNL     1      29.873 -19.505 -18.075  1.00  0.00    -0.338 N 
ATOM     34  H11 UNL     1      29.212 -20.014 -18.663  1.00  0.00     0.164 HD
ENDBRANCH   7  23
TORSDOF 10
ENDMDL
