MODEL 1
REMARK VINA RESULT: -6.317860878      0.000      0.000
REMARK  11 active torsions:
REMARK  status: ('A' for Active; 'I' for Inactive)
REMARK       I    between atoms: C1_4  and  N3_6 
REMARK    1  A    between atoms: N3_6  and  C2_8 
REMARK    2  A    between atoms: C4_10  and  N4_11 
REMARK    3  A    between atoms: C5_16  and  C6_17 
REMARK    4  A    between atoms: C7_20  and  N6_21 
REMARK    5  A    between atoms: N6_21  and  O3_23 
REMARK    6  A    between atoms: O3_23  and  C8_24 
REMARK    7  A    between atoms: C8_24  and  C9_25 
REMARK    8  A    between atoms: C9_25  and  N7_26 
REMARK    9  A    between atoms: N7_26  and  C10_28 
REMARK   10  A    between atoms: C10_28  and  C11_29 
REMARK   11  A    between atoms: C11_29  and  N8_30 
ROOT
HETATM    1  C2  UNL     1      33.081 -22.798 -18.164  1.00  0.00     0.043 C 
HETATM    2  C3  UNL     1      32.998 -23.445 -19.487  1.00  0.00     0.120 C 
HETATM    3  C4  UNL     1      32.403 -22.565 -20.551  1.00  0.00     0.325 C 
HETATM    4  O1  UNL     1      31.366 -21.791 -20.154  1.00  0.00    -0.338 OA
HETATM    5  C5  UNL     1      31.528 -20.996 -19.049  1.00  0.00     0.266 C 
HETATM    6  C7  UNL     1      32.107 -21.698 -17.871  1.00  0.00     0.092 C 
ENDROOT
BRANCH   6   7
HETATM    7  N6  UNL     1      31.215 -21.999 -16.874  1.00  0.00    -0.266 N 
ATOM      8  H6  UNL     1      30.906 -22.972 -16.877  1.00  0.00     0.194 HD
BRANCH   7   9
HETATM    9  O3  UNL     1      30.686 -21.285 -15.925  1.00  0.00    -0.275 OA
BRANCH   9  10
HETATM   10  C8  UNL     1      31.828 -20.515 -15.425  1.00  0.00     0.245 C 
BRANCH  10  11
HETATM   11  C9  UNL     1      31.254 -19.152 -15.118  1.00  0.00     0.084 C 
BRANCH  11  12
HETATM   12  N7  UNL     1      30.312 -18.748 -16.031  1.00  0.00    -0.398 N 
ATOM     13  H7  UNL     1      30.422 -19.056 -16.997  1.00  0.00     0.158 HD
BRANCH  12  14
HETATM   14  C10 UNL     1      29.193 -17.930 -15.719  1.00  0.00     0.146 C 
BRANCH  14  15
HETATM   15  C11 UNL     1      28.057 -18.520 -16.618  1.00  0.00     0.249 C 
BRANCH  15  16
HETATM   16  N8  UNL     1      28.765 -19.424 -17.549  1.00  0.00    -0.078 N 
ATOM     17  H83 UNL     1      28.801 -20.396 -17.243  1.00  0.00     0.274 HD
ATOM     18  H82 UNL     1      28.267 -19.601 -18.421  1.00  0.00     0.274 HD
ATOM     19  H81 UNL     1      29.680 -18.990 -17.671  1.00  0.00     0.274 HD
ENDBRANCH  15  16
ENDBRANCH  14  15
ENDBRANCH  12  14
ENDBRANCH  11  12
ENDBRANCH  10  11
ENDBRANCH   9  10
ENDBRANCH   7   9
ENDBRANCH   6   7
BRANCH   1  20
HETATM   20  N3  UNL     1      34.418 -22.551 -17.649  1.00  0.00    -0.332 N 
HETATM   21  C1  UNL     1      34.872 -22.789 -16.368  1.00  0.00     0.186 C 
HETATM   22  N1  UNL     1      35.344 -21.774 -15.750  1.00  0.00    -0.374 N 
HETATM   23  N2  UNL     1      34.835 -24.042 -15.750  1.00  0.00    -0.064 NA
ATOM     24  H12 UNL     1      35.680 -21.949 -14.803  1.00  0.00     0.158 HD
ATOM     25  H11 UNL     1      35.370 -20.859 -16.200  1.00  0.00     0.158 HD
ATOM     26  H3  UNL     1      35.093 -22.159 -18.306  1.00  0.00     0.168 HD
ENDBRANCH   1  20
BRANCH   5  27
HETATM   27  C6  UNL     1      32.131 -19.670 -19.288  1.00  0.00     0.266 C 
HETATM   28  N5  UNL     1      31.308 -18.524 -19.132  1.00  0.00    -0.059 NA
HETATM   29  O2  UNL     1      33.311 -19.476 -19.618  1.00  0.00    -0.274 OA
ENDBRANCH   5  27
BRANCH   3  30
HETATM   30  N4  UNL     1      31.889 -23.422 -21.615  1.00  0.00    -0.052 N 
ATOM     31  H43 UNL     1      31.229 -24.121 -21.273  1.00  0.00     0.277 HD
ATOM     32  H42 UNL     1      31.254 -22.931 -22.244  1.00  0.00     0.277 HD
ATOM     33  H41 UNL     1      32.683 -23.835 -22.102  1.00  0.00     0.277 HD
ENDBRANCH   3  30
TORSDOF 11
ENDMDL
MODEL 2
REMARK VINA RESULT: -6.237240415      2.024      5.861
REMARK  11 active torsions:
REMARK  status: ('A' for Active; 'I' for Inactive)
REMARK       I    between atoms: C1_4  and  N3_6 
REMARK    1  A    between atoms: N3_6  and  C2_8 
REMARK    2  A    between atoms: C4_10  and  N4_11 
REMARK    3  A    between atoms: C5_16  and  C6_17 
REMARK    4  A    between atoms: C7_20  and  N6_21 
REMARK    5  A    between atoms: N6_21  and  O3_23 
REMARK    6  A    between atoms: O3_23  and  C8_24 
REMARK    7  A    between atoms: C8_24  and  C9_25 
REMARK    8  A    between atoms: C9_25  and  N7_26 
REMARK    9  A    between atoms: N7_26  and  C10_28 
REMARK   10  A    between atoms: C10_28  and  C11_29 
REMARK   11  A    between atoms: C11_29  and  N8_30 
ROOT
HETATM    1  C2  UNL     1      31.602 -18.543 -16.800  1.00  0.00     0.043 C 
HETATM    2  C3  UNL     1      31.580 -17.310 -17.610  1.00  0.00     0.120 C 
HETATM    3  C4  UNL     1      31.525 -17.564 -19.091  1.00  0.00     0.325 C 
HETATM    4  O1  UNL     1      32.272 -18.603 -19.532  1.00  0.00    -0.338 OA
HETATM    5  C5  UNL     1      32.114 -19.825 -18.930  1.00  0.00     0.266 C 
HETATM    6  C7  UNL     1      32.147 -19.782 -17.442  1.00  0.00     0.092 C 
ENDROOT
BRANCH   6   7
HETATM    7  N6  UNL     1      33.307 -20.238 -16.870  1.00  0.00    -0.266 N 
ATOM      8  H6  UNL     1      33.813 -19.527 -16.342  1.00  0.00     0.194 HD
BRANCH   7   9
HETATM    9  O3  UNL     1      33.886 -21.402 -16.872  1.00  0.00    -0.275 OA
BRANCH   9  10
HETATM   10  C8  UNL     1      35.225 -21.096 -17.381  1.00  0.00     0.245 C 
BRANCH  10  11
HETATM   11  C9  UNL     1      35.599 -22.308 -18.202  1.00  0.00     0.084 C 
BRANCH  11  12
HETATM   12  N7  UNL     1      36.188 -23.300 -17.457  1.00  0.00    -0.398 N 
ATOM     13  H7  UNL     1      37.133 -23.138 -17.110  1.00  0.00     0.158 HD
BRANCH  12  14
HETATM   14  C10 UNL     1      35.567 -24.538 -17.137  1.00  0.00     0.146 C 
BRANCH  14  15
HETATM   15  C11 UNL     1      35.311 -24.422 -15.599  1.00  0.00     0.249 C 
BRANCH  15  16
HETATM   16  N8  UNL     1      33.872 -24.095 -15.496  1.00  0.00    -0.078 N 
ATOM     17  H83 UNL     1      33.539 -23.444 -16.207  1.00  0.00     0.274 HD
ATOM     18  H82 UNL     1      33.249 -24.862 -15.747  1.00  0.00     0.274 HD
ATOM     19  H81 UNL     1      33.760 -23.762 -14.538  1.00  0.00     0.274 HD
ENDBRANCH  15  16
ENDBRANCH  14  15
ENDBRANCH  12  14
ENDBRANCH  11  12
ENDBRANCH  10  11
ENDBRANCH   9  10
ENDBRANCH   7   9
ENDBRANCH   6   7
BRANCH   1  20
HETATM   20  N3  UNL     1      30.443 -18.781 -15.956  1.00  0.00    -0.332 N 
HETATM   21  C1  UNL     1      29.117 -18.607 -16.296  1.00  0.00     0.186 C 
HETATM   22  N1  UNL     1      28.456 -17.801 -15.555  1.00  0.00    -0.374 N 
HETATM   23  N2  UNL     1      28.499 -19.249 -17.373  1.00  0.00    -0.064 NA
ATOM     24  H12 UNL     1      27.476 -17.672 -15.806  1.00  0.00     0.158 HD
ATOM     25  H11 UNL     1      28.906 -17.332 -14.769  1.00  0.00     0.158 HD
ATOM     26  H3  UNL     1      30.630 -19.114 -15.010  1.00  0.00     0.168 HD
ENDBRANCH   1  20
BRANCH   5  27
HETATM   27  C6  UNL     1      31.029 -20.673 -19.462  1.00  0.00     0.266 C 
HETATM   28  N5  UNL     1      30.531 -21.715 -18.638  1.00  0.00    -0.059 NA
HETATM   29  O2  UNL     1      30.513 -20.545 -20.583  1.00  0.00    -0.274 OA
ENDBRANCH   5  27
BRANCH   3  30
HETATM   30  N4  UNL     1      32.033 -16.378 -19.774  1.00  0.00    -0.052 N 
ATOM     31  H43 UNL     1      32.286 -15.629 -19.129  1.00  0.00     0.277 HD
ATOM     32  H42 UNL     1      32.955 -16.523 -20.184  1.00  0.00     0.277 HD
ATOM     33  H41 UNL     1      31.339 -16.086 -20.462  1.00  0.00     0.277 HD
ENDBRANCH   3  30
TORSDOF 11
ENDMDL
MODEL 3
REMARK VINA RESULT: -6.208236670      1.841      5.507
REMARK  11 active torsions:
REMARK  status: ('A' for Active; 'I' for Inactive)
REMARK       I    between atoms: C1_4  and  N3_6 
REMARK    1  A    between atoms: N3_6  and  C2_8 
REMARK    2  A    between atoms: C4_10  and  N4_11 
REMARK    3  A    between atoms: C5_16  and  C6_17 
REMARK    4  A    between atoms: C7_20  and  N6_21 
REMARK    5  A    between atoms: N6_21  and  O3_23 
REMARK    6  A    between atoms: O3_23  and  C8_24 
REMARK    7  A    between atoms: C8_24  and  C9_25 
REMARK    8  A    between atoms: C9_25  and  N7_26 
REMARK    9  A    between atoms: N7_26  and  C10_28 
REMARK   10  A    between atoms: C10_28  and  C11_29 
REMARK   11  A    between atoms: C11_29  and  N8_30 
ROOT
HETATM    1  C2  UNL     1      31.548 -19.226 -16.215  1.00  0.00     0.043 C 
HETATM    2  C3  UNL     1      31.957 -18.069 -17.034  1.00  0.00     0.120 C 
HETATM    3  C4  UNL     1      32.213 -18.412 -18.475  1.00  0.00     0.325 C 
HETATM    4  O1  UNL     1      32.832 -19.596 -18.691  1.00  0.00    -0.338 OA
HETATM    5  C5  UNL     1      32.304 -20.725 -18.118  1.00  0.00     0.266 C 
HETATM    6  C7  UNL     1      31.986 -20.584 -16.671  1.00  0.00     0.092 C 
ENDROOT
BRANCH   6   7
HETATM    7  N6  UNL     1      32.866 -21.198 -15.817  1.00  0.00    -0.266 N 
ATOM      8  H6  UNL     1      33.661 -20.615 -15.556  1.00  0.00     0.194 HD
BRANCH   7   9
HETATM    9  O3  UNL     1      32.881 -22.380 -15.275  1.00  0.00    -0.275 OA
BRANCH   9  10
HETATM   10  C8  UNL     1      33.747 -23.139 -16.180  1.00  0.00     0.245 C 
BRANCH  10  11
HETATM   11  C9  UNL     1      35.124 -22.560 -15.953  1.00  0.00     0.084 C 
BRANCH  11  12
HETATM   12  N7  UNL     1      35.942 -22.677 -17.049  1.00  0.00    -0.398 N 
ATOM     13  H7  UNL     1      36.626 -23.433 -17.054  1.00  0.00     0.158 HD
BRANCH  12  14
HETATM   14  C10 UNL     1      35.900 -21.813 -18.176  1.00  0.00     0.146 C 
BRANCH  14  15
HETATM   15  C11 UNL     1      36.708 -20.562 -17.699  1.00  0.00     0.249 C 
BRANCH  15  16
HETATM   16  N8  UNL     1      35.707 -19.473 -17.674  1.00  0.00    -0.078 N 
ATOM     17  H83 UNL     1      35.560 -19.062 -16.753  1.00  0.00     0.274 HD
ATOM     18  H82 UNL     1      36.011 -18.615 -18.132  1.00  0.00     0.274 HD
ATOM     19  H81 UNL     1      34.872 -19.893 -18.083  1.00  0.00     0.274 HD
ENDBRANCH  15  16
ENDBRANCH  14  15
ENDBRANCH  12  14
ENDBRANCH  11  12
ENDBRANCH  10  11
ENDBRANCH   9  10
ENDBRANCH   7   9
ENDBRANCH   6   7
BRANCH   1  20
HETATM   20  N3  UNL     1      30.197 -19.193 -15.682  1.00  0.00    -0.332 N 
HETATM   21  C1  UNL     1      29.056 -18.768 -16.333  1.00  0.00     0.186 C 
HETATM   22  N1  UNL     1      28.415 -17.818 -15.765  1.00  0.00    -0.374 N 
HETATM   23  N2  UNL     1      28.598 -19.313 -17.535  1.00  0.00    -0.064 NA
ATOM     24  H12 UNL     1      27.573 -17.504 -16.245  1.00  0.00     0.158 HD
ATOM     25  H11 UNL     1      28.750 -17.420 -14.887  1.00  0.00     0.158 HD
ATOM     26  H3  UNL     1      30.078 -19.520 -14.723  1.00  0.00     0.168 HD
ENDBRANCH   1  20
BRANCH   5  27
HETATM   27  C6  UNL     1      31.239 -21.401 -18.884  1.00  0.00     0.266 C 
HETATM   28  N5  UNL     1      31.206 -21.215 -20.290  1.00  0.00    -0.059 NA
HETATM   29  O2  UNL     1      30.362 -22.126 -18.391  1.00  0.00    -0.274 OA
ENDBRANCH   5  27
BRANCH   3  30
HETATM   30  N4  UNL     1      33.087 -17.387 -19.039  1.00  0.00    -0.052 N 
ATOM     31  H43 UNL     1      32.925 -17.236 -20.035  1.00  0.00     0.277 HD
ATOM     32  H42 UNL     1      32.850 -16.448 -18.718  1.00  0.00     0.277 HD
ATOM     33  H41 UNL     1      34.051 -17.641 -18.831  1.00  0.00     0.277 HD
ENDBRANCH   3  30
TORSDOF 11
ENDMDL
MODEL 4
REMARK VINA RESULT: -6.178568614      1.910      2.619
REMARK  11 active torsions:
REMARK  status: ('A' for Active; 'I' for Inactive)
REMARK       I    between atoms: C1_4  and  N3_6 
REMARK    1  A    between atoms: N3_6  and  C2_8 
REMARK    2  A    between atoms: C4_10  and  N4_11 
REMARK    3  A    between atoms: C5_16  and  C6_17 
REMARK    4  A    between atoms: C7_20  and  N6_21 
REMARK    5  A    between atoms: N6_21  and  O3_23 
REMARK    6  A    between atoms: O3_23  and  C8_24 
REMARK    7  A    between atoms: C8_24  and  C9_25 
REMARK    8  A    between atoms: C9_25  and  N7_26 
REMARK    9  A    between atoms: N7_26  and  C10_28 
REMARK   10  A    between atoms: C10_28  and  C11_29 
REMARK   11  A    between atoms: C11_29  and  N8_30 
ROOT
HETATM    1  C2  UNL     1      31.986 -22.922 -18.224  1.00  0.00     0.043 C 
HETATM    2  C3  UNL     1      32.122 -23.907 -19.313  1.00  0.00     0.120 C 
HETATM    3  C4  UNL     1      32.451 -23.290 -20.644  1.00  0.00     0.325 C 
HETATM    4  O1  UNL     1      31.823 -22.122 -20.916  1.00  0.00    -0.338 OA
HETATM    5  C5  UNL     1      31.900 -21.108 -19.996  1.00  0.00     0.266 C 
HETATM    6  C7  UNL     1      31.598 -21.525 -18.600  1.00  0.00     0.092 C 
ENDROOT
BRANCH   6   7
HETATM    7  N6  UNL     1      30.365 -21.148 -18.132  1.00  0.00    -0.266 N 
ATOM      8  H6  UNL     1      29.819 -21.916 -17.743  1.00  0.00     0.194 HD
BRANCH   7   9
HETATM    9  O3  UNL     1      29.758 -19.998 -18.088  1.00  0.00    -0.275 OA
BRANCH   9  10
HETATM   10  C8  UNL     1      30.555 -19.249 -17.113  1.00  0.00     0.245 C 
BRANCH  10  11
HETATM   11  C9  UNL     1      30.519 -17.825 -17.617  1.00  0.00     0.084 C 
BRANCH  11  12
HETATM   12  N7  UNL     1      30.758 -17.727 -18.965  1.00  0.00    -0.398 N 
ATOM     13  H7  UNL     1      30.290 -18.390 -19.581  1.00  0.00     0.158 HD
BRANCH  12  14
HETATM   14  C10 UNL     1      31.616 -16.762 -19.558  1.00  0.00     0.146 C 
BRANCH  14  15
HETATM   15  C11 UNL     1      30.841 -16.342 -20.851  1.00  0.00     0.249 C 
BRANCH  15  16
HETATM   16  N8  UNL     1      30.668 -17.608 -21.596  1.00  0.00    -0.078 N 
ATOM     17  H83 UNL     1      31.495 -18.205 -21.604  1.00  0.00     0.274 HD
ATOM     18  H82 UNL     1      30.050 -18.279 -21.142  1.00  0.00     0.274 HD
ATOM     19  H81 UNL     1      30.357 -17.312 -22.521  1.00  0.00     0.274 HD
ENDBRANCH  15  16
ENDBRANCH  14  15
ENDBRANCH  12  14
ENDBRANCH  11  12
ENDBRANCH  10  11
ENDBRANCH   9  10
ENDBRANCH   7   9
ENDBRANCH   6   7
BRANCH   1  20
HETATM   20  N3  UNL     1      32.979 -22.990 -17.164  1.00  0.00    -0.332 N 
HETATM   21  C1  UNL     1      33.153 -22.093 -16.130  1.00  0.00     0.186 C 
HETATM   22  N1  UNL     1      34.312 -21.559 -16.049  1.00  0.00    -0.374 N 
HETATM   23  N2  UNL     1      32.154 -21.763 -15.210  1.00  0.00    -0.064 NA
ATOM     24  H12 UNL     1      34.442 -20.896 -15.285  1.00  0.00     0.158 HD
ATOM     25  H11 UNL     1      35.041 -21.800 -16.720  1.00  0.00     0.158 HD
ATOM     26  H3  UNL     1      33.615 -23.787 -17.188  1.00  0.00     0.168 HD
ENDBRANCH   1  20
BRANCH   5  27
HETATM   27  C6  UNL     1      33.084 -20.233 -20.097  1.00  0.00     0.266 C 
HETATM   28  N5  UNL     1      34.038 -20.277 -19.047  1.00  0.00    -0.059 NA
HETATM   29  O2  UNL     1      33.314 -19.454 -21.035  1.00  0.00    -0.274 OA
ENDBRANCH   5  27
BRANCH   3  30
HETATM   30  N4  UNL     1      32.046 -24.224 -21.691  1.00  0.00    -0.052 N 
ATOM     31  H43 UNL     1      31.178 -23.948 -22.151  1.00  0.00     0.277 HD
ATOM     32  H42 UNL     1      32.653 -24.187 -22.509  1.00  0.00     0.277 HD
ATOM     33  H41 UNL     1      31.994 -25.157 -21.282  1.00  0.00     0.277 HD
ENDBRANCH   3  30
TORSDOF 11
ENDMDL
MODEL 5
REMARK VINA RESULT: -6.055541308      1.831      5.324
REMARK  11 active torsions:
REMARK  status: ('A' for Active; 'I' for Inactive)
REMARK       I    between atoms: C1_4  and  N3_6 
REMARK    1  A    between atoms: N3_6  and  C2_8 
REMARK    2  A    between atoms: C4_10  and  N4_11 
REMARK    3  A    between atoms: C5_16  and  C6_17 
REMARK    4  A    between atoms: C7_20  and  N6_21 
REMARK    5  A    between atoms: N6_21  and  O3_23 
REMARK    6  A    between atoms: O3_23  and  C8_24 
REMARK    7  A    between atoms: C8_24  and  C9_25 
REMARK    8  A    between atoms: C9_25  and  N7_26 
REMARK    9  A    between atoms: N7_26  and  C10_28 
REMARK   10  A    between atoms: C10_28  and  C11_29 
REMARK   11  A    between atoms: C11_29  and  N8_30 
ROOT
HETATM    1  C2  UNL     1      30.519 -19.708 -17.591  1.00  0.00     0.043 C 
HETATM    2  C3  UNL     1      31.675 -18.885 -17.189  1.00  0.00     0.120 C 
HETATM    3  C4  UNL     1      32.677 -18.676 -18.290  1.00  0.00     0.325 C 
HETATM    4  O1  UNL     1      32.905 -19.750 -19.082  1.00  0.00    -0.338 OA
HETATM    5  C5  UNL     1      31.831 -20.377 -19.658  1.00  0.00     0.266 C 
HETATM    6  C7  UNL     1      30.720 -20.679 -18.714  1.00  0.00     0.092 C 
ENDROOT
BRANCH   6   7
HETATM    7  N6  UNL     1      30.617 -21.994 -18.335  1.00  0.00    -0.266 N 
ATOM      8  H6  UNL     1      29.860 -22.497 -18.798  1.00  0.00     0.194 HD
BRANCH   7   9
HETATM    9  O3  UNL     1      31.298 -22.721 -17.500  1.00  0.00    -0.275 OA
BRANCH   9  10
HETATM   10  C8  UNL     1      31.911 -23.726 -18.372  1.00  0.00     0.245 C 
BRANCH  10  11
HETATM   11  C9  UNL     1      33.388 -23.633 -18.067  1.00  0.00     0.084 C 
BRANCH  11  12
HETATM   12  N7  UNL     1      33.678 -23.861 -16.745  1.00  0.00    -0.398 N 
ATOM     13  H7  UNL     1      33.111 -24.543 -16.243  1.00  0.00     0.158 HD
BRANCH  12  14
HETATM   14  C10 UNL     1      34.717 -23.207 -16.029  1.00  0.00     0.146 C 
BRANCH  14  15
HETATM   15  C11 UNL     1      34.386 -21.691 -16.223  1.00  0.00     0.249 C 
BRANCH  15  16
HETATM   16  N8  UNL     1      33.218 -21.460 -15.346  1.00  0.00    -0.078 N 
ATOM     17  H83 UNL     1      33.095 -20.489 -15.060  1.00  0.00     0.274 HD
ATOM     18  H82 UNL     1      32.318 -21.553 -15.815  1.00  0.00     0.274 HD
ATOM     19  H81 UNL     1      33.355 -22.110 -14.572  1.00  0.00     0.274 HD
ENDBRANCH  15  16
ENDBRANCH  14  15
ENDBRANCH  12  14
ENDBRANCH  11  12
ENDBRANCH  10  11
ENDBRANCH   9  10
ENDBRANCH   7   9
ENDBRANCH   6   7
BRANCH   1  20
HETATM   20  N3  UNL     1      29.228 -19.041 -17.617  1.00  0.00    -0.332 N 
HETATM   21  C1  UNL     1      28.556 -18.489 -16.546  1.00  0.00     0.186 C 
HETATM   22  N1  UNL     1      27.383 -18.951 -16.330  1.00  0.00    -0.374 N 
HETATM   23  N2  UNL     1      29.087 -17.491 -15.725  1.00  0.00    -0.064 NA
ATOM     24  H12 UNL     1      26.886 -18.544 -15.538  1.00  0.00     0.158 HD
ATOM     25  H11 UNL     1      26.996 -19.680 -16.929  1.00  0.00     0.158 HD
ATOM     26  H3  UNL     1      28.770 -18.972 -18.526  1.00  0.00     0.168 HD
ENDBRANCH   1  20
BRANCH   5  27
HETATM   27  C6  UNL     1      31.365 -19.815 -20.941  1.00  0.00     0.266 C 
HETATM   28  N5  UNL     1      30.325 -20.493 -21.629  1.00  0.00    -0.059 NA
HETATM   29  O2  UNL     1      31.814 -18.788 -21.471  1.00  0.00    -0.274 OA
ENDBRANCH   5  27
BRANCH   3  30
HETATM   30  N4  UNL     1      33.960 -18.340 -17.679  1.00  0.00    -0.052 N 
ATOM     31  H43 UNL     1      33.861 -17.746 -16.856  1.00  0.00     0.277 HD
ATOM     32  H42 UNL     1      34.399 -19.138 -17.221  1.00  0.00     0.277 HD
ATOM     33  H41 UNL     1      34.553 -17.923 -18.396  1.00  0.00     0.277 HD
ENDBRANCH   3  30
TORSDOF 11
ENDMDL
