MODEL 1
REMARK VINA RESULT: -6.074166327      0.000      0.000
REMARK  14 active torsions:
REMARK  status: ('A' for Active; 'I' for Inactive)
REMARK    1  A    between atoms: O1_2  and  N1_3 
REMARK    2  A    between atoms: N1_3  and  C2_5 
REMARK    3  A    between atoms: C3_8  and  N3_9 
REMARK    4  A    between atoms: C4_14  and  N5_15 
REMARK    5  A    between atoms: N5_15  and  C5_17 
REMARK    6  A    between atoms: C5_17  and  C6_18 
REMARK    7  A    between atoms: C5_17  and  C9_25 
REMARK    8  A    between atoms: C6_18  and  C7_19 
REMARK    9  A    between atoms: C7_19  and  C8_20 
REMARK   10  A    between atoms: C8_20  and  N6_21 
REMARK   11  A    between atoms: C9_25  and  N7_26 
REMARK   12  A    between atoms: N7_26  and  C10_29 
REMARK   13  A    between atoms: C10_29  and  C11_30 
REMARK   14  A    between atoms: C11_30  and  N8_31 
ROOT
HETATM    1  N5  UNL     1      31.727 -23.378 -18.773  1.00  0.00    -0.219 N 
ATOM      2  H5  UNL     1      31.197 -24.237 -18.628  1.00  0.00     0.178 HD
ENDROOT
BRANCH   1   3
HETATM    3  C4  UNL     1      31.506 -22.363 -17.988  1.00  0.00     0.707 A 
HETATM    4  N4  UNL     1      32.124 -22.201 -16.805  1.00  0.00    -0.022 N 
HETATM    5  C3  UNL     1      31.864 -21.122 -16.010  1.00  0.00     0.705 A 
ATOM      6  H4  UNL     1      32.799 -22.899 -16.494  1.00  0.00     0.203 HD
HETATM    7  N2  UNL     1      30.980 -20.184 -16.387  1.00  0.00    -0.020 N 
HETATM    8  C2  UNL     1      30.360 -20.339 -17.567  1.00  0.00     0.731 A 
ATOM      9  H2  UNL     1      30.785 -19.377 -15.794  1.00  0.00     0.203 HD
HETATM   10  N9  UNL     1      30.625 -21.414 -18.348  1.00  0.00    -0.020 N 
ATOM     11  H9  UNL     1      30.139 -21.507 -19.240  1.00  0.00     0.203 HD
BRANCH   5  12
HETATM   12  N3  UNL     1      32.500 -21.032 -14.878  1.00  0.00    -0.234 N 
ATOM     13  H32 UNL     1      31.950 -20.884 -14.032  1.00  0.00     0.174 HD
ATOM     14  H31 UNL     1      33.516 -21.105 -14.835  1.00  0.00     0.174 HD
ENDBRANCH   5  12
BRANCH   8  15
HETATM   15  N1  UNL     1      29.514 -19.448 -17.936  1.00  0.00    -0.096 N 
ATOM     16  H1  UNL     1      29.770 -18.773 -18.657  1.00  0.00     0.213 HD
BRANCH  15  17
HETATM   17  O1  UNL     1      28.271 -19.400 -17.370  1.00  0.00    -0.271 OA
HETATM   18  C1  UNL     1      27.873 -18.384 -16.463  1.00  0.00     0.238 C 
ENDBRANCH  15  17
ENDBRANCH   8  15
ENDBRANCH   1   3
BRANCH   1  19
HETATM   19  C5  UNL     1      32.705 -23.326 -19.852  1.00  0.00     0.125 C 
BRANCH  19  20
HETATM   20  C6  UNL     1      32.252 -24.087 -21.053  1.00  0.00     0.029 C 
BRANCH  20  21
HETATM   21  C7  UNL     1      32.358 -23.238 -22.277  1.00  0.00     0.029 C 
BRANCH  21  22
HETATM   22  C8  UNL     1      32.063 -21.773 -21.980  1.00  0.00     0.230 C 
BRANCH  22  23
HETATM   23  N6  UNL     1      30.696 -21.502 -22.338  1.00  0.00    -0.079 N 
ATOM     24  H63 UNL     1      30.511 -21.665 -23.328  1.00  0.00     0.274 HD
ATOM     25  H62 UNL     1      30.048 -22.192 -21.960  1.00  0.00     0.274 HD
ATOM     26  H61 UNL     1      30.469 -20.551 -22.049  1.00  0.00     0.274 HD
ENDBRANCH  22  23
ENDBRANCH  21  22
ENDBRANCH  20  21
ENDBRANCH  19  20
BRANCH  19  27
HETATM   27  C9  UNL     1      33.927 -24.055 -19.272  1.00  0.00     0.257 C 
BRANCH  27  28
HETATM   28  N7  UNL     1      35.039 -23.113 -19.252  1.00  0.00    -0.072 N 
ATOM     29  H72 UNL     1      35.753 -23.311 -19.953  1.00  0.00     0.277 HD
ATOM     30  H71 UNL     1      34.791 -22.183 -19.589  1.00  0.00     0.277 HD
BRANCH  28  31
HETATM   31  C10 UNL     1      35.548 -23.119 -17.885  1.00  0.00     0.259 C 
BRANCH  31  32
HETATM   32  C11 UNL     1      35.646 -21.716 -17.330  1.00  0.00     0.257 C 
BRANCH  32  33
HETATM   33  N8  UNL     1      35.566 -21.842 -15.875  1.00  0.00    -0.078 N 
ATOM     34  H83 UNL     1      34.640 -22.112 -15.542  1.00  0.00     0.274 HD
ATOM     35  H82 UNL     1      36.071 -22.649 -15.509  1.00  0.00     0.274 HD
ATOM     36  H81 UNL     1      35.890 -20.954 -15.492  1.00  0.00     0.274 HD
ENDBRANCH  32  33
ENDBRANCH  31  32
ENDBRANCH  28  31
ENDBRANCH  27  28
ENDBRANCH  19  27
ENDBRANCH   1  19
TORSDOF 14
ENDMDL
MODEL 2
REMARK VINA RESULT: -5.951729690      2.525      6.004
REMARK  14 active torsions:
REMARK  status: ('A' for Active; 'I' for Inactive)
REMARK    1  A    between atoms: O1_2  and  N1_3 
REMARK    2  A    between atoms: N1_3  and  C2_5 
REMARK    3  A    between atoms: C3_8  and  N3_9 
REMARK    4  A    between atoms: C4_14  and  N5_15 
REMARK    5  A    between atoms: N5_15  and  C5_17 
REMARK    6  A    between atoms: C5_17  and  C6_18 
REMARK    7  A    between atoms: C5_17  and  C9_25 
REMARK    8  A    between atoms: C6_18  and  C7_19 
REMARK    9  A    between atoms: C7_19  and  C8_20 
REMARK   10  A    between atoms: C8_20  and  N6_21 
REMARK   11  A    between atoms: C9_25  and  N7_26 
REMARK   12  A    between atoms: N7_26  and  C10_29 
REMARK   13  A    between atoms: C10_29  and  C11_30 
REMARK   14  A    between atoms: C11_30  and  N8_31 
ROOT
HETATM    1  N5  UNL     1      31.337 -20.089 -15.522  1.00  0.00    -0.219 N 
ATOM      2  H5  UNL     1      30.480 -20.279 -15.002  1.00  0.00     0.178 HD
ENDROOT
BRANCH   1   3
HETATM    3  C4  UNL     1      32.040 -21.093 -15.961  1.00  0.00     0.707 A 
HETATM    4  N4  UNL     1      33.298 -21.342 -15.558  1.00  0.00    -0.022 N 
HETATM    5  C3  UNL     1      34.003 -22.406 -16.044  1.00  0.00     0.705 A 
ATOM      6  H4  UNL     1      33.736 -20.723 -14.876  1.00  0.00     0.203 HD
HETATM    7  N2  UNL     1      33.458 -23.241 -16.944  1.00  0.00    -0.020 N 
HETATM    8  C2  UNL     1      32.203 -22.999 -17.351  1.00  0.00     0.731 A 
ATOM      9  H2  UNL     1      33.983 -24.036 -17.308  1.00  0.00     0.203 HD
HETATM   10  N9  UNL     1      31.512 -21.939 -16.863  1.00  0.00    -0.020 N 
ATOM     11  H9  UNL     1      30.560 -21.779 -17.190  1.00  0.00     0.203 HD
BRANCH   5  12
HETATM   12  N3  UNL     1      35.215 -22.584 -15.608  1.00  0.00    -0.234 N 
ATOM     13  H32 UNL     1      35.518 -23.538 -15.414  1.00  0.00     0.174 HD
ATOM     14  H31 UNL     1      35.846 -21.795 -15.463  1.00  0.00     0.174 HD
ENDBRANCH   5  12
BRANCH   8  15
HETATM   15  N1  UNL     1      31.673 -23.790 -18.210  1.00  0.00    -0.096 N 
ATOM     16  H1  UNL     1      31.194 -24.634 -17.896  1.00  0.00     0.213 HD
BRANCH  15  17
HETATM   17  O1  UNL     1      31.748 -23.508 -19.546  1.00  0.00    -0.271 OA
HETATM   18  C1  UNL     1      32.768 -24.021 -20.389  1.00  0.00     0.238 C 
ENDBRANCH  15  17
ENDBRANCH   8  15
ENDBRANCH   1   3
BRANCH   1  19
HETATM   19  C5  UNL     1      31.733 -18.705 -15.748  1.00  0.00     0.125 C 
BRANCH  19  20
HETATM   20  C6  UNL     1      30.601 -17.758 -15.531  1.00  0.00     0.029 C 
BRANCH  20  21
HETATM   21  C7  UNL     1      29.321 -18.508 -15.364  1.00  0.00     0.029 C 
BRANCH  21  22
HETATM   22  C8  UNL     1      28.365 -18.268 -16.528  1.00  0.00     0.230 C 
BRANCH  22  23
HETATM   23  N6  UNL     1      28.598 -19.279 -17.524  1.00  0.00    -0.079 N 
ATOM     24  H63 UNL     1      28.228 -19.021 -18.439  1.00  0.00     0.274 HD
ATOM     25  H62 UNL     1      29.581 -19.351 -17.786  1.00  0.00     0.274 HD
ATOM     26  H61 UNL     1      28.218 -20.162 -17.183  1.00  0.00     0.274 HD
ENDBRANCH  22  23
ENDBRANCH  21  22
ENDBRANCH  20  21
ENDBRANCH  19  20
BRANCH  19  27
HETATM   27  C9  UNL     1      32.091 -18.668 -17.241  1.00  0.00     0.257 C 
BRANCH  27  28
HETATM   28  N7  UNL     1      31.693 -17.365 -17.762  1.00  0.00    -0.072 N 
ATOM     29  H72 UNL     1      30.910 -16.949 -17.259  1.00  0.00     0.277 HD
ATOM     30  H71 UNL     1      32.370 -16.626 -17.569  1.00  0.00     0.277 HD
BRANCH  28  31
HETATM   31  C10 UNL     1      31.436 -17.561 -19.184  1.00  0.00     0.259 C 
BRANCH  31  32
HETATM   32  C11 UNL     1      31.081 -16.257 -19.862  1.00  0.00     0.257 C 
BRANCH  32  33
HETATM   33  N8  UNL     1      30.313 -16.607 -21.056  1.00  0.00    -0.078 N 
ATOM     34  H83 UNL     1      30.382 -17.594 -21.306  1.00  0.00     0.274 HD
ATOM     35  H82 UNL     1      29.304 -16.584 -20.910  1.00  0.00     0.274 HD
ATOM     36  H81 UNL     1      30.629 -15.980 -21.795  1.00  0.00     0.274 HD
ENDBRANCH  32  33
ENDBRANCH  31  32
ENDBRANCH  28  31
ENDBRANCH  27  28
ENDBRANCH  19  27
ENDBRANCH   1  19
TORSDOF 14
ENDMDL
MODEL 3
REMARK VINA RESULT: -5.932774993      2.471      5.368
REMARK  14 active torsions:
REMARK  status: ('A' for Active; 'I' for Inactive)
REMARK    1  A    between atoms: O1_2  and  N1_3 
REMARK    2  A    between atoms: N1_3  and  C2_5 
REMARK    3  A    between atoms: C3_8  and  N3_9 
REMARK    4  A    between atoms: C4_14  and  N5_15 
REMARK    5  A    between atoms: N5_15  and  C5_17 
REMARK    6  A    between atoms: C5_17  and  C6_18 
REMARK    7  A    between atoms: C5_17  and  C9_25 
REMARK    8  A    between atoms: C6_18  and  C7_19 
REMARK    9  A    between atoms: C7_19  and  C8_20 
REMARK   10  A    between atoms: C8_20  and  N6_21 
REMARK   11  A    between atoms: C9_25  and  N7_26 
REMARK   12  A    between atoms: N7_26  and  C10_29 
REMARK   13  A    between atoms: C10_29  and  C11_30 
REMARK   14  A    between atoms: C11_30  and  N8_31 
ROOT
HETATM    1  N5  UNL     1      31.378 -20.098 -15.582  1.00  0.00    -0.219 N 
ATOM      2  H5  UNL     1      30.507 -20.272 -15.081  1.00  0.00     0.178 HD
ENDROOT
BRANCH   1   3
HETATM    3  C4  UNL     1      32.076 -21.113 -16.000  1.00  0.00     0.707 A 
HETATM    4  N4  UNL     1      33.325 -21.372 -15.576  1.00  0.00    -0.022 N 
HETATM    5  C3  UNL     1      34.025 -22.449 -16.039  1.00  0.00     0.705 A 
ATOM      6  H4  UNL     1      33.759 -20.751 -14.893  1.00  0.00     0.203 HD
HETATM    7  N2  UNL     1      33.484 -23.288 -16.939  1.00  0.00    -0.020 N 
HETATM    8  C2  UNL     1      32.238 -23.036 -17.368  1.00  0.00     0.731 A 
ATOM      9  H2  UNL     1      34.006 -24.092 -17.287  1.00  0.00     0.203 HD
HETATM   10  N9  UNL     1      31.552 -21.964 -16.901  1.00  0.00    -0.020 N 
ATOM     11  H9  UNL     1      30.607 -21.797 -17.244  1.00  0.00     0.203 HD
BRANCH   5  12
HETATM   12  N3  UNL     1      35.228 -22.636 -15.583  1.00  0.00    -0.234 N 
ATOM     13  H32 UNL     1      35.931 -23.004 -16.225  1.00  0.00     0.174 HD
ATOM     14  H31 UNL     1      35.466 -22.422 -14.614  1.00  0.00     0.174 HD
ENDBRANCH   5  12
BRANCH   8  15
HETATM   15  N1  UNL     1      31.713 -23.831 -18.226  1.00  0.00    -0.096 N 
ATOM     16  H1  UNL     1      31.263 -24.691 -17.913  1.00  0.00     0.213 HD
BRANCH  15  17
HETATM   17  O1  UNL     1      31.752 -23.530 -19.559  1.00  0.00    -0.271 OA
HETATM   18  C1  UNL     1      32.780 -23.987 -20.425  1.00  0.00     0.238 C 
ENDBRANCH  15  17
ENDBRANCH   8  15
ENDBRANCH   1   3
BRANCH   1  19
HETATM   19  C5  UNL     1      31.799 -18.721 -15.807  1.00  0.00     0.125 C 
BRANCH  19  20
HETATM   20  C6  UNL     1      30.693 -17.751 -15.557  1.00  0.00     0.029 C 
BRANCH  20  21
HETATM   21  C7  UNL     1      29.402 -18.475 -15.355  1.00  0.00     0.029 C 
BRANCH  21  22
HETATM   22  C8  UNL     1      28.419 -18.213 -16.490  1.00  0.00     0.230 C 
BRANCH  22  23
HETATM   23  N6  UNL     1      28.579 -19.246 -17.479  1.00  0.00    -0.079 N 
ATOM     24  H63 UNL     1      29.546 -19.345 -17.788  1.00  0.00     0.274 HD
ATOM     25  H62 UNL     1      28.460 -20.182 -17.091  1.00  0.00     0.274 HD
ATOM     26  H61 UNL     1      27.940 -19.057 -18.250  1.00  0.00     0.274 HD
ENDBRANCH  22  23
ENDBRANCH  21  22
ENDBRANCH  20  21
ENDBRANCH  19  20
BRANCH  19  27
HETATM   27  C9  UNL     1      32.124 -18.679 -17.308  1.00  0.00     0.257 C 
BRANCH  27  28
HETATM   28  N7  UNL     1      33.455 -18.102 -17.459  1.00  0.00    -0.072 N 
ATOM     29  H72 UNL     1      33.445 -17.141 -17.800  1.00  0.00     0.277 HD
ATOM     30  H71 UNL     1      33.919 -17.913 -16.571  1.00  0.00     0.277 HD
BRANCH  28  31
HETATM   31  C10 UNL     1      34.196 -19.018 -18.319  1.00  0.00     0.259 C 
BRANCH  31  32
HETATM   32  C11 UNL     1      35.489 -18.396 -18.796  1.00  0.00     0.257 C 
BRANCH  32  33
HETATM   33  N8  UNL     1      36.141 -17.840 -17.611  1.00  0.00    -0.078 N 
ATOM     34  H83 UNL     1      36.238 -18.512 -16.849  1.00  0.00     0.274 HD
ATOM     35  H82 UNL     1      37.136 -17.658 -17.745  1.00  0.00     0.274 HD
ATOM     36  H81 UNL     1      35.609 -17.010 -17.353  1.00  0.00     0.274 HD
ENDBRANCH  32  33
ENDBRANCH  31  32
ENDBRANCH  28  31
ENDBRANCH  27  28
ENDBRANCH  19  27
ENDBRANCH   1  19
TORSDOF 14
ENDMDL
MODEL 4
REMARK VINA RESULT: -5.919784476      2.286      3.958
REMARK  14 active torsions:
REMARK  status: ('A' for Active; 'I' for Inactive)
REMARK    1  A    between atoms: O1_2  and  N1_3 
REMARK    2  A    between atoms: N1_3  and  C2_5 
REMARK    3  A    between atoms: C3_8  and  N3_9 
REMARK    4  A    between atoms: C4_14  and  N5_15 
REMARK    5  A    between atoms: N5_15  and  C5_17 
REMARK    6  A    between atoms: C5_17  and  C6_18 
REMARK    7  A    between atoms: C5_17  and  C9_25 
REMARK    8  A    between atoms: C6_18  and  C7_19 
REMARK    9  A    between atoms: C7_19  and  C8_20 
REMARK   10  A    between atoms: C8_20  and  N6_21 
REMARK   11  A    between atoms: C9_25  and  N7_26 
REMARK   12  A    between atoms: N7_26  and  C10_29 
REMARK   13  A    between atoms: C10_29  and  C11_30 
REMARK   14  A    between atoms: C11_30  and  N8_31 
ROOT
HETATM    1  N5  UNL     1      32.971 -22.262 -15.493  1.00  0.00    -0.219 N 
ATOM      2  H5  UNL     1      32.815 -22.661 -14.567  1.00  0.00     0.178 HD
ENDROOT
BRANCH   1   3
HETATM    3  C4  UNL     1      32.180 -21.317 -15.912  1.00  0.00     0.707 A 
HETATM    4  N4  UNL     1      32.060 -20.130 -15.293  1.00  0.00    -0.022 N 
HETATM    5  C3  UNL     1      31.218 -19.164 -15.766  1.00  0.00     0.705 A 
ATOM      6  H4  UNL     1      32.608 -19.947 -14.453  1.00  0.00     0.203 HD
HETATM    7  N2  UNL     1      30.480 -19.372 -16.869  1.00  0.00    -0.020 N 
HETATM    8  C2  UNL     1      30.596 -20.554 -17.493  1.00  0.00     0.731 A 
ATOM      9  H2  UNL     1      29.851 -18.652 -17.223  1.00  0.00     0.203 HD
HETATM   10  N9  UNL     1      31.435 -21.506 -17.015  1.00  0.00    -0.020 N 
ATOM     11  H9  UNL     1      31.502 -22.396 -17.509  1.00  0.00     0.203 HD
BRANCH   5  12
HETATM   12  N3  UNL     1      31.153 -18.040 -15.114  1.00  0.00    -0.234 N 
ATOM     13  H32 UNL     1      31.055 -17.181 -15.654  1.00  0.00     0.174 HD
ATOM     14  H31 UNL     1      31.199 -18.017 -14.095  1.00  0.00     0.174 HD
ENDBRANCH   5  12
BRANCH   8  15
HETATM   15  N1  UNL     1      29.896 -20.762 -18.548  1.00  0.00    -0.096 N 
ATOM     16  H1  UNL     1      29.020 -21.280 -18.482  1.00  0.00     0.213 HD
BRANCH  15  17
HETATM   17  O1  UNL     1      30.319 -20.293 -19.760  1.00  0.00    -0.271 OA
HETATM   18  C1  UNL     1      31.625 -20.523 -20.265  1.00  0.00     0.238 C 
ENDBRANCH  15  17
ENDBRANCH   8  15
ENDBRANCH   1   3
BRANCH   1  19
HETATM   19  C5  UNL     1      34.073 -22.769 -16.302  1.00  0.00     0.125 C 
BRANCH  19  20
HETATM   20  C6  UNL     1      34.556 -24.095 -15.819  1.00  0.00     0.029 C 
BRANCH  20  21
HETATM   21  C7  UNL     1      35.725 -24.549 -16.630  1.00  0.00     0.029 C 
BRANCH  21  22
HETATM   22  C8  UNL     1      35.480 -24.377 -18.125  1.00  0.00     0.230 C 
BRANCH  22  23
HETATM   23  N6  UNL     1      36.711 -23.962 -18.743  1.00  0.00    -0.079 N 
ATOM     24  H63 UNL     1      37.528 -24.415 -18.332  1.00  0.00     0.274 HD
ATOM     25  H62 UNL     1      36.814 -24.322 -19.692  1.00  0.00     0.274 HD
ATOM     26  H61 UNL     1      36.767 -22.944 -18.702  1.00  0.00     0.274 HD
ENDBRANCH  22  23
ENDBRANCH  21  22
ENDBRANCH  20  21
ENDBRANCH  19  20
BRANCH  19  27
HETATM   27  C9  UNL     1      35.198 -21.749 -16.066  1.00  0.00     0.257 C 
BRANCH  27  28
HETATM   28  N7  UNL     1      35.213 -20.834 -17.201  1.00  0.00    -0.072 N 
ATOM     29  H72 UNL     1      34.634 -21.143 -17.981  1.00  0.00     0.277 HD
ATOM     30  H71 UNL     1      34.723 -19.957 -17.023  1.00  0.00     0.277 HD
BRANCH  28  31
HETATM   31  C10 UNL     1      36.617 -20.654 -17.554  1.00  0.00     0.259 C 
BRANCH  31  32
HETATM   32  C11 UNL     1      36.847 -19.317 -18.222  1.00  0.00     0.257 C 
BRANCH  32  33
HETATM   33  N8  UNL     1      35.786 -18.430 -17.746  1.00  0.00    -0.078 N 
ATOM     34  H83 UNL     1      35.944 -18.083 -16.799  1.00  0.00     0.274 HD
ATOM     35  H82 UNL     1      35.777 -17.522 -18.212  1.00  0.00     0.274 HD
ATOM     36  H81 UNL     1      34.913 -18.945 -17.848  1.00  0.00     0.274 HD
ENDBRANCH  32  33
ENDBRANCH  31  32
ENDBRANCH  28  31
ENDBRANCH  27  28
ENDBRANCH  19  27
ENDBRANCH   1  19
TORSDOF 14
ENDMDL
MODEL 5
REMARK VINA RESULT: -5.869028646      2.737      5.653
REMARK  14 active torsions:
REMARK  status: ('A' for Active; 'I' for Inactive)
REMARK    1  A    between atoms: O1_2  and  N1_3 
REMARK    2  A    between atoms: N1_3  and  C2_5 
REMARK    3  A    between atoms: C3_8  and  N3_9 
REMARK    4  A    between atoms: C4_14  and  N5_15 
REMARK    5  A    between atoms: N5_15  and  C5_17 
REMARK    6  A    between atoms: C5_17  and  C6_18 
REMARK    7  A    between atoms: C5_17  and  C9_25 
REMARK    8  A    between atoms: C6_18  and  C7_19 
REMARK    9  A    between atoms: C7_19  and  C8_20 
REMARK   10  A    between atoms: C8_20  and  N6_21 
REMARK   11  A    between atoms: C9_25  and  N7_26 
REMARK   12  A    between atoms: N7_26  and  C10_29 
REMARK   13  A    between atoms: C10_29  and  C11_30 
REMARK   14  A    between atoms: C11_30  and  N8_31 
ROOT
HETATM    1  N5  UNL     1      33.323 -19.549 -17.228  1.00  0.00    -0.219 N 
ATOM      2  H5  UNL     1      34.144 -18.957 -17.109  1.00  0.00     0.178 HD
ENDROOT
BRANCH   1   3
HETATM    3  C4  UNL     1      33.451 -20.837 -17.088  1.00  0.00     0.707 A 
HETATM    4  N4  UNL     1      34.421 -21.404 -16.349  1.00  0.00    -0.022 N 
HETATM    5  C3  UNL     1      34.521 -22.760 -16.228  1.00  0.00     0.705 A 
ATOM      6  H4  UNL     1      35.096 -20.808 -15.870  1.00  0.00     0.203 HD
HETATM    7  N2  UNL     1      33.650 -23.575 -16.846  1.00  0.00    -0.020 N 
HETATM    8  C2  UNL     1      32.679 -23.016 -17.585  1.00  0.00     0.731 A 
ATOM      9  H2  UNL     1      33.724 -24.588 -16.756  1.00  0.00     0.203 HD
HETATM   10  N9  UNL     1      32.588 -21.669 -17.698  1.00  0.00    -0.020 N 
ATOM     11  H9  UNL     1      31.840 -21.272 -18.267  1.00  0.00     0.203 HD
BRANCH   5  12
HETATM   12  N3  UNL     1      35.486 -23.237 -15.497  1.00  0.00    -0.234 N 
ATOM     13  H32 UNL     1      35.306 -24.087 -14.963  1.00  0.00     0.174 HD
ATOM     14  H31 UNL     1      36.395 -22.776 -15.456  1.00  0.00     0.174 HD
ENDBRANCH   5  12
BRANCH   8  15
HETATM   15  N1  UNL     1      31.841 -23.785 -18.178  1.00  0.00    -0.096 N 
ATOM     16  H1  UNL     1      31.205 -24.363 -17.629  1.00  0.00     0.213 HD
BRANCH  15  17
HETATM   17  O1  UNL     1      31.797 -23.834 -19.544  1.00  0.00    -0.271 OA
HETATM   18  C1  UNL     1      32.938 -24.098 -20.345  1.00  0.00     0.238 C 
ENDBRANCH  15  17
ENDBRANCH   8  15
ENDBRANCH   1   3
BRANCH   1  19
HETATM   19  C5  UNL     1      32.044 -18.927 -17.548  1.00  0.00     0.125 C 
BRANCH  19  20
HETATM   20  C6  UNL     1      32.068 -18.259 -18.882  1.00  0.00     0.029 C 
BRANCH  20  21
HETATM   21  C7  UNL     1      31.183 -17.056 -18.876  1.00  0.00     0.029 C 
BRANCH  21  22
HETATM   22  C8  UNL     1      31.306 -16.254 -20.167  1.00  0.00     0.230 C 
BRANCH  22  23
HETATM   23  N6  UNL     1      30.084 -16.400 -20.912  1.00  0.00    -0.079 N 
ATOM     24  H63 UNL     1      29.794 -17.374 -21.001  1.00  0.00     0.274 HD
ATOM     25  H62 UNL     1      29.270 -16.059 -20.401  1.00  0.00     0.274 HD
ATOM     26  H61 UNL     1      30.200 -15.942 -21.815  1.00  0.00     0.274 HD
ENDBRANCH  22  23
ENDBRANCH  21  22
ENDBRANCH  20  21
ENDBRANCH  19  20
BRANCH  19  27
HETATM   27  C9  UNL     1      31.894 -17.831 -16.482  1.00  0.00     0.257 C 
BRANCH  27  28
HETATM   28  N7  UNL     1      31.496 -18.475 -15.236  1.00  0.00    -0.072 N 
ATOM     29  H72 UNL     1      32.230 -19.048 -14.821  1.00  0.00     0.277 HD
ATOM     30  H71 UNL     1      31.393 -17.825 -14.457  1.00  0.00     0.277 HD
BRANCH  28  31
HETATM   31  C10 UNL     1      30.278 -19.219 -15.538  1.00  0.00     0.259 C 
BRANCH  31  32
HETATM   32  C11 UNL     1      29.137 -18.287 -15.878  1.00  0.00     0.257 C 
BRANCH  32  33
HETATM   33  N8  UNL     1      28.406 -18.913 -16.979  1.00  0.00    -0.078 N 
ATOM     34  H83 UNL     1      28.783 -19.822 -17.250  1.00  0.00     0.274 HD
ATOM     35  H82 UNL     1      27.475 -19.236 -16.716  1.00  0.00     0.274 HD
ATOM     36  H81 UNL     1      28.398 -18.235 -17.741  1.00  0.00     0.274 HD
ENDBRANCH  32  33
ENDBRANCH  31  32
ENDBRANCH  28  31
ENDBRANCH  27  28
ENDBRANCH  19  27
ENDBRANCH   1  19
TORSDOF 14
ENDMDL
