MODEL 1
REMARK VINA RESULT: -11.525830085      0.000      0.000
REMARK  8 active torsions:
REMARK  status: ('A' for Active; 'I' for Inactive)
REMARK    1  A    between atoms: C2_2  and  N1_3 
REMARK    2  A    between atoms: C3_4  and  C4_5 
REMARK    3  A    between atoms: C10_16  and  N5_17 
REMARK    4  A    between atoms: N5_17  and  C11_19 
REMARK    5  A    between atoms: C13_21  and  C14_22 
REMARK       I    between atoms: C14_22  and  N6_24 
REMARK    6  A    between atoms: N6_24  and  C15_26 
REMARK    7  A    between atoms: C17_28  and  C18_29 
REMARK    8  A    between atoms: C18_29  and  O2_30 
ROOT
HETATM    1  N5  UNL     1      45.630  -0.834  77.697  1.00  0.00    -0.340 N 
ATOM      2  H5  UNL     1      44.866  -0.203  77.938  1.00  0.00     0.167 HD
ENDROOT
BRANCH   1   3
HETATM    3  C10 UNL     1      45.300  -1.856  77.041  1.00  0.00     0.137 A 
HETATM    4  C9  UNL     1      45.044  -1.683  75.673  1.00  0.00     0.123 A 
HETATM    5  N4  UNL     1      45.082  -0.600  74.893  1.00  0.00    -0.335 N 
HETATM    6  C27 UNL     1      44.681  -2.750  74.892  1.00  0.00     0.141 A 
HETATM    7  C3  UNL     1      44.740  -0.967  73.599  1.00  0.00     0.123 A 
ATOM      8  H4  UNL     1      45.323   0.343  75.198  1.00  0.00     0.168 HD
HETATM    9  N1  UNL     1      44.499  -2.273  73.605  1.00  0.00    -0.317 N 
HETATM   10  N8  UNL     1      44.570  -3.967  75.447  1.00  0.00    -0.336 N 
HETATM   11  C26 UNL     1      44.821  -4.108  76.768  1.00  0.00     0.183 A 
ATOM     12  H8  UNL     1      44.300  -4.773  74.882  1.00  0.00     0.168 HD
HETATM   13  N7  UNL     1      45.177  -3.086  77.551  1.00  0.00    -0.337 N 
ATOM     14  H7  UNL     1      45.355  -3.245  78.542  1.00  0.00     0.168 HD
BRANCH   7  15
HETATM   15  C4  UNL     1      44.798   0.053  72.566  1.00  0.00     0.049 A 
HETATM   16  C5  UNL     1      45.894   0.129  71.669  1.00  0.00     0.127 A 
HETATM   17  N2  UNL     1      45.751   1.187  70.863  1.00  0.00    -0.307 N 
HETATM   18  C6  UNL     1      46.665   1.592  69.815  1.00  0.00     0.177 C 
HETATM   19  N3  UNL     1      44.637   1.765  71.211  1.00  0.00    -0.303 N 
HETATM   20  C7  UNL     1      44.033   1.110  72.238  1.00  0.00     0.037 A 
ATOM     21  H3  UNL     1      44.263   2.604  70.769  1.00  0.00     0.186 HD
HETATM   22  C8  UNL     1      42.775   1.628  72.837  1.00  0.00     0.070 C 
ENDBRANCH   7  15
BRANCH   9  23
HETATM   23  C2  UNL     1      44.148  -3.151  72.519  1.00  0.00     0.128 C 
HETATM   24  C1  UNL     1      42.945  -4.019  72.876  1.00  0.00     0.027 C 
ENDBRANCH   9  23
ENDBRANCH   1   3
BRANCH   1  25
HETATM   25  C11 UNL     1      46.907  -0.439  78.145  1.00  0.00     0.040 A 
HETATM   26  C12 UNL     1      47.856   0.093  77.312  1.00  0.00     0.050 A 
HETATM   27  C13 UNL     1      49.137   0.499  77.726  1.00  0.00     0.073 A 
HETATM   28  C22 UNL     1      49.394   0.326  79.056  1.00  0.00     0.132 A 
HETATM   29  F3  UNL     1      50.597   0.644  79.580  1.00  0.00    -0.205 F 
HETATM   30  C23 UNL     1      48.450  -0.217  79.942  1.00  0.00     0.052 A 
HETATM   31  C24 UNL     1      47.214  -0.597  79.489  1.00  0.00    -0.032 A 
HETATM   32  C25 UNL     1      46.173  -1.176  80.387  1.00  0.00     0.050 C 
BRANCH  27  33
HETATM   33  C14 UNL     1      50.044   1.091  76.745  1.00  0.00     0.259 C 
HETATM   34  O1  UNL     1      49.986   0.561  75.605  1.00  0.00    -0.267 OA
HETATM   35  N6  UNL     1      50.902   2.136  76.993  1.00  0.00    -0.320 N 
ATOM     36  H6  UNL     1      50.864   2.500  77.945  1.00  0.00     0.169 HD
BRANCH  35  37
HETATM   37  C15 UNL     1      51.831   2.790  76.144  1.00  0.00     0.074 A 
HETATM   38  C16 UNL     1      53.179   2.745  76.352  1.00  0.00     0.045 A 
HETATM   39  C17 UNL     1      54.054   3.414  75.483  1.00  0.00     0.006 A 
HETATM   40  C19 UNL     1      53.575   4.126  74.408  1.00  0.00     0.127 A 
HETATM   41  F1  UNL     1      54.406   4.784  73.551  1.00  0.00    -0.205 F 
HETATM   42  C20 UNL     1      52.228   4.168  74.204  1.00  0.00     0.087 A 
HETATM   43  C21 UNL     1      51.375   3.519  75.047  1.00  0.00     0.146 A 
HETATM   44  F2  UNL     1      50.041   3.574  74.824  1.00  0.00    -0.204 F 
BRANCH  39  45
HETATM   45  C18 UNL     1      55.533   3.367  75.712  1.00  0.00     0.206 C 
BRANCH  45  46
HETATM   46  O2  UNL     1      55.830   2.185  76.385  1.00  0.00    -0.396 OA
ATOM     47  H2  UNL     1      56.034   2.402  77.287  1.00  0.00     0.209 HD
ENDBRANCH  45  46
ENDBRANCH  39  45
ENDBRANCH  35  37
ENDBRANCH  27  33
ENDBRANCH   1  25
TORSDOF 8
ENDMDL
MODEL 2
REMARK VINA RESULT: -11.394360519      2.610      4.016
REMARK  8 active torsions:
REMARK  status: ('A' for Active; 'I' for Inactive)
REMARK    1  A    between atoms: C2_2  and  N1_3 
REMARK    2  A    between atoms: C3_4  and  C4_5 
REMARK    3  A    between atoms: C10_16  and  N5_17 
REMARK    4  A    between atoms: N5_17  and  C11_19 
REMARK    5  A    between atoms: C13_21  and  C14_22 
REMARK       I    between atoms: C14_22  and  N6_24 
REMARK    6  A    between atoms: N6_24  and  C15_26 
REMARK    7  A    between atoms: C17_28  and  C18_29 
REMARK    8  A    between atoms: C18_29  and  O2_30 
ROOT
HETATM    1  N5  UNL     1      44.006  -0.824  75.427  1.00  0.00    -0.340 N 
ATOM      2  H5  UNL     1      42.988  -0.827  75.380  1.00  0.00     0.167 HD
ENDROOT
BRANCH   1   3
HETATM    3  C10 UNL     1      44.599  -1.028  74.336  1.00  0.00     0.137 A 
HETATM    4  C9  UNL     1      44.682   0.049  73.442  1.00  0.00     0.123 A 
HETATM    5  N4  UNL     1      44.235   1.305  73.522  1.00  0.00    -0.335 N 
HETATM    6  C27 UNL     1      45.313  -0.095  72.234  1.00  0.00     0.141 A 
HETATM    7  C3  UNL     1      44.578   1.978  72.358  1.00  0.00     0.123 A 
ATOM      8  H4  UNL     1      43.724   1.705  74.309  1.00  0.00     0.168 HD
HETATM    9  N1  UNL     1      45.233   1.122  71.581  1.00  0.00    -0.317 N 
HETATM   10  N8  UNL     1      45.854  -1.280  71.909  1.00  0.00    -0.336 N 
HETATM   11  C26 UNL     1      45.761  -2.304  72.788  1.00  0.00     0.183 A 
ATOM     12  H8  UNL     1      46.328  -1.407  71.014  1.00  0.00     0.168 HD
HETATM   13  N7  UNL     1      45.152  -2.189  73.971  1.00  0.00    -0.337 N 
ATOM     14  H7  UNL     1      45.109  -2.992  74.598  1.00  0.00     0.168 HD
BRANCH   7  15
HETATM   15  C4  UNL     1      44.255   3.391  72.270  1.00  0.00     0.049 A 
HETATM   16  C5  UNL     1      44.456   4.261  73.373  1.00  0.00     0.127 A 
HETATM   17  N2  UNL     1      44.021   5.490  73.070  1.00  0.00    -0.307 N 
HETATM   18  C6  UNL     1      44.059   6.647  73.939  1.00  0.00     0.177 C 
HETATM   19  N3  UNL     1      43.565   5.427  71.852  1.00  0.00    -0.303 N 
HETATM   20  C7  UNL     1      43.688   4.175  71.335  1.00  0.00     0.037 A 
ATOM     21  H3  UNL     1      43.165   6.218  71.348  1.00  0.00     0.186 HD
HETATM   22  C8  UNL     1      43.178   3.859  69.975  1.00  0.00     0.070 C 
ENDBRANCH   7  15
BRANCH   9  23
HETATM   23  C2  UNL     1      45.838   1.326  70.290  1.00  0.00     0.128 C 
HETATM   24  C1  UNL     1      47.152   2.091  70.410  1.00  0.00     0.027 C 
ENDBRANCH   9  23
ENDBRANCH   1   3
BRANCH   1  25
HETATM   25  C11 UNL     1      44.553  -0.592  76.706  1.00  0.00     0.040 A 
HETATM   26  C12 UNL     1      45.760   0.027  76.898  1.00  0.00     0.050 A 
HETATM   27  C13 UNL     1      46.332   0.276  78.158  1.00  0.00     0.073 A 
HETATM   28  C22 UNL     1      45.590  -0.152  79.223  1.00  0.00     0.132 A 
HETATM   29  F3  UNL     1      46.037  -0.004  80.487  1.00  0.00    -0.205 F 
HETATM   30  C23 UNL     1      44.349  -0.790  79.068  1.00  0.00     0.052 A 
HETATM   31  C24 UNL     1      43.834  -1.009  77.818  1.00  0.00    -0.032 A 
HETATM   32  C25 UNL     1      42.521  -1.681  77.597  1.00  0.00     0.050 C 
BRANCH  27  33
HETATM   33  C14 UNL     1      47.609   0.983  78.229  1.00  0.00     0.259 C 
HETATM   34  O1  UNL     1      47.572   2.045  78.902  1.00  0.00    -0.267 OA
HETATM   35  N6  UNL     1      48.776   0.565  77.635  1.00  0.00    -0.320 N 
ATOM     36  H6  UNL     1      48.702  -0.313  77.122  1.00  0.00     0.169 HD
BRANCH  35  37
HETATM   37  C15 UNL     1      50.066   1.154  77.617  1.00  0.00     0.074 A 
HETATM   38  C16 UNL     1      51.061   0.776  78.471  1.00  0.00     0.045 A 
HETATM   39  C17 UNL     1      52.320   1.395  78.413  1.00  0.00     0.006 A 
HETATM   40  C19 UNL     1      52.577   2.390  77.498  1.00  0.00     0.127 A 
HETATM   41  F1  UNL     1      53.791   3.005  77.424  1.00  0.00    -0.205 F 
HETATM   42  C20 UNL     1      51.579   2.763  76.647  1.00  0.00     0.087 A 
HETATM   43  C21 UNL     1      50.356   2.164  76.701  1.00  0.00     0.146 A 
HETATM   44  F2  UNL     1      49.381   2.552  75.845  1.00  0.00    -0.204 F 
BRANCH  39  45
HETATM   45  C18 UNL     1      53.411   0.982  79.351  1.00  0.00     0.206 C 
BRANCH  45  46
HETATM   46  O2  UNL     1      52.912   1.042  80.649  1.00  0.00    -0.396 OA
ATOM     47  H2  UNL     1      53.528   0.601  81.223  1.00  0.00     0.209 HD
ENDBRANCH  45  46
ENDBRANCH  39  45
ENDBRANCH  35  37
ENDBRANCH  27  33
ENDBRANCH   1  25
TORSDOF 8
ENDMDL
MODEL 3
REMARK VINA RESULT: -11.173172015      1.648      4.346
REMARK  8 active torsions:
REMARK  status: ('A' for Active; 'I' for Inactive)
REMARK    1  A    between atoms: C2_2  and  N1_3 
REMARK    2  A    between atoms: C3_4  and  C4_5 
REMARK    3  A    between atoms: C10_16  and  N5_17 
REMARK    4  A    between atoms: N5_17  and  C11_19 
REMARK    5  A    between atoms: C13_21  and  C14_22 
REMARK       I    between atoms: C14_22  and  N6_24 
REMARK    6  A    between atoms: N6_24  and  C15_26 
REMARK    7  A    between atoms: C17_28  and  C18_29 
REMARK    8  A    between atoms: C18_29  and  O2_30 
ROOT
HETATM    1  N5  UNL     1      45.768   0.667  75.527  1.00  0.00    -0.340 N 
ATOM      2  H5  UNL     1      45.016   1.338  75.683  1.00  0.00     0.167 HD
ENDROOT
BRANCH   1   3
HETATM    3  C10 UNL     1      45.570  -0.163  74.602  1.00  0.00     0.137 A 
HETATM    4  C9  UNL     1      45.140  -1.445  74.974  1.00  0.00     0.123 A 
HETATM    5  N4  UNL     1      44.888  -1.985  76.170  1.00  0.00    -0.335 N 
HETATM    6  C27 UNL     1      44.902  -2.403  74.023  1.00  0.00     0.141 A 
HETATM    7  C3  UNL     1      44.486  -3.301  75.992  1.00  0.00     0.123 A 
ATOM      8  H4  UNL     1      44.978  -1.508  77.067  1.00  0.00     0.168 HD
HETATM    9  N1  UNL     1      44.495  -3.548  74.687  1.00  0.00    -0.317 N 
HETATM   10  N8  UNL     1      45.084  -2.107  72.727  1.00  0.00    -0.336 N 
HETATM   11  C26 UNL     1      45.500  -0.864  72.394  1.00  0.00     0.183 A 
ATOM     12  H8  UNL     1      44.913  -2.807  72.005  1.00  0.00     0.168 HD
HETATM   13  N7  UNL     1      45.739   0.087  73.300  1.00  0.00    -0.337 N 
ATOM     14  H7  UNL     1      46.050   1.010  72.997  1.00  0.00     0.168 HD
BRANCH   7  15
HETATM   15  C4  UNL     1      44.083  -4.052  77.168  1.00  0.00     0.049 A 
HETATM   16  C5  UNL     1      44.396  -5.429  77.304  1.00  0.00     0.127 A 
HETATM   17  N2  UNL     1      43.860  -5.911  78.431  1.00  0.00    -0.307 N 
HETATM   18  C6  UNL     1      43.964  -7.272  78.913  1.00  0.00     0.177 C 
HETATM   19  N3  UNL     1      43.237  -4.915  78.994  1.00  0.00    -0.303 N 
HETATM   20  C7  UNL     1      43.348  -3.776  78.260  1.00  0.00     0.037 A 
ATOM     21  H3  UNL     1      42.729  -4.981  79.876  1.00  0.00     0.186 HD
HETATM   22  C8  UNL     1      42.664  -2.526  78.686  1.00  0.00     0.070 C 
ENDBRANCH   7  15
BRANCH   9  23
HETATM   23  C2  UNL     1      44.125  -4.742  73.972  1.00  0.00     0.128 C 
HETATM   24  C1  UNL     1      42.953  -4.481  73.031  1.00  0.00     0.027 C 
ENDBRANCH   9  23
ENDBRANCH   1   3
BRANCH   1  25
HETATM   25  C11 UNL     1      46.884   0.799  76.379  1.00  0.00     0.040 A 
HETATM   26  C12 UNL     1      48.143   1.079  75.918  1.00  0.00     0.050 A 
HETATM   27  C13 UNL     1      49.276   1.220  76.739  1.00  0.00     0.073 A 
HETATM   28  C22 UNL     1      49.043   1.054  78.075  1.00  0.00     0.132 A 
HETATM   29  F3  UNL     1      50.049   1.130  78.971  1.00  0.00    -0.205 F 
HETATM   30  C23 UNL     1      47.768   0.765  78.587  1.00  0.00     0.052 A 
HETATM   31  C24 UNL     1      46.695   0.638  77.745  1.00  0.00    -0.032 A 
HETATM   32  C25 UNL     1      45.321   0.335  78.236  1.00  0.00     0.050 C 
BRANCH  27  33
HETATM   33  C14 UNL     1      50.557   1.561  76.126  1.00  0.00     0.259 C 
HETATM   34  O1  UNL     1      51.111   0.604  75.526  1.00  0.00    -0.267 OA
HETATM   35  N6  UNL     1      51.148   2.802  76.169  1.00  0.00    -0.320 N 
ATOM     36  H6  UNL     1      50.613   3.510  76.670  1.00  0.00     0.169 HD
BRANCH  35  37
HETATM   37  C15 UNL     1      52.379   3.259  75.631  1.00  0.00     0.074 A 
HETATM   38  C16 UNL     1      53.580   3.014  76.228  1.00  0.00     0.045 A 
HETATM   39  C17 UNL     1      54.769   3.493  75.655  1.00  0.00     0.006 A 
HETATM   40  C19 UNL     1      54.748   4.215  74.485  1.00  0.00     0.127 A 
HETATM   41  F1  UNL     1      55.889   4.690  73.911  1.00  0.00    -0.205 F 
HETATM   42  C20 UNL     1      53.544   4.456  73.891  1.00  0.00     0.087 A 
HETATM   43  C21 UNL     1      52.388   3.992  74.446  1.00  0.00     0.146 A 
HETATM   44  F2  UNL     1      51.205   4.245  73.838  1.00  0.00    -0.204 F 
BRANCH  39  45
HETATM   45  C18 UNL     1      56.088   3.227  76.312  1.00  0.00     0.206 C 
BRANCH  45  46
HETATM   46  O2  UNL     1      56.248   1.848  76.421  1.00  0.00    -0.396 OA
ATOM     47  H2  UNL     1      56.458   1.506  75.560  1.00  0.00     0.209 HD
ENDBRANCH  45  46
ENDBRANCH  39  45
ENDBRANCH  35  37
ENDBRANCH  27  33
ENDBRANCH   1  25
TORSDOF 8
ENDMDL
MODEL 4
REMARK VINA RESULT: -11.114200982      1.975      4.720
REMARK  8 active torsions:
REMARK  status: ('A' for Active; 'I' for Inactive)
REMARK    1  A    between atoms: C2_2  and  N1_3 
REMARK    2  A    between atoms: C3_4  and  C4_5 
REMARK    3  A    between atoms: C10_16  and  N5_17 
REMARK    4  A    between atoms: N5_17  and  C11_19 
REMARK    5  A    between atoms: C13_21  and  C14_22 
REMARK       I    between atoms: C14_22  and  N6_24 
REMARK    6  A    between atoms: N6_24  and  C15_26 
REMARK    7  A    between atoms: C17_28  and  C18_29 
REMARK    8  A    between atoms: C18_29  and  O2_30 
ROOT
HETATM    1  N5  UNL     1      45.234   0.597  75.565  1.00  0.00    -0.340 N 
ATOM      2  H5  UNL     1      44.484   1.282  75.662  1.00  0.00     0.167 HD
ENDROOT
BRANCH   1   3
HETATM    3  C10 UNL     1      45.083  -0.243  74.640  1.00  0.00     0.137 A 
HETATM    4  C9  UNL     1      44.925  -1.584  75.015  1.00  0.00     0.123 A 
HETATM    5  N4  UNL     1      44.902  -2.176  76.212  1.00  0.00    -0.335 N 
HETATM    6  C27 UNL     1      44.754  -2.558  74.064  1.00  0.00     0.141 A 
HETATM    7  C3  UNL     1      44.717  -3.539  76.036  1.00  0.00     0.123 A 
ATOM      8  H4  UNL     1      45.004  -1.701  77.110  1.00  0.00     0.168 HD
HETATM    9  N1  UNL     1      44.627  -3.764  74.730  1.00  0.00    -0.317 N 
HETATM   10  N8  UNL     1      44.741  -2.217  72.766  1.00  0.00    -0.336 N 
HETATM   11  C26 UNL     1      44.896  -0.916  72.430  1.00  0.00     0.183 A 
ATOM     12  H8  UNL     1      44.616  -2.927  72.044  1.00  0.00     0.168 HD
HETATM   13  N7  UNL     1      45.063   0.050  73.336  1.00  0.00    -0.337 N 
ATOM     14  H7  UNL     1      45.176   1.017  73.031  1.00  0.00     0.168 HD
BRANCH   7  15
HETATM   15  C4  UNL     1      44.580  -4.365  77.223  1.00  0.00     0.049 A 
HETATM   16  C5  UNL     1      43.779  -5.536  77.217  1.00  0.00     0.127 A 
HETATM   17  N2  UNL     1      43.757  -6.080  78.438  1.00  0.00    -0.307 N 
HETATM   18  C6  UNL     1      43.049  -7.283  78.824  1.00  0.00     0.177 C 
HETATM   19  N3  UNL     1      44.493  -5.316  79.194  1.00  0.00    -0.303 N 
HETATM   20  C7  UNL     1      45.006  -4.268  78.496  1.00  0.00     0.037 A 
ATOM     21  H3  UNL     1      44.663  -5.482  80.185  1.00  0.00     0.186 HD
HETATM   22  C8  UNL     1      45.832  -3.233  79.173  1.00  0.00     0.070 C 
ENDBRANCH   7  15
BRANCH   9  23
HETATM   23  C2  UNL     1      44.393  -4.995  74.021  1.00  0.00     0.128 C 
HETATM   24  C1  UNL     1      43.097  -4.933  73.218  1.00  0.00     0.027 C 
ENDBRANCH   9  23
ENDBRANCH   1   3
BRANCH   1  25
HETATM   25  C11 UNL     1      46.294   0.725  76.486  1.00  0.00     0.040 A 
HETATM   26  C12 UNL     1      47.587   0.965  76.104  1.00  0.00     0.050 A 
HETATM   27  C13 UNL     1      48.666   1.101  76.995  1.00  0.00     0.073 A 
HETATM   28  C22 UNL     1      48.341   0.971  78.316  1.00  0.00     0.132 A 
HETATM   29  F3  UNL     1      49.287   1.047  79.276  1.00  0.00    -0.205 F 
HETATM   30  C23 UNL     1      47.029   0.724  78.749  1.00  0.00     0.052 A 
HETATM   31  C24 UNL     1      46.011   0.602  77.840  1.00  0.00    -0.032 A 
HETATM   32  C25 UNL     1      44.600   0.341  78.245  1.00  0.00     0.050 C 
BRANCH  27  33
HETATM   33  C14 UNL     1      49.993   1.397  76.461  1.00  0.00     0.259 C 
HETATM   34  O1  UNL     1      50.506   0.455  75.804  1.00  0.00    -0.267 OA
HETATM   35  N6  UNL     1      50.665   2.585  76.632  1.00  0.00    -0.320 N 
ATOM     36  H6  UNL     1      50.158   3.286  77.171  1.00  0.00     0.169 HD
BRANCH  35  37
HETATM   37  C15 UNL     1      51.946   2.995  76.181  1.00  0.00     0.074 A 
HETATM   38  C16 UNL     1      52.119   3.881  75.159  1.00  0.00     0.045 A 
HETATM   39  C17 UNL     1      53.410   4.250  74.750  1.00  0.00     0.006 A 
HETATM   40  C19 UNL     1      54.523   3.730  75.369  1.00  0.00     0.127 A 
HETATM   41  F1  UNL     1      55.786   4.074  74.989  1.00  0.00    -0.205 F 
HETATM   42  C20 UNL     1      54.345   2.846  76.391  1.00  0.00     0.087 A 
HETATM   43  C21 UNL     1      53.092   2.485  76.790  1.00  0.00     0.146 A 
HETATM   44  F2  UNL     1      52.940   1.605  77.808  1.00  0.00    -0.204 F 
BRANCH  39  45
HETATM   45  C18 UNL     1      53.601   5.220  73.626  1.00  0.00     0.206 C 
BRANCH  45  46
HETATM   46  O2  UNL     1      52.499   6.070  73.595  1.00  0.00    -0.396 OA
ATOM     47  H2  UNL     1      52.805   6.956  73.743  1.00  0.00     0.209 HD
ENDBRANCH  45  46
ENDBRANCH  39  45
ENDBRANCH  35  37
ENDBRANCH  27  33
ENDBRANCH   1  25
TORSDOF 8
ENDMDL
MODEL 5
REMARK VINA RESULT: -11.106018682      2.522      5.801
REMARK  8 active torsions:
REMARK  status: ('A' for Active; 'I' for Inactive)
REMARK    1  A    between atoms: C2_2  and  N1_3 
REMARK    2  A    between atoms: C3_4  and  C4_5 
REMARK    3  A    between atoms: C10_16  and  N5_17 
REMARK    4  A    between atoms: N5_17  and  C11_19 
REMARK    5  A    between atoms: C13_21  and  C14_22 
REMARK       I    between atoms: C14_22  and  N6_24 
REMARK    6  A    between atoms: N6_24  and  C15_26 
REMARK    7  A    between atoms: C17_28  and  C18_29 
REMARK    8  A    between atoms: C18_29  and  O2_30 
ROOT
HETATM    1  N5  UNL     1      43.803  -0.167  75.899  1.00  0.00    -0.340 N 
ATOM      2  H5  UNL     1      43.044   0.507  76.002  1.00  0.00     0.167 HD
ENDROOT
BRANCH   1   3
HETATM    3  C10 UNL     1      44.008  -0.906  76.897  1.00  0.00     0.137 A 
HETATM    4  C9  UNL     1      45.240  -0.770  77.552  1.00  0.00     0.123 A 
HETATM    5  N4  UNL     1      46.288   0.025  77.317  1.00  0.00    -0.335 N 
HETATM    6  C27 UNL     1      45.536  -1.540  78.647  1.00  0.00     0.141 A 
HETATM    7  C3  UNL     1      47.267  -0.233  78.264  1.00  0.00     0.123 A 
ATOM      8  H4  UNL     1      46.356   0.710  76.563  1.00  0.00     0.168 HD
HETATM    9  N1  UNL     1      46.805  -1.183  79.069  1.00  0.00    -0.317 N 
HETATM   10  N8  UNL     1      44.635  -2.431  79.090  1.00  0.00    -0.336 N 
HETATM   11  C26 UNL     1      43.455  -2.545  78.440  1.00  0.00     0.183 A 
ATOM     12  H8  UNL     1      44.838  -3.014  79.903  1.00  0.00     0.168 HD
HETATM   13  N7  UNL     1      43.142  -1.807  77.373  1.00  0.00    -0.337 N 
ATOM     14  H7  UNL     1      42.237  -1.930  76.918  1.00  0.00     0.168 HD
BRANCH   7  15
HETATM   15  C4  UNL     1      48.467   0.586  78.240  1.00  0.00     0.049 A 
HETATM   16  C5  UNL     1      49.663   0.158  78.872  1.00  0.00     0.127 A 
HETATM   17  N2  UNL     1      50.598   1.109  78.772  1.00  0.00    -0.307 N 
HETATM   18  C6  UNL     1      51.947   1.037  79.293  1.00  0.00     0.177 C 
HETATM   19  N3  UNL     1      50.051   2.093  78.119  1.00  0.00    -0.303 N 
HETATM   20  C7  UNL     1      48.764   1.816  77.781  1.00  0.00     0.037 A 
ATOM     21  H3  UNL     1      50.528   2.965  77.889  1.00  0.00     0.186 HD
HETATM   22  C8  UNL     1      47.926   2.824  77.079  1.00  0.00     0.070 C 
ENDBRANCH   7  15
BRANCH   9  23
HETATM   23  C2  UNL     1      47.408  -1.780  80.232  1.00  0.00     0.128 C 
HETATM   24  C1  UNL     1      46.609  -1.464  81.493  1.00  0.00     0.027 C 
ENDBRANCH   9  23
ENDBRANCH   1   3
BRANCH   1  25
HETATM   25  C11 UNL     1      44.476  -0.138  74.660  1.00  0.00     0.040 A 
HETATM   26  C12 UNL     1      45.727   0.397  74.505  1.00  0.00     0.050 A 
HETATM   27  C13 UNL     1      46.427   0.439  73.286  1.00  0.00     0.073 A 
HETATM   28  C22 UNL     1      45.762  -0.103  72.222  1.00  0.00     0.132 A 
HETATM   29  F3  UNL     1      46.306  -0.099  70.987  1.00  0.00    -0.205 F 
HETATM   30  C23 UNL     1      44.479  -0.660  72.339  1.00  0.00     0.052 A 
HETATM   31  C24 UNL     1      43.840  -0.678  73.551  1.00  0.00    -0.032 A 
HETATM   32  C25 UNL     1      42.478  -1.259  73.731  1.00  0.00     0.050 C 
BRANCH  27  33
HETATM   33  C14 UNL     1      47.775   1.001  73.262  1.00  0.00     0.259 C 
HETATM   34  O1  UNL     1      48.084   1.549  72.173  1.00  0.00    -0.267 OA
HETATM   35  N6  UNL     1      48.665   0.963  74.309  1.00  0.00    -0.320 N 
ATOM     36  H6  UNL     1      48.313   0.506  75.150  1.00  0.00     0.169 HD
BRANCH  35  37
HETATM   37  C15 UNL     1      49.991   1.456  74.414  1.00  0.00     0.074 A 
HETATM   38  C16 UNL     1      50.320   2.751  74.139  1.00  0.00     0.045 A 
HETATM   39  C17 UNL     1      51.650   3.186  74.255  1.00  0.00     0.006 A 
HETATM   40  C19 UNL     1      52.644   2.320  74.647  1.00  0.00     0.127 A 
HETATM   41  F1  UNL     1      53.942   2.719  74.765  1.00  0.00    -0.205 F 
HETATM   42  C20 UNL     1      52.310   1.027  74.921  1.00  0.00     0.087 A 
HETATM   43  C21 UNL     1      51.020   0.602  74.809  1.00  0.00     0.146 A 
HETATM   44  F2  UNL     1      50.711  -0.687  75.087  1.00  0.00    -0.204 F 
BRANCH  39  45
HETATM   45  C18 UNL     1      52.012   4.606  73.951  1.00  0.00     0.206 C 
BRANCH  45  46
HETATM   46  O2  UNL     1      52.015   5.318  75.147  1.00  0.00    -0.396 OA
ATOM     47  H2  UNL     1      52.918   5.485  75.390  1.00  0.00     0.209 HD
ENDBRANCH  45  46
ENDBRANCH  39  45
ENDBRANCH  35  37
ENDBRANCH  27  33
ENDBRANCH   1  25
TORSDOF 8
ENDMDL
