MODEL 1
REMARK VINA RESULT: -10.236116465      0.000      0.000
REMARK  8 active torsions:
REMARK  status: ('A' for Active; 'I' for Inactive)
REMARK    1  A    between atoms: C2_2  and  C3_3 
REMARK    2  A    between atoms: N1_5  and  N2_7 
REMARK    3  A    between atoms: C7_13  and  C8_14 
REMARK    4  A    between atoms: C8_14  and  O3_15 
REMARK    5  A    between atoms: C8_14  and  N3_17 
REMARK    6  A    between atoms: N3_17  and  C9_19 
REMARK    7  A    between atoms: C10_20  and  C11_21 
REMARK       I    between atoms: C11_21  and  N4_23 
REMARK    8  A    between atoms: N4_23  and  C12_25 
ROOT
HETATM    1  C12 UNL     1      51.325   2.541  76.731  1.00  0.00     0.058 A 
HETATM    2  C13 UNL     1      51.142   3.368  75.664  1.00  0.00     0.041 A 
HETATM    3  C14 UNL     1      52.212   3.942  74.965  1.00  0.00    -0.019 A 
HETATM    4  C15 UNL     1      51.944   4.833  73.814  1.00  0.00     0.051 C 
HETATM    5  C16 UNL     1      53.484   3.652  75.387  1.00  0.00     0.148 A 
HETATM    6  F1  UNL     1      54.566   4.178  74.751  1.00  0.00    -0.203 F 
HETATM    7  C17 UNL     1      53.694   2.810  76.475  1.00  0.00     0.108 A 
HETATM    8  N5  UNL     1      54.985   2.490  76.935  1.00  0.00    -0.097 NA
HETATM    9  C18 UNL     1      52.635   2.258  77.144  1.00  0.00     0.098 A 
HETATM   10  C19 UNL     1      52.851   1.375  78.283  1.00  0.00     0.104 C 
HETATM   11  N6  UNL     1      53.035   0.678  79.187  1.00  0.00    -0.191 NA
ENDROOT
BRANCH   1  12
HETATM   12  N4  UNL     1      50.236   1.967  77.439  1.00  0.00    -0.321 N 
HETATM   13  C11 UNL     1      49.506   0.817  77.115  1.00  0.00     0.258 C 
HETATM   14  O4  UNL     1      49.705   0.095  76.127  1.00  0.00    -0.267 OA
ATOM     15  H4  UNL     1      49.950   2.453  78.289  1.00  0.00     0.169 HD
BRANCH  13  16
HETATM   16  C10 UNL     1      48.393   0.390  77.998  1.00  0.00     0.060 A 
HETATM   17  C9  UNL     1      47.109   0.546  77.548  1.00  0.00     0.073 A 
HETATM   18  C23 UNL     1      46.055   0.139  78.328  1.00  0.00     0.083 A 
HETATM   19  C22 UNL     1      46.264  -0.436  79.583  1.00  0.00     0.058 A 
HETATM   20 CL3  UNL     1      44.417   0.332  77.761  1.00  0.00    -0.080 Cl
HETATM   21  C21 UNL     1      47.556  -0.589  80.030  1.00  0.00     0.027 A 
HETATM   22 CL2  UNL     1      44.888  -0.942  80.543  1.00  0.00    -0.082 Cl
HETATM   23  C20 UNL     1      48.640  -0.179  79.246  1.00  0.00     0.021 A 
BRANCH  17  24
HETATM   24  N3  UNL     1      46.761   1.156  76.269  1.00  0.00    -0.333 N 
ATOM     25  H3  UNL     1      46.491   2.138  76.214  1.00  0.00     0.168 HD
BRANCH  24  26
HETATM   26  C8  UNL     1      46.807   0.361  75.122  1.00  0.00     0.172 C 
BRANCH  26  27
HETATM   27  C7  UNL     1      46.715   0.797  73.743  1.00  0.00     0.132 C 
HETATM   28  N2  UNL     1      45.526   0.867  72.972  1.00  0.00    -0.216 N 
HETATM   29  C4  UNL     1      45.537   1.346  71.593  1.00  0.00     0.267 C 
HETATM   30  O1  UNL     1      44.474   1.742  71.050  1.00  0.00    -0.269 OA
HETATM   31  C5  UNL     1      46.844   1.337  70.891  1.00  0.00     0.279 C 
HETATM   32  O2  UNL     1      47.875   1.640  71.835  1.00  0.00    -0.351 OA
HETATM   33  C6  UNL     1      47.852   1.195  73.123  1.00  0.00     0.171 C 
BRANCH  28  34
HETATM   34  N1  UNL     1      44.294   0.498  73.443  1.00  0.00    -0.298 N 
HETATM   35  C2  UNL     1      43.800  -0.674  73.392  1.00  0.00     0.014 C 
HETATM   36  C1  UNL     1      42.417  -0.904  73.958  1.00  0.00     0.066 C 
ATOM     37  H1  UNL     1      43.722   1.226  73.872  1.00  0.00     0.187 HD
BRANCH  35  38
HETATM   38  C3  UNL     1      44.530  -1.814  72.816  1.00  0.00     0.168 C 
HETATM   39 CL1  UNL     1      43.523  -3.303  73.006  1.00  0.00    -0.124 Cl
ENDBRANCH  35  38
ENDBRANCH  28  34
ENDBRANCH  26  27
BRANCH  26  40
HETATM   40  O3  UNL     1      46.951  -0.925  75.284  1.00  0.00    -0.344 OA
ATOM     41  H3  UNL     1      47.350  -1.184  76.107  1.00  0.00     0.219 HD
ENDBRANCH  26  40
ENDBRANCH  24  26
ENDBRANCH  17  24
ENDBRANCH  13  16
ENDBRANCH   1  12
TORSDOF 8
ENDMDL
MODEL 2
REMARK VINA RESULT: -10.069158879      1.707      2.399
REMARK  8 active torsions:
REMARK  status: ('A' for Active; 'I' for Inactive)
REMARK    1  A    between atoms: C2_2  and  C3_3 
REMARK    2  A    between atoms: N1_5  and  N2_7 
REMARK    3  A    between atoms: C7_13  and  C8_14 
REMARK    4  A    between atoms: C8_14  and  O3_15 
REMARK    5  A    between atoms: C8_14  and  N3_17 
REMARK    6  A    between atoms: N3_17  and  C9_19 
REMARK    7  A    between atoms: C10_20  and  C11_21 
REMARK       I    between atoms: C11_21  and  N4_23 
REMARK    8  A    between atoms: N4_23  and  C12_25 
ROOT
HETATM    1  C12 UNL     1      51.777   3.045  76.265  1.00  0.00     0.058 A 
HETATM    2  C13 UNL     1      51.547   3.910  75.238  1.00  0.00     0.041 A 
HETATM    3  C14 UNL     1      52.586   4.524  74.527  1.00  0.00    -0.019 A 
HETATM    4  C15 UNL     1      52.269   5.455  73.421  1.00  0.00     0.051 C 
HETATM    5  C16 UNL     1      53.875   4.234  74.893  1.00  0.00     0.148 A 
HETATM    6  F1  UNL     1      54.929   4.798  74.243  1.00  0.00    -0.203 F 
HETATM    7  C17 UNL     1      54.132   3.354  75.940  1.00  0.00     0.108 A 
HETATM    8  N5  UNL     1      55.441   3.032  76.344  1.00  0.00    -0.097 NA
HETATM    9  C18 UNL     1      53.102   2.763  76.623  1.00  0.00     0.098 A 
HETATM   10  C19 UNL     1      53.367   1.839  77.719  1.00  0.00     0.104 C 
HETATM   11  N6  UNL     1      53.590   1.110  78.588  1.00  0.00    -0.191 NA
ENDROOT
BRANCH   1  12
HETATM   12  N4  UNL     1      50.718   2.431  76.987  1.00  0.00    -0.321 N 
HETATM   13  C11 UNL     1      50.156   1.165  76.783  1.00  0.00     0.258 C 
HETATM   14  O4  UNL     1      50.506   0.355  75.913  1.00  0.00    -0.267 OA
ATOM     15  H4  UNL     1      50.320   2.980  77.749  1.00  0.00     0.169 HD
BRANCH  13  16
HETATM   16  C10 UNL     1      49.045   0.714  77.658  1.00  0.00     0.060 A 
HETATM   17  C9  UNL     1      47.765   0.798  77.178  1.00  0.00     0.073 A 
HETATM   18  C23 UNL     1      46.715   0.367  77.950  1.00  0.00     0.083 A 
HETATM   19  C22 UNL     1      46.923  -0.160  79.226  1.00  0.00     0.058 A 
HETATM   20 CL3  UNL     1      45.081   0.470  77.346  1.00  0.00    -0.080 Cl
HETATM   21  C21 UNL     1      48.211  -0.241  79.702  1.00  0.00     0.027 A 
HETATM   22 CL2  UNL     1      45.552  -0.699  80.175  1.00  0.00    -0.082 Cl
HETATM   23  C20 UNL     1      49.292   0.194  78.927  1.00  0.00     0.021 A 
BRANCH  17  24
HETATM   24  N3  UNL     1      47.416   1.354  75.875  1.00  0.00    -0.333 N 
ATOM     25  H3  UNL     1      47.154   2.335  75.778  1.00  0.00     0.168 HD
BRANCH  24  26
HETATM   26  C8  UNL     1      47.452   0.509  74.764  1.00  0.00     0.172 C 
BRANCH  26  27
HETATM   27  C7  UNL     1      46.530  -0.562  74.442  1.00  0.00     0.132 C 
HETATM   28  N2  UNL     1      45.191  -0.401  74.000  1.00  0.00    -0.216 N 
HETATM   29  C4  UNL     1      44.350  -1.549  73.676  1.00  0.00     0.267 C 
HETATM   30  O1  UNL     1      43.325  -1.404  72.960  1.00  0.00    -0.269 OA
HETATM   31  C5  UNL     1      44.766  -2.861  74.228  1.00  0.00     0.279 C 
HETATM   32  O2  UNL     1      46.195  -2.918  74.252  1.00  0.00    -0.351 OA
HETATM   33  C6  UNL     1      46.972  -1.838  74.547  1.00  0.00     0.171 C 
BRANCH  28  34
HETATM   34  N1  UNL     1      44.586   0.818  73.844  1.00  0.00    -0.298 N 
HETATM   35  C2  UNL     1      44.699   1.578  72.829  1.00  0.00     0.014 C 
HETATM   36  C1  UNL     1      43.961   2.898  72.826  1.00  0.00     0.066 C 
ATOM     37  H1  UNL     1      43.993   1.145  74.607  1.00  0.00     0.187 HD
BRANCH  35  38
HETATM   38  C3  UNL     1      45.507   1.215  71.656  1.00  0.00     0.168 C 
HETATM   39 CL1  UNL     1      45.482   2.592  70.485  1.00  0.00    -0.124 Cl
ENDBRANCH  35  38
ENDBRANCH  28  34
ENDBRANCH  26  27
BRANCH  26  40
HETATM   40  O3  UNL     1      48.414   0.685  73.902  1.00  0.00    -0.344 OA
ATOM     41  H3  UNL     1      49.288   0.530  74.240  1.00  0.00     0.219 HD
ENDBRANCH  26  40
ENDBRANCH  24  26
ENDBRANCH  17  24
ENDBRANCH  13  16
ENDBRANCH   1  12
TORSDOF 8
ENDMDL
MODEL 3
REMARK VINA RESULT: -10.016589920      2.831      5.148
REMARK  8 active torsions:
REMARK  status: ('A' for Active; 'I' for Inactive)
REMARK    1  A    between atoms: C2_2  and  C3_3 
REMARK    2  A    between atoms: N1_5  and  N2_7 
REMARK    3  A    between atoms: C7_13  and  C8_14 
REMARK    4  A    between atoms: C8_14  and  O3_15 
REMARK    5  A    between atoms: C8_14  and  N3_17 
REMARK    6  A    between atoms: N3_17  and  C9_19 
REMARK    7  A    between atoms: C10_20  and  C11_21 
REMARK       I    between atoms: C11_21  and  N4_23 
REMARK    8  A    between atoms: N4_23  and  C12_25 
ROOT
HETATM    1  C12 UNL     1      50.093   1.868  75.748  1.00  0.00     0.058 A 
HETATM    2  C13 UNL     1      51.169   2.335  75.057  1.00  0.00     0.041 A 
HETATM    3  C14 UNL     1      52.446   2.429  75.626  1.00  0.00    -0.019 A 
HETATM    4  C15 UNL     1      53.574   2.947  74.820  1.00  0.00     0.051 C 
HETATM    5  C16 UNL     1      52.598   2.035  76.930  1.00  0.00     0.148 A 
HETATM    6  F1  UNL     1      53.811   2.102  77.543  1.00  0.00    -0.203 F 
HETATM    7  C17 UNL     1      51.511   1.555  77.656  1.00  0.00     0.108 A 
HETATM    8  N5  UNL     1      51.630   1.141  78.996  1.00  0.00    -0.097 NA
HETATM    9  C18 UNL     1      50.271   1.470  77.081  1.00  0.00     0.098 A 
HETATM   10  C19 UNL     1      49.132   0.967  77.837  1.00  0.00     0.104 C 
HETATM   11  N6  UNL     1      48.234   0.568  78.448  1.00  0.00    -0.191 NA
ENDROOT
BRANCH   1  12
HETATM   12  N4  UNL     1      48.800   1.781  75.167  1.00  0.00    -0.321 N 
HETATM   13  C11 UNL     1      48.148   0.642  74.678  1.00  0.00     0.258 C 
HETATM   14  O4  UNL     1      48.613  -0.507  74.679  1.00  0.00    -0.267 OA
ATOM     15  H4  UNL     1      48.282   2.657  75.097  1.00  0.00     0.169 HD
BRANCH  13  16
HETATM   16  C10 UNL     1      46.787   0.774  74.103  1.00  0.00     0.060 A 
HETATM   17  C9  UNL     1      45.711   0.535  74.916  1.00  0.00     0.073 A 
HETATM   18  C23 UNL     1      44.437   0.672  74.424  1.00  0.00     0.083 A 
HETATM   19  C22 UNL     1      44.209   1.054  73.100  1.00  0.00     0.058 A 
HETATM   20 CL3  UNL     1      43.062   0.370  75.453  1.00  0.00    -0.080 Cl
HETATM   21  C21 UNL     1      45.294   1.291  72.289  1.00  0.00     0.027 A 
HETATM   22 CL2  UNL     1      42.565   1.217  72.517  1.00  0.00    -0.082 Cl
HETATM   23  C20 UNL     1      46.599   1.156  72.775  1.00  0.00     0.021 A 
BRANCH  17  24
HETATM   24  N3  UNL     1      45.819   0.105  76.306  1.00  0.00    -0.333 N 
ATOM     25  H3  UNL     1      45.956   0.784  77.055  1.00  0.00     0.168 HD
BRANCH  24  26
HETATM   26  C8  UNL     1      45.728  -1.260  76.585  1.00  0.00     0.172 C 
BRANCH  26  27
HETATM   27  C7  UNL     1      44.832  -1.911  77.521  1.00  0.00     0.132 C 
HETATM   28  N2  UNL     1      44.313  -3.226  77.396  1.00  0.00    -0.216 N 
HETATM   29  C4  UNL     1      43.435  -3.799  78.411  1.00  0.00     0.267 C 
HETATM   30  O1  UNL     1      43.277  -5.046  78.483  1.00  0.00    -0.269 OA
HETATM   31  C5  UNL     1      42.759  -2.849  79.328  1.00  0.00     0.279 C 
HETATM   32  O2  UNL     1      43.639  -1.751  79.582  1.00  0.00    -0.351 OA
HETATM   33  C6  UNL     1      44.462  -1.227  78.630  1.00  0.00     0.171 C 
BRANCH  28  34
HETATM   34  N1  UNL     1      44.583  -4.050  76.336  1.00  0.00    -0.298 N 
HETATM   35  C2  UNL     1      44.022  -3.998  75.194  1.00  0.00     0.014 C 
HETATM   36  C1  UNL     1      44.440  -4.993  74.135  1.00  0.00     0.066 C 
ATOM     37  H1  UNL     1      45.294  -4.768  76.473  1.00  0.00     0.187 HD
BRANCH  35  38
HETATM   38  C3  UNL     1      42.995  -2.999  74.863  1.00  0.00     0.168 C 
HETATM   39 CL1  UNL     1      43.257  -2.438  73.165  1.00  0.00    -0.124 Cl
ENDBRANCH  35  38
ENDBRANCH  28  34
ENDBRANCH  26  27
BRANCH  26  40
HETATM   40  O3  UNL     1      46.528  -2.063  75.941  1.00  0.00    -0.344 OA
ATOM     41  H3  UNL     1      46.734  -1.797  75.053  1.00  0.00     0.219 HD
ENDBRANCH  26  40
ENDBRANCH  24  26
ENDBRANCH  17  24
ENDBRANCH  13  16
ENDBRANCH   1  12
TORSDOF 8
ENDMDL
MODEL 4
REMARK VINA RESULT: -9.891561737      1.476      2.020
REMARK  8 active torsions:
REMARK  status: ('A' for Active; 'I' for Inactive)
REMARK    1  A    between atoms: C2_2  and  C3_3 
REMARK    2  A    between atoms: N1_5  and  N2_7 
REMARK    3  A    between atoms: C7_13  and  C8_14 
REMARK    4  A    between atoms: C8_14  and  O3_15 
REMARK    5  A    between atoms: C8_14  and  N3_17 
REMARK    6  A    between atoms: N3_17  and  C9_19 
REMARK    7  A    between atoms: C10_20  and  C11_21 
REMARK       I    between atoms: C11_21  and  N4_23 
REMARK    8  A    between atoms: N4_23  and  C12_25 
ROOT
HETATM    1  C12 UNL     1      51.325   2.487  76.765  1.00  0.00     0.058 A 
HETATM    2  C13 UNL     1      51.121   3.297  75.688  1.00  0.00     0.041 A 
HETATM    3  C14 UNL     1      52.177   3.861  74.961  1.00  0.00    -0.019 A 
HETATM    4  C15 UNL     1      51.887   4.733  73.801  1.00  0.00     0.051 C 
HETATM    5  C16 UNL     1      53.457   3.580  75.364  1.00  0.00     0.148 A 
HETATM    6  F1  UNL     1      54.527   4.097  74.701  1.00  0.00    -0.203 F 
HETATM    7  C17 UNL     1      53.688   2.756  76.462  1.00  0.00     0.108 A 
HETATM    8  N5  UNL     1      54.987   2.445  76.904  1.00  0.00    -0.097 NA
HETATM    9  C18 UNL     1      52.642   2.213  77.159  1.00  0.00     0.098 A 
HETATM   10  C19 UNL     1      52.881   1.349  78.308  1.00  0.00     0.104 C 
HETATM   11  N6  UNL     1      53.082   0.667  79.220  1.00  0.00    -0.191 NA
ENDROOT
BRANCH   1  12
HETATM   12  N4  UNL     1      50.250   1.924  77.502  1.00  0.00    -0.321 N 
HETATM   13  C11 UNL     1      49.431   0.845  77.145  1.00  0.00     0.258 C 
HETATM   14  O4  UNL     1      49.522   0.191  76.096  1.00  0.00    -0.267 OA
ATOM     15  H4  UNL     1      50.049   2.358  78.403  1.00  0.00     0.169 HD
BRANCH  13  16
HETATM   16  C10 UNL     1      48.353   0.415  78.069  1.00  0.00     0.060 A 
HETATM   17  C9  UNL     1      47.054   0.522  77.647  1.00  0.00     0.073 A 
HETATM   18  C23 UNL     1      46.031   0.110  78.465  1.00  0.00     0.083 A 
HETATM   19  C22 UNL     1      46.287  -0.421  79.731  1.00  0.00     0.058 A 
HETATM   20 CL3  UNL     1      44.375   0.242  77.934  1.00  0.00    -0.080 Cl
HETATM   21  C21 UNL     1      47.593  -0.524  80.149  1.00  0.00     0.027 A 
HETATM   22 CL2  UNL     1      44.950  -0.934  80.740  1.00  0.00    -0.082 Cl
HETATM   23  C20 UNL     1      48.646  -0.109  79.327  1.00  0.00     0.021 A 
BRANCH  17  24
HETATM   24  N3  UNL     1      46.657   1.083  76.360  1.00  0.00    -0.333 N 
ATOM     25  H3  UNL     1      46.685   2.090  76.197  1.00  0.00     0.168 HD
BRANCH  24  26
HETATM   26  C8  UNL     1      46.240   0.207  75.356  1.00  0.00     0.172 C 
BRANCH  26  27
HETATM   27  C7  UNL     1      44.982   0.226  74.635  1.00  0.00     0.132 C 
HETATM   28  N2  UNL     1      44.014  -0.811  74.626  1.00  0.00    -0.216 N 
HETATM   29  C4  UNL     1      42.763  -0.681  73.885  1.00  0.00     0.267 C 
HETATM   30  O1  UNL     1      41.781  -1.417  74.163  1.00  0.00    -0.269 OA
HETATM   31  C5  UNL     1      42.722   0.343  72.813  1.00  0.00     0.279 C 
HETATM   32  O2  UNL     1      43.514   1.463  73.217  1.00  0.00    -0.351 OA
HETATM   33  C6  UNL     1      44.677   1.333  73.916  1.00  0.00     0.171 C 
BRANCH  28  34
HETATM   34  N1  UNL     1      44.167  -1.996  75.294  1.00  0.00    -0.298 N 
HETATM   35  C2  UNL     1      44.431  -3.121  74.759  1.00  0.00     0.014 C 
HETATM   36  C1  UNL     1      44.561  -4.336  75.651  1.00  0.00     0.066 C 
ATOM     37  H1  UNL     1      44.059  -1.977  76.309  1.00  0.00     0.187 HD
BRANCH  35  38
HETATM   38  C3  UNL     1      44.628  -3.280  73.311  1.00  0.00     0.168 C 
HETATM   39 CL1  UNL     1      43.324  -4.351  72.662  1.00  0.00    -0.124 Cl
ENDBRANCH  35  38
ENDBRANCH  28  34
ENDBRANCH  26  27
BRANCH  26  40
HETATM   40  O3  UNL     1      47.058  -0.747  75.007  1.00  0.00    -0.344 OA
ATOM     41  H3  UNL     1      47.977  -0.565  75.168  1.00  0.00     0.219 HD
ENDBRANCH  26  40
ENDBRANCH  24  26
ENDBRANCH  17  24
ENDBRANCH  13  16
ENDBRANCH   1  12
TORSDOF 8
ENDMDL
MODEL 5
REMARK VINA RESULT: -9.744691900      2.850      5.876
REMARK  8 active torsions:
REMARK  status: ('A' for Active; 'I' for Inactive)
REMARK    1  A    between atoms: C2_2  and  C3_3 
REMARK    2  A    between atoms: N1_5  and  N2_7 
REMARK    3  A    between atoms: C7_13  and  C8_14 
REMARK    4  A    between atoms: C8_14  and  O3_15 
REMARK    5  A    between atoms: C8_14  and  N3_17 
REMARK    6  A    between atoms: N3_17  and  C9_19 
REMARK    7  A    between atoms: C10_20  and  C11_21 
REMARK       I    between atoms: C11_21  and  N4_23 
REMARK    8  A    between atoms: N4_23  and  C12_25 
ROOT
HETATM    1  C12 UNL     1      48.482   1.305  76.166  1.00  0.00     0.058 A 
HETATM    2  C13 UNL     1      47.982   0.663  77.258  1.00  0.00     0.041 A 
HETATM    3  C14 UNL     1      48.771   0.351  78.373  1.00  0.00    -0.019 A 
HETATM    4  C15 UNL     1      48.167  -0.348  79.529  1.00  0.00     0.051 C 
HETATM    5  C16 UNL     1      50.094   0.712  78.345  1.00  0.00     0.148 A 
HETATM    6  F1  UNL     1      50.914   0.437  79.396  1.00  0.00    -0.203 F 
HETATM    7  C17 UNL     1      50.625   1.367  77.239  1.00  0.00     0.108 A 
HETATM    8  N5  UNL     1      51.977   1.752  77.174  1.00  0.00    -0.097 NA
HETATM    9  C18 UNL     1      49.837   1.664  76.158  1.00  0.00     0.098 A 
HETATM   10  C19 UNL     1      50.389   2.351  74.999  1.00  0.00     0.104 C 
HETATM   11  N6  UNL     1      50.840   2.895  74.083  1.00  0.00    -0.191 NA
ENDROOT
BRANCH   1  12
HETATM   12  N4  UNL     1      47.678   1.612  75.035  1.00  0.00    -0.321 N 
HETATM   13  C11 UNL     1      47.179   0.731  74.067  1.00  0.00     0.258 C 
HETATM   14  O4  UNL     1      47.367  -0.493  74.046  1.00  0.00    -0.267 OA
ATOM     15  H4  UNL     1      47.433   2.595  74.915  1.00  0.00     0.169 HD
BRANCH  13  16
HETATM   16  C10 UNL     1      46.354   1.266  72.956  1.00  0.00     0.060 A 
HETATM   17  C9  UNL     1      45.008   1.416  73.161  1.00  0.00     0.073 A 
HETATM   18  C23 UNL     1      44.217   1.931  72.164  1.00  0.00     0.083 A 
HETATM   19  C22 UNL     1      44.758   2.308  70.933  1.00  0.00     0.058 A 
HETATM   20 CL3  UNL     1      42.502   2.127  72.417  1.00  0.00    -0.080 Cl
HETATM   21  C21 UNL     1      46.109   2.153  70.734  1.00  0.00     0.027 A 
HETATM   22 CL2  UNL     1      43.709   2.962  69.690  1.00  0.00    -0.082 Cl
HETATM   23  C20 UNL     1      46.929   1.631  71.740  1.00  0.00     0.021 A 
BRANCH  17  24
HETATM   24  N3  UNL     1      44.321   1.034  74.390  1.00  0.00    -0.333 N 
ATOM     25  H3  UNL     1      44.314   1.655  75.200  1.00  0.00     0.168 HD
BRANCH  24  26
HETATM   26  C8  UNL     1      43.674  -0.202  74.430  1.00  0.00     0.172 C 
BRANCH  26  27
HETATM   27  C7  UNL     1      44.264  -1.497  74.706  1.00  0.00     0.132 C 
HETATM   28  N2  UNL     1      44.856  -1.895  75.932  1.00  0.00    -0.216 N 
HETATM   29  C4  UNL     1      45.401  -3.236  76.117  1.00  0.00     0.267 C 
HETATM   30  O1  UNL     1      45.587  -3.693  77.275  1.00  0.00    -0.269 OA
HETATM   31  C5  UNL     1      45.715  -4.008  74.889  1.00  0.00     0.279 C 
HETATM   32  O2  UNL     1      44.749  -3.685  73.885  1.00  0.00    -0.351 OA
HETATM   33  C6  UNL     1      44.240  -2.431  73.725  1.00  0.00     0.171 C 
BRANCH  28  34
HETATM   34  N1  UNL     1      44.967  -1.074  77.022  1.00  0.00    -0.298 N 
HETATM   35  C2  UNL     1      44.044  -0.828  77.864  1.00  0.00     0.014 C 
HETATM   36  C1  UNL     1      44.339   0.111  79.011  1.00  0.00     0.066 C 
ATOM     37  H1  UNL     1      45.868  -0.619  77.174  1.00  0.00     0.187 HD
BRANCH  35  38
HETATM   38  C3  UNL     1      42.707  -1.435  77.769  1.00  0.00     0.168 C 
HETATM   39 CL1  UNL     1      41.494  -0.123  77.495  1.00  0.00    -0.124 Cl
ENDBRANCH  35  38
ENDBRANCH  28  34
ENDBRANCH  26  27
BRANCH  26  40
HETATM   40  O3  UNL     1      42.391  -0.221  74.197  1.00  0.00    -0.344 OA
ATOM     41  H3  UNL     1      42.063   0.519  73.699  1.00  0.00     0.219 HD
ENDBRANCH  26  40
ENDBRANCH  24  26
ENDBRANCH  17  24
ENDBRANCH  13  16
ENDBRANCH   1  12
TORSDOF 8
ENDMDL
