MODEL 1
REMARK VINA RESULT: -9.932647319      0.000      0.000
REMARK  9 active torsions:
REMARK  status: ('A' for Active; 'I' for Inactive)
REMARK    1  A    between atoms: O1_2  and  C2_3 
REMARK    2  A    between atoms: C6_9  and  O3_10 
REMARK    3  A    between atoms: C8_14  and  O4_15 
REMARK    4  A    between atoms: C12_20  and  O5_21 
REMARK    5  A    between atoms: C12_20  and  O6_23 
REMARK    6  A    between atoms: O6_23  and  C13_24 
REMARK    7  A    between atoms: C13_24  and  C14_25 
REMARK    8  A    between atoms: C14_25  and  C16_27 
REMARK    9  A    between atoms: C19_30  and  O7_31 
ROOT
HETATM    1  C2  UNL     1      45.878   0.191  76.495  1.00  0.00     0.139 C 
HETATM    2  C3  UNL     1      46.156   0.251  77.799  1.00  0.00     0.120 C 
HETATM    3 CL1  UNL     1      44.795   0.204  78.935  1.00  0.00    -0.077 Cl
HETATM    4  C4  UNL     1      47.472   0.602  78.294  1.00  0.00     0.210 C 
HETATM    5  O2  UNL     1      47.679   0.625  79.531  1.00  0.00    -0.285 OA
HETATM    6  C5  UNL     1      48.491   0.912  77.306  1.00  0.00     0.064 A 
HETATM    7  C6  UNL     1      49.723   1.417  77.768  1.00  0.00     0.101 A 
HETATM    8  C7  UNL     1      50.661   1.890  76.821  1.00  0.00     0.080 A 
HETATM    9 BR1  UNL     1      52.345   2.586  77.375  1.00  0.00    -0.045 Br
HETATM   10  C8  UNL     1      50.329   1.832  75.498  1.00  0.00     0.110 A 
HETATM   11  C10 UNL     1      49.115   1.327  75.094  1.00  0.00     0.082 A 
HETATM   12 CL2  UNL     1      48.791   1.321  73.402  1.00  0.00    -0.081 Cl
HETATM   13  C11 UNL     1      48.174   0.855  75.973  1.00  0.00     0.052 A 
HETATM   14  C12 UNL     1      46.931   0.165  75.517  1.00  0.00     0.247 C 
ENDROOT
BRANCH  14  15
HETATM   15  O5  UNL     1      47.484  -1.271  75.718  1.00  0.00    -0.356 OA
ATOM     16  H5  UNL     1      47.692  -1.511  74.823  1.00  0.00     0.214 HD
ENDBRANCH  14  15
BRANCH  14  17
HETATM   17  O6  UNL     1      46.770   0.122  74.217  1.00  0.00    -0.345 OA
BRANCH  17  18
HETATM   18  C13 UNL     1      46.592  -0.805  73.333  1.00  0.00     0.181 C 
BRANCH  18  19
HETATM   19  C14 UNL     1      45.612  -0.933  72.250  1.00  0.00     0.038 C 
HETATM   20  C15 UNL     1      44.193  -1.243  72.692  1.00  0.00     0.017 C 
BRANCH  19  21
HETATM   21  C16 UNL     1      45.463   0.486  71.680  1.00  0.00    -0.052 A 
HETATM   22  C17 UNL     1      46.349   0.997  70.786  1.00  0.00     0.010 A 
HETATM   23  C18 UNL     1      46.185   2.266  70.293  1.00  0.00     0.037 A 
HETATM   24  C19 UNL     1      45.135   3.069  70.674  1.00  0.00     0.065 A 
HETATM   25  C20 UNL     1      44.229   2.561  71.579  1.00  0.00     0.037 A 
HETATM   26  C21 UNL     1      44.401   1.275  72.074  1.00  0.00     0.010 A 
BRANCH  24  27
HETATM   27  O7  UNL     1      45.018   4.350  70.141  1.00  0.00    -0.361 OA
ATOM     28  H7  UNL     1      45.407   4.546  69.298  1.00  0.00     0.217 HD
ENDBRANCH  24  27
ENDBRANCH  19  21
ENDBRANCH  18  19
ENDBRANCH  17  18
ENDBRANCH  14  17
BRANCH   1  29
HETATM   29  O1  UNL     1      44.476   0.132  76.187  1.00  0.00    -0.353 OA
HETATM   30  C1  UNL     1      43.848  -1.138  76.075  1.00  0.00     0.209 C 
ENDBRANCH   1  29
BRANCH   7  31
HETATM   31  O3  UNL     1      50.109   1.500  79.051  1.00  0.00    -0.358 OA
ATOM     32  H3  UNL     1      50.654   0.871  79.510  1.00  0.00     0.217 HD
ENDBRANCH   7  31
BRANCH  10  33
HETATM   33  O4  UNL     1      51.236   2.292  74.562  1.00  0.00    -0.353 OA
HETATM   34  C9  UNL     1      51.334   3.642  74.160  1.00  0.00     0.210 C 
ENDBRANCH  10  33
TORSDOF 9
ENDMDL
MODEL 2
REMARK VINA RESULT: -9.903884226      1.287      1.677
REMARK  9 active torsions:
REMARK  status: ('A' for Active; 'I' for Inactive)
REMARK    1  A    between atoms: O1_2  and  C2_3 
REMARK    2  A    between atoms: C6_9  and  O3_10 
REMARK    3  A    between atoms: C8_14  and  O4_15 
REMARK    4  A    between atoms: C12_20  and  O5_21 
REMARK    5  A    between atoms: C12_20  and  O6_23 
REMARK    6  A    between atoms: O6_23  and  C13_24 
REMARK    7  A    between atoms: C13_24  and  C14_25 
REMARK    8  A    between atoms: C14_25  and  C16_27 
REMARK    9  A    between atoms: C19_30  and  O7_31 
ROOT
HETATM    1  C2  UNL     1      46.351   0.270  75.856  1.00  0.00     0.139 C 
HETATM    2  C3  UNL     1      46.459   0.019  77.162  1.00  0.00     0.120 C 
HETATM    3 CL1  UNL     1      44.962  -0.210  78.085  1.00  0.00    -0.077 Cl
HETATM    4  C4  UNL     1      47.708   0.177  77.880  1.00  0.00     0.210 C 
HETATM    5  O2  UNL     1      47.754  -0.091  79.105  1.00  0.00    -0.285 OA
HETATM    6  C5  UNL     1      48.855   0.646  77.121  1.00  0.00     0.064 A 
HETATM    7  C6  UNL     1      50.029   0.968  77.831  1.00  0.00     0.101 A 
HETATM    8  C7  UNL     1      51.093   1.590  77.140  1.00  0.00     0.080 A 
HETATM    9 BR1  UNL     1      52.708   2.051  78.038  1.00  0.00    -0.045 Br
HETATM   10  C8  UNL     1      50.934   1.851  75.809  1.00  0.00     0.110 A 
HETATM   11  C10 UNL     1      49.771   1.517  75.156  1.00  0.00     0.082 A 
HETATM   12 CL2  UNL     1      49.669   1.911  73.482  1.00  0.00    -0.081 Cl
HETATM   13  C11 UNL     1      48.712   0.909  75.782  1.00  0.00     0.052 A 
HETATM   14  C12 UNL     1      47.521   0.409  75.032  1.00  0.00     0.247 C 
ENDROOT
BRANCH  14  15
HETATM   15  O5  UNL     1      48.008  -1.063  74.962  1.00  0.00    -0.356 OA
ATOM     16  H5  UNL     1      47.980  -1.218  74.025  1.00  0.00     0.214 HD
ENDBRANCH  14  15
BRANCH  14  17
HETATM   17  O6  UNL     1      47.530   0.669  73.748  1.00  0.00    -0.345 OA
BRANCH  17  18
HETATM   18  C13 UNL     1      46.638   0.799  72.820  1.00  0.00     0.181 C 
BRANCH  18  19
HETATM   19  C14 UNL     1      46.621   1.615  71.603  1.00  0.00     0.038 C 
HETATM   20  C15 UNL     1      46.848   0.855  70.309  1.00  0.00     0.017 C 
BRANCH  19  21
HETATM   21  C16 UNL     1      45.162   2.071  71.451  1.00  0.00    -0.052 A 
HETATM   22  C17 UNL     1      44.766   2.884  70.437  1.00  0.00     0.010 A 
HETATM   23  C18 UNL     1      43.455   3.269  70.328  1.00  0.00     0.037 A 
HETATM   24  C19 UNL     1      42.494   2.859  71.223  1.00  0.00     0.065 A 
HETATM   25  C20 UNL     1      42.884   2.034  72.255  1.00  0.00     0.037 A 
HETATM   26  C21 UNL     1      44.214   1.647  72.359  1.00  0.00     0.010 A 
BRANCH  24  27
HETATM   27  O7  UNL     1      41.177   3.281  71.064  1.00  0.00    -0.361 OA
ATOM     28  H7  UNL     1      40.466   2.717  71.341  1.00  0.00     0.217 HD
ENDBRANCH  24  27
ENDBRANCH  19  21
ENDBRANCH  18  19
ENDBRANCH  17  18
ENDBRANCH  14  17
BRANCH   1  29
HETATM   29  O1  UNL     1      45.000   0.358  75.376  1.00  0.00    -0.353 OA
HETATM   30  C1  UNL     1      44.335  -0.830  74.970  1.00  0.00     0.209 C 
ENDBRANCH   1  29
BRANCH   7  31
HETATM   31  O3  UNL     1      50.247   0.737  79.136  1.00  0.00    -0.358 OA
ATOM     32  H3  UNL     1      50.765   0.026  79.497  1.00  0.00     0.217 HD
ENDBRANCH   7  31
BRANCH  10  33
HETATM   33  O4  UNL     1      51.966   2.461  75.121  1.00  0.00    -0.353 OA
HETATM   34  C9  UNL     1      52.046   3.852  74.895  1.00  0.00     0.210 C 
ENDBRANCH  10  33
TORSDOF 9
ENDMDL
MODEL 3
REMARK VINA RESULT: -9.619953440      2.889      6.636
REMARK  9 active torsions:
REMARK  status: ('A' for Active; 'I' for Inactive)
REMARK    1  A    between atoms: O1_2  and  C2_3 
REMARK    2  A    between atoms: C6_9  and  O3_10 
REMARK    3  A    between atoms: C8_14  and  O4_15 
REMARK    4  A    between atoms: C12_20  and  O5_21 
REMARK    5  A    between atoms: C12_20  and  O6_23 
REMARK    6  A    between atoms: O6_23  and  C13_24 
REMARK    7  A    between atoms: C13_24  and  C14_25 
REMARK    8  A    between atoms: C14_25  and  C16_27 
REMARK    9  A    between atoms: C19_30  and  O7_31 
ROOT
HETATM    1  C2  UNL     1      49.044   1.102  77.820  1.00  0.00     0.139 C 
HETATM    2  C3  UNL     1      48.060   0.305  78.240  1.00  0.00     0.120 C 
HETATM    3 CL1  UNL     1      48.223  -0.433  79.844  1.00  0.00    -0.077 Cl
HETATM    4  C4  UNL     1      47.016  -0.167  77.353  1.00  0.00     0.210 C 
HETATM    5  O2  UNL     1      46.105  -0.901  77.807  1.00  0.00    -0.285 OA
HETATM    6  C5  UNL     1      47.090   0.246  75.962  1.00  0.00     0.064 A 
HETATM    7  C6  UNL     1      46.186  -0.338  75.052  1.00  0.00     0.101 A 
HETATM    8  C7  UNL     1      46.353  -0.086  73.671  1.00  0.00     0.080 A 
HETATM    9 BR1  UNL     1      45.167  -0.843  72.387  1.00  0.00    -0.045 Br
HETATM   10  C8  UNL     1      47.386   0.716  73.281  1.00  0.00     0.110 A 
HETATM   11  C10 UNL     1      48.243   1.267  74.206  1.00  0.00     0.082 A 
HETATM   12 CL2  UNL     1      49.526   2.246  73.602  1.00  0.00    -0.081 Cl
HETATM   13  C11 UNL     1      48.121   1.055  75.555  1.00  0.00     0.052 A 
HETATM   14  C12 UNL     1      48.955   1.783  76.557  1.00  0.00     0.247 C 
ENDROOT
BRANCH  14  15
HETATM   15  O5  UNL     1      47.885   2.859  76.877  1.00  0.00    -0.356 OA
ATOM     16  H5  UNL     1      48.329   3.361  77.550  1.00  0.00     0.214 HD
ENDBRANCH  14  15
BRANCH  14  17
HETATM   17  O6  UNL     1      49.866   2.573  76.044  1.00  0.00    -0.345 OA
BRANCH  17  18
HETATM   18  C13 UNL     1      51.115   2.823  76.273  1.00  0.00     0.181 C 
BRANCH  18  19
HETATM   19  C14 UNL     1      52.327   2.064  75.952  1.00  0.00     0.038 C 
HETATM   20  C15 UNL     1      52.195   1.088  74.797  1.00  0.00     0.017 C 
BRANCH  19  21
HETATM   21  C16 UNL     1      53.305   3.101  75.380  1.00  0.00    -0.052 A 
HETATM   22  C17 UNL     1      54.572   3.231  75.855  1.00  0.00     0.010 A 
HETATM   23  C18 UNL     1      55.421   4.165  75.319  1.00  0.00     0.037 A 
HETATM   24  C19 UNL     1      55.039   5.001  74.295  1.00  0.00     0.065 A 
HETATM   25  C20 UNL     1      53.758   4.877  73.805  1.00  0.00     0.037 A 
HETATM   26  C21 UNL     1      52.902   3.929  74.352  1.00  0.00     0.010 A 
BRANCH  24  27
HETATM   27  O7  UNL     1      55.943   5.930  73.790  1.00  0.00    -0.361 OA
ATOM     28  H7  UNL     1      56.869   5.837  73.980  1.00  0.00     0.217 HD
ENDBRANCH  24  27
ENDBRANCH  19  21
ENDBRANCH  18  19
ENDBRANCH  17  18
ENDBRANCH  14  17
BRANCH   1  29
HETATM   29  O1  UNL     1      50.144   1.224  78.737  1.00  0.00    -0.353 OA
HETATM   30  C1  UNL     1      51.230   0.315  78.635  1.00  0.00     0.209 C 
ENDBRANCH   1  29
BRANCH   7  31
HETATM   31  O3  UNL     1      45.151  -1.133  75.371  1.00  0.00    -0.358 OA
ATOM     32  H3  UNL     1      44.280  -1.092  74.993  1.00  0.00     0.217 HD
ENDBRANCH   7  31
BRANCH  10  33
HETATM   33  O4  UNL     1      47.563   0.969  71.934  1.00  0.00    -0.353 OA
HETATM   34  C9  UNL     1      46.891   1.994  71.232  1.00  0.00     0.210 C 
ENDBRANCH  10  33
TORSDOF 9
ENDMDL
MODEL 4
REMARK VINA RESULT: -9.498177874      1.731      2.367
REMARK  9 active torsions:
REMARK  status: ('A' for Active; 'I' for Inactive)
REMARK    1  A    between atoms: O1_2  and  C2_3 
REMARK    2  A    between atoms: C6_9  and  O3_10 
REMARK    3  A    between atoms: C8_14  and  O4_15 
REMARK    4  A    between atoms: C12_20  and  O5_21 
REMARK    5  A    between atoms: C12_20  and  O6_23 
REMARK    6  A    between atoms: O6_23  and  C13_24 
REMARK    7  A    between atoms: C13_24  and  C14_25 
REMARK    8  A    between atoms: C14_25  and  C16_27 
REMARK    9  A    between atoms: C19_30  and  O7_31 
ROOT
HETATM    1  C2  UNL     1      48.553   0.564  77.028  1.00  0.00     0.139 C 
HETATM    2  C3  UNL     1      49.305   0.369  78.113  1.00  0.00     0.120 C 
HETATM    3 CL1  UNL     1      48.482  -0.088  79.616  1.00  0.00    -0.077 Cl
HETATM    4  C4  UNL     1      50.700   0.756  78.166  1.00  0.00     0.210 C 
HETATM    5  O2  UNL     1      51.363   0.532  79.207  1.00  0.00    -0.285 OA
HETATM    6  C5  UNL     1      51.258   1.393  76.986  1.00  0.00     0.064 A 
HETATM    7  C6  UNL     1      52.558   1.928  77.078  1.00  0.00     0.101 A 
HETATM    8  C7  UNL     1      53.052   2.704  76.004  1.00  0.00     0.080 A 
HETATM    9 BR1  UNL     1      54.801   3.457  76.062  1.00  0.00    -0.045 Br
HETATM   10  C8  UNL     1      52.242   2.899  74.923  1.00  0.00     0.110 A 
HETATM   11  C10 UNL     1      50.980   2.355  74.875  1.00  0.00     0.082 A 
HETATM   12 CL2  UNL     1      50.035   2.682  73.472  1.00  0.00    -0.081 Cl
HETATM   13  C11 UNL     1      50.458   1.593  75.889  1.00  0.00     0.052 A 
HETATM   14  C12 UNL     1      49.154   0.877  75.760  1.00  0.00     0.247 C 
ENDROOT
BRANCH  14  15
HETATM   15  O5  UNL     1      49.780  -0.491  75.384  1.00  0.00    -0.356 OA
ATOM     16  H5  UNL     1      49.962  -0.359  74.461  1.00  0.00     0.214 HD
ENDBRANCH  14  15
BRANCH  14  17
HETATM   17  O6  UNL     1      48.511   1.102  74.640  1.00  0.00    -0.345 OA
BRANCH  17  18
HETATM   18  C13 UNL     1      47.309   0.908  74.204  1.00  0.00     0.181 C 
BRANCH  18  19
HETATM   19  C14 UNL     1      46.804   0.109  73.083  1.00  0.00     0.038 C 
HETATM   20  C15 UNL     1      45.595  -0.753  73.395  1.00  0.00     0.017 C 
BRANCH  19  21
HETATM   21  C16 UNL     1      46.219   1.132  72.098  1.00  0.00    -0.052 A 
HETATM   22  C17 UNL     1      46.703   1.270  70.836  1.00  0.00     0.010 A 
HETATM   23  C18 UNL     1      46.155   2.190  69.979  1.00  0.00     0.037 A 
HETATM   24  C19 UNL     1      45.110   3.004  70.350  1.00  0.00     0.065 A 
HETATM   25  C20 UNL     1      44.611   2.873  71.627  1.00  0.00     0.037 A 
HETATM   26  C21 UNL     1      45.170   1.938  72.490  1.00  0.00     0.010 A 
BRANCH  24  27
HETATM   27  O7  UNL     1      44.593   3.921  69.439  1.00  0.00    -0.361 OA
ATOM     28  H7  UNL     1      44.744   4.850  69.569  1.00  0.00     0.217 HD
ENDBRANCH  24  27
ENDBRANCH  19  21
ENDBRANCH  18  19
ENDBRANCH  17  18
ENDBRANCH  14  17
BRANCH   1  29
HETATM   29  O1  UNL     1      47.141   0.407  77.246  1.00  0.00    -0.353 OA
HETATM   30  C1  UNL     1      46.544  -0.859  77.007  1.00  0.00     0.209 C 
ENDBRANCH   1  29
BRANCH   7  31
HETATM   31  O3  UNL     1      53.402   1.772  78.111  1.00  0.00    -0.358 OA
ATOM     32  H3  UNL     1      54.039   2.410  78.411  1.00  0.00     0.217 HD
ENDBRANCH   7  31
BRANCH  10  33
HETATM   33  O4  UNL     1      52.711   3.658  73.867  1.00  0.00    -0.353 OA
HETATM   34  C9  UNL     1      52.705   5.070  73.849  1.00  0.00     0.210 C 
ENDBRANCH  10  33
TORSDOF 9
ENDMDL
MODEL 5
REMARK VINA RESULT: -9.294650718      1.101      1.204
REMARK  9 active torsions:
REMARK  status: ('A' for Active; 'I' for Inactive)
REMARK    1  A    between atoms: O1_2  and  C2_3 
REMARK    2  A    between atoms: C6_9  and  O3_10 
REMARK    3  A    between atoms: C8_14  and  O4_15 
REMARK    4  A    between atoms: C12_20  and  O5_21 
REMARK    5  A    between atoms: C12_20  and  O6_23 
REMARK    6  A    between atoms: O6_23  and  C13_24 
REMARK    7  A    between atoms: C13_24  and  C14_25 
REMARK    8  A    between atoms: C14_25  and  C16_27 
REMARK    9  A    between atoms: C19_30  and  O7_31 
ROOT
HETATM    1  C2  UNL     1      45.239  -0.191  77.065  1.00  0.00     0.139 C 
HETATM    2  C3  UNL     1      45.661  -0.292  78.327  1.00  0.00     0.120 C 
HETATM    3 CL1  UNL     1      44.433  -0.330  79.607  1.00  0.00    -0.077 Cl
HETATM    4  C4  UNL     1      47.052  -0.119  78.694  1.00  0.00     0.210 C 
HETATM    5  O2  UNL     1      47.393  -0.243  79.895  1.00  0.00    -0.285 OA
HETATM    6  C5  UNL     1      47.985   0.194  77.626  1.00  0.00     0.064 A 
HETATM    7  C6  UNL     1      49.306   0.532  77.984  1.00  0.00     0.101 A 
HETATM    8  C7  UNL     1      50.181   1.010  76.981  1.00  0.00     0.080 A 
HETATM    9 BR1  UNL     1      51.978   1.486  77.394  1.00  0.00    -0.045 Br
HETATM   10  C8  UNL     1      49.703   1.121  75.707  1.00  0.00     0.110 A 
HETATM   11  C10 UNL     1      48.407   0.776  75.403  1.00  0.00     0.082 A 
HETATM   12 CL2  UNL     1      47.903   0.976  73.768  1.00  0.00    -0.081 Cl
HETATM   13  C11 UNL     1      47.522   0.305  76.340  1.00  0.00     0.052 A 
HETATM   14  C12 UNL     1      46.171  -0.215  75.971  1.00  0.00     0.247 C 
ENDROOT
BRANCH  14  15
HETATM   15  O5  UNL     1      46.590  -1.709  75.973  1.00  0.00    -0.356 OA
ATOM     16  H5  UNL     1      46.637  -1.884  75.041  1.00  0.00     0.214 HD
ENDBRANCH  14  15
BRANCH  14  17
HETATM   17  O6  UNL     1      45.868  -0.108  74.701  1.00  0.00    -0.345 OA
BRANCH  17  18
HETATM   18  C13 UNL     1      45.051   0.607  73.998  1.00  0.00     0.181 C 
BRANCH  18  19
HETATM   19  C14 UNL     1      44.177   0.254  72.875  1.00  0.00     0.038 C 
HETATM   20  C15 UNL     1      42.691   0.257  73.185  1.00  0.00     0.017 C 
BRANCH  19  21
HETATM   21  C16 UNL     1      44.299   1.428  71.893  1.00  0.00    -0.052 A 
HETATM   22  C17 UNL     1      45.440   1.663  71.194  1.00  0.00     0.010 A 
HETATM   23  C18 UNL     1      45.515   2.718  70.321  1.00  0.00     0.037 A 
HETATM   24  C19 UNL     1      44.457   3.574  70.114  1.00  0.00     0.065 A 
HETATM   25  C20 UNL     1      43.294   3.344  70.816  1.00  0.00     0.037 A 
HETATM   26  C21 UNL     1      43.225   2.273  71.699  1.00  0.00     0.010 A 
BRANCH  24  27
HETATM   27  O7  UNL     1      44.589   4.628  69.216  1.00  0.00    -0.361 OA
ATOM     28  H7  UNL     1      43.939   5.322  69.205  1.00  0.00     0.217 HD
ENDBRANCH  24  27
ENDBRANCH  19  21
ENDBRANCH  18  19
ENDBRANCH  17  18
ENDBRANCH  14  17
BRANCH   1  29
HETATM   29  O1  UNL     1      43.813  -0.087  76.920  1.00  0.00    -0.353 OA
HETATM   30  C1  UNL     1      43.073  -1.241  76.547  1.00  0.00     0.209 C 
ENDBRANCH   1  29
BRANCH   7  31
HETATM   31  O3  UNL     1      49.835   0.445  79.215  1.00  0.00    -0.358 OA
ATOM     32  H3  UNL     1      49.911  -0.347  79.734  1.00  0.00     0.217 HD
ENDBRANCH   7  31
BRANCH  10  33
HETATM   33  O4  UNL     1      50.547   1.589  74.717  1.00  0.00    -0.353 OA
HETATM   34  C9  UNL     1      50.769   2.959  74.455  1.00  0.00     0.210 C 
ENDBRANCH  10  33
TORSDOF 9
ENDMDL
