MODEL 1
REMARK VINA RESULT: -11.490056155      0.000      0.000
REMARK  8 active torsions:
REMARK  status: ('A' for Active; 'I' for Inactive)
REMARK    1  A    between atoms: C5_5  and  O1_6 
REMARK    2  A    between atoms: O1_6  and  C6_7 
REMARK    3  A    between atoms: C6_7  and  C7_9 
REMARK    4  A    between atoms: C11_13  and  N1_14 
REMARK    5  A    between atoms: N1_14  and  C12_16 
REMARK    6  A    between atoms: C12_16  and  C13_17 
REMARK    7  A    between atoms: C19_27  and  O4_28 
REMARK    8  A    between atoms: C25_36  and  C26_37 
ROOT
HETATM    1  C1  UNL     1      46.717   0.591  70.137  1.00  0.00     0.046 C 
HETATM    2  C2  UNL     1      46.185   0.918  71.287  1.00  0.00     0.039 C 
HETATM    3  C3  UNL     1      46.998   1.275  72.495  1.00  0.00     0.074 C 
HETATM    4  C4  UNL     1      46.071   0.973  73.653  1.00  0.00     0.063 C 
HETATM    5  C5  UNL     1      46.678   0.024  74.612  1.00  0.00     0.169 C 
HETATM    6  C15 UNL     1      45.721  -0.806  75.401  1.00  0.00     0.158 C 
HETATM    7  O3  UNL     1      46.196  -1.043  76.671  1.00  0.00    -0.370 OA
HETATM    8  C16 UNL     1      45.422  -1.930  77.400  1.00  0.00     0.080 C 
HETATM    9  C17 UNL     1      44.053  -1.461  77.741  1.00  0.00     0.048 C 
HETATM   10  C18 UNL     1      46.166  -2.134  78.730  1.00  0.00     0.048 C 
HETATM   11  C19 UNL     1      45.346  -3.304  76.757  1.00  0.00     0.152 C 
HETATM   12  C20 UNL     1      44.661  -3.084  75.397  1.00  0.00     0.043 C 
HETATM   13  C21 UNL     1      45.531  -2.114  74.671  1.00  0.00     0.037 C 
HETATM   14  C22 UNL     1      45.102  -1.858  73.271  1.00  0.00     0.102 C 
HETATM   15  C23 UNL     1      44.321  -3.050  72.847  1.00  0.00     0.064 C 
HETATM   16  N2  UNL     1      43.706  -3.973  72.511  1.00  0.00    -0.197 NA
HETATM   17  C24 UNL     1      44.201  -0.691  73.154  1.00  0.00     0.063 C 
HETATM   18  C25 UNL     1      44.770   0.659  73.065  1.00  0.00     0.119 C 
HETATM   19  O5  UNL     1      44.894   1.025  71.702  1.00  0.00    -0.341 OA
ENDROOT
BRANCH  18  20
HETATM   20  C26 UNL     1      43.667   1.633  73.552  1.00  0.00     0.301 C 
HETATM   21  F3  UNL     1      44.161   2.901  73.315  1.00  0.00    -0.230 F 
HETATM   22 CL2  UNL     1      42.254   1.374  72.515  1.00  0.00    -0.086 Cl
ENDBRANCH  18  20
BRANCH   5  23
HETATM   23  O1  UNL     1      47.537   0.669  75.571  1.00  0.00    -0.309 OA
BRANCH  23  24
HETATM   24  C6  UNL     1      48.884   0.345  75.637  1.00  0.00     0.295 C 
HETATM   25  O2  UNL     1      49.237  -0.654  74.969  1.00  0.00    -0.259 OA
BRANCH  24  26
HETATM   26  C7  UNL     1      49.901   1.046  76.388  1.00  0.00     0.063 A 
HETATM   27  C8  UNL     1      50.005   0.765  77.746  1.00  0.00     0.019 A 
HETATM   28  C9  UNL     1      50.946   1.369  78.546  1.00  0.00     0.003 A 
HETATM   29  C10 UNL     1      51.832   2.294  77.998  1.00  0.00     0.031 A 
HETATM   30  C11 UNL     1      51.752   2.592  76.662  1.00  0.00     0.051 A 
HETATM   31  C14 UNL     1      50.784   1.958  75.885  1.00  0.00     0.076 A 
HETATM   32 CL1  UNL     1      50.680   2.341  74.174  1.00  0.00    -0.081 Cl
BRANCH  30  33
HETATM   33  N1  UNL     1      52.660   3.514  76.085  1.00  0.00    -0.383 N 
ATOM     34  H1  UNL     1      52.372   4.492  76.068  1.00  0.00     0.159 HD
BRANCH  33  35
HETATM   35  C12 UNL     1      53.935   3.213  75.525  1.00  0.00     0.191 C 
BRANCH  35  36
HETATM   36  C13 UNL     1      54.090   3.800  74.167  1.00  0.00     0.370 C 
HETATM   37  F1  UNL     1      52.979   4.583  73.882  1.00  0.00    -0.213 F 
HETATM   38  F2  UNL     1      55.183   4.671  74.206  1.00  0.00    -0.213 F 
ENDBRANCH  35  36
ENDBRANCH  33  35
ENDBRANCH  30  33
ENDBRANCH  24  26
ENDBRANCH  23  24
ENDBRANCH   5  23
BRANCH  11  39
HETATM   39  O4  UNL     1      44.652  -4.170  77.560  1.00  0.00    -0.393 OA
ATOM     40  H4  UNL     1      44.148  -4.778  77.033  1.00  0.00     0.210 HD
ENDBRANCH  11  39
TORSDOF 8
ENDMDL
MODEL 2
REMARK VINA RESULT: -11.140085113      1.208      1.647
REMARK  8 active torsions:
REMARK  status: ('A' for Active; 'I' for Inactive)
REMARK    1  A    between atoms: C5_5  and  O1_6 
REMARK    2  A    between atoms: O1_6  and  C6_7 
REMARK    3  A    between atoms: C6_7  and  C7_9 
REMARK    4  A    between atoms: C11_13  and  N1_14 
REMARK    5  A    between atoms: N1_14  and  C12_16 
REMARK    6  A    between atoms: C12_16  and  C13_17 
REMARK    7  A    between atoms: C19_27  and  O4_28 
REMARK    8  A    between atoms: C25_36  and  C26_37 
ROOT
HETATM    1  C1  UNL     1      46.723   0.567  70.003  1.00  0.00     0.046 C 
HETATM    2  C2  UNL     1      46.236   0.917  71.167  1.00  0.00     0.039 C 
HETATM    3  C3  UNL     1      47.096   1.246  72.350  1.00  0.00     0.074 C 
HETATM    4  C4  UNL     1      46.191   0.982  73.535  1.00  0.00     0.063 C 
HETATM    5  C5  UNL     1      46.788   0.014  74.479  1.00  0.00     0.169 C 
HETATM    6  C15 UNL     1      45.822  -0.777  75.298  1.00  0.00     0.158 C 
HETATM    7  O3  UNL     1      46.324  -1.029  76.555  1.00  0.00    -0.370 OA
HETATM    8  C16 UNL     1      45.537  -1.884  77.309  1.00  0.00     0.080 C 
HETATM    9  C17 UNL     1      44.197  -1.362  77.686  1.00  0.00     0.048 C 
HETATM   10  C18 UNL     1      46.310  -2.113  78.618  1.00  0.00     0.048 C 
HETATM   11  C19 UNL     1      45.391  -3.256  76.673  1.00  0.00     0.152 C 
HETATM   12  C20 UNL     1      44.676  -3.013  75.333  1.00  0.00     0.043 C 
HETATM   13  C21 UNL     1      45.562  -2.079  74.579  1.00  0.00     0.037 C 
HETATM   14  C22 UNL     1      45.104  -1.811  73.190  1.00  0.00     0.102 C 
HETATM   15  C23 UNL     1      44.266  -2.973  72.793  1.00  0.00     0.064 C 
HETATM   16  N2  UNL     1      43.607  -3.872  72.478  1.00  0.00    -0.197 NA
HETATM   17  C24 UNL     1      44.245  -0.611  73.095  1.00  0.00     0.063 C 
HETATM   18  C25 UNL     1      44.863   0.717  72.985  1.00  0.00     0.119 C 
HETATM   19  O5  UNL     1      44.962   1.074  71.618  1.00  0.00    -0.341 OA
ENDROOT
BRANCH  18  20
HETATM   20  C26 UNL     1      43.812   1.733  73.499  1.00  0.00     0.301 C 
HETATM   21  F3  UNL     1      44.410   2.973  73.386  1.00  0.00    -0.230 F 
HETATM   22 CL2  UNL     1      42.437   1.665  72.383  1.00  0.00    -0.086 Cl
ENDBRANCH  18  20
BRANCH   5  23
HETATM   23  O1  UNL     1      47.698   0.627  75.412  1.00  0.00    -0.309 OA
BRANCH  23  24
HETATM   24  C6  UNL     1      49.067   0.475  75.260  1.00  0.00     0.295 C 
HETATM   25  O2  UNL     1      49.470  -0.699  75.090  1.00  0.00    -0.259 OA
BRANCH  24  26
HETATM   26  C7  UNL     1      50.056   1.530  75.274  1.00  0.00     0.063 A 
HETATM   27  C8  UNL     1      50.089   2.394  74.185  1.00  0.00     0.019 A 
HETATM   28  C9  UNL     1      50.983   3.436  74.108  1.00  0.00     0.003 A 
HETATM   29  C10 UNL     1      51.891   3.650  75.142  1.00  0.00     0.031 A 
HETATM   30  C11 UNL     1      51.883   2.813  76.227  1.00  0.00     0.051 A 
HETATM   31  C14 UNL     1      50.961   1.767  76.269  1.00  0.00     0.076 A 
HETATM   32 CL1  UNL     1      50.950   0.695  77.659  1.00  0.00    -0.081 Cl
BRANCH  30  33
HETATM   33  N1  UNL     1      52.785   3.030  77.299  1.00  0.00    -0.383 N 
ATOM     34  H1  UNL     1      52.500   3.704  78.009  1.00  0.00     0.159 HD
BRANCH  33  35
HETATM   35  C12 UNL     1      54.051   2.403  77.484  1.00  0.00     0.191 C 
BRANCH  35  36
HETATM   36  C13 UNL     1      54.925   2.572  76.293  1.00  0.00     0.370 C 
HETATM   37  F1  UNL     1      55.080   3.927  76.032  1.00  0.00    -0.213 F 
HETATM   38  F2  UNL     1      56.195   2.092  76.630  1.00  0.00    -0.213 F 
ENDBRANCH  35  36
ENDBRANCH  33  35
ENDBRANCH  30  33
ENDBRANCH  24  26
ENDBRANCH  23  24
ENDBRANCH   5  23
BRANCH  11  39
HETATM   39  O4  UNL     1      44.687  -4.092  77.499  1.00  0.00    -0.393 OA
ATOM     40  H4  UNL     1      44.316  -4.812  77.003  1.00  0.00     0.210 HD
ENDBRANCH  11  39
TORSDOF 8
ENDMDL
MODEL 3
REMARK VINA RESULT: -10.707002340      1.046      1.136
REMARK  8 active torsions:
REMARK  status: ('A' for Active; 'I' for Inactive)
REMARK    1  A    between atoms: C5_5  and  O1_6 
REMARK    2  A    between atoms: O1_6  and  C6_7 
REMARK    3  A    between atoms: C6_7  and  C7_9 
REMARK    4  A    between atoms: C11_13  and  N1_14 
REMARK    5  A    between atoms: N1_14  and  C12_16 
REMARK    6  A    between atoms: C12_16  and  C13_17 
REMARK    7  A    between atoms: C19_27  and  O4_28 
REMARK    8  A    between atoms: C25_36  and  C26_37 
ROOT
HETATM    1  C1  UNL     1      46.342   0.531  70.500  1.00  0.00     0.046 C 
HETATM    2  C2  UNL     1      45.822   0.719  71.687  1.00  0.00     0.039 C 
HETATM    3  C3  UNL     1      46.647   0.981  72.911  1.00  0.00     0.074 C 
HETATM    4  C4  UNL     1      45.755   0.528  74.047  1.00  0.00     0.063 C 
HETATM    5  C5  UNL     1      46.414  -0.490  74.893  1.00  0.00     0.169 C 
HETATM    6  C15 UNL     1      45.502  -1.431  75.609  1.00  0.00     0.158 C 
HETATM    7  O3  UNL     1      46.012  -1.778  76.840  1.00  0.00    -0.370 OA
HETATM    8  C16 UNL     1      45.284  -2.763  77.487  1.00  0.00     0.080 C 
HETATM    9  C17 UNL     1      43.906  -2.382  77.897  1.00  0.00     0.048 C 
HETATM   10  C18 UNL     1      46.061  -3.073  78.777  1.00  0.00     0.048 C 
HETATM   11  C19 UNL     1      45.243  -4.066  76.708  1.00  0.00     0.152 C 
HETATM   12  C20 UNL     1      44.523  -3.734  75.390  1.00  0.00     0.043 C 
HETATM   13  C21 UNL     1      45.343  -2.664  74.753  1.00  0.00     0.037 C 
HETATM   14  C22 UNL     1      44.877  -2.283  73.394  1.00  0.00     0.102 C 
HETATM   15  C23 UNL     1      44.130  -3.454  72.863  1.00  0.00     0.064 C 
HETATM   16  N2  UNL     1      43.541  -4.359  72.445  1.00  0.00    -0.197 NA
HETATM   17  C24 UNL     1      43.934  -1.144  73.412  1.00  0.00     0.063 C 
HETATM   18  C25 UNL     1      44.454   0.228  73.452  1.00  0.00     0.119 C 
HETATM   19  O5  UNL     1      44.536   0.735  72.132  1.00  0.00    -0.341 OA
ENDROOT
BRANCH  18  20
HETATM   20  C26 UNL     1      43.327   1.106  74.055  1.00  0.00     0.301 C 
HETATM   21  F3  UNL     1      42.370   1.210  73.064  1.00  0.00    -0.230 F 
HETATM   22 CL2  UNL     1      42.638   0.204  75.415  1.00  0.00    -0.086 Cl
ENDBRANCH  18  20
BRANCH   5  23
HETATM   23  O1  UNL     1      47.269   0.085  75.900  1.00  0.00    -0.309 OA
BRANCH  23  24
HETATM   24  C6  UNL     1      48.648   0.013  75.773  1.00  0.00     0.295 C 
HETATM   25  O2  UNL     1      49.079  -0.876  75.003  1.00  0.00    -0.259 OA
BRANCH  24  26
HETATM   26  C7  UNL     1      49.617   0.859  76.433  1.00  0.00     0.063 A 
HETATM   27  C8  UNL     1      49.750   0.729  77.812  1.00  0.00     0.019 A 
HETATM   28  C9  UNL     1      50.650   1.478  78.531  1.00  0.00     0.003 A 
HETATM   29  C10 UNL     1      51.464   2.401  77.878  1.00  0.00     0.031 A 
HETATM   30  C11 UNL     1      51.354   2.551  76.520  1.00  0.00     0.051 A 
HETATM   31  C14 UNL     1      50.429   1.773  75.826  1.00  0.00     0.076 A 
HETATM   32 CL1  UNL     1      50.288   1.966  74.086  1.00  0.00    -0.081 Cl
BRANCH  30  33
HETATM   33  N1  UNL     1      52.191   3.470  75.837  1.00  0.00    -0.383 N 
ATOM     34  H1  UNL     1      53.193   3.388  76.004  1.00  0.00     0.159 HD
BRANCH  33  35
HETATM   35  C12 UNL     1      51.773   4.495  74.941  1.00  0.00     0.191 C 
BRANCH  35  36
HETATM   36  C13 UNL     1      52.932   5.145  74.272  1.00  0.00     0.370 C 
HETATM   37  F1  UNL     1      53.603   4.199  73.509  1.00  0.00    -0.213 F 
HETATM   38  F2  UNL     1      52.425   6.086  73.371  1.00  0.00    -0.213 F 
ENDBRANCH  35  36
ENDBRANCH  33  35
ENDBRANCH  30  33
ENDBRANCH  24  26
ENDBRANCH  23  24
ENDBRANCH   5  23
BRANCH  11  39
HETATM   39  O4  UNL     1      44.596  -5.034  77.430  1.00  0.00    -0.393 OA
ATOM     40  H4  UNL     1      43.655  -4.937  77.346  1.00  0.00     0.210 HD
ENDBRANCH  11  39
TORSDOF 8
ENDMDL
MODEL 4
REMARK VINA RESULT: -10.642750631      2.169      4.668
REMARK  8 active torsions:
REMARK  status: ('A' for Active; 'I' for Inactive)
REMARK    1  A    between atoms: C5_5  and  O1_6 
REMARK    2  A    between atoms: O1_6  and  C6_7 
REMARK    3  A    between atoms: C6_7  and  C7_9 
REMARK    4  A    between atoms: C11_13  and  N1_14 
REMARK    5  A    between atoms: N1_14  and  C12_16 
REMARK    6  A    between atoms: C12_16  and  C13_17 
REMARK    7  A    between atoms: C19_27  and  O4_28 
REMARK    8  A    between atoms: C25_36  and  C26_37 
ROOT
HETATM    1  C1  UNL     1      44.108  -1.165  78.111  1.00  0.00     0.046 C 
HETATM    2  C2  UNL     1      44.894  -1.434  77.099  1.00  0.00     0.039 C 
HETATM    3  C3  UNL     1      46.223  -0.772  76.894  1.00  0.00     0.074 C 
HETATM    4  C4  UNL     1      46.459  -0.895  75.404  1.00  0.00     0.063 C 
HETATM    5  C5  UNL     1      46.694   0.421  74.772  1.00  0.00     0.169 C 
HETATM    6  C15 UNL     1      46.328   0.524  73.328  1.00  0.00     0.158 C 
HETATM    7  O3  UNL     1      47.188   1.363  72.656  1.00  0.00    -0.370 OA
HETATM    8  C16 UNL     1      46.812   1.615  71.347  1.00  0.00     0.080 C 
HETATM    9  C17 UNL     1      46.850   0.447  70.429  1.00  0.00     0.048 C 
HETATM   10  C18 UNL     1      47.830   2.635  70.811  1.00  0.00     0.048 C 
HETATM   11  C19 UNL     1      45.457   2.296  71.250  1.00  0.00     0.152 C 
HETATM   12  C20 UNL     1      44.452   1.299  71.848  1.00  0.00     0.043 C 
HETATM   13  C21 UNL     1      44.919   1.059  73.244  1.00  0.00     0.037 C 
HETATM   14  C22 UNL     1      44.002   0.204  74.043  1.00  0.00     0.102 C 
HETATM   15  C23 UNL     1      42.658   0.335  73.421  1.00  0.00     0.064 C 
HETATM   16  N2  UNL     1      41.609   0.427  72.939  1.00  0.00    -0.197 NA
HETATM   17  C24 UNL     1      44.363  -1.229  73.986  1.00  0.00     0.063 C 
HETATM   18  C25 UNL     1      45.394  -1.754  74.890  1.00  0.00     0.119 C 
HETATM   19  O5  UNL     1      44.773  -2.288  76.046  1.00  0.00    -0.341 OA
ENDROOT
BRANCH  18  20
HETATM   20  C26 UNL     1      45.956  -3.033  74.218  1.00  0.00     0.301 C 
HETATM   21  F3  UNL     1      47.326  -2.858  74.178  1.00  0.00    -0.230 F 
HETATM   22 CL2  UNL     1      45.591  -4.389  75.298  1.00  0.00    -0.086 Cl
ENDBRANCH  18  20
BRANCH   5  23
HETATM   23  O1  UNL     1      48.063   0.855  74.872  1.00  0.00    -0.309 OA
BRANCH  23  24
HETATM   24  C6  UNL     1      48.472   1.648  75.934  1.00  0.00     0.295 C 
HETATM   25  O2  UNL     1      47.640   2.494  76.335  1.00  0.00    -0.259 OA
BRANCH  24  26
HETATM   26  C7  UNL     1      49.748   1.585  76.612  1.00  0.00     0.063 A 
HETATM   27  C8  UNL     1      49.898   0.628  77.610  1.00  0.00     0.019 A 
HETATM   28  C9  UNL     1      51.074   0.480  78.306  1.00  0.00     0.003 A 
HETATM   29  C10 UNL     1      52.161   1.302  78.018  1.00  0.00     0.031 A 
HETATM   30  C11 UNL     1      52.041   2.255  77.039  1.00  0.00     0.051 A 
HETATM   31  C14 UNL     1      50.832   2.375  76.356  1.00  0.00     0.076 A 
HETATM   32 CL1  UNL     1      50.678   3.596  75.103  1.00  0.00    -0.081 Cl
BRANCH  30  33
HETATM   33  N1  UNL     1      53.144   3.085  76.718  1.00  0.00    -0.383 N 
ATOM     34  H1  UNL     1      53.091   4.056  77.023  1.00  0.00     0.159 HD
BRANCH  33  35
HETATM   35  C12 UNL     1      54.320   2.699  76.011  1.00  0.00     0.191 C 
BRANCH  35  36
HETATM   36  C13 UNL     1      54.825   3.800  75.147  1.00  0.00     0.370 C 
HETATM   37  F1  UNL     1      53.752   4.567  74.715  1.00  0.00    -0.213 F 
HETATM   38  F2  UNL     1      55.607   4.638  75.948  1.00  0.00    -0.213 F 
ENDBRANCH  35  36
ENDBRANCH  33  35
ENDBRANCH  30  33
ENDBRANCH  24  26
ENDBRANCH  23  24
ENDBRANCH   5  23
BRANCH  11  39
HETATM   39  O4  UNL     1      45.174   2.611  69.947  1.00  0.00    -0.393 OA
ATOM     40  H4  UNL     1      45.298   3.541  69.796  1.00  0.00     0.210 HD
ENDBRANCH  11  39
TORSDOF 8
ENDMDL
MODEL 5
REMARK VINA RESULT: -10.542452276      2.619      4.967
REMARK  8 active torsions:
REMARK  status: ('A' for Active; 'I' for Inactive)
REMARK    1  A    between atoms: C5_5  and  O1_6 
REMARK    2  A    between atoms: O1_6  and  C6_7 
REMARK    3  A    between atoms: C6_7  and  C7_9 
REMARK    4  A    between atoms: C11_13  and  N1_14 
REMARK    5  A    between atoms: N1_14  and  C12_16 
REMARK    6  A    between atoms: C12_16  and  C13_17 
REMARK    7  A    between atoms: C19_27  and  O4_28 
REMARK    8  A    between atoms: C25_36  and  C26_37 
ROOT
HETATM    1  C1  UNL     1      45.648  -1.316  81.138  1.00  0.00     0.046 C 
HETATM    2  C2  UNL     1      45.807  -1.825  79.942  1.00  0.00     0.039 C 
HETATM    3  C3  UNL     1      46.793  -1.289  78.948  1.00  0.00     0.074 C 
HETATM    4  C4  UNL     1      46.226  -1.724  77.613  1.00  0.00     0.063 C 
HETATM    5  C5  UNL     1      46.016  -0.578  76.703  1.00  0.00     0.169 C 
HETATM    6  C15 UNL     1      44.947  -0.750  75.675  1.00  0.00     0.158 C 
HETATM    7  O3  UNL     1      45.278  -0.111  74.501  1.00  0.00    -0.370 OA
HETATM    8  C16 UNL     1      44.261  -0.110  73.561  1.00  0.00     0.080 C 
HETATM    9  C17 UNL     1      43.889  -1.441  73.012  1.00  0.00     0.048 C 
HETATM   10  C18 UNL     1      44.787   0.725  72.382  1.00  0.00     0.048 C 
HETATM   11  C19 UNL     1      43.015   0.607  74.050  1.00  0.00     0.152 C 
HETATM   12  C20 UNL     1      42.531  -0.195  75.270  1.00  0.00     0.043 C 
HETATM   13  C21 UNL     1      43.670  -0.170  76.232  1.00  0.00     0.037 C 
HETATM   14  C22 UNL     1      43.357  -0.796  77.544  1.00  0.00     0.102 C 
HETATM   15  C23 UNL     1      41.880  -0.724  77.702  1.00  0.00     0.064 C 
HETATM   16  N2  UNL     1      40.730  -0.677  77.830  1.00  0.00    -0.197 NA
HETATM   17  C24 UNL     1      43.724  -2.228  77.595  1.00  0.00     0.063 C 
HETATM   18  C25 UNL     1      45.105  -2.612  77.913  1.00  0.00     0.119 C 
HETATM   19  O5  UNL     1      45.210  -2.867  79.303  1.00  0.00    -0.341 OA
ENDROOT
BRANCH  18  20
HETATM   20  C26 UNL     1      45.314  -4.028  77.319  1.00  0.00     0.301 C 
HETATM   21  F3  UNL     1      45.104  -4.904  78.366  1.00  0.00    -0.230 F 
HETATM   22 CL2  UNL     1      44.041  -4.276  76.111  1.00  0.00    -0.086 Cl
ENDBRANCH  18  20
BRANCH   5  23
HETATM   23  O1  UNL     1      47.207  -0.204  75.986  1.00  0.00    -0.309 OA
BRANCH  23  24
HETATM   24  C6  UNL     1      47.859   0.984  76.278  1.00  0.00     0.295 C 
HETATM   25  O2  UNL     1      47.154   2.018  76.234  1.00  0.00    -0.259 OA
BRANCH  24  26
HETATM   26  C7  UNL     1      49.254   1.135  76.629  1.00  0.00     0.063 A 
HETATM   27  C8  UNL     1      49.606   0.940  77.960  1.00  0.00     0.019 A 
HETATM   28  C9  UNL     1      50.906   1.049  78.394  1.00  0.00     0.003 A 
HETATM   29  C10 UNL     1      51.917   1.364  77.488  1.00  0.00     0.031 A 
HETATM   30  C11 UNL     1      51.598   1.563  76.170  1.00  0.00     0.051 A 
HETATM   31  C14 UNL     1      50.268   1.444  75.769  1.00  0.00     0.076 A 
HETATM   32 CL1  UNL     1      49.861   1.700  74.080  1.00  0.00    -0.081 Cl
BRANCH  30  33
HETATM   33  N1  UNL     1      52.617   1.862  75.230  1.00  0.00    -0.383 N 
ATOM     34  H1  UNL     1      52.883   1.114  74.590  1.00  0.00     0.159 HD
BRANCH  33  35
HETATM   35  C12 UNL     1      53.308   3.100  75.091  1.00  0.00     0.191 C 
BRANCH  35  36
HETATM   36  C13 UNL     1      52.599   4.022  74.164  1.00  0.00     0.370 C 
HETATM   37  F1  UNL     1      51.571   4.654  74.850  1.00  0.00    -0.213 F 
HETATM   38  F2  UNL     1      53.500   5.026  73.797  1.00  0.00    -0.213 F 
ENDBRANCH  35  36
ENDBRANCH  33  35
ENDBRANCH  30  33
ENDBRANCH  24  26
ENDBRANCH  23  24
ENDBRANCH   5  23
BRANCH  11  39
HETATM   39  O4  UNL     1      42.076   0.665  73.054  1.00  0.00    -0.393 OA
ATOM     40  H4  UNL     1      41.205   0.535  73.411  1.00  0.00     0.210 HD
ENDBRANCH  11  39
TORSDOF 8
ENDMDL
