MODEL 1
REMARK VINA RESULT: -10.164890205      0.000      0.000
REMARK  9 active torsions:
REMARK  status: ('A' for Active; 'I' for Inactive)
REMARK    1  A    between atoms: O1_2  and  C2_3 
REMARK    2  A    between atoms: C2_3  and  C3_4 
REMARK    3  A    between atoms: N1_6  and  C5_7 
REMARK    4  A    between atoms: C11_15  and  C12_16 
REMARK    5  A    between atoms: C12_16  and  O3_17 
REMARK    6  A    between atoms: C12_16  and  C13_19 
REMARK    7  A    between atoms: C13_19  and  O4_20 
REMARK    8  A    between atoms: C15_23  and  N2_24 
REMARK    9  A    between atoms: C16_27  and  C17_28 
ROOT
HETATM    1  C3  UNL     1      43.560  -2.254  74.200  1.00  0.00     0.017 A 
HETATM    2  C4  UNL     1      43.158  -1.257  73.387  1.00  0.00     0.104 A 
HETATM    3  N1  UNL     1      43.950  -0.184  73.630  1.00  0.00    -0.345 N 
HETATM    4  C14 UNL     1      44.856  -0.438  74.586  1.00  0.00     0.097 A 
HETATM    5  C15 UNL     1      45.877   0.257  75.254  1.00  0.00     0.069 A 
HETATM    6  C16 UNL     1      46.609  -0.395  76.213  1.00  0.00     0.027 A 
HETATM    7  C23 UNL     1      46.322  -1.736  76.519  1.00  0.00     0.157 A 
HETATM    8  O5  UNL     1      45.353  -2.333  75.877  1.00  0.00    -0.319 OA
HETATM    9  C24 UNL     1      44.632  -1.771  74.968  1.00  0.00     0.114 A 
ENDROOT
BRANCH   3  10
HETATM   10  C5  UNL     1      43.949   1.021  72.846  1.00  0.00     0.123 C 
HETATM   11  C6  UNL     1      44.269   2.311  73.567  1.00  0.00     0.051 C 
HETATM   12  C7  UNL     1      43.767   3.389  72.644  1.00  0.00     0.118 C 
HETATM   13 CL1  UNL     1      44.444   4.997  72.992  1.00  0.00    -0.122 Cl
HETATM   14  C8  UNL     1      43.735   3.021  71.224  1.00  0.00     0.071 C 
HETATM   15  C9  UNL     1      42.301   2.943  70.668  1.00  0.00     0.047 C 
HETATM   16  C10 UNL     1      44.352   4.224  70.453  1.00  0.00     0.047 C 
HETATM   17  O2  UNL     1      44.388   1.938  70.736  1.00  0.00    -0.369 OA
HETATM   18  C11 UNL     1      44.927   1.067  71.705  1.00  0.00     0.176 C 
BRANCH  18  19
HETATM   19  C12 UNL     1      46.276   1.626  71.968  1.00  0.00     0.172 C 
BRANCH  19  20
HETATM   20  O3  UNL     1      47.209   0.777  72.525  1.00  0.00    -0.391 OA
ATOM     21  H3  UNL     1      47.552   0.088  71.968  1.00  0.00     0.210 HD
ENDBRANCH  19  20
BRANCH  19  22
HETATM   22  C13 UNL     1      46.948   2.115  70.664  1.00  0.00     0.198 C 
BRANCH  22  23
HETATM   23  O4  UNL     1      47.374   0.983  69.924  1.00  0.00    -0.398 OA
ATOM     24  H4  UNL     1      48.286   1.104  69.685  1.00  0.00     0.209 HD
ENDBRANCH  22  23
ENDBRANCH  19  22
ENDBRANCH  18  19
ENDBRANCH   3  10
BRANCH   1  25
HETATM   25  C2  UNL     1      43.048  -3.647  74.285  1.00  0.00     0.210 C 
BRANCH  25  26
HETATM   26  O1  UNL     1      43.035  -4.211  72.988  1.00  0.00    -0.391 OA
HETATM   27  C1  UNL     1      43.735  -5.380  72.921  1.00  0.00     0.201 C 
ENDBRANCH  25  26
ENDBRANCH   1  25
BRANCH   5  28
HETATM   28  N2  UNL     1      46.002   1.500  75.039  1.00  0.00    -0.396 N 
ATOM     29  H22 UNL     1      46.901   1.976  75.107  1.00  0.00     0.156 HD
ATOM     30  H21 UNL     1      45.157   2.055  74.895  1.00  0.00     0.156 HD
ENDBRANCH   5  28
BRANCH   6  31
HETATM   31  C17 UNL     1      47.662   0.326  76.910  1.00  0.00     0.002 A 
HETATM   32  C18 UNL     1      47.469   0.920  78.115  1.00  0.00     0.016 A 
HETATM   33  C19 UNL     1      48.530   1.585  78.743  1.00  0.00     0.026 A 
HETATM   34  C20 UNL     1      49.774   1.668  78.196  1.00  0.00     0.057 A 
HETATM   35 CL2  UNL     1      51.105   2.508  78.961  1.00  0.00    -0.082 Cl
HETATM   36  C21 UNL     1      49.958   1.050  76.960  1.00  0.00     0.078 A 
HETATM   37 CL3  UNL     1      51.533   1.155  76.203  1.00  0.00    -0.081 Cl
HETATM   38  C22 UNL     1      48.931   0.395  76.328  1.00  0.00     0.068 A 
HETATM   39 CL4  UNL     1      49.221  -0.350  74.760  1.00  0.00    -0.082 Cl
ENDBRANCH   6  31
TORSDOF 9
ENDMDL
MODEL 2
REMARK VINA RESULT: -9.923306254      3.679      5.905
REMARK  9 active torsions:
REMARK  status: ('A' for Active; 'I' for Inactive)
REMARK    1  A    between atoms: O1_2  and  C2_3 
REMARK    2  A    between atoms: C2_3  and  C3_4 
REMARK    3  A    between atoms: N1_6  and  C5_7 
REMARK    4  A    between atoms: C11_15  and  C12_16 
REMARK    5  A    between atoms: C12_16  and  O3_17 
REMARK    6  A    between atoms: C12_16  and  C13_19 
REMARK    7  A    between atoms: C13_19  and  O4_20 
REMARK    8  A    between atoms: C15_23  and  N2_24 
REMARK    9  A    between atoms: C16_27  and  C17_28 
ROOT
HETATM    1  C3  UNL     1      46.663  -1.121  79.849  1.00  0.00     0.017 A 
HETATM    2  C4  UNL     1      45.856  -1.604  78.883  1.00  0.00     0.104 A 
HETATM    3  N1  UNL     1      46.320  -1.149  77.693  1.00  0.00    -0.345 N 
HETATM    4  C14 UNL     1      47.402  -0.371  77.844  1.00  0.00     0.097 A 
HETATM    5  C15 UNL     1      48.264   0.373  77.022  1.00  0.00     0.069 A 
HETATM    6  C16 UNL     1      49.302   1.061  77.596  1.00  0.00     0.027 A 
HETATM    7  C23 UNL     1      49.482   1.022  78.988  1.00  0.00     0.157 A 
HETATM    8  O5  UNL     1      48.644   0.324  79.709  1.00  0.00    -0.319 OA
HETATM    9  C24 UNL     1      47.651  -0.341  79.227  1.00  0.00     0.114 A 
ENDROOT
BRANCH   3  10
HETATM   10  C5  UNL     1      45.834  -1.582  76.412  1.00  0.00     0.123 C 
HETATM   11  C6  UNL     1      45.551  -3.058  76.246  1.00  0.00     0.051 C 
HETATM   12  C7  UNL     1      45.503  -3.263  74.755  1.00  0.00     0.118 C 
HETATM   13 CL1  UNL     1      44.705  -4.779  74.271  1.00  0.00    -0.122 Cl
HETATM   14  C8  UNL     1      45.112  -2.080  73.981  1.00  0.00     0.071 C 
HETATM   15  C9  UNL     1      46.258  -1.549  73.099  1.00  0.00     0.047 C 
HETATM   16  C10 UNL     1      44.061  -2.571  72.944  1.00  0.00     0.047 C 
HETATM   17  O2  UNL     1      44.539  -0.991  74.551  1.00  0.00    -0.369 OA
HETATM   18  C11 UNL     1      44.533  -0.977  75.961  1.00  0.00     0.176 C 
BRANCH  18  19
HETATM   19  C12 UNL     1      43.277  -1.687  76.313  1.00  0.00     0.172 C 
BRANCH  19  20
HETATM   20  O3  UNL     1      42.851  -1.594  77.621  1.00  0.00    -0.391 OA
ATOM     21  H3  UNL     1      42.185  -0.943  77.812  1.00  0.00     0.210 HD
ENDBRANCH  19  20
BRANCH  19  22
HETATM   22  C13 UNL     1      42.080  -1.157  75.490  1.00  0.00     0.198 C 
BRANCH  22  23
HETATM   23  O4  UNL     1      42.134   0.260  75.478  1.00  0.00    -0.398 OA
ATOM     24  H4  UNL     1      41.465   0.583  74.886  1.00  0.00     0.209 HD
ENDBRANCH  22  23
ENDBRANCH  19  22
ENDBRANCH  18  19
ENDBRANCH   3  10
BRANCH   1  25
HETATM   25  C2  UNL     1      46.610  -1.368  81.314  1.00  0.00     0.210 C 
BRANCH  25  26
HETATM   26  O1  UNL     1      45.941  -2.592  81.548  1.00  0.00    -0.391 OA
HETATM   27  C1  UNL     1      45.199  -2.571  82.692  1.00  0.00     0.201 C 
ENDBRANCH  25  26
ENDBRANCH   1  25
BRANCH   5  28
HETATM   28  N2  UNL     1      47.976   0.486  75.792  1.00  0.00    -0.396 N 
ATOM     29  H22 UNL     1      48.231  -0.224  75.106  1.00  0.00     0.156 HD
ATOM     30  H21 UNL     1      47.569   1.364  75.469  1.00  0.00     0.156 HD
ENDBRANCH   5  28
BRANCH   6  31
HETATM   31  C17 UNL     1      50.191   1.838  76.745  1.00  0.00     0.002 A 
HETATM   32  C18 UNL     1      49.737   2.605  75.721  1.00  0.00     0.016 A 
HETATM   33  C19 UNL     1      50.644   3.344  74.949  1.00  0.00     0.026 A 
HETATM   34  C20 UNL     1      51.986   3.333  75.177  1.00  0.00     0.057 A 
HETATM   35 CL2  UNL     1      53.131   4.237  74.212  1.00  0.00    -0.082 Cl
HETATM   36  C21 UNL     1      52.435   2.542  76.234  1.00  0.00     0.078 A 
HETATM   37 CL3  UNL     1      54.156   2.473  76.549  1.00  0.00    -0.081 Cl
HETATM   38  C22 UNL     1      51.564   1.811  77.002  1.00  0.00     0.068 A 
HETATM   39 CL4  UNL     1      52.194   0.818  78.311  1.00  0.00    -0.082 Cl
ENDBRANCH   6  31
TORSDOF 9
ENDMDL
MODEL 3
REMARK VINA RESULT: -9.899691816      2.331      5.425
REMARK  9 active torsions:
REMARK  status: ('A' for Active; 'I' for Inactive)
REMARK    1  A    between atoms: O1_2  and  C2_3 
REMARK    2  A    between atoms: C2_3  and  C3_4 
REMARK    3  A    between atoms: N1_6  and  C5_7 
REMARK    4  A    between atoms: C11_15  and  C12_16 
REMARK    5  A    between atoms: C12_16  and  O3_17 
REMARK    6  A    between atoms: C12_16  and  C13_19 
REMARK    7  A    between atoms: C13_19  and  O4_20 
REMARK    8  A    between atoms: C15_23  and  N2_24 
REMARK    9  A    between atoms: C16_27  and  C17_28 
ROOT
HETATM    1  C3  UNL     1      46.369   0.726  72.153  1.00  0.00     0.017 A 
HETATM    2  C4  UNL     1      45.404   0.089  72.847  1.00  0.00     0.104 A 
HETATM    3  N1  UNL     1      45.867  -0.110  74.106  1.00  0.00    -0.345 N 
HETATM    4  C14 UNL     1      47.111   0.367  74.262  1.00  0.00     0.097 A 
HETATM    5  C15 UNL     1      48.076   0.425  75.281  1.00  0.00     0.069 A 
HETATM    6  C16 UNL     1      49.281   1.027  75.023  1.00  0.00     0.027 A 
HETATM    7  C23 UNL     1      49.535   1.566  73.751  1.00  0.00     0.157 A 
HETATM    8  O5  UNL     1      48.608   1.474  72.834  1.00  0.00    -0.319 OA
HETATM    9  C24 UNL     1      47.459   0.919  73.018  1.00  0.00     0.114 A 
ENDROOT
BRANCH   3  10
HETATM   10  C5  UNL     1      45.071  -0.604  75.195  1.00  0.00     0.123 C 
HETATM   11  C6  UNL     1      43.602  -0.244  75.193  1.00  0.00     0.051 C 
HETATM   12  C7  UNL     1      43.154  -0.495  76.608  1.00  0.00     0.118 C 
HETATM   13 CL1  UNL     1      41.388  -0.634  76.782  1.00  0.00    -0.122 Cl
HETATM   14  C8  UNL     1      43.932  -1.506  77.333  1.00  0.00     0.071 C 
HETATM   15  C9  UNL     1      44.731  -0.905  78.504  1.00  0.00     0.047 C 
HETATM   16  C10 UNL     1      42.893  -2.422  78.042  1.00  0.00     0.047 C 
HETATM   17  O2  UNL     1      44.770  -2.368  76.707  1.00  0.00    -0.369 OA
HETATM   18  C11 UNL     1      45.011  -2.099  75.344  1.00  0.00     0.176 C 
BRANCH  18  19
HETATM   19  C12 UNL     1      43.919  -2.824  74.646  1.00  0.00     0.172 C 
BRANCH  19  20
HETATM   20  O3  UNL     1      44.003  -2.910  73.272  1.00  0.00    -0.391 OA
ATOM     21  H3  UNL     1      43.256  -3.281  72.816  1.00  0.00     0.210 HD
ENDBRANCH  19  20
BRANCH  19  22
HETATM   22  C13 UNL     1      43.835  -4.298  75.108  1.00  0.00     0.198 C 
BRANCH  22  23
HETATM   23  O4  UNL     1      45.144  -4.843  75.115  1.00  0.00    -0.398 OA
ATOM     24  H4  UNL     1      45.283  -5.306  74.296  1.00  0.00     0.209 HD
ENDBRANCH  22  23
ENDBRANCH  19  22
ENDBRANCH  18  19
ENDBRANCH   3  10
BRANCH   1  25
HETATM   25  C2  UNL     1      46.336   1.212  70.749  1.00  0.00     0.210 C 
BRANCH  25  26
HETATM   26  O1  UNL     1      46.305   2.626  70.754  1.00  0.00    -0.391 OA
HETATM   27  C1  UNL     1      45.035   3.120  70.687  1.00  0.00     0.201 C 
ENDBRANCH  25  26
ENDBRANCH   1  25
BRANCH   5  28
HETATM   28  N2  UNL     1      47.850  -0.197  76.363  1.00  0.00    -0.396 N 
ATOM     29  H22 UNL     1      46.962  -0.665  76.544  1.00  0.00     0.156 HD
ATOM     30  H21 UNL     1      48.540  -0.134  77.112  1.00  0.00     0.156 HD
ENDBRANCH   5  28
BRANCH   6  31
HETATM   31  C17 UNL     1      50.283   1.081  76.076  1.00  0.00     0.002 A 
HETATM   32  C18 UNL     1      50.133   0.439  77.263  1.00  0.00     0.016 A 
HETATM   33  C19 UNL     1      51.144   0.516  78.230  1.00  0.00     0.026 A 
HETATM   34  C20 UNL     1      52.295   1.216  78.038  1.00  0.00     0.057 A 
HETATM   35 CL2  UNL     1      53.559   1.333  79.242  1.00  0.00    -0.082 Cl
HETATM   36  C21 UNL     1      52.436   1.866  76.813  1.00  0.00     0.078 A 
HETATM   37 CL3  UNL     1      53.888   2.803  76.529  1.00  0.00    -0.081 Cl
HETATM   38  C22 UNL     1      51.457   1.804  75.853  1.00  0.00     0.068 A 
HETATM   39 CL4  UNL     1      51.686   2.663  74.333  1.00  0.00    -0.082 Cl
ENDBRANCH   6  31
TORSDOF 9
ENDMDL
MODEL 4
REMARK VINA RESULT: -9.656186300      3.635      5.191
REMARK  9 active torsions:
REMARK  status: ('A' for Active; 'I' for Inactive)
REMARK    1  A    between atoms: O1_2  and  C2_3 
REMARK    2  A    between atoms: C2_3  and  C3_4 
REMARK    3  A    between atoms: N1_6  and  C5_7 
REMARK    4  A    between atoms: C11_15  and  C12_16 
REMARK    5  A    between atoms: C12_16  and  O3_17 
REMARK    6  A    between atoms: C12_16  and  C13_19 
REMARK    7  A    between atoms: C13_19  and  O4_20 
REMARK    8  A    between atoms: C15_23  and  N2_24 
REMARK    9  A    between atoms: C16_27  and  C17_28 
ROOT
HETATM    1  C3  UNL     1      48.523   0.029  75.120  1.00  0.00     0.017 A 
HETATM    2  C4  UNL     1      47.855   0.458  74.031  1.00  0.00     0.104 A 
HETATM    3  N1  UNL     1      46.547   0.574  74.370  1.00  0.00    -0.345 N 
HETATM    4  C14 UNL     1      46.329   0.224  75.646  1.00  0.00     0.097 A 
HETATM    5  C15 UNL     1      45.232   0.115  76.516  1.00  0.00     0.069 A 
HETATM    6  C16 UNL     1      45.444  -0.298  77.807  1.00  0.00     0.027 A 
HETATM    7  C23 UNL     1      46.744  -0.614  78.235  1.00  0.00     0.157 A 
HETATM    8  O5  UNL     1      47.729  -0.507  77.382  1.00  0.00    -0.319 OA
HETATM    9  C24 UNL     1      47.590  -0.127  76.159  1.00  0.00     0.114 A 
ENDROOT
BRANCH   3  10
HETATM   10  C5  UNL     1      45.540   1.166  73.533  1.00  0.00     0.123 C 
HETATM   11  C6  UNL     1      45.406   2.671  73.579  1.00  0.00     0.051 C 
HETATM   12  C7  UNL     1      44.047   2.943  72.988  1.00  0.00     0.118 C 
HETATM   13 CL1  UNL     1      43.824   4.628  72.461  1.00  0.00    -0.122 Cl
HETATM   14  C8  UNL     1      43.570   1.927  72.043  1.00  0.00     0.071 C 
HETATM   15  C9  UNL     1      42.342   1.163  72.572  1.00  0.00     0.047 C 
HETATM   16  C10 UNL     1      43.007   2.707  70.820  1.00  0.00     0.047 C 
HETATM   17  O2  UNL     1      44.390   0.994  71.500  1.00  0.00    -0.369 OA
HETATM   18  C11 UNL     1      45.683   0.924  72.056  1.00  0.00     0.176 C 
BRANCH  18  19
HETATM   19  C12 UNL     1      46.459   1.910  71.262  1.00  0.00     0.172 C 
BRANCH  19  20
HETATM   20  O3  UNL     1      47.818   1.967  71.489  1.00  0.00    -0.391 OA
ATOM     21  H3  UNL     1      48.329   2.526  70.915  1.00  0.00     0.210 HD
ENDBRANCH  19  20
BRANCH  19  22
HETATM   22  C13 UNL     1      46.344   1.629  69.746  1.00  0.00     0.198 C 
BRANCH  22  23
HETATM   23  O4  UNL     1      45.758   2.758  69.121  1.00  0.00    -0.398 OA
ATOM     24  H4  UNL     1      44.964   2.480  68.679  1.00  0.00     0.209 HD
ENDBRANCH  22  23
ENDBRANCH  19  22
ENDBRANCH  18  19
ENDBRANCH   3  10
BRANCH   1  25
HETATM   25  C2  UNL     1      49.982  -0.207  75.282  1.00  0.00     0.210 C 
BRANCH  25  26
HETATM   26  O1  UNL     1      50.631   1.038  75.458  1.00  0.00    -0.391 OA
HETATM   27  C1  UNL     1      51.626   1.240  74.547  1.00  0.00     0.201 C 
ENDBRANCH  25  26
ENDBRANCH   1  25
BRANCH   5  28
HETATM   28  N2  UNL     1      44.068   0.277  76.042  1.00  0.00    -0.396 N 
ATOM     29  H22 UNL     1      43.908   0.520  75.064  1.00  0.00     0.156 HD
ATOM     30  H21 UNL     1      43.276   0.266  76.685  1.00  0.00     0.156 HD
ENDBRANCH   5  28
BRANCH   6  31
HETATM   31  C17 UNL     1      44.307  -0.418  78.706  1.00  0.00     0.002 A 
HETATM   32  C18 UNL     1      43.824   0.633  79.418  1.00  0.00     0.016 A 
HETATM   33  C19 UNL     1      42.713   0.456  80.253  1.00  0.00     0.026 A 
HETATM   34  C20 UNL     1      42.077  -0.740  80.391  1.00  0.00     0.057 A 
HETATM   35 CL2  UNL     1      40.699  -0.979  81.442  1.00  0.00    -0.082 Cl
HETATM   36  C21 UNL     1      42.583  -1.807  79.650  1.00  0.00     0.078 A 
HETATM   37 CL3  UNL     1      41.816  -3.373  79.816  1.00  0.00    -0.081 Cl
HETATM   38  C22 UNL     1      43.670  -1.656  78.827  1.00  0.00     0.068 A 
HETATM   39 CL4  UNL     1      44.273  -3.046  77.932  1.00  0.00    -0.082 Cl
ENDBRANCH   6  31
TORSDOF 9
ENDMDL
MODEL 5
REMARK VINA RESULT: -9.643462815      1.023      1.465
REMARK  9 active torsions:
REMARK  status: ('A' for Active; 'I' for Inactive)
REMARK    1  A    between atoms: O1_2  and  C2_3 
REMARK    2  A    between atoms: C2_3  and  C3_4 
REMARK    3  A    between atoms: N1_6  and  C5_7 
REMARK    4  A    between atoms: C11_15  and  C12_16 
REMARK    5  A    between atoms: C12_16  and  O3_17 
REMARK    6  A    between atoms: C12_16  and  C13_19 
REMARK    7  A    between atoms: C13_19  and  O4_20 
REMARK    8  A    between atoms: C15_23  and  N2_24 
REMARK    9  A    between atoms: C16_27  and  C17_28 
ROOT
HETATM    1  C3  UNL     1      43.532  -2.225  73.997  1.00  0.00     0.017 A 
HETATM    2  C4  UNL     1      43.052  -1.165  73.317  1.00  0.00     0.104 A 
HETATM    3  N1  UNL     1      43.954  -0.159  73.432  1.00  0.00    -0.345 N 
HETATM    4  C14 UNL     1      45.010  -0.519  74.177  1.00  0.00     0.097 A 
HETATM    5  C15 UNL     1      46.193   0.074  74.649  1.00  0.00     0.069 A 
HETATM    6  C16 UNL     1      47.050  -0.672  75.418  1.00  0.00     0.027 A 
HETATM    7  C23 UNL     1      46.731  -2.004  75.728  1.00  0.00     0.157 A 
HETATM    8  O5  UNL     1      45.612  -2.503  75.274  1.00  0.00    -0.319 OA
HETATM    9  C24 UNL     1      44.769  -1.852  74.550  1.00  0.00     0.114 A 
ENDROOT
BRANCH   3  10
HETATM   10  C5  UNL     1      43.887   1.080  72.707  1.00  0.00     0.123 C 
HETATM   11  C6  UNL     1      44.304   2.332  73.444  1.00  0.00     0.051 C 
HETATM   12  C7  UNL     1      43.722   3.456  72.630  1.00  0.00     0.118 C 
HETATM   13 CL1  UNL     1      44.459   5.040  72.972  1.00  0.00    -0.122 Cl
HETATM   14  C8  UNL     1      43.530   3.154  71.207  1.00  0.00     0.071 C 
HETATM   15  C9  UNL     1      42.042   3.117  70.809  1.00  0.00     0.047 C 
HETATM   16  C10 UNL     1      44.078   4.384  70.427  1.00  0.00     0.047 C 
HETATM   17  O2  UNL     1      44.108   2.087  70.604  1.00  0.00    -0.369 OA
HETATM   18  C11 UNL     1      44.735   1.166  71.469  1.00  0.00     0.176 C 
BRANCH  18  19
HETATM   19  C12 UNL     1      46.114   1.698  71.606  1.00  0.00     0.172 C 
BRANCH  19  20
HETATM   20  O3  UNL     1      47.118   0.783  71.844  1.00  0.00    -0.391 OA
ATOM     21  H3  UNL     1      47.519   0.375  71.085  1.00  0.00     0.210 HD
ENDBRANCH  19  20
BRANCH  19  22
HETATM   22  C13 UNL     1      46.569   2.426  70.320  1.00  0.00     0.198 C 
BRANCH  22  23
HETATM   23  O4  UNL     1      47.647   1.702  69.750  1.00  0.00    -0.398 OA
ATOM     24  H4  UNL     1      47.338   1.273  68.960  1.00  0.00     0.209 HD
ENDBRANCH  22  23
ENDBRANCH  19  22
ENDBRANCH  18  19
ENDBRANCH   3  10
BRANCH   1  25
HETATM   25  C2  UNL     1      42.945  -3.584  74.135  1.00  0.00     0.210 C 
BRANCH  25  26
HETATM   26  O1  UNL     1      43.006  -4.239  72.883  1.00  0.00    -0.391 OA
HETATM   27  C1  UNL     1      43.696  -5.415  72.943  1.00  0.00     0.201 C 
ENDBRANCH  25  26
ENDBRANCH   1  25
BRANCH   5  28
HETATM   28  N2  UNL     1      46.364   1.315  74.456  1.00  0.00    -0.396 N 
ATOM     29  H22 UNL     1      47.291   1.741  74.446  1.00  0.00     0.156 HD
ATOM     30  H21 UNL     1      45.542   1.918  74.415  1.00  0.00     0.156 HD
ENDBRANCH   5  28
BRANCH   6  31
HETATM   31  C17 UNL     1      48.271  -0.056  75.912  1.00  0.00     0.002 A 
HETATM   32  C18 UNL     1      49.431  -0.060  75.206  1.00  0.00     0.016 A 
HETATM   33  C19 UNL     1      50.569   0.567  75.731  1.00  0.00     0.026 A 
HETATM   34  C20 UNL     1      50.573   1.196  76.938  1.00  0.00     0.057 A 
HETATM   35 CL2  UNL     1      51.990   1.969  77.612  1.00  0.00    -0.082 Cl
HETATM   36  C21 UNL     1      49.374   1.194  77.649  1.00  0.00     0.078 A 
HETATM   37 CL3  UNL     1      49.337   1.966  79.221  1.00  0.00    -0.081 Cl
HETATM   38  C22 UNL     1      48.248   0.585  77.154  1.00  0.00     0.068 A 
HETATM   39 CL4  UNL     1      46.769   0.603  78.107  1.00  0.00    -0.082 Cl
ENDBRANCH   6  31
TORSDOF 9
ENDMDL
