MODEL 1
REMARK VINA RESULT: -9.092933349      0.000      0.000
REMARK  8 active torsions:
REMARK  status: ('A' for Active; 'I' for Inactive)
REMARK    1  A    between atoms: C3_3  and  C4_4 
REMARK    2  A    between atoms: C4_4  and  C5_7 
REMARK    3  A    between atoms: C11_15  and  O1_16 
REMARK    4  A    between atoms: C14_22  and  N2_23 
REMARK    5  A    between atoms: N2_23  and  C15_25 
REMARK    6  A    between atoms: C15_25  and  C16_26 
REMARK    7  A    between atoms: C16_26  and  O3_27 
REMARK    8  A    between atoms: C16_26  and  C17_29 
ROOT
HETATM    1  C1  UNL     1      46.751   0.104  74.593  1.00  0.00     0.053 C 
HETATM    2  C2  UNL     1      45.587  -0.032  75.458  1.00  0.00    -0.004 A 
HETATM    3  C3  UNL     1      44.383  -0.373  74.880  1.00  0.00     0.045 A 
HETATM    4  C11 UNL     1      43.225  -0.486  75.680  1.00  0.00     0.146 A 
HETATM    5  C12 UNL     1      43.319  -0.253  77.020  1.00  0.00     0.282 A 
HETATM    6  O2  UNL     1      42.311  -0.347  77.731  1.00  0.00    -0.265 OA
HETATM    7  N1  UNL     1      44.498   0.082  77.601  1.00  0.00    -0.302 N 
HETATM    8  C13 UNL     1      44.486   0.221  79.028  1.00  0.00     0.161 C 
HETATM    9  C14 UNL     1      45.636   0.201  76.860  1.00  0.00     0.112 A 
ENDROOT
BRANCH   9  10
HETATM   10  N2  UNL     1      46.910   0.463  77.422  1.00  0.00    -0.373 N 
ATOM     11  H2  UNL     1      47.438  -0.381  77.643  1.00  0.00     0.161 HD
BRANCH  10  12
HETATM   12  C15 UNL     1      47.596   1.656  77.740  1.00  0.00     0.160 C 
BRANCH  12  13
HETATM   13  C16 UNL     1      49.086   1.431  77.999  1.00  0.00     0.192 C 
BRANCH  13  14
HETATM   14  O3  UNL     1      49.542   2.219  79.057  1.00  0.00    -0.387 OA
ATOM     15  H3  UNL     1      49.063   2.036  79.856  1.00  0.00     0.210 HD
ENDBRANCH  13  14
BRANCH  13  16
HETATM   16  C17 UNL     1      49.801   1.895  76.770  1.00  0.00     0.081 A 
HETATM   17  N3  UNL     1      50.020   3.153  76.416  1.00  0.00    -0.361 N 
HETATM   18  C18 UNL     1      50.655   3.414  75.320  1.00  0.00     0.096 A 
ATOM     19  H3  UNL     1      49.687   3.915  77.007  1.00  0.00     0.165 HD
HETATM   20  C19 UNL     1      51.080   2.354  74.560  1.00  0.00     0.068 A 
HETATM   21  S1  UNL     1      50.528   1.027  75.493  1.00  0.00    -0.085 SA
ENDBRANCH  13  16
ENDBRANCH  12  13
ENDBRANCH  10  12
ENDBRANCH   9  10
BRANCH   3  22
HETATM   22  C4  UNL     1      44.248  -0.683  73.474  1.00  0.00     0.219 C 
HETATM   23  F1  UNL     1      42.870  -0.576  73.100  1.00  0.00    -0.219 F 
HETATM   24 BR1  UNL     1      44.592  -2.576  73.109  1.00  0.00    -0.037 Br
BRANCH  22  25
HETATM   25  C5  UNL     1      44.901   0.148  72.443  1.00  0.00     0.015 A 
HETATM   26  C6  UNL     1      45.936  -0.394  71.657  1.00  0.00     0.016 A 
HETATM   27  C7  UNL     1      46.509   0.295  70.649  1.00  0.00     0.043 A 
HETATM   28  C8  UNL     1      46.078   1.574  70.366  1.00  0.00     0.117 A 
HETATM   29  F2  UNL     1      46.641   2.276  69.358  1.00  0.00    -0.206 F 
HETATM   30  C9  UNL     1      45.071   2.165  71.095  1.00  0.00     0.062 A 
HETATM   31  C10 UNL     1      44.509   1.415  72.128  1.00  0.00     0.024 A 
HETATM   32 BR2  UNL     1      43.140   2.349  73.109  1.00  0.00    -0.050 Br
ENDBRANCH  22  25
ENDBRANCH   3  22
BRANCH   4  33
HETATM   33  O1  UNL     1      42.035  -0.842  75.063  1.00  0.00    -0.355 OA
ATOM     34  H1  UNL     1      42.028  -0.929  74.117  1.00  0.00     0.218 HD
ENDBRANCH   4  33
TORSDOF 8
ENDMDL
MODEL 2
REMARK VINA RESULT: -9.073994753      3.440      4.309
REMARK  8 active torsions:
REMARK  status: ('A' for Active; 'I' for Inactive)
REMARK    1  A    between atoms: C3_3  and  C4_4 
REMARK    2  A    between atoms: C4_4  and  C5_7 
REMARK    3  A    between atoms: C11_15  and  O1_16 
REMARK    4  A    between atoms: C14_22  and  N2_23 
REMARK    5  A    between atoms: N2_23  and  C15_25 
REMARK    6  A    between atoms: C15_25  and  C16_26 
REMARK    7  A    between atoms: C16_26  and  O3_27 
REMARK    8  A    between atoms: C16_26  and  C17_29 
ROOT
HETATM    1  C1  UNL     1      46.736  -2.131  74.727  1.00  0.00     0.053 C 
HETATM    2  C2  UNL     1      46.549  -1.247  75.869  1.00  0.00    -0.004 A 
HETATM    3  C3  UNL     1      45.546  -1.545  76.767  1.00  0.00     0.045 A 
HETATM    4  C11 UNL     1      45.315  -0.697  77.871  1.00  0.00     0.146 A 
HETATM    5  C12 UNL     1      46.093   0.411  78.032  1.00  0.00     0.282 A 
HETATM    6  O2  UNL     1      45.899   1.163  78.995  1.00  0.00    -0.265 OA
HETATM    7  N1  UNL     1      47.084   0.715  77.157  1.00  0.00    -0.302 N 
HETATM    8  C13 UNL     1      47.885   1.859  77.478  1.00  0.00     0.161 C 
HETATM    9  C14 UNL     1      47.335  -0.080  76.079  1.00  0.00     0.112 A 
ENDROOT
BRANCH   9  10
HETATM   10  N2  UNL     1      48.409   0.139  75.181  1.00  0.00    -0.373 N 
ATOM     11  H2  UNL     1      48.145   0.675  74.355  1.00  0.00     0.161 HD
BRANCH  10  12
HETATM   12  C15 UNL     1      49.772  -0.235  75.198  1.00  0.00     0.160 C 
BRANCH  12  13
HETATM   13  C16 UNL     1      50.709   0.930  74.879  1.00  0.00     0.192 C 
BRANCH  13  14
HETATM   14  O3  UNL     1      51.810   0.506  74.134  1.00  0.00    -0.387 OA
ATOM     15  H3  UNL     1      52.335   1.242  73.843  1.00  0.00     0.210 HD
ENDBRANCH  13  14
BRANCH  13  16
HETATM   16  C17 UNL     1      51.233   1.418  76.193  1.00  0.00     0.081 A 
HETATM   17  N3  UNL     1      51.159   0.784  77.353  1.00  0.00    -0.361 N 
HETATM   18  C18 UNL     1      51.657   1.325  78.417  1.00  0.00     0.096 A 
ATOM     19  H3  UNL     1      50.710  -0.130  77.407  1.00  0.00     0.165 HD
HETATM   20  C19 UNL     1      52.249   2.556  78.291  1.00  0.00     0.068 A 
HETATM   21  S1  UNL     1      52.048   2.857  76.616  1.00  0.00    -0.085 SA
ENDBRANCH  13  16
ENDBRANCH  12  13
ENDBRANCH  10  12
ENDBRANCH   9  10
BRANCH   3  22
HETATM   22  C4  UNL     1      44.735  -2.737  76.668  1.00  0.00     0.219 C 
HETATM   23  F1  UNL     1      43.569  -2.581  77.484  1.00  0.00    -0.219 F 
HETATM   24 BR1  UNL     1      45.591  -4.276  77.524  1.00  0.00    -0.037 Br
BRANCH  22  25
HETATM   25  C5  UNL     1      44.142  -3.153  75.380  1.00  0.00     0.015 A 
HETATM   26  C6  UNL     1      44.394  -4.443  74.875  1.00  0.00     0.016 A 
HETATM   27  C7  UNL     1      43.812  -4.899  73.747  1.00  0.00     0.043 A 
HETATM   28  C8  UNL     1      42.940  -4.087  73.053  1.00  0.00     0.117 A 
HETATM   29  F2  UNL     1      42.349  -4.531  71.922  1.00  0.00    -0.206 F 
HETATM   30  C9  UNL     1      42.650  -2.814  73.489  1.00  0.00     0.062 A 
HETATM   31  C10 UNL     1      43.275  -2.385  74.660  1.00  0.00     0.024 A 
HETATM   32 BR2  UNL     1      42.832  -0.578  75.159  1.00  0.00    -0.050 Br
ENDBRANCH  22  25
ENDBRANCH   3  22
BRANCH   4  33
HETATM   33  O1  UNL     1      44.303  -1.037  78.758  1.00  0.00    -0.355 OA
ATOM     34  H1  UNL     1      44.224  -1.947  79.021  1.00  0.00     0.218 HD
ENDBRANCH   4  33
TORSDOF 8
ENDMDL
MODEL 3
REMARK VINA RESULT: -8.963409812      2.551      3.542
REMARK  8 active torsions:
REMARK  status: ('A' for Active; 'I' for Inactive)
REMARK    1  A    between atoms: C3_3  and  C4_4 
REMARK    2  A    between atoms: C4_4  and  C5_7 
REMARK    3  A    between atoms: C11_15  and  O1_16 
REMARK    4  A    between atoms: C14_22  and  N2_23 
REMARK    5  A    between atoms: N2_23  and  C15_25 
REMARK    6  A    between atoms: C15_25  and  C16_26 
REMARK    7  A    between atoms: C16_26  and  O3_27 
REMARK    8  A    between atoms: C16_26  and  C17_29 
ROOT
HETATM    1  C1  UNL     1      48.103   0.122  74.173  1.00  0.00     0.053 C 
HETATM    2  C2  UNL     1      47.655   0.311  75.546  1.00  0.00    -0.004 A 
HETATM    3  C3  UNL     1      46.333   0.057  75.841  1.00  0.00     0.045 A 
HETATM    4  C11 UNL     1      45.853   0.255  77.153  1.00  0.00     0.146 A 
HETATM    5  C12 UNL     1      46.712   0.699  78.114  1.00  0.00     0.282 A 
HETATM    6  O2  UNL     1      46.303   0.880  79.268  1.00  0.00    -0.265 OA
HETATM    7  N1  UNL     1      48.016   0.952  77.838  1.00  0.00    -0.302 N 
HETATM    8  C13 UNL     1      48.838   1.334  78.948  1.00  0.00     0.161 C 
HETATM    9  C14 UNL     1      48.514   0.772  76.582  1.00  0.00     0.112 A 
ENDROOT
BRANCH   9  10
HETATM   10  N2  UNL     1      49.883   0.936  76.254  1.00  0.00    -0.373 N 
ATOM     11  H2  UNL     1      50.409   0.062  76.256  1.00  0.00     0.161 HD
BRANCH  10  12
HETATM   12  C15 UNL     1      50.667   2.064  75.925  1.00  0.00     0.160 C 
BRANCH  12  13
HETATM   13  C16 UNL     1      51.142   2.052  74.472  1.00  0.00     0.192 C 
BRANCH  13  14
HETATM   14  O3  UNL     1      51.695   0.818  74.129  1.00  0.00    -0.387 OA
ATOM     15  H3  UNL     1      51.809   0.740  73.189  1.00  0.00     0.210 HD
ENDBRANCH  13  14
BRANCH  13  16
HETATM   16  C17 UNL     1      52.242   3.063  74.382  1.00  0.00     0.081 A 
HETATM   17  N3  UNL     1      53.536   2.833  74.549  1.00  0.00    -0.361 N 
HETATM   18  C18 UNL     1      54.382   3.805  74.442  1.00  0.00     0.096 A 
ATOM     19  H3  UNL     1      53.863   1.891  74.761  1.00  0.00     0.165 HD
HETATM   20  C19 UNL     1      53.890   5.053  74.156  1.00  0.00     0.068 A 
HETATM   21  S1  UNL     1      52.209   4.738  74.057  1.00  0.00    -0.085 SA
ENDBRANCH  13  16
ENDBRANCH  12  13
ENDBRANCH  10  12
ENDBRANCH   9  10
BRANCH   3  22
HETATM   22  C4  UNL     1      45.400  -0.468  74.869  1.00  0.00     0.219 C 
HETATM   23  F1  UNL     1      44.451  -1.308  75.534  1.00  0.00    -0.219 F 
HETATM   24 BR1  UNL     1      46.253  -1.748  73.656  1.00  0.00    -0.037 Br
BRANCH  22  25
HETATM   25  C5  UNL     1      44.514   0.430  74.099  1.00  0.00     0.015 A 
HETATM   26  C6  UNL     1      44.954   1.721  73.752  1.00  0.00     0.016 A 
HETATM   27  C7  UNL     1      44.217   2.548  72.981  1.00  0.00     0.043 A 
HETATM   28  C8  UNL     1      42.990   2.129  72.511  1.00  0.00     0.117 A 
HETATM   29  F2  UNL     1      42.241   2.946  71.737  1.00  0.00    -0.206 F 
HETATM   30  C9  UNL     1      42.499   0.880  72.814  1.00  0.00     0.062 A 
HETATM   31  C10 UNL     1      43.295   0.060  73.613  1.00  0.00     0.024 A 
HETATM   32 BR2  UNL     1      42.497  -1.648  74.009  1.00  0.00    -0.050 Br
ENDBRANCH  22  25
ENDBRANCH   3  22
BRANCH   4  33
HETATM   33  O1  UNL     1      44.518  -0.021  77.412  1.00  0.00    -0.355 OA
ATOM     34  H1  UNL     1      44.292  -0.891  77.721  1.00  0.00     0.218 HD
ENDBRANCH   4  33
TORSDOF 8
ENDMDL
MODEL 4
REMARK VINA RESULT: -8.946724283      3.108      5.100
REMARK  8 active torsions:
REMARK  status: ('A' for Active; 'I' for Inactive)
REMARK    1  A    between atoms: C3_3  and  C4_4 
REMARK    2  A    between atoms: C4_4  and  C5_7 
REMARK    3  A    between atoms: C11_15  and  O1_16 
REMARK    4  A    between atoms: C14_22  and  N2_23 
REMARK    5  A    between atoms: N2_23  and  C15_25 
REMARK    6  A    between atoms: C15_25  and  C16_26 
REMARK    7  A    between atoms: C16_26  and  O3_27 
REMARK    8  A    between atoms: C16_26  and  C17_29 
ROOT
HETATM    1  C1  UNL     1      46.505  -1.193  74.835  1.00  0.00     0.053 C 
HETATM    2  C2  UNL     1      45.671  -0.357  73.983  1.00  0.00    -0.004 A 
HETATM    3  C3  UNL     1      44.304  -0.409  74.156  1.00  0.00     0.045 A 
HETATM    4  C11 UNL     1      43.460   0.365  73.331  1.00  0.00     0.146 A 
HETATM    5  C12 UNL     1      44.014   1.155  72.368  1.00  0.00     0.282 A 
HETATM    6  O2  UNL     1      43.285   1.836  71.637  1.00  0.00    -0.265 OA
HETATM    7  N1  UNL     1      45.357   1.216  72.188  1.00  0.00    -0.302 N 
HETATM    8  C13 UNL     1      45.824   2.144  71.200  1.00  0.00     0.161 C 
HETATM    9  C14 UNL     1      46.203   0.483  72.966  1.00  0.00     0.112 A 
ENDROOT
BRANCH   9  10
HETATM   10  N2  UNL     1      47.615   0.571  72.881  1.00  0.00    -0.373 N 
ATOM     11  H2  UNL     1      48.045  -0.225  72.411  1.00  0.00     0.161 HD
BRANCH  10  12
HETATM   12  C15 UNL     1      48.549   1.538  73.316  1.00  0.00     0.160 C 
BRANCH  12  13
HETATM   13  C16 UNL     1      49.464   1.021  74.425  1.00  0.00     0.192 C 
BRANCH  13  14
HETATM   14  O3  UNL     1      48.868   1.155  75.680  1.00  0.00    -0.387 OA
ATOM     15  H3  UNL     1      49.493   1.454  76.329  1.00  0.00     0.210 HD
ENDBRANCH  13  14
BRANCH  13  16
HETATM   16  C17 UNL     1      50.672   1.904  74.419  1.00  0.00     0.081 A 
HETATM   17  N3  UNL     1      50.704   3.188  74.093  1.00  0.00    -0.361 N 
HETATM   18  C18 UNL     1      51.823   3.835  74.131  1.00  0.00     0.096 A 
ATOM     19  H3  UNL     1      49.848   3.664  73.811  1.00  0.00     0.165 HD
HETATM   20  C19 UNL     1      52.946   3.148  74.516  1.00  0.00     0.068 A 
HETATM   21  S1  UNL     1      52.304   1.585  74.802  1.00  0.00    -0.085 SA
ENDBRANCH  13  16
ENDBRANCH  12  13
ENDBRANCH  10  12
ENDBRANCH   9  10
BRANCH   3  22
HETATM   22  C4  UNL     1      43.676  -1.188  75.199  1.00  0.00     0.219 C 
HETATM   23  F1  UNL     1      42.380  -1.607  74.756  1.00  0.00    -0.219 F 
HETATM   24 BR1  UNL     1      43.207  -0.087  76.750  1.00  0.00    -0.037 Br
BRANCH  22  25
HETATM   25  C5  UNL     1      44.261  -2.465  75.656  1.00  0.00     0.015 A 
HETATM   26  C6  UNL     1      44.763  -2.578  76.967  1.00  0.00     0.016 A 
HETATM   27  C7  UNL     1      45.231  -3.743  77.458  1.00  0.00     0.043 A 
HETATM   28  C8  UNL     1      45.227  -4.870  76.664  1.00  0.00     0.117 A 
HETATM   29  F2  UNL     1      45.692  -6.045  77.144  1.00  0.00    -0.206 F 
HETATM   30  C9  UNL     1      44.752  -4.830  75.373  1.00  0.00     0.062 A 
HETATM   31  C10 UNL     1      44.277  -3.604  74.907  1.00  0.00     0.024 A 
HETATM   32 BR2  UNL     1      43.675  -3.649  73.078  1.00  0.00    -0.050 Br
ENDBRANCH  22  25
ENDBRANCH   3  22
BRANCH   4  33
HETATM   33  O1  UNL     1      42.091   0.293  73.544  1.00  0.00    -0.355 OA
ATOM     34  H1  UNL     1      41.696  -0.565  73.644  1.00  0.00     0.218 HD
ENDBRANCH   4  33
TORSDOF 8
ENDMDL
MODEL 5
REMARK VINA RESULT: -8.927417702      2.400      4.049
REMARK  8 active torsions:
REMARK  status: ('A' for Active; 'I' for Inactive)
REMARK    1  A    between atoms: C3_3  and  C4_4 
REMARK    2  A    between atoms: C4_4  and  C5_7 
REMARK    3  A    between atoms: C11_15  and  O1_16 
REMARK    4  A    between atoms: C14_22  and  N2_23 
REMARK    5  A    between atoms: N2_23  and  C15_25 
REMARK    6  A    between atoms: C15_25  and  C16_26 
REMARK    7  A    between atoms: C16_26  and  O3_27 
REMARK    8  A    between atoms: C16_26  and  C17_29 
ROOT
HETATM    1  C1  UNL     1      47.825   0.944  73.470  1.00  0.00     0.053 C 
HETATM    2  C2  UNL     1      47.289   0.798  74.815  1.00  0.00    -0.004 A 
HETATM    3  C3  UNL     1      45.993   0.347  74.955  1.00  0.00     0.045 A 
HETATM    4  C11 UNL     1      45.427   0.219  76.242  1.00  0.00     0.146 A 
HETATM    5  C12 UNL     1      46.176   0.548  77.332  1.00  0.00     0.282 A 
HETATM    6  O2  UNL     1      45.690   0.443  78.465  1.00  0.00    -0.265 OA
HETATM    7  N1  UNL     1      47.451   0.993  77.209  1.00  0.00    -0.302 N 
HETATM    8  C13 UNL     1      48.163   1.228  78.431  1.00  0.00     0.161 C 
HETATM    9  C14 UNL     1      48.031   1.129  75.983  1.00  0.00     0.112 A 
ENDROOT
BRANCH   9  10
HETATM   10  N2  UNL     1      49.384   1.506  75.796  1.00  0.00    -0.373 N 
ATOM     11  H2  UNL     1      50.017   0.712  75.696  1.00  0.00     0.161 HD
BRANCH  10  12
HETATM   12  C15 UNL     1      50.036   2.757  75.721  1.00  0.00     0.160 C 
BRANCH  12  13
HETATM   13  C16 UNL     1      51.478   2.705  76.224  1.00  0.00     0.192 C 
BRANCH  13  14
HETATM   14  O3  UNL     1      51.588   3.245  77.506  1.00  0.00    -0.387 OA
ATOM     15  H3  UNL     1      52.130   4.025  77.507  1.00  0.00     0.210 HD
ENDBRANCH  13  14
BRANCH  13  16
HETATM   16  C17 UNL     1      52.273   3.585  75.311  1.00  0.00     0.081 A 
HETATM   17  N3  UNL     1      51.906   4.771  74.846  1.00  0.00    -0.361 N 
HETATM   18  C18 UNL     1      52.695   5.427  74.060  1.00  0.00     0.096 A 
ATOM     19  H3  UNL     1      51.002   5.164  75.108  1.00  0.00     0.165 HD
HETATM   20  C19 UNL     1      53.899   4.854  73.737  1.00  0.00     0.068 A 
HETATM   21  S1  UNL     1      53.813   3.379  74.605  1.00  0.00    -0.085 SA
ENDBRANCH  13  16
ENDBRANCH  12  13
ENDBRANCH  10  12
ENDBRANCH   9  10
BRANCH   3  22
HETATM   22  C4  UNL     1      45.183  -0.067  73.832  1.00  0.00     0.219 C 
HETATM   23  F1  UNL     1      45.998  -0.114  72.656  1.00  0.00    -0.219 F 
HETATM   24 BR1  UNL     1      43.876   1.304  73.331  1.00  0.00    -0.037 Br
BRANCH  22  25
HETATM   25  C5  UNL     1      44.542  -1.397  73.802  1.00  0.00     0.015 A 
HETATM   26  C6  UNL     1      43.172  -1.510  73.497  1.00  0.00     0.016 A 
HETATM   27  C7  UNL     1      42.558  -2.705  73.376  1.00  0.00     0.043 A 
HETATM   28  C8  UNL     1      43.283  -3.865  73.556  1.00  0.00     0.117 A 
HETATM   29  F2  UNL     1      42.681  -5.069  73.437  1.00  0.00    -0.206 F 
HETATM   30  C9  UNL     1      44.625  -3.828  73.857  1.00  0.00     0.062 A 
HETATM   31  C10 UNL     1      45.217  -2.570  73.972  1.00  0.00     0.024 A 
HETATM   32 BR2  UNL     1      47.085  -2.631  74.436  1.00  0.00    -0.050 Br
ENDBRANCH  22  25
ENDBRANCH   3  22
BRANCH   4  33
HETATM   33  O1  UNL     1      44.125  -0.249  76.341  1.00  0.00    -0.355 OA
ATOM     34  H1  UNL     1      43.716  -0.605  75.561  1.00  0.00     0.218 HD
ENDBRANCH   4  33
TORSDOF 8
ENDMDL
