MODEL 1
REMARK VINA RESULT: -8.528242964      0.000      0.000
REMARK  2 active torsions:
REMARK  status: ('A' for Active; 'I' for Inactive)
REMARK    1  A    between atoms: C3_5  and  C4_6 
REMARK    2  A    between atoms: C7_9  and  N2_10 
ROOT
HETATM    1  C4  UNL     1     122.414  15.605  27.033  1.00  0.00     0.036 C 
HETATM    2  C5  UNL     1     123.826  15.156  27.293  1.00  0.00     0.013 C 
HETATM    3  C6  UNL     1     123.797  13.638  27.260  1.00  0.00     0.026 C 
HETATM    4  C7  UNL     1     123.264  13.096  25.980  1.00  0.00     0.079 C 
HETATM    5  C13 UNL     1     121.975  13.750  25.537  1.00  0.00     0.026 C 
HETATM    6  C14 UNL     1     122.128  15.273  25.567  1.00  0.00     0.013 C 
ENDROOT
BRANCH   1   7
HETATM    7  C3  UNL     1     122.308  17.108  27.251  1.00  0.00     0.020 A 
HETATM    8  N1  UNL     1     122.830  17.946  26.401  1.00  0.00    -0.357 N 
HETATM    9  C2  UNL     1     122.732  19.236  26.601  1.00  0.00     0.047 A 
ATOM     10  H1  UNL     1     123.317  17.596  25.576  1.00  0.00     0.166 HD
HETATM   11  C1  UNL     1     123.253  20.385  25.762  1.00  0.00     0.076 C 
HETATM   12  S1  UNL     1     121.858  19.319  28.067  1.00  0.00    -0.087 SA
HETATM   13  C15 UNL     1     121.666  17.647  28.343  1.00  0.00     0.076 A 
ENDBRANCH   1   7
BRANCH   4  14
HETATM   14  N2  UNL     1     123.138  11.695  26.059  1.00  0.00    -0.408 N 
HETATM   15  C8  UNL     1     121.853  11.159  25.806  1.00  0.00     0.117 C 
HETATM   16  C9  UNL     1     121.848   9.653  25.704  1.00  0.00     0.019 C 
HETATM   17  C10 UNL     1     123.270   9.131  25.908  1.00  0.00     0.003 C 
HETATM   18  C11 UNL     1     123.699   9.642  27.277  1.00  0.00     0.019 C 
HETATM   19  C12 UNL     1     123.855  11.142  27.141  1.00  0.00     0.117 C 
ENDBRANCH   4  14
TORSDOF 2
ENDMDL
MODEL 2
REMARK VINA RESULT: -8.437915792      0.709      1.411
REMARK  2 active torsions:
REMARK  status: ('A' for Active; 'I' for Inactive)
REMARK    1  A    between atoms: C3_5  and  C4_6 
REMARK    2  A    between atoms: C7_9  and  N2_10 
ROOT
HETATM    1  C4  UNL     1     122.100  15.920  26.998  1.00  0.00     0.036 C 
HETATM    2  C5  UNL     1     123.487  15.338  26.975  1.00  0.00     0.013 C 
HETATM    3  C6  UNL     1     123.309  13.829  26.951  1.00  0.00     0.026 C 
HETATM    4  C7  UNL     1     122.486  13.361  25.803  1.00  0.00     0.079 C 
HETATM    5  C13 UNL     1     121.202  14.139  25.622  1.00  0.00     0.026 C 
HETATM    6  C14 UNL     1     121.501  15.640  25.618  1.00  0.00     0.013 C 
ENDROOT
BRANCH   1   7
HETATM    7  C3  UNL     1     122.182  17.422  27.229  1.00  0.00     0.020 A 
HETATM    8  N1  UNL     1     122.714  18.209  26.338  1.00  0.00    -0.357 N 
HETATM    9  C2  UNL     1     122.778  19.499  26.550  1.00  0.00     0.047 A 
ATOM     10  H1  UNL     1     123.083  17.818  25.470  1.00  0.00     0.166 HD
HETATM   11  C1  UNL     1     123.345  20.594  25.670  1.00  0.00     0.076 C 
HETATM   12  S1  UNL     1     122.056  19.659  28.090  1.00  0.00    -0.087 SA
HETATM   13  C15 UNL     1     121.705  18.014  28.377  1.00  0.00     0.076 A 
ENDBRANCH   1   7
BRANCH   4  14
HETATM   14  N2  UNL     1     122.246  11.976  25.908  1.00  0.00    -0.408 N 
HETATM   15  C8  UNL     1     123.371  11.154  26.150  1.00  0.00     0.117 C 
HETATM   16  C9  UNL     1     123.005   9.722  26.456  1.00  0.00     0.019 C 
HETATM   17  C10 UNL     1     121.485   9.572  26.414  1.00  0.00     0.003 C 
HETATM   18  C11 UNL     1     121.071  10.017  25.017  1.00  0.00     0.019 C 
HETATM   19  C12 UNL     1     121.312  11.511  24.957  1.00  0.00     0.117 C 
ENDBRANCH   4  14
TORSDOF 2
ENDMDL
MODEL 3
REMARK VINA RESULT: -8.269164645      1.541      2.085
REMARK  2 active torsions:
REMARK  status: ('A' for Active; 'I' for Inactive)
REMARK    1  A    between atoms: C3_5  and  C4_6 
REMARK    2  A    between atoms: C7_9  and  N2_10 
ROOT
HETATM    1  C4  UNL     1     122.153  16.773  27.665  1.00  0.00     0.036 C 
HETATM    2  C5  UNL     1     123.601  16.374  27.735  1.00  0.00     0.013 C 
HETATM    3  C6  UNL     1     123.631  14.866  27.551  1.00  0.00     0.026 C 
HETATM    4  C7  UNL     1     122.988  14.424  26.283  1.00  0.00     0.079 C 
HETATM    5  C13 UNL     1     121.633  15.051  26.041  1.00  0.00     0.026 C 
HETATM    6  C14 UNL     1     121.727  16.569  26.210  1.00  0.00     0.013 C 
ENDROOT
BRANCH   1   7
HETATM    7  C3  UNL     1     122.010  18.240  28.044  1.00  0.00     0.020 A 
HETATM    8  N1  UNL     1     121.108  18.992  27.481  1.00  0.00    -0.357 N 
HETATM    9  C2  UNL     1     120.996  20.253  27.815  1.00  0.00     0.047 A 
ATOM     10  H1  UNL     1     120.486  18.597  26.775  1.00  0.00     0.166 HD
HETATM   11  C1  UNL     1     120.035  21.306  27.303  1.00  0.00     0.076 C 
HETATM   12  S1  UNL     1     122.219  20.434  28.995  1.00  0.00    -0.087 SA
HETATM   13  C15 UNL     1     122.817  18.836  28.987  1.00  0.00     0.076 A 
ENDBRANCH   1   7
BRANCH   4  14
HETATM   14  N2  UNL     1     122.928  13.017  26.232  1.00  0.00    -0.408 N 
HETATM   15  C8  UNL     1     123.892  12.313  26.991  1.00  0.00     0.117 C 
HETATM   16  C9  UNL     1     123.632  10.827  27.050  1.00  0.00     0.019 C 
HETATM   17  C10 UNL     1     122.369  10.506  26.251  1.00  0.00     0.003 C 
HETATM   18  C11 UNL     1     122.637  11.018  24.842  1.00  0.00     0.019 C 
HETATM   19  C12 UNL     1     122.661  12.529  24.934  1.00  0.00     0.117 C 
ENDBRANCH   4  14
TORSDOF 2
ENDMDL
MODEL 4
REMARK VINA RESULT: -8.262065245      1.518      1.706
REMARK  2 active torsions:
REMARK  status: ('A' for Active; 'I' for Inactive)
REMARK    1  A    between atoms: C3_5  and  C4_6 
REMARK    2  A    between atoms: C7_9  and  N2_10 
ROOT
HETATM    1  C4  UNL     1     122.111  16.719  27.543  1.00  0.00     0.036 C 
HETATM    2  C5  UNL     1     123.543  16.271  27.648  1.00  0.00     0.013 C 
HETATM    3  C6  UNL     1     123.535  14.774  27.390  1.00  0.00     0.026 C 
HETATM    4  C7  UNL     1     122.930  14.416  26.078  1.00  0.00     0.079 C 
HETATM    5  C13 UNL     1     121.606  15.097  25.816  1.00  0.00     0.026 C 
HETATM    6  C14 UNL     1     121.738  16.601  26.064  1.00  0.00     0.013 C 
ENDROOT
BRANCH   1   7
HETATM    7  C3  UNL     1     121.998  18.170  27.990  1.00  0.00     0.020 A 
HETATM    8  N1  UNL     1     121.113  18.966  27.460  1.00  0.00    -0.357 N 
HETATM    9  C2  UNL     1     121.027  20.212  27.853  1.00  0.00     0.047 A 
ATOM     10  H1  UNL     1     120.485  18.618  26.736  1.00  0.00     0.166 HD
HETATM   11  C1  UNL     1     120.090  21.307  27.388  1.00  0.00     0.076 C 
HETATM   12  S1  UNL     1     122.250  20.312  29.042  1.00  0.00    -0.087 SA
HETATM   13  C15 UNL     1     122.815  18.704  28.961  1.00  0.00     0.076 A 
ENDBRANCH   1   7
BRANCH   4  14
HETATM   14  N2  UNL     1     122.829  13.015  25.953  1.00  0.00    -0.408 N 
HETATM   15  C8  UNL     1     121.546  12.495  25.664  1.00  0.00     0.117 C 
HETATM   16  C9  UNL     1     121.562  11.021  25.341  1.00  0.00     0.019 C 
HETATM   17  C10 UNL     1     122.998  10.504  25.423  1.00  0.00     0.003 C 
HETATM   18  C11 UNL     1     123.464  10.819  26.838  1.00  0.00     0.019 C 
HETATM   19  C12 UNL     1     123.591  12.325  26.921  1.00  0.00     0.117 C 
ENDBRANCH   4  14
TORSDOF 2
ENDMDL
MODEL 5
REMARK VINA RESULT: -8.216667278      3.379      7.607
REMARK  2 active torsions:
REMARK  status: ('A' for Active; 'I' for Inactive)
REMARK    1  A    between atoms: C3_5  and  C4_6 
REMARK    2  A    between atoms: C7_9  and  N2_10 
ROOT
HETATM    1  C4  UNL     1     121.928  10.880  26.167  1.00  0.00     0.036 C 
HETATM    2  C5  UNL     1     121.072  11.658  25.205  1.00  0.00     0.013 C 
HETATM    3  C6  UNL     1     121.086  13.095  25.698  1.00  0.00     0.026 C 
HETATM    4  C7  UNL     1     122.459  13.658  25.807  1.00  0.00     0.079 C 
HETATM    5  C13 UNL     1     123.431  12.748  26.525  1.00  0.00     0.026 C 
HETATM    6  C14 UNL     1     123.366  11.342  25.923  1.00  0.00     0.013 C 
ENDROOT
BRANCH   1   7
HETATM    7  C3  UNL     1     121.807   9.393  25.870  1.00  0.00     0.020 A 
HETATM    8  N1  UNL     1     122.837   8.602  25.977  1.00  0.00    -0.357 N 
HETATM    9  C2  UNL     1     122.718   7.324  25.718  1.00  0.00     0.047 A 
ATOM     10  H1  UNL     1     123.739   8.980  26.265  1.00  0.00     0.166 HD
HETATM   11  C1  UNL     1     123.762   6.228  25.774  1.00  0.00     0.076 C 
HETATM   12  S1  UNL     1     121.070   7.183  25.291  1.00  0.00    -0.087 SA
HETATM   13  C15 UNL     1     120.619   8.818  25.476  1.00  0.00     0.076 A 
ENDBRANCH   1   7
BRANCH   4  14
HETATM   14  N2  UNL     1     122.416  14.939  26.392  1.00  0.00    -0.408 N 
HETATM   15  C8  UNL     1     122.046  16.010  25.545  1.00  0.00     0.117 C 
HETATM   16  C9  UNL     1     121.821  17.305  26.288  1.00  0.00     0.019 C 
HETATM   17  C10 UNL     1     122.065  17.076  27.779  1.00  0.00     0.003 C 
HETATM   18  C11 UNL     1     123.494  16.559  27.884  1.00  0.00     0.019 C 
HETATM   19  C12 UNL     1     123.490  15.171  27.277  1.00  0.00     0.117 C 
ENDBRANCH   4  14
TORSDOF 2
ENDMDL
