MODEL 1
REMARK VINA RESULT: -8.517095231      0.000      0.000
REMARK  2 active torsions:
REMARK  status: ('A' for Active; 'I' for Inactive)
REMARK    1  A    between atoms: N1_2  and  C2_3 
REMARK    2  A    between atoms: N1_2  and  C11_13 
ROOT
HETATM    1  C2  UNL     1     122.998  15.764  27.510  1.00  0.00     0.246 C 
HETATM    2  C3  UNL     1     124.053  14.764  27.839  1.00  0.00     0.010 C 
HETATM    3  C4  UNL     1     124.253  13.510  27.456  1.00  0.00     0.017 C 
HETATM    4  C5  UNL     1     123.387  12.757  26.530  1.00  0.00     0.011 A 
HETATM    5  S1  UNL     1     123.279  11.045  26.415  1.00  0.00    -0.102 SA
HETATM    6  C6  UNL     1     122.119  10.916  25.170  1.00  0.00     0.051 A 
HETATM    7  C7  UNL     1     121.850  12.227  24.882  1.00  0.00     0.015 A 
HETATM    8  C8  UNL     1     122.496  13.170  25.574  1.00  0.00    -0.041 A 
HETATM    9  C9  UNL     1     122.271  14.661  25.335  1.00  0.00     0.042 C 
HETATM   10  C10 UNL     1     121.913  15.267  26.639  1.00  0.00     0.044 C 
ENDROOT
BRANCH   1  11
HETATM   11  N1  UNL     1     123.615  16.980  27.141  1.00  0.00     0.097 N 
HETATM   12  C1  UNL     1     124.766  17.213  27.983  1.00  0.00     0.311 C 
BRANCH  11  13
HETATM   13  C11 UNL     1     122.773  18.124  27.046  1.00  0.00     0.223 C 
HETATM   14  C12 UNL     1     122.142  18.557  28.332  1.00  0.00     0.036 C 
HETATM   15  C13 UNL     1     121.032  19.542  27.970  1.00  0.00     0.002 C 
HETATM   16  C14 UNL     1     121.678  20.749  27.319  1.00  0.00     0.000 C 
HETATM   17  C15 UNL     1     122.584  20.399  26.187  1.00  0.00     0.002 C 
HETATM   18  C16 UNL     1     123.582  19.298  26.544  1.00  0.00     0.036 C 
ENDBRANCH  11  13
ENDBRANCH   1  11
TORSDOF 2
ENDMDL
MODEL 2
REMARK VINA RESULT: -7.944067243      0.998      1.397
REMARK  2 active torsions:
REMARK  status: ('A' for Active; 'I' for Inactive)
REMARK    1  A    between atoms: N1_2  and  C2_3 
REMARK    2  A    between atoms: N1_2  and  C11_13 
ROOT
HETATM    1  C2  UNL     1     122.904  16.603  27.636  1.00  0.00     0.246 C 
HETATM    2  C3  UNL     1     124.015  15.672  27.981  1.00  0.00     0.010 C 
HETATM    3  C4  UNL     1     124.275  14.417  27.641  1.00  0.00     0.017 C 
HETATM    4  C5  UNL     1     123.435  13.586  26.758  1.00  0.00     0.011 A 
HETATM    5  S1  UNL     1     123.415  11.867  26.707  1.00  0.00    -0.102 SA
HETATM    6  C6  UNL     1     122.243  11.633  25.489  1.00  0.00     0.051 A 
HETATM    7  C7  UNL     1     121.900  12.916  25.158  1.00  0.00     0.015 A 
HETATM    8  C8  UNL     1     122.507  13.917  25.805  1.00  0.00    -0.041 A 
HETATM    9  C9  UNL     1     122.200  15.384  25.516  1.00  0.00     0.042 C 
HETATM   10  C10 UNL     1     121.832  16.019  26.803  1.00  0.00     0.044 C 
ENDROOT
BRANCH   1  11
HETATM   11  N1  UNL     1     123.451  17.834  27.212  1.00  0.00     0.097 N 
HETATM   12  C1  UNL     1     124.851  17.888  27.563  1.00  0.00     0.311 C 
BRANCH  11  13
HETATM   13  C11 UNL     1     122.750  19.013  27.597  1.00  0.00     0.223 C 
HETATM   14  C12 UNL     1     121.381  19.160  27.010  1.00  0.00     0.036 C 
HETATM   15  C13 UNL     1     120.953  20.607  27.246  1.00  0.00     0.002 C 
HETATM   16  C14 UNL     1     120.862  20.825  28.742  1.00  0.00     0.000 C 
HETATM   17  C15 UNL     1     122.095  20.421  29.478  1.00  0.00     0.002 C 
HETATM   18  C16 UNL     1     122.580  19.023  29.099  1.00  0.00     0.036 C 
ENDBRANCH  11  13
ENDBRANCH   1  11
TORSDOF 2
ENDMDL
MODEL 3
REMARK VINA RESULT: -7.366979071      1.844      3.711
REMARK  2 active torsions:
REMARK  status: ('A' for Active; 'I' for Inactive)
REMARK    1  A    between atoms: N1_2  and  C2_3 
REMARK    2  A    between atoms: N1_2  and  C11_13 
ROOT
HETATM    1  C2  UNL     1     122.441  13.224  25.631  1.00  0.00     0.246 C 
HETATM    2  C3  UNL     1     121.368  12.262  25.249  1.00  0.00     0.010 C 
HETATM    3  C4  UNL     1     121.269  10.943  25.340  1.00  0.00     0.017 C 
HETATM    4  C5  UNL     1     122.305  10.050  25.894  1.00  0.00     0.011 A 
HETATM    5  S1  UNL     1     122.472   8.371  25.564  1.00  0.00    -0.102 SA
HETATM    6  C6  UNL     1     123.839   8.029  26.526  1.00  0.00     0.051 A 
HETATM    7  C7  UNL     1     124.125   9.248  27.078  1.00  0.00     0.015 A 
HETATM    8  C8  UNL     1     123.343  10.284  26.757  1.00  0.00    -0.041 A 
HETATM    9  C9  UNL     1     123.572  11.687  27.313  1.00  0.00     0.042 C 
HETATM   10  C10 UNL     1     123.676  12.608  26.157  1.00  0.00     0.044 C 
ENDROOT
BRANCH   1  11
HETATM   11  N1  UNL     1     121.871  14.273  26.386  1.00  0.00     0.097 N 
HETATM   12  C1  UNL     1     120.526  14.526  25.923  1.00  0.00     0.311 C 
BRANCH  11  13
HETATM   13  C11 UNL     1     122.637  15.467  26.502  1.00  0.00     0.223 C 
HETATM   14  C12 UNL     1     121.840  16.735  26.514  1.00  0.00     0.036 C 
HETATM   15  C13 UNL     1     122.828  17.879  26.290  1.00  0.00     0.002 C 
HETATM   16  C14 UNL     1     123.786  17.900  27.463  1.00  0.00     0.000 C 
HETATM   17  C15 UNL     1     124.426  16.580  27.732  1.00  0.00     0.002 C 
HETATM   18  C16 UNL     1     123.417  15.434  27.797  1.00  0.00     0.036 C 
ENDBRANCH  11  13
ENDBRANCH   1  11
TORSDOF 2
ENDMDL
MODEL 4
REMARK VINA RESULT: -7.307206497      3.100      5.475
REMARK  2 active torsions:
REMARK  status: ('A' for Active; 'I' for Inactive)
REMARK    1  A    between atoms: N1_2  and  C2_3 
REMARK    2  A    between atoms: N1_2  and  C11_13 
ROOT
HETATM    1  C2  UNL     1     122.166  10.889  26.171  1.00  0.00     0.246 C 
HETATM    2  C3  UNL     1     123.459  10.161  26.306  1.00  0.00     0.010 C 
HETATM    3  C4  UNL     1     123.763   8.872  26.362  1.00  0.00     0.017 C 
HETATM    4  C5  UNL     1     122.789   7.766  26.299  1.00  0.00     0.011 A 
HETATM    5  S1  UNL     1     123.034   6.168  26.883  1.00  0.00    -0.102 SA
HETATM    6  C6  UNL     1     121.527   5.481  26.473  1.00  0.00     0.051 A 
HETATM    7  C7  UNL     1     120.873   6.532  25.889  1.00  0.00     0.015 A 
HETATM    8  C8  UNL     1     121.514   7.701  25.798  1.00  0.00    -0.041 A 
HETATM    9  C9  UNL     1     120.879   8.937  25.167  1.00  0.00     0.042 C 
HETATM   10  C10 UNL     1     120.962  10.033  26.161  1.00  0.00     0.044 C 
ENDROOT
BRANCH   1  11
HETATM   11  N1  UNL     1     122.283  11.848  25.140  1.00  0.00     0.097 N 
HETATM   12  C1  UNL     1     123.282  11.417  24.190  1.00  0.00     0.311 C 
BRANCH  11  13
HETATM   13  C11 UNL     1     122.466  13.202  25.542  1.00  0.00     0.223 C 
HETATM   14  C12 UNL     1     121.207  13.951  25.848  1.00  0.00     0.036 C 
HETATM   15  C13 UNL     1     121.577  15.431  25.907  1.00  0.00     0.002 C 
HETATM   16  C14 UNL     1     122.543  15.622  27.059  1.00  0.00     0.000 C 
HETATM   17  C15 UNL     1     123.713  14.697  27.012  1.00  0.00     0.002 C 
HETATM   18  C16 UNL     1     123.308  13.239  26.797  1.00  0.00     0.036 C 
ENDBRANCH  11  13
ENDBRANCH   1  11
TORSDOF 2
ENDMDL
MODEL 5
REMARK VINA RESULT: -7.228983314      3.221      5.768
REMARK  2 active torsions:
REMARK  status: ('A' for Active; 'I' for Inactive)
REMARK    1  A    between atoms: N1_2  and  C2_3 
REMARK    2  A    between atoms: N1_2  and  C11_13 
ROOT
HETATM    1  C2  UNL     1     122.175  10.402  26.459  1.00  0.00     0.246 C 
HETATM    2  C3  UNL     1     123.490   9.702  26.390  1.00  0.00     0.010 C 
HETATM    3  C4  UNL     1     123.823   8.433  26.197  1.00  0.00     0.017 C 
HETATM    4  C5  UNL     1     122.870   7.327  25.991  1.00  0.00     0.011 A 
HETATM    5  S1  UNL     1     123.184   5.659  26.265  1.00  0.00    -0.102 SA
HETATM    6  C6  UNL     1     121.669   5.008  25.822  1.00  0.00     0.051 A 
HETATM    7  C7  UNL     1     120.959   6.125  25.473  1.00  0.00     0.015 A 
HETATM    8  C8  UNL     1     121.569   7.312  25.558  1.00  0.00    -0.041 A 
HETATM    9  C9  UNL     1     120.871   8.620  25.194  1.00  0.00     0.042 C 
HETATM   10  C10 UNL     1     120.992   9.523  26.363  1.00  0.00     0.044 C 
ENDROOT
BRANCH   1  11
HETATM   11  N1  UNL     1     122.210  11.531  25.612  1.00  0.00     0.097 N 
HETATM   12  C1  UNL     1     123.190  11.324  24.571  1.00  0.00     0.311 C 
BRANCH  11  13
HETATM   13  C11 UNL     1     122.350  12.801  26.242  1.00  0.00     0.223 C 
HETATM   14  C12 UNL     1     123.761  13.233  26.496  1.00  0.00     0.036 C 
HETATM   15  C13 UNL     1     123.695  14.409  27.467  1.00  0.00     0.002 C 
HETATM   16  C14 UNL     1     122.960  15.540  26.777  1.00  0.00     0.000 C 
HETATM   17  C15 UNL     1     121.641  15.134  26.211  1.00  0.00     0.002 C 
HETATM   18  C16 UNL     1     121.723  13.863  25.368  1.00  0.00     0.036 C 
ENDBRANCH  11  13
ENDBRANCH   1  11
TORSDOF 2
ENDMDL
