MODEL 1
REMARK VINA RESULT: -7.285321158      0.000      0.000
REMARK  1 active torsions:
REMARK  status: ('A' for Active; 'I' for Inactive)
REMARK    1  A    between atoms: C2_5  and  C3_6 
ROOT
HETATM    1  O1  UNL     1      24.301  26.293  18.045  1.00  0.00    -0.265 OA
HETATM    2  C1  UNL     1      23.729  25.168  17.894  1.00  0.00     0.278 A 
HETATM    3  N1  UNL     1      24.133  24.159  18.650  1.00  0.00    -0.306 N 
ATOM      4  H1  UNL     1      24.883  24.311  19.324  1.00  0.00     0.170 HD
HETATM    5  C2  UNL     1      23.585  22.957  18.552  1.00  0.00     0.135 A 
HETATM    6  N2  UNL     1      22.588  22.801  17.641  1.00  0.00    -0.262 N 
ATOM      7  H2  UNL     1      22.150  21.885  17.549  1.00  0.00     0.191 HD
HETATM    8  N3  UNL     1      22.152  23.812  16.852  1.00  0.00    -0.183 N 
HETATM    9  N4  UNL     1      21.184  23.654  15.968  1.00  0.00    -0.248 N 
ATOM     10  H4  UNL     1      20.659  22.803  15.765  1.00  0.00     0.197 HD
HETATM   11  S1  UNL     1      21.011  25.161  15.255  1.00  0.00    -0.006 SA
HETATM   12  C13 UNL     1      22.221  25.979  16.136  1.00  0.00     0.108 A 
HETATM   13  C14 UNL     1      22.696  24.989  16.956  1.00  0.00     0.151 A 
ENDROOT
BRANCH   5  14
HETATM   14  C3  UNL     1      24.104  21.829  19.317  1.00  0.00     0.021 A 
HETATM   15  C4  UNL     1      24.868  20.899  18.608  1.00  0.00     0.016 A 
HETATM   16  C5  UNL     1      25.377  19.788  19.217  1.00  0.00     0.002 A 
HETATM   17  C6  UNL     1      25.169  19.530  20.535  1.00  0.00     0.012 A 
HETATM   18  C7  UNL     1      24.411  20.450  21.233  1.00  0.00    -0.025 A 
HETATM   19  C8  UNL     1      24.168  20.208  22.564  1.00  0.00     0.012 A 
HETATM   20  C12 UNL     1      23.873  21.602  20.637  1.00  0.00    -0.012 A 
HETATM   21  C9  UNL     1      23.408  21.066  23.326  1.00  0.00     0.001 A 
HETATM   22  C10 UNL     1      22.890  22.184  22.721  1.00  0.00     0.001 A 
HETATM   23  C11 UNL     1      23.116  22.455  21.388  1.00  0.00     0.013 A 
ENDBRANCH   5  14
TORSDOF 1
ENDMDL
MODEL 2
REMARK VINA RESULT: -7.133063283      0.646      2.370
REMARK  1 active torsions:
REMARK  status: ('A' for Active; 'I' for Inactive)
REMARK    1  A    between atoms: C2_5  and  C3_6 
ROOT
HETATM    1  O1  UNL     1      23.940  26.406  18.236  1.00  0.00    -0.265 OA
HETATM    2  C1  UNL     1      23.351  25.281  18.256  1.00  0.00     0.278 A 
HETATM    3  N1  UNL     1      23.553  24.492  19.299  1.00  0.00    -0.306 N 
ATOM      4  H1  UNL     1      24.169  24.806  20.050  1.00  0.00     0.170 HD
HETATM    5  C2  UNL     1      22.975  23.304  19.393  1.00  0.00     0.135 A 
HETATM    6  N2  UNL     1      22.161  22.926  18.372  1.00  0.00    -0.262 N 
ATOM      7  H2  UNL     1      21.703  22.017  18.422  1.00  0.00     0.191 HD
HETATM    8  N3  UNL     1      21.933  23.709  17.289  1.00  0.00    -0.183 N 
HETATM    9  N4  UNL     1      21.144  23.336  16.299  1.00  0.00    -0.248 N 
ATOM     10  H4  UNL     1      20.624  22.463  16.211  1.00  0.00     0.197 HD
HETATM   11  S1  UNL     1      21.184  24.618  15.219  1.00  0.00    -0.006 SA
HETATM   12  C13 UNL     1      22.245  25.629  16.092  1.00  0.00     0.108 A 
HETATM   13  C14 UNL     1      22.506  24.874  17.206  1.00  0.00     0.151 A 
ENDROOT
BRANCH   5  14
HETATM   14  C3  UNL     1      23.282  22.402  20.497  1.00  0.00     0.021 A 
HETATM   15  C4  UNL     1      22.803  22.777  21.754  1.00  0.00     0.016 A 
HETATM   16  C5  UNL     1      23.059  22.024  22.864  1.00  0.00     0.002 A 
HETATM   17  C6  UNL     1      23.787  20.878  22.805  1.00  0.00     0.012 A 
HETATM   18  C7  UNL     1      24.260  20.510  21.560  1.00  0.00    -0.025 A 
HETATM   19  C8  UNL     1      25.015  19.365  21.470  1.00  0.00     0.012 A 
HETATM   20  C12 UNL     1      24.016  21.262  20.400  1.00  0.00    -0.012 A 
HETATM   21  C9  UNL     1      25.539  18.939  20.271  1.00  0.00     0.001 A 
HETATM   22  C10 UNL     1      25.289  19.692  19.151  1.00  0.00     0.001 A 
HETATM   23  C11 UNL     1      24.536  20.845  19.209  1.00  0.00     0.013 A 
ENDBRANCH   5  14
TORSDOF 1
ENDMDL
MODEL 3
REMARK VINA RESULT: -6.653615383      3.834      5.568
REMARK  1 active torsions:
REMARK  status: ('A' for Active; 'I' for Inactive)
REMARK    1  A    between atoms: C2_5  and  C3_6 
ROOT
HETATM    1  O1  UNL     1      19.082  23.822  21.200  1.00  0.00    -0.265 OA
HETATM    2  C1  UNL     1      20.253  23.572  21.626  1.00  0.00     0.278 A 
HETATM    3  N1  UNL     1      21.167  23.193  20.747  1.00  0.00    -0.306 N 
ATOM      4  H1  UNL     1      20.910  23.113  19.763  1.00  0.00     0.170 HD
HETATM    5  C2  UNL     1      22.409  22.915  21.115  1.00  0.00     0.135 A 
HETATM    6  N2  UNL     1      22.708  23.036  22.435  1.00  0.00    -0.262 N 
ATOM      7  H2  UNL     1      23.658  22.829  22.742  1.00  0.00     0.191 HD
HETATM    8  N3  UNL     1      21.796  23.420  23.361  1.00  0.00    -0.183 N 
HETATM    9  N4  UNL     1      22.092  23.535  24.642  1.00  0.00    -0.248 N 
ATOM     10  H4  UNL     1      22.991  23.362  25.092  1.00  0.00     0.197 HD
HETATM   11  S1  UNL     1      20.662  24.028  25.365  1.00  0.00    -0.006 SA
HETATM   12  C13 UNL     1      19.693  24.076  23.963  1.00  0.00     0.108 A 
HETATM   13  C14 UNL     1      20.579  23.692  22.990  1.00  0.00     0.151 A 
ENDROOT
BRANCH   5  14
HETATM   14  C3  UNL     1      23.381  22.403  20.156  1.00  0.00     0.021 A 
HETATM   15  C4  UNL     1      23.765  21.070  20.316  1.00  0.00     0.016 A 
HETATM   16  C5  UNL     1      24.692  20.495  19.495  1.00  0.00     0.002 A 
HETATM   17  C6  UNL     1      25.287  21.185  18.486  1.00  0.00     0.012 A 
HETATM   18  C7  UNL     1      24.906  22.504  18.331  1.00  0.00    -0.025 A 
HETATM   19  C8  UNL     1      25.502  23.234  17.331  1.00  0.00     0.012 A 
HETATM   20  C12 UNL     1      23.957  23.125  19.158  1.00  0.00    -0.012 A 
HETATM   21  C9  UNL     1      25.193  24.558  17.121  1.00  0.00     0.001 A 
HETATM   22  C10 UNL     1      24.264  25.144  17.944  1.00  0.00     0.001 A 
HETATM   23  C11 UNL     1      23.648  24.439  18.956  1.00  0.00     0.013 A 
ENDBRANCH   5  14
TORSDOF 1
ENDMDL
MODEL 4
REMARK VINA RESULT: -6.274111073      3.344      6.248
REMARK  1 active torsions:
REMARK  status: ('A' for Active; 'I' for Inactive)
REMARK    1  A    between atoms: C2_5  and  C3_6 
ROOT
HETATM    1  O1  UNL     1      25.338  19.600  19.371  1.00  0.00    -0.265 OA
HETATM    2  C1  UNL     1      24.250  20.255  19.393  1.00  0.00     0.278 A 
HETATM    3  N1  UNL     1      24.217  21.427  18.778  1.00  0.00    -0.306 N 
ATOM      4  H1  UNL     1      25.056  21.767  18.308  1.00  0.00     0.170 HD
HETATM    5  C2  UNL     1      23.119  22.168  18.758  1.00  0.00     0.135 A 
HETATM    6  N2  UNL     1      22.024  21.676  19.395  1.00  0.00    -0.262 N 
ATOM      7  H2  UNL     1      21.167  22.229  19.391  1.00  0.00     0.191 HD
HETATM    8  N3  UNL     1      22.024  20.482  20.034  1.00  0.00    -0.183 N 
HETATM    9  N4  UNL     1      20.958  20.009  20.653  1.00  0.00    -0.248 N 
ATOM     10  H4  UNL     1      20.040  20.446  20.733  1.00  0.00     0.197 HD
HETATM   11  S1  UNL     1      21.449  18.532  21.275  1.00  0.00    -0.006 SA
HETATM   12  C13 UNL     1      23.058  18.560  20.709  1.00  0.00     0.108 A 
HETATM   13  C14 UNL     1      23.107  19.760  20.049  1.00  0.00     0.151 A 
ENDROOT
BRANCH   5  14
HETATM   14  C3  UNL     1      23.122  23.500  18.164  1.00  0.00     0.021 A 
HETATM   15  C4  UNL     1      23.958  24.444  18.764  1.00  0.00     0.016 A 
HETATM   16  C5  UNL     1      24.017  25.731  18.311  1.00  0.00     0.002 A 
HETATM   17  C6  UNL     1      23.270  26.158  17.259  1.00  0.00     0.012 A 
HETATM   18  C7  UNL     1      22.442  25.223  16.668  1.00  0.00    -0.025 A 
HETATM   19  C8  UNL     1      21.661  25.629  15.613  1.00  0.00     0.012 A 
HETATM   20  C12 UNL     1      22.358  23.893  17.110  1.00  0.00    -0.012 A 
HETATM   21  C9  UNL     1      20.797  24.765  14.981  1.00  0.00     0.001 A 
HETATM   22  C10 UNL     1      20.730  23.470  15.432  1.00  0.00     0.001 A 
HETATM   23  C11 UNL     1      21.501  23.032  16.488  1.00  0.00     0.013 A 
ENDBRANCH   5  14
TORSDOF 1
ENDMDL
MODEL 5
REMARK VINA RESULT: -6.245190719      3.691      5.669
REMARK  1 active torsions:
REMARK  status: ('A' for Active; 'I' for Inactive)
REMARK    1  A    between atoms: C2_5  and  C3_6 
ROOT
HETATM    1  O1  UNL     1      19.550  21.242  19.388  1.00  0.00    -0.265 OA
HETATM    2  C1  UNL     1      20.783  20.972  19.530  1.00  0.00     0.278 A 
HETATM    3  N1  UNL     1      21.665  21.773  18.953  1.00  0.00    -0.306 N 
ATOM      4  H1  UNL     1      21.334  22.575  18.417  1.00  0.00     0.170 HD
HETATM    5  C2  UNL     1      22.968  21.557  19.055  1.00  0.00     0.135 A 
HETATM    6  N2  UNL     1      23.365  20.478  19.779  1.00  0.00    -0.262 N 
ATOM      7  H2  UNL     1      24.363  20.292  19.873  1.00  0.00     0.191 HD
HETATM    8  N3  UNL     1      22.489  19.637  20.381  1.00  0.00    -0.183 N 
HETATM    9  N4  UNL     1      22.880  18.589  21.082  1.00  0.00    -0.248 N 
ATOM     10  H4  UNL     1      23.835  18.280  21.260  1.00  0.00     0.197 HD
HETATM   11  S1  UNL     1      21.456  17.880  21.613  1.00  0.00    -0.006 SA
HETATM   12  C13 UNL     1      20.364  18.979  20.901  1.00  0.00     0.108 A 
HETATM   13  C14 UNL     1      21.211  19.858  20.275  1.00  0.00     0.151 A 
ENDROOT
BRANCH   5  14
HETATM   14  C3  UNL     1      23.926  22.387  18.334  1.00  0.00     0.021 A 
HETATM   15  C4  UNL     1      25.032  21.727  17.793  1.00  0.00     0.016 A 
HETATM   16  C5  UNL     1      26.009  22.409  17.125  1.00  0.00     0.002 A 
HETATM   17  C6  UNL     1      25.957  23.756  16.953  1.00  0.00     0.012 A 
HETATM   18  C7  UNL     1      24.863  24.407  17.491  1.00  0.00    -0.025 A 
HETATM   19  C8  UNL     1      24.791  25.772  17.349  1.00  0.00     0.012 A 
HETATM   20  C12 UNL     1      23.843  23.736  18.183  1.00  0.00    -0.012 A 
HETATM   21  C9  UNL     1      23.744  26.497  17.872  1.00  0.00     0.001 A 
HETATM   22  C10 UNL     1      22.760  25.819  18.546  1.00  0.00     0.001 A 
HETATM   23  C11 UNL     1      22.803  24.450  18.705  1.00  0.00     0.013 A 
ENDBRANCH   5  14
TORSDOF 1
ENDMDL
