MODEL 1
REMARK VINA RESULT: -5.616037467      0.000      0.000
REMARK  2 active torsions:
REMARK  status: ('A' for Active; 'I' for Inactive)
REMARK    1  A    between atoms: N2_12  and  C9_14 
REMARK    2  A    between atoms: N3_22  and  O2_23 
ROOT
HETATM    1  C9  UNL     1      21.436  23.285  22.017  1.00  0.00     0.123 A 
HETATM    2  C10 UNL     1      21.612  24.197  20.994  1.00  0.00     0.063 A 
HETATM    3  C11 UNL     1      22.628  24.079  20.064  1.00  0.00    -0.002 A 
HETATM    4  C12 UNL     1      22.820  24.977  19.038  1.00  0.00     0.014 A 
HETATM    5  C13 UNL     1      23.848  24.813  18.137  1.00  0.00     0.001 A 
HETATM    6  C14 UNL     1      24.701  23.729  18.266  1.00  0.00     0.002 A 
HETATM    7  C15 UNL     1      24.527  22.816  19.288  1.00  0.00     0.035 A 
HETATM    8  C16 UNL     1      23.489  22.998  20.180  1.00  0.00     0.091 A 
HETATM    9  N3  UNL     1      23.300  22.123  21.183  1.00  0.00    -0.161 N 
HETATM   10  N4  UNL     1      22.308  22.262  22.068  1.00  0.00    -0.259 N 
ATOM     11  H4  UNL     1      22.210  21.568  22.810  1.00  0.00     0.191 HD
ENDROOT
BRANCH   1  12
HETATM   12  N2  UNL     1      20.393  23.399  22.979  1.00  0.00    -0.336 N 
HETATM   13  C8  UNL     1      20.598  23.936  24.132  1.00  0.00     0.115 A 
HETATM   14  C1  UNL     1      21.827  24.495  24.658  1.00  0.00     0.273 A 
HETATM   15  C7  UNL     1      19.578  24.085  25.162  1.00  0.00     0.023 A 
HETATM   16  O1  UNL     1      22.945  24.558  24.071  1.00  0.00    -0.266 OA
HETATM   17  N1  UNL     1      21.508  24.956  25.976  1.00  0.00    -0.321 N 
HETATM   18  C2  UNL     1      20.141  24.700  26.267  1.00  0.00     0.047 A 
ATOM     19  H1  UNL     1      22.167  25.404  26.613  1.00  0.00     0.169 HD
HETATM   20  C3  UNL     1      19.397  24.969  27.402  1.00  0.00     0.030 A 
HETATM   21  C4  UNL     1      18.069  24.600  27.394  1.00  0.00     0.002 A 
HETATM   22  C5  UNL     1      17.492  23.990  26.313  1.00  0.00     0.001 A 
HETATM   23  C6  UNL     1      18.247  23.725  25.179  1.00  0.00     0.016 A 
ATOM     24  H2  UNL     1      19.463  23.049  22.751  1.00  0.00     0.168 HD
ENDBRANCH   1  12
BRANCH   9  25
HETATM   25  O2  UNL     1      24.182  21.061  21.260  1.00  0.00    -0.267 OA
ATOM     26  H2  UNL     1      23.807  20.188  21.227  1.00  0.00     0.247 HD
ENDBRANCH   9  25
TORSDOF 2
ENDMDL
MODEL 2
REMARK VINA RESULT: -5.346250841      2.358      7.340
REMARK  2 active torsions:
REMARK  status: ('A' for Active; 'I' for Inactive)
REMARK    1  A    between atoms: N2_12  and  C9_14 
REMARK    2  A    between atoms: N3_22  and  O2_23 
ROOT
HETATM    1  C9  UNL     1      21.680  24.289  24.217  1.00  0.00     0.123 A 
HETATM    2  C10 UNL     1      21.117  23.623  25.288  1.00  0.00     0.063 A 
HETATM    3  C11 UNL     1      20.445  24.284  26.300  1.00  0.00    -0.002 A 
HETATM    4  C12 UNL     1      19.877  23.637  27.375  1.00  0.00     0.014 A 
HETATM    5  C13 UNL     1      19.219  24.343  28.357  1.00  0.00     0.001 A 
HETATM    6  C14 UNL     1      19.128  25.722  28.262  1.00  0.00     0.002 A 
HETATM    7  C15 UNL     1      19.691  26.390  27.192  1.00  0.00     0.035 A 
HETATM    8  C16 UNL     1      20.346  25.664  26.217  1.00  0.00     0.091 A 
HETATM    9  N3  UNL     1      20.902  26.292  25.167  1.00  0.00    -0.161 N 
HETATM   10  N4  UNL     1      21.545  25.628  24.202  1.00  0.00    -0.259 N 
ATOM     11  H4  UNL     1      21.948  26.155  23.427  1.00  0.00     0.191 HD
ENDROOT
BRANCH   1  12
HETATM   12  N2  UNL     1      22.373  23.617  23.170  1.00  0.00    -0.336 N 
HETATM   13  C8  UNL     1      21.781  23.291  22.074  1.00  0.00     0.115 A 
HETATM   14  C1  UNL     1      20.400  23.516  21.695  1.00  0.00     0.273 A 
HETATM   15  C7  UNL     1      22.428  22.603  20.964  1.00  0.00     0.023 A 
HETATM   16  O1  UNL     1      19.507  24.085  22.386  1.00  0.00    -0.266 OA
HETATM   17  N1  UNL     1      20.264  22.961  20.382  1.00  0.00    -0.321 N 
HETATM   18  C2  UNL     1      21.503  22.411  19.953  1.00  0.00     0.047 A 
ATOM     19  H1  UNL     1      19.404  22.961  19.834  1.00  0.00     0.169 HD
HETATM   20  C3  UNL     1      21.844  21.780  18.770  1.00  0.00     0.030 A 
HETATM   21  C4  UNL     1      23.145  21.344  18.634  1.00  0.00     0.002 A 
HETATM   22  C5  UNL     1      24.076  21.523  19.621  1.00  0.00     0.001 A 
HETATM   23  C6  UNL     1      23.724  22.159  20.803  1.00  0.00     0.016 A 
ATOM     24  H2  UNL     1      23.359  23.389  23.291  1.00  0.00     0.168 HD
ENDBRANCH   1  12
BRANCH   9  25
HETATM   25  O2  UNL     1      20.778  27.668  25.125  1.00  0.00    -0.267 OA
ATOM     26  H2  UNL     1      21.489  28.175  25.499  1.00  0.00     0.247 HD
ENDBRANCH   9  25
TORSDOF 2
ENDMDL
MODEL 3
REMARK VINA RESULT: -4.977878630      4.889      6.961
REMARK  2 active torsions:
REMARK  status: ('A' for Active; 'I' for Inactive)
REMARK    1  A    between atoms: N2_12  and  C9_14 
REMARK    2  A    between atoms: N3_22  and  O2_23 
ROOT
HETATM    1  C9  UNL     1      23.115  23.355  17.213  1.00  0.00     0.123 A 
HETATM    2  C10 UNL     1      22.052  23.190  16.346  1.00  0.00     0.063 A 
HETATM    3  C11 UNL     1      21.365  24.261  15.806  1.00  0.00    -0.002 A 
HETATM    4  C12 UNL     1      20.304  24.117  14.940  1.00  0.00     0.014 A 
HETATM    5  C13 UNL     1      19.653  25.217  14.430  1.00  0.00     0.001 A 
HETATM    6  C14 UNL     1      20.071  26.487  14.794  1.00  0.00     0.002 A 
HETATM    7  C15 UNL     1      21.133  26.654  15.661  1.00  0.00     0.035 A 
HETATM    8  C16 UNL     1      21.774  25.537  16.160  1.00  0.00     0.091 A 
HETATM    9  N3  UNL     1      22.810  25.676  17.006  1.00  0.00    -0.161 N 
HETATM   10  N4  UNL     1      23.457  24.622  17.513  1.00  0.00    -0.259 N 
ATOM     11  H4  UNL     1      24.236  24.784  18.150  1.00  0.00     0.191 HD
ENDROOT
BRANCH   1  12
HETATM   12  N2  UNL     1      23.829  22.258  17.773  1.00  0.00    -0.336 N 
HETATM   13  C8  UNL     1      23.687  21.926  19.010  1.00  0.00     0.115 A 
HETATM   14  C1  UNL     1      22.843  22.540  20.015  1.00  0.00     0.273 A 
HETATM   15  C7  UNL     1      24.385  20.817  19.648  1.00  0.00     0.023 A 
HETATM   16  O1  UNL     1      22.077  23.534  19.860  1.00  0.00    -0.266 OA
HETATM   17  N1  UNL     1      23.060  21.787  21.214  1.00  0.00    -0.321 N 
HETATM   18  C2  UNL     1      23.998  20.746  20.975  1.00  0.00     0.047 A 
ATOM     19  H1  UNL     1      22.606  21.970  22.109  1.00  0.00     0.169 HD
HETATM   20  C3  UNL     1      24.505  19.780  21.826  1.00  0.00     0.030 A 
HETATM   21  C4  UNL     1      25.417  18.888  21.302  1.00  0.00     0.002 A 
HETATM   22  C5  UNL     1      25.814  18.941  19.994  1.00  0.00     0.001 A 
HETATM   23  C6  UNL     1      25.298  19.912  19.149  1.00  0.00     0.016 A 
ATOM     24  H2  UNL     1      24.467  21.724  17.184  1.00  0.00     0.168 HD
ENDBRANCH   1  12
BRANCH   9  25
HETATM   25  O2  UNL     1      23.182  26.966  17.331  1.00  0.00    -0.267 OA
ATOM     26  H2  UNL     1      22.787  27.344  18.108  1.00  0.00     0.247 HD
ENDBRANCH   9  25
TORSDOF 2
ENDMDL
MODEL 4
REMARK VINA RESULT: -4.818219071      1.506      1.989
REMARK  2 active torsions:
REMARK  status: ('A' for Active; 'I' for Inactive)
REMARK    1  A    between atoms: N2_12  and  C9_14 
REMARK    2  A    between atoms: N3_22  and  O2_23 
ROOT
HETATM    1  C9  UNL     1      21.334  23.327  21.819  1.00  0.00     0.123 A 
HETATM    2  C10 UNL     1      22.082  22.186  21.608  1.00  0.00     0.063 A 
HETATM    3  C11 UNL     1      23.051  22.107  20.625  1.00  0.00    -0.002 A 
HETATM    4  C12 UNL     1      23.807  20.978  20.400  1.00  0.00     0.014 A 
HETATM    5  C13 UNL     1      24.760  20.952  19.407  1.00  0.00     0.001 A 
HETATM    6  C14 UNL     1      24.960  22.077  18.623  1.00  0.00     0.002 A 
HETATM    7  C15 UNL     1      24.213  23.219  18.832  1.00  0.00     0.035 A 
HETATM    8  C16 UNL     1      23.262  23.226  19.834  1.00  0.00     0.091 A 
HETATM    9  N3  UNL     1      22.523  24.326  20.055  1.00  0.00    -0.161 N 
HETATM   10  N4  UNL     1      21.593  24.374  21.014  1.00  0.00    -0.259 N 
ATOM     11  H4  UNL     1      21.060  25.235  21.139  1.00  0.00     0.191 HD
ENDROOT
BRANCH   1  12
HETATM   12  N2  UNL     1      20.335  23.418  22.829  1.00  0.00    -0.336 N 
HETATM   13  C8  UNL     1      20.585  23.947  23.976  1.00  0.00     0.115 A 
HETATM   14  C1  UNL     1      21.829  24.518  24.452  1.00  0.00     0.273 A 
HETATM   15  C7  UNL     1      19.611  24.071  25.054  1.00  0.00     0.023 A 
HETATM   16  O1  UNL     1      22.918  24.602  23.815  1.00  0.00    -0.266 OA
HETATM   17  N1  UNL     1      21.565  24.962  25.787  1.00  0.00    -0.321 N 
HETATM   18  C2  UNL     1      20.216  24.684  26.138  1.00  0.00     0.047 A 
ATOM     19  H1  UNL     1      22.245  25.414  26.398  1.00  0.00     0.169 HD
HETATM   20  C3  UNL     1      19.521  24.932  27.308  1.00  0.00     0.030 A 
HETATM   21  C4  UNL     1      18.199  24.544  27.357  1.00  0.00     0.002 A 
HETATM   22  C5  UNL     1      17.582  23.936  26.298  1.00  0.00     0.001 A 
HETATM   23  C6  UNL     1      18.287  23.692  25.128  1.00  0.00     0.016 A 
ATOM     24  H2  UNL     1      19.400  23.055  22.640  1.00  0.00     0.168 HD
ENDBRANCH   1  12
BRANCH   9  25
HETATM   25  O2  UNL     1      22.768  25.417  19.243  1.00  0.00    -0.267 OA
ATOM     26  H2  UNL     1      22.588  25.311  18.316  1.00  0.00     0.247 HD
ENDBRANCH   9  25
TORSDOF 2
ENDMDL
MODEL 5
REMARK VINA RESULT: -4.586912923      1.991      2.806
REMARK  2 active torsions:
REMARK  status: ('A' for Active; 'I' for Inactive)
REMARK    1  A    between atoms: N2_12  and  C9_14 
REMARK    2  A    between atoms: N3_22  and  O2_23 
ROOT
HETATM    1  C9  UNL     1      22.499  23.480  23.079  1.00  0.00     0.123 A 
HETATM    2  C10 UNL     1      23.118  22.275  22.809  1.00  0.00     0.063 A 
HETATM    3  C11 UNL     1      23.478  21.899  21.529  1.00  0.00    -0.002 A 
HETATM    4  C12 UNL     1      24.097  20.703  21.241  1.00  0.00     0.014 A 
HETATM    5  C13 UNL     1      24.434  20.375  19.947  1.00  0.00     0.001 A 
HETATM    6  C14 UNL     1      24.147  21.262  18.921  1.00  0.00     0.002 A 
HETATM    7  C15 UNL     1      23.528  22.467  19.189  1.00  0.00     0.035 A 
HETATM    8  C16 UNL     1      23.198  22.777  20.493  1.00  0.00     0.091 A 
HETATM    9  N3  UNL     1      22.595  23.944  20.777  1.00  0.00    -0.161 N 
HETATM   10  N4  UNL     1      22.258  24.283  22.026  1.00  0.00    -0.259 N 
ATOM     11  H4  UNL     1      21.801  25.181  22.185  1.00  0.00     0.191 HD
ENDROOT
BRANCH   1  12
HETATM   12  N2  UNL     1      22.125  23.877  24.394  1.00  0.00    -0.336 N 
HETATM   13  C8  UNL     1      20.888  23.957  24.746  1.00  0.00     0.115 A 
HETATM   14  C1  UNL     1      19.708  23.685  23.950  1.00  0.00     0.273 A 
HETATM   15  C7  UNL     1      20.435  24.356  26.072  1.00  0.00     0.023 A 
HETATM   16  O1  UNL     1      19.675  23.313  22.742  1.00  0.00    -0.266 OA
HETATM   17  N1  UNL     1      18.594  23.927  24.817  1.00  0.00    -0.321 N 
HETATM   18  C2  UNL     1      19.052  24.333  26.100  1.00  0.00     0.047 A 
ATOM     19  H1  UNL     1      17.614  23.823  24.553  1.00  0.00     0.169 HD
HETATM   20  C3  UNL     1      18.346  24.668  27.242  1.00  0.00     0.030 A 
HETATM   21  C4  UNL     1      19.074  25.028  28.357  1.00  0.00     0.002 A 
HETATM   22  C5  UNL     1      20.442  25.057  28.350  1.00  0.00     0.001 A 
HETATM   23  C6  UNL     1      21.140  24.719  27.200  1.00  0.00     0.016 A 
ATOM     24  H2  UNL     1      22.852  24.102  25.073  1.00  0.00     0.168 HD
ENDBRANCH   1  12
BRANCH   9  25
HETATM   25  O2  UNL     1      22.335  24.788  19.714  1.00  0.00    -0.267 OA
ATOM     26  H2  UNL     1      22.806  24.619  18.906  1.00  0.00     0.247 HD
ENDBRANCH   9  25
TORSDOF 2
ENDMDL
