MODEL 1
REMARK VINA RESULT: -7.364100869      0.000      0.000
REMARK  12 active torsions:
REMARK  status: ('A' for Active; 'I' for Inactive)
REMARK    1  A    between atoms: C2_2  and  C4_4 
REMARK    2  A    between atoms: C4_4  and  N1_5 
REMARK    3  A    between atoms: C4_4  and  C20_33 
REMARK       I    between atoms: N1_5  and  C5_7 
REMARK    4  A    between atoms: C5_7  and  C6_9 
REMARK    5  A    between atoms: C7_11  and  C8_12 
REMARK    6  A    between atoms: N2_15  and  C9_16 
REMARK    7  A    between atoms: C9_16  and  O5_17 
REMARK    8  A    between atoms: C9_16  and  C10_19 
REMARK    9  A    between atoms: C10_19  and  N3_20 
REMARK   10  A    between atoms: C10_19  and  C16_29 
REMARK       I    between atoms: N3_20  and  C11_22 
REMARK   11  A    between atoms: C11_22  and  O7_24 
REMARK   12  A    between atoms: O7_24  and  C12_25 
ROOT
HETATM    1  C6  UNL     1      21.305  38.209  -5.018  1.00  0.00     0.324 C 
HETATM    2  O2  UNL     1      21.004  38.725  -3.777  1.00  0.00    -0.322 OA
HETATM    3  C7  UNL     1      21.820  39.857  -4.142  1.00  0.00     0.333 C 
HETATM    4  N2  UNL     1      21.661  39.564  -5.514  1.00  0.00    -0.289 N 
ENDROOT
BRANCH   4   5
HETATM    5  C9  UNL     1      21.723  40.056  -6.805  1.00  0.00     0.167 C 
BRANCH   5   6
HETATM    6  O5  UNL     1      22.989  40.206  -7.231  1.00  0.00    -0.345 OA
ATOM      7  H5  UNL     1      23.072  40.902  -7.873  1.00  0.00     0.219 HD
ENDBRANCH   5   6
BRANCH   5   8
HETATM    8  C10 UNL     1      20.773  40.449  -7.840  1.00  0.00     0.072 C 
BRANCH   8   9
HETATM    9  N3  UNL     1      21.083  39.840  -9.106  1.00  0.00    -0.301 N 
HETATM   10  C11 UNL     1      20.612  38.650  -9.623  1.00  0.00     0.365 C 
HETATM   11  O6  UNL     1      19.806  37.888  -9.072  1.00  0.00    -0.238 OA
ATOM     12  H3  UNL     1      21.736  40.354  -9.698  1.00  0.00     0.171 HD
BRANCH  10  13
HETATM   13  O7  UNL     1      21.036  38.176 -10.900  1.00  0.00    -0.294 OA
BRANCH  13  14
HETATM   14  C12 UNL     1      20.397  38.550 -12.084  1.00  0.00     0.061 C 
HETATM   15  C13 UNL     1      19.818  37.364 -12.832  1.00  0.00     0.046 C 
HETATM   16  C14 UNL     1      19.295  39.556 -11.874  1.00  0.00     0.046 C 
HETATM   17  C15 UNL     1      21.435  39.171 -12.991  1.00  0.00     0.046 C 
ENDBRANCH  13  14
ENDBRANCH  10  13
ENDBRANCH   8   9
BRANCH   8  18
HETATM   18  C16 UNL     1      20.068  41.719  -7.821  1.00  0.00    -0.004 C 
HETATM   19  C17 UNL     1      19.819  42.247  -9.241  1.00  0.00     0.021 C 
HETATM   20  C18 UNL     1      20.580  42.868  -7.041  1.00  0.00     0.021 C 
HETATM   21  C19 UNL     1      18.616  41.488  -7.278  1.00  0.00     0.021 C 
ENDBRANCH   8  18
ENDBRANCH   5   8
ENDBRANCH   4   5
BRANCH   1  22
HETATM   22  C5  UNL     1      22.137  37.087  -5.235  1.00  0.00     0.267 C 
HETATM   23  N1  UNL     1      23.524  37.068  -5.517  1.00  0.00    -0.349 N 
ATOM     24  H1  UNL     1      24.003  37.967  -5.580  1.00  0.00     0.163 HD
HETATM   25  O1  UNL     1      21.621  35.912  -5.175  1.00  0.00    -0.269 OA
BRANCH  23  26
HETATM   26  C4  UNL     1      24.315  35.872  -5.722  1.00  0.00     0.126 C 
BRANCH  26  27
HETATM   27  C2  UNL     1      24.765  35.761  -7.132  1.00  0.00     0.003 C 
HETATM   28  C1  UNL     1      25.124  34.407  -7.625  1.00  0.00     0.011 C 
HETATM   29  C3  UNL     1      23.813  36.414  -8.114  1.00  0.00     0.011 C 
ENDBRANCH  26  27
BRANCH  26  30
HETATM   30  C20 UNL     1      25.345  35.673  -4.664  1.00  0.00     0.130 C 
HETATM   31  C21 UNL     1      24.919  36.071  -3.276  1.00  0.00     0.052 C 
HETATM   32 CL1  UNL     1      26.899  36.444  -5.021  1.00  0.00    -0.100 Cl
HETATM   33 CL2  UNL     1      25.701  33.906  -4.558  1.00  0.00    -0.100 Cl
ENDBRANCH  26  30
ENDBRANCH  23  26
ENDBRANCH   1  22
BRANCH   3  34
HETATM   34  C8  UNL     1      23.062  39.739  -3.406  1.00  0.00     0.224 C 
HETATM   35  O3  UNL     1      23.135  40.263  -2.228  1.00  0.00    -0.645 OA
HETATM   36  O4  UNL     1      24.245  39.124  -3.770  1.00  0.00    -0.645 OA
ENDBRANCH   3  34
TORSDOF 12
ENDMDL
MODEL 2
REMARK VINA RESULT: -7.270533414      1.380      2.222
REMARK  12 active torsions:
REMARK  status: ('A' for Active; 'I' for Inactive)
REMARK    1  A    between atoms: C2_2  and  C4_4 
REMARK    2  A    between atoms: C4_4  and  N1_5 
REMARK    3  A    between atoms: C4_4  and  C20_33 
REMARK       I    between atoms: N1_5  and  C5_7 
REMARK    4  A    between atoms: C5_7  and  C6_9 
REMARK    5  A    between atoms: C7_11  and  C8_12 
REMARK    6  A    between atoms: N2_15  and  C9_16 
REMARK    7  A    between atoms: C9_16  and  O5_17 
REMARK    8  A    between atoms: C9_16  and  C10_19 
REMARK    9  A    between atoms: C10_19  and  N3_20 
REMARK   10  A    between atoms: C10_19  and  C16_29 
REMARK       I    between atoms: N3_20  and  C11_22 
REMARK   11  A    between atoms: C11_22  and  O7_24 
REMARK   12  A    between atoms: O7_24  and  C12_25 
ROOT
HETATM    1  C6  UNL     1      21.309  38.369  -6.083  1.00  0.00     0.324 C 
HETATM    2  O2  UNL     1      20.599  38.428  -4.904  1.00  0.00    -0.322 OA
HETATM    3  C7  UNL     1      20.650  39.862  -5.042  1.00  0.00     0.333 C 
HETATM    4  N2  UNL     1      20.879  39.748  -6.431  1.00  0.00    -0.289 N 
ENDROOT
BRANCH   4   5
HETATM    5  C9  UNL     1      20.820  40.383  -7.658  1.00  0.00     0.167 C 
BRANCH   5   6
HETATM    6  O5  UNL     1      21.967  41.018  -7.957  1.00  0.00    -0.345 OA
ATOM      7  H5  UNL     1      21.931  41.445  -8.804  1.00  0.00     0.219 HD
ENDBRANCH   5   6
BRANCH   5   8
HETATM    8  C10 UNL     1      19.843  40.541  -8.728  1.00  0.00     0.072 C 
BRANCH   8   9
HETATM    9  N3  UNL     1      20.339  40.041  -9.982  1.00  0.00    -0.301 N 
HETATM   10  C11 UNL     1      20.401  38.732 -10.418  1.00  0.00     0.365 C 
HETATM   11  O6  UNL     1      20.015  37.739  -9.788  1.00  0.00    -0.238 OA
ATOM     12  H3  UNL     1      20.691  40.743 -10.633  1.00  0.00     0.171 HD
BRANCH  10  13
HETATM   13  O7  UNL     1      20.944  38.401 -11.695  1.00  0.00    -0.294 OA
BRANCH  13  14
HETATM   14  C12 UNL     1      20.146  38.289 -12.837  1.00  0.00     0.061 C 
HETATM   15  C13 UNL     1      19.780  36.850 -13.151  1.00  0.00     0.046 C 
HETATM   16  C14 UNL     1      18.874  39.092 -12.757  1.00  0.00     0.046 C 
HETATM   17  C15 UNL     1      20.951  38.798 -14.012  1.00  0.00     0.046 C 
ENDBRANCH  13  14
ENDBRANCH  10  13
ENDBRANCH   8   9
BRANCH   8  18
HETATM   18  C16 UNL     1      18.847  41.600  -8.735  1.00  0.00    -0.004 C 
HETATM   19  C17 UNL     1      19.362  42.853  -9.456  1.00  0.00     0.021 C 
HETATM   20  C18 UNL     1      18.225  42.075  -7.479  1.00  0.00     0.021 C 
HETATM   21  C19 UNL     1      17.638  41.157  -9.631  1.00  0.00     0.021 C 
ENDBRANCH   8  18
ENDBRANCH   5   8
ENDBRANCH   4   5
BRANCH   1  22
HETATM   22  C5  UNL     1      22.657  37.955  -6.182  1.00  0.00     0.267 C 
HETATM   23  N1  UNL     1      23.278  36.843  -5.563  1.00  0.00    -0.349 N 
ATOM     24  H1  UNL     1      22.699  36.256  -4.963  1.00  0.00     0.163 HD
HETATM   25  O1  UNL     1      23.462  38.633  -6.919  1.00  0.00    -0.269 OA
BRANCH  23  26
HETATM   26  C4  UNL     1      24.671  36.476  -5.717  1.00  0.00     0.126 C 
BRANCH  26  27
HETATM   27  C2  UNL     1      25.340  36.341  -4.399  1.00  0.00     0.003 C 
HETATM   28  C1  UNL     1      26.740  36.825  -4.297  1.00  0.00     0.011 C 
HETATM   29  C3  UNL     1      24.527  36.918  -3.258  1.00  0.00     0.011 C 
ENDBRANCH  26  27
BRANCH  26  30
HETATM   30  C20 UNL     1      24.870  35.370  -6.695  1.00  0.00     0.130 C 
HETATM   31  C21 UNL     1      23.605  34.756  -7.232  1.00  0.00     0.052 C 
HETATM   32 CL1  UNL     1      25.922  34.072  -6.107  1.00  0.00    -0.100 Cl
HETATM   33 CL2  UNL     1      25.713  36.049  -8.142  1.00  0.00    -0.100 Cl
ENDBRANCH  26  30
ENDBRANCH  23  26
ENDBRANCH   1  22
BRANCH   3  34
HETATM   34  C8  UNL     1      21.616  40.347  -4.079  1.00  0.00     0.224 C 
HETATM   35  O3  UNL     1      21.192  40.748  -2.926  1.00  0.00    -0.645 OA
HETATM   36  O4  UNL     1      22.989  40.456  -4.188  1.00  0.00    -0.645 OA
ENDBRANCH   3  34
TORSDOF 12
ENDMDL
MODEL 3
REMARK VINA RESULT: -7.263314000      1.824      3.543
REMARK  12 active torsions:
REMARK  status: ('A' for Active; 'I' for Inactive)
REMARK    1  A    between atoms: C2_2  and  C4_4 
REMARK    2  A    between atoms: C4_4  and  N1_5 
REMARK    3  A    between atoms: C4_4  and  C20_33 
REMARK       I    between atoms: N1_5  and  C5_7 
REMARK    4  A    between atoms: C5_7  and  C6_9 
REMARK    5  A    between atoms: C7_11  and  C8_12 
REMARK    6  A    between atoms: N2_15  and  C9_16 
REMARK    7  A    between atoms: C9_16  and  O5_17 
REMARK    8  A    between atoms: C9_16  and  C10_19 
REMARK    9  A    between atoms: C10_19  and  N3_20 
REMARK   10  A    between atoms: C10_19  and  C16_29 
REMARK       I    between atoms: N3_20  and  C11_22 
REMARK   11  A    between atoms: C11_22  and  O7_24 
REMARK   12  A    between atoms: O7_24  and  C12_25 
ROOT
HETATM    1  C6  UNL     1      21.443  38.252  -5.107  1.00  0.00     0.324 C 
HETATM    2  O2  UNL     1      21.041  38.766  -3.894  1.00  0.00    -0.322 OA
HETATM    3  C7  UNL     1      21.946  39.859  -4.151  1.00  0.00     0.333 C 
HETATM    4  N2  UNL     1      21.916  39.593  -5.538  1.00  0.00    -0.289 N 
ENDROOT
BRANCH   4   5
HETATM    5  C9  UNL     1      22.136  40.097  -6.806  1.00  0.00     0.167 C 
BRANCH   5   6
HETATM    6  O5  UNL     1      23.426  40.004  -7.173  1.00  0.00    -0.345 OA
ATOM      7  H5  UNL     1      23.703  40.741  -7.705  1.00  0.00     0.219 HD
ENDBRANCH   5   6
BRANCH   5   8
HETATM    8  C10 UNL     1      21.335  40.700  -7.865  1.00  0.00     0.072 C 
BRANCH   8   9
HETATM    9  N3  UNL     1      21.374  42.137  -7.811  1.00  0.00    -0.301 N 
HETATM   10  C11 UNL     1      20.880  42.971  -6.829  1.00  0.00     0.365 C 
HETATM   11  O6  UNL     1      20.315  42.610  -5.788  1.00  0.00    -0.238 OA
ATOM     12  H3  UNL     1      21.824  42.599  -8.601  1.00  0.00     0.171 HD
BRANCH  10  13
HETATM   13  O7  UNL     1      20.986  44.389  -6.937  1.00  0.00    -0.294 OA
BRANCH  13  14
HETATM   14  C12 UNL     1      20.131  45.140  -7.748  1.00  0.00     0.061 C 
HETATM   15  C13 UNL     1      19.105  44.281  -8.463  1.00  0.00     0.046 C 
HETATM   16  C14 UNL     1      19.398  46.223  -7.000  1.00  0.00     0.046 C 
HETATM   17  C15 UNL     1      20.972  45.796  -8.821  1.00  0.00     0.046 C 
ENDBRANCH  13  14
ENDBRANCH  10  13
ENDBRANCH   8   9
BRANCH   8  18
HETATM   18  C16 UNL     1      20.172  40.046  -8.442  1.00  0.00    -0.004 C 
HETATM   19  C17 UNL     1      19.870  40.575  -9.852  1.00  0.00     0.021 C 
HETATM   20  C18 UNL     1      18.876  40.016  -7.729  1.00  0.00     0.021 C 
HETATM   21  C19 UNL     1      20.514  38.538  -8.705  1.00  0.00     0.021 C 
ENDBRANCH   8  18
ENDBRANCH   5   8
ENDBRANCH   4   5
BRANCH   1  22
HETATM   22  C5  UNL     1      22.235  37.091  -5.258  1.00  0.00     0.267 C 
HETATM   23  N1  UNL     1      23.610  37.007  -5.585  1.00  0.00    -0.349 N 
ATOM     24  H1  UNL     1      24.111  37.882  -5.740  1.00  0.00     0.163 HD
HETATM   25  O1  UNL     1      21.691  35.940  -5.081  1.00  0.00    -0.269 OA
BRANCH  23  26
HETATM   26  C4  UNL     1      24.361  35.774  -5.717  1.00  0.00     0.126 C 
BRANCH  26  27
HETATM   27  C2  UNL     1      24.807  35.565  -7.116  1.00  0.00     0.003 C 
HETATM   28  C1  UNL     1      25.182  34.182  -7.509  1.00  0.00     0.011 C 
HETATM   29  C3  UNL     1      23.843  36.131  -8.140  1.00  0.00     0.011 C 
ENDBRANCH  26  27
BRANCH  26  30
HETATM   30  C20 UNL     1      25.382  35.605  -4.646  1.00  0.00     0.130 C 
HETATM   31  C21 UNL     1      24.936  36.014  -3.267  1.00  0.00     0.052 C 
HETATM   32 CL1  UNL     1      26.928  36.394  -4.997  1.00  0.00    -0.100 Cl
HETATM   33 CL2  UNL     1      25.764  33.844  -4.514  1.00  0.00    -0.100 Cl
ENDBRANCH  26  30
ENDBRANCH  23  26
ENDBRANCH   1  22
BRANCH   3  34
HETATM   34  C8  UNL     1      23.098  39.666  -3.294  1.00  0.00     0.224 C 
HETATM   35  O3  UNL     1      23.172  40.345  -2.197  1.00  0.00    -0.645 OA
HETATM   36  O4  UNL     1      24.187  38.833  -3.458  1.00  0.00    -0.645 OA
ENDBRANCH   3  34
TORSDOF 12
ENDMDL
MODEL 4
REMARK VINA RESULT: -7.251236170      2.601      5.124
REMARK  12 active torsions:
REMARK  status: ('A' for Active; 'I' for Inactive)
REMARK    1  A    between atoms: C2_2  and  C4_4 
REMARK    2  A    between atoms: C4_4  and  N1_5 
REMARK    3  A    between atoms: C4_4  and  C20_33 
REMARK       I    between atoms: N1_5  and  C5_7 
REMARK    4  A    between atoms: C5_7  and  C6_9 
REMARK    5  A    between atoms: C7_11  and  C8_12 
REMARK    6  A    between atoms: N2_15  and  C9_16 
REMARK    7  A    between atoms: C9_16  and  O5_17 
REMARK    8  A    between atoms: C9_16  and  C10_19 
REMARK    9  A    between atoms: C10_19  and  N3_20 
REMARK   10  A    between atoms: C10_19  and  C16_29 
REMARK       I    between atoms: N3_20  and  C11_22 
REMARK   11  A    between atoms: C11_22  and  O7_24 
REMARK   12  A    between atoms: O7_24  and  C12_25 
ROOT
HETATM    1  C6  UNL     1      21.625  38.816  -5.113  1.00  0.00     0.324 C 
HETATM    2  O2  UNL     1      21.137  38.697  -3.830  1.00  0.00    -0.322 OA
HETATM    3  C7  UNL     1      21.420  40.104  -3.682  1.00  0.00     0.333 C 
HETATM    4  N2  UNL     1      21.398  40.284  -5.082  1.00  0.00    -0.289 N 
ENDROOT
BRANCH   4   5
HETATM    5  C9  UNL     1      21.257  41.188  -6.118  1.00  0.00     0.167 C 
BRANCH   5   6
HETATM    6  O5  UNL     1      22.432  41.474  -6.706  1.00  0.00    -0.345 OA
ATOM      7  H5  UNL     1      22.823  40.712  -7.117  1.00  0.00     0.219 HD
ENDBRANCH   5   6
BRANCH   5   8
HETATM    8  C10 UNL     1      20.164  41.914  -6.756  1.00  0.00     0.072 C 
BRANCH   8   9
HETATM    9  N3  UNL     1      19.521  42.820  -5.843  1.00  0.00    -0.301 N 
HETATM   10  C11 UNL     1      18.613  42.529  -4.845  1.00  0.00     0.365 C 
HETATM   11  O6  UNL     1      18.196  41.401  -4.549  1.00  0.00    -0.238 OA
ATOM     12  H3  UNL     1      19.767  43.804  -5.947  1.00  0.00     0.171 HD
BRANCH  10  13
HETATM   13  O7  UNL     1      18.051  43.558  -4.031  1.00  0.00    -0.294 OA
BRANCH  13  14
HETATM   14  C12 UNL     1      18.755  44.139  -2.974  1.00  0.00     0.061 C 
HETATM   15  C13 UNL     1      17.845  44.860  -1.997  1.00  0.00     0.046 C 
HETATM   16  C14 UNL     1      19.588  43.152  -2.199  1.00  0.00     0.046 C 
HETATM   17  C15 UNL     1      19.681  45.182  -3.556  1.00  0.00     0.046 C 
ENDBRANCH  13  14
ENDBRANCH  10  13
ENDBRANCH   8   9
BRANCH   8  18
HETATM   18  C16 UNL     1      19.401  41.370  -7.867  1.00  0.00    -0.004 C 
HETATM   19  C17 UNL     1      18.060  42.097  -8.039  1.00  0.00     0.021 C 
HETATM   20  C18 UNL     1      19.098  39.924  -7.955  1.00  0.00     0.021 C 
HETATM   21  C19 UNL     1      20.146  41.700  -9.207  1.00  0.00     0.021 C 
ENDBRANCH   8  18
ENDBRANCH   5   8
ENDBRANCH   4   5
BRANCH   1  22
HETATM   22  C5  UNL     1      22.843  38.253  -5.558  1.00  0.00     0.267 C 
HETATM   23  N1  UNL     1      23.527  37.127  -5.039  1.00  0.00    -0.349 N 
ATOM     24  H1  UNL     1      23.107  36.648  -4.242  1.00  0.00     0.163 HD
HETATM   25  O1  UNL     1      23.446  38.789  -6.558  1.00  0.00    -0.269 OA
BRANCH  23  26
HETATM   26  C4  UNL     1      24.775  36.602  -5.554  1.00  0.00     0.126 C 
BRANCH  26  27
HETATM   27  C2  UNL     1      25.704  36.249  -4.451  1.00  0.00     0.003 C 
HETATM   28  C1  UNL     1      27.045  36.888  -4.464  1.00  0.00     0.011 C 
HETATM   29  C3  UNL     1      25.086  36.413  -3.077  1.00  0.00     0.011 C 
ENDBRANCH  26  27
BRANCH  26  30
HETATM   30  C20 UNL     1      24.576  35.585  -6.623  1.00  0.00     0.130 C 
HETATM   31  C21 UNL     1      25.127  34.217  -6.316  1.00  0.00     0.052 C 
HETATM   32 CL1  UNL     1      25.171  36.088  -8.213  1.00  0.00    -0.100 Cl
HETATM   33 CL2  UNL     1      22.798  35.338  -6.835  1.00  0.00    -0.100 Cl
ENDBRANCH  26  30
ENDBRANCH  23  26
ENDBRANCH   1  22
BRANCH   3  34
HETATM   34  C8  UNL     1      22.600  40.212  -2.849  1.00  0.00     0.224 C 
HETATM   35  O3  UNL     1      22.513  40.864  -1.737  1.00  0.00    -0.645 OA
HETATM   36  O4  UNL     1      23.870  39.707  -3.052  1.00  0.00    -0.645 OA
ENDBRANCH   3  34
TORSDOF 12
ENDMDL
MODEL 5
REMARK VINA RESULT: -7.236553558      1.885      4.193
REMARK  12 active torsions:
REMARK  status: ('A' for Active; 'I' for Inactive)
REMARK    1  A    between atoms: C2_2  and  C4_4 
REMARK    2  A    between atoms: C4_4  and  N1_5 
REMARK    3  A    between atoms: C4_4  and  C20_33 
REMARK       I    between atoms: N1_5  and  C5_7 
REMARK    4  A    between atoms: C5_7  and  C6_9 
REMARK    5  A    between atoms: C7_11  and  C8_12 
REMARK    6  A    between atoms: N2_15  and  C9_16 
REMARK    7  A    between atoms: C9_16  and  O5_17 
REMARK    8  A    between atoms: C9_16  and  C10_19 
REMARK    9  A    between atoms: C10_19  and  N3_20 
REMARK   10  A    between atoms: C10_19  and  C16_29 
REMARK       I    between atoms: N3_20  and  C11_22 
REMARK   11  A    between atoms: C11_22  and  O7_24 
REMARK   12  A    between atoms: O7_24  and  C12_25 
ROOT
HETATM    1  C6  UNL     1      21.300  38.407  -4.806  1.00  0.00     0.324 C 
HETATM    2  O2  UNL     1      21.013  38.922  -3.561  1.00  0.00    -0.322 OA
HETATM    3  C7  UNL     1      21.812  40.062  -3.941  1.00  0.00     0.333 C 
HETATM    4  N2  UNL     1      21.634  39.765  -5.309  1.00  0.00    -0.289 N 
ENDROOT
BRANCH   4   5
HETATM    5  C9  UNL     1      21.671  40.254  -6.602  1.00  0.00     0.167 C 
BRANCH   5   6
HETATM    6  O5  UNL     1      22.919  40.274  -7.103  1.00  0.00    -0.345 OA
ATOM      7  H5  UNL     1      23.052  40.993  -7.709  1.00  0.00     0.219 HD
ENDBRANCH   5   6
BRANCH   5   8
HETATM    8  C10 UNL     1      20.709  40.750  -7.580  1.00  0.00     0.072 C 
BRANCH   8   9
HETATM    9  N3  UNL     1      19.853  41.761  -7.021  1.00  0.00    -0.301 N 
HETATM   10  C11 UNL     1      20.181  43.047  -6.641  1.00  0.00     0.365 C 
HETATM   11  O6  UNL     1      21.301  43.568  -6.733  1.00  0.00    -0.238 OA
ATOM     12  H3  UNL     1      18.878  41.493  -6.887  1.00  0.00     0.171 HD
BRANCH  10  13
HETATM   13  O7  UNL     1      19.207  43.926  -6.081  1.00  0.00    -0.294 OA
BRANCH  13  14
HETATM   14  C12 UNL     1      19.007  44.036  -4.702  1.00  0.00     0.061 C 
HETATM   15  C13 UNL     1      19.410  42.778  -3.955  1.00  0.00     0.046 C 
HETATM   16  C14 UNL     1      19.733  45.202  -4.085  1.00  0.00     0.046 C 
HETATM   17  C15 UNL     1      17.525  44.225  -4.466  1.00  0.00     0.046 C 
ENDBRANCH  13  14
ENDBRANCH  10  13
ENDBRANCH   8   9
BRANCH   8  18
HETATM   18  C16 UNL     1      20.219  39.940  -8.683  1.00  0.00    -0.004 C 
HETATM   19  C17 UNL     1      20.613  38.465  -8.518  1.00  0.00     0.021 C 
HETATM   20  C18 UNL     1      20.524  40.291 -10.088  1.00  0.00     0.021 C 
HETATM   21  C19 UNL     1      18.653  39.888  -8.619  1.00  0.00     0.021 C 
ENDBRANCH   8  18
ENDBRANCH   5   8
ENDBRANCH   4   5
BRANCH   1  22
HETATM   22  C5  UNL     1      22.140  37.293  -5.034  1.00  0.00     0.267 C 
HETATM   23  N1  UNL     1      23.535  37.284  -5.273  1.00  0.00    -0.349 N 
ATOM     24  H1  UNL     1      24.014  38.185  -5.292  1.00  0.00     0.163 HD
HETATM   25  O1  UNL     1      21.625  36.116  -5.028  1.00  0.00    -0.269 OA
BRANCH  23  26
HETATM   26  C4  UNL     1      24.334  36.096  -5.493  1.00  0.00     0.126 C 
BRANCH  26  27
HETATM   27  C2  UNL     1      24.773  35.998  -6.907  1.00  0.00     0.003 C 
HETATM   28  C1  UNL     1      25.030  34.637  -7.445  1.00  0.00     0.011 C 
HETATM   29  C3  UNL     1      23.870  36.751  -7.864  1.00  0.00     0.011 C 
ENDBRANCH  26  27
BRANCH  26  30
HETATM   30  C20 UNL     1      25.374  35.899  -4.445  1.00  0.00     0.130 C 
HETATM   31  C21 UNL     1      24.996  36.384  -3.070  1.00  0.00     0.052 C 
HETATM   32 CL1  UNL     1      26.956  36.576  -4.866  1.00  0.00    -0.100 Cl
HETATM   33 CL2  UNL     1      25.649  34.123  -4.258  1.00  0.00    -0.100 Cl
ENDBRANCH  26  30
ENDBRANCH  23  26
ENDBRANCH   1  22
BRANCH   3  34
HETATM   34  C8  UNL     1      23.066  39.958  -3.224  1.00  0.00     0.224 C 
HETATM   35  O3  UNL     1      23.123  40.400  -2.012  1.00  0.00    -0.645 OA
HETATM   36  O4  UNL     1      24.276  39.434  -3.639  1.00  0.00    -0.645 OA
ENDBRANCH   3  34
TORSDOF 12
ENDMDL
