MODEL 1
REMARK VINA RESULT: -7.209440109      0.000      0.000
REMARK  8 active torsions:
REMARK  status: ('A' for Active; 'I' for Inactive)
REMARK    1  A    between atoms: C2_2  and  C3_3 
REMARK    2  A    between atoms: C3_3  and  C4_4 
REMARK    3  A    between atoms: C5_5  and  C6_6 
REMARK    4  A    between atoms: C7_8  and  O2_9 
REMARK    5  A    between atoms: C15_18  and  C16_19 
REMARK    6  A    between atoms: C16_19  and  O3_20 
REMARK    7  A    between atoms: C25_30  and  O4_31 
REMARK    8  A    between atoms: C32_40  and  O6_41 
ROOT
HETATM    1  C6  UNL     1       2.271  39.825  32.934  1.00  0.00     0.176 C 
HETATM    2  O1  UNL     1       2.626  40.141  31.645  1.00  0.00    -0.350 OA
HETATM    3  C7  UNL     1       3.700  39.510  31.103  1.00  0.00     0.257 C 
HETATM    4  C8  UNL     1       5.042  40.046  31.587  1.00  0.00     0.060 C 
HETATM    5  C9  UNL     1       5.993  40.328  30.461  1.00  0.00     0.005 C 
HETATM    6  C10 UNL     1       5.804  39.460  29.261  1.00  0.00     0.000 C 
HETATM    7  C11 UNL     1       7.138  39.335  28.516  1.00  0.00     0.002 C 
HETATM    8  C12 UNL     1       6.915  38.459  27.285  1.00  0.00     0.032 C 
HETATM    9  C13 UNL     1       6.232  39.270  26.222  1.00  0.00     0.123 C 
HETATM   10  C14 UNL     1       6.917  39.140  24.873  1.00  0.00     0.041 C 
HETATM   11  C15 UNL     1       5.707  39.413  23.986  1.00  0.00     0.046 C 
HETATM   12  C17 UNL     1       4.658  38.650  24.734  1.00  0.00     0.067 C 
HETATM   13  C18 UNL     1       3.310  39.199  24.331  1.00  0.00     0.047 C 
HETATM   14  C19 UNL     1       4.770  37.172  24.633  1.00  0.00     0.071 C 
HETATM   15  C20 UNL     1       3.460  36.493  24.341  1.00  0.00    -0.082 C 
HETATM   16  C21 UNL     1       3.097  36.183  22.908  1.00  0.00     0.043 C 
HETATM   17  C22 UNL     1       2.597  36.141  25.269  1.00  0.00     0.007 C 
HETATM   18  C23 UNL     1       2.779  36.358  26.732  1.00  0.00     0.153 C 
HETATM   19  C24 UNL     1       2.152  35.242  27.541  1.00  0.00     0.104 C 
HETATM   20  C25 UNL     1       0.963  36.170  27.675  1.00  0.00     0.165 C 
HETATM   21  C26 UNL     1       0.653  36.492  29.108  1.00  0.00     0.073 C 
HETATM   22  C27 UNL     1      -0.802  36.263  29.451  1.00  0.00     0.039 C 
HETATM   23  C28 UNL     1      -1.460  37.473  30.012  1.00  0.00    -0.083 C 
HETATM   24  C29 UNL     1      -2.468  38.219  29.171  1.00  0.00     0.043 C 
HETATM   25  C30 UNL     1      -1.176  37.911  31.238  1.00  0.00     0.035 C 
HETATM   26  C31 UNL     1      -0.212  37.278  32.163  1.00  0.00     0.288 C 
HETATM   27  O5  UNL     1      -0.717  36.972  33.407  1.00  0.00    -0.328 OA
HETATM   28  C32 UNL     1      -1.718  37.781  33.870  1.00  0.00     0.260 C 
HETATM   29  C33 UNL     1      -1.152  39.125  34.293  1.00  0.00     0.063 C 
HETATM   30  C34 UNL     1       0.360  39.077  34.279  1.00  0.00     0.040 C 
HETATM   31  C35 UNL     1       0.936  39.142  32.909  1.00  0.00     0.158 C 
HETATM   32  O7  UNL     1       0.990  37.970  32.216  1.00  0.00    -0.350 OA
HETATM   33  O8  UNL     1       1.775  37.186  27.173  1.00  0.00    -0.346 OA
HETATM   34  O9  UNL     1       4.905  39.007  26.058  1.00  0.00    -0.374 OA
ENDROOT
BRANCH   1  35
HETATM   35  C5  UNL     1       3.297  39.220  33.767  1.00  0.00     0.003 C 
HETATM   36  C4  UNL     1       3.809  39.658  34.901  1.00  0.00    -0.028 C 
BRANCH  36  37
HETATM   37  C3  UNL     1       4.862  38.956  35.678  1.00  0.00     0.026 C 
BRANCH  37  38
HETATM   38  C2  UNL     1       4.503  38.805  37.135  1.00  0.00    -0.001 C 
HETATM   39  C1  UNL     1       5.163  37.577  37.738  1.00  0.00     0.005 C 
ENDBRANCH  37  38
ENDBRANCH  36  37
ENDBRANCH   1  35
BRANCH   3  40
HETATM   40  O2  UNL     1       3.654  38.122  31.114  1.00  0.00    -0.371 OA
ATOM     41  H2  UNL     1       3.947  37.693  30.319  1.00  0.00     0.212 HD
ENDBRANCH   3  40
BRANCH  28  42
HETATM   42  O6  UNL     1      -2.263  37.121  34.999  1.00  0.00    -0.371 OA
ATOM     43  H6  UNL     1      -2.357  36.209  34.749  1.00  0.00     0.212 HD
ENDBRANCH  28  42
BRANCH  20  44
HETATM   44  O4  UNL     1      -0.110  35.862  26.865  1.00  0.00    -0.365 OA
ATOM     45  H4  UNL     1      -0.912  36.331  27.066  1.00  0.00     0.213 HD
ENDBRANCH  20  44
BRANCH  11  46
HETATM   46  C16 UNL     1       5.911  39.025  22.579  1.00  0.00     0.172 C 
BRANCH  46  47
HETATM   47  O3  UNL     1       5.727  40.127  21.764  1.00  0.00    -0.400 OA
ATOM     48  H3  UNL     1       6.308  40.826  22.040  1.00  0.00     0.209 HD
ENDBRANCH  46  47
ENDBRANCH  11  46
TORSDOF 8
ENDMDL
MODEL 2
REMARK VINA RESULT: -7.184857974      2.381      8.877
REMARK  8 active torsions:
REMARK  status: ('A' for Active; 'I' for Inactive)
REMARK    1  A    between atoms: C2_2  and  C3_3 
REMARK    2  A    between atoms: C3_3  and  C4_4 
REMARK    3  A    between atoms: C5_5  and  C6_6 
REMARK    4  A    between atoms: C7_8  and  O2_9 
REMARK    5  A    between atoms: C15_18  and  C16_19 
REMARK    6  A    between atoms: C16_19  and  O3_20 
REMARK    7  A    between atoms: C25_30  and  O4_31 
REMARK    8  A    between atoms: C32_40  and  O6_41 
ROOT
HETATM    1  C6  UNL     1       6.195  37.059  26.299  1.00  0.00     0.176 C 
HETATM    2  O1  UNL     1       6.164  37.225  27.662  1.00  0.00    -0.350 OA
HETATM    3  C7  UNL     1       6.207  38.491  28.154  1.00  0.00     0.257 C 
HETATM    4  C8  UNL     1       7.594  39.121  28.123  1.00  0.00     0.060 C 
HETATM    5  C9  UNL     1       7.974  39.747  29.433  1.00  0.00     0.005 C 
HETATM    6  C10 UNL     1       6.821  40.263  30.229  1.00  0.00     0.000 C 
HETATM    7  C11 UNL     1       7.300  41.414  31.121  1.00  0.00     0.002 C 
HETATM    8  C12 UNL     1       6.109  41.911  31.937  1.00  0.00     0.032 C 
HETATM    9  C13 UNL     1       5.851  40.953  33.063  1.00  0.00     0.123 C 
HETATM   10  C14 UNL     1       5.699  41.664  34.397  1.00  0.00     0.041 C 
HETATM   11  C15 UNL     1       4.803  40.641  35.090  1.00  0.00     0.046 C 
HETATM   12  C17 UNL     1       3.893  40.282  33.956  1.00  0.00     0.067 C 
HETATM   13  C18 UNL     1       3.278  38.938  34.264  1.00  0.00     0.047 C 
HETATM   14  C19 UNL     1       2.910  41.334  33.587  1.00  0.00     0.071 C 
HETATM   15  C20 UNL     1       1.514  40.806  33.399  1.00  0.00    -0.082 C 
HETATM   16  C21 UNL     1       0.551  40.846  34.561  1.00  0.00     0.043 C 
HETATM   17  C22 UNL     1       1.069  40.307  32.266  1.00  0.00     0.007 C 
HETATM   18  C23 UNL     1       1.866  40.187  31.013  1.00  0.00     0.153 C 
HETATM   19  C24 UNL     1       1.001  40.371  29.785  1.00  0.00     0.104 C 
HETATM   20  C25 UNL     1       0.941  38.859  29.747  1.00  0.00     0.165 C 
HETATM   21  C26 UNL     1       1.491  38.301  28.466  1.00  0.00     0.073 C 
HETATM   22  C27 UNL     1       0.545  37.321  27.809  1.00  0.00     0.039 C 
HETATM   23  C28 UNL     1       1.169  35.994  27.564  1.00  0.00    -0.083 C 
HETATM   24  C29 UNL     1       0.742  34.813  28.404  1.00  0.00     0.043 C 
HETATM   25  C30 UNL     1       2.096  35.826  26.621  1.00  0.00     0.035 C 
HETATM   26  C31 UNL     1       2.604  36.892  25.731  1.00  0.00     0.288 C 
HETATM   27  O5  UNL     1       2.530  36.609  24.386  1.00  0.00    -0.328 OA
HETATM   28  C32 UNL     1       2.627  35.290  24.039  1.00  0.00     0.260 C 
HETATM   29  C33 UNL     1       4.060  34.813  24.188  1.00  0.00     0.063 C 
HETATM   30  C34 UNL     1       4.972  35.990  24.460  1.00  0.00     0.040 C 
HETATM   31  C35 UNL     1       4.878  36.493  25.856  1.00  0.00     0.158 C 
HETATM   32  O7  UNL     1       3.853  37.349  26.127  1.00  0.00    -0.350 OA
HETATM   33  O8  UNL     1       1.967  38.855  30.692  1.00  0.00    -0.346 OA
HETATM   34  O9  UNL     1       4.777  40.132  32.889  1.00  0.00    -0.374 OA
ENDROOT
BRANCH   1  35
HETATM   35  C5  UNL     1       6.726  38.162  25.515  1.00  0.00     0.003 C 
HETATM   36  C4  UNL     1       7.388  38.124  24.374  1.00  0.00    -0.028 C 
BRANCH  36  37
HETATM   37  C3  UNL     1       7.890  39.319  23.651  1.00  0.00     0.026 C 
BRANCH  37  38
HETATM   38  C2  UNL     1       9.030  38.995  22.718  1.00  0.00    -0.001 C 
HETATM   39  C1  UNL     1      10.110  40.063  22.779  1.00  0.00     0.005 C 
ENDBRANCH  37  38
ENDBRANCH  36  37
ENDBRANCH   1  35
BRANCH   3  40
HETATM   40  O2  UNL     1       5.227  39.355  27.682  1.00  0.00    -0.371 OA
ATOM     41  H2  UNL     1       5.462  39.865  26.916  1.00  0.00     0.212 HD
ENDBRANCH   3  40
BRANCH  28  42
HETATM   42  O6  UNL     1       2.243  35.215  22.677  1.00  0.00    -0.371 OA
ATOM     43  H6  UNL     1       2.731  35.896  22.229  1.00  0.00     0.212 HD
ENDBRANCH  28  42
BRANCH  20  44
HETATM   44  O4  UNL     1      -0.240  38.311  30.203  1.00  0.00    -0.365 OA
ATOM     45  H4  UNL     1      -0.219  37.371  30.341  1.00  0.00     0.213 HD
ENDBRANCH  20  44
BRANCH  11  46
HETATM   46  C16 UNL     1       4.151  41.160  36.305  1.00  0.00     0.172 C 
BRANCH  46  47
HETATM   47  O3  UNL     1       4.440  40.331  37.373  1.00  0.00    -0.400 OA
ATOM     48  H3  UNL     1       4.785  40.848  38.092  1.00  0.00     0.209 HD
ENDBRANCH  46  47
ENDBRANCH  11  46
TORSDOF 8
ENDMDL
MODEL 3
REMARK VINA RESULT: -6.959459450      3.175      7.853
REMARK  8 active torsions:
REMARK  status: ('A' for Active; 'I' for Inactive)
REMARK    1  A    between atoms: C2_2  and  C3_3 
REMARK    2  A    between atoms: C3_3  and  C4_4 
REMARK    3  A    between atoms: C5_5  and  C6_6 
REMARK    4  A    between atoms: C7_8  and  O2_9 
REMARK    5  A    between atoms: C15_18  and  C16_19 
REMARK    6  A    between atoms: C16_19  and  O3_20 
REMARK    7  A    between atoms: C25_30  and  O4_31 
REMARK    8  A    between atoms: C32_40  and  O6_41 
ROOT
HETATM    1  C6  UNL     1       6.963  38.845  28.438  1.00  0.00     0.176 C 
HETATM    2  O1  UNL     1       5.737  38.867  27.820  1.00  0.00    -0.350 OA
HETATM    3  C7  UNL     1       4.890  37.827  28.040  1.00  0.00     0.257 C 
HETATM    4  C8  UNL     1       5.244  36.565  27.263  1.00  0.00     0.060 C 
HETATM    5  C9  UNL     1       4.063  35.977  26.547  1.00  0.00     0.005 C 
HETATM    6  C10 UNL     1       2.749  36.231  27.210  1.00  0.00     0.000 C 
HETATM    7  C11 UNL     1       1.777  35.102  26.848  1.00  0.00     0.002 C 
HETATM    8  C12 UNL     1       0.437  35.394  27.521  1.00  0.00     0.032 C 
HETATM    9  C13 UNL     1      -0.281  36.459  26.746  1.00  0.00     0.123 C 
HETATM   10  C14 UNL     1      -1.723  36.081  26.452  1.00  0.00     0.041 C 
HETATM   11  C15 UNL     1      -2.303  37.488  26.357  1.00  0.00     0.046 C 
HETATM   12  C17 UNL     1      -1.576  38.147  27.488  1.00  0.00     0.067 C 
HETATM   13  C18 UNL     1      -1.606  39.639  27.252  1.00  0.00     0.047 C 
HETATM   14  C19 UNL     1      -2.025  37.735  28.843  1.00  0.00     0.071 C 
HETATM   15  C20 UNL     1      -2.232  38.892  29.781  1.00  0.00    -0.082 C 
HETATM   16  C21 UNL     1      -3.613  39.487  29.920  1.00  0.00     0.043 C 
HETATM   17  C22 UNL     1      -1.272  39.426  30.505  1.00  0.00     0.007 C 
HETATM   18  C23 UNL     1       0.148  38.975  30.508  1.00  0.00     0.153 C 
HETATM   19  C24 UNL     1       0.781  39.142  31.873  1.00  0.00     0.104 C 
HETATM   20  C25 UNL     1       1.324  40.447  31.329  1.00  0.00     0.165 C 
HETATM   21  C26 UNL     1       2.824  40.493  31.357  1.00  0.00     0.073 C 
HETATM   22  C27 UNL     1       3.352  41.746  32.018  1.00  0.00     0.039 C 
HETATM   23  C28 UNL     1       4.276  42.515  31.141  1.00  0.00    -0.083 C 
HETATM   24  C29 UNL     1       3.811  43.826  30.552  1.00  0.00     0.043 C 
HETATM   25  C30 UNL     1       5.501  42.070  30.865  1.00  0.00     0.035 C 
HETATM   26  C31 UNL     1       6.080  40.807  31.374  1.00  0.00     0.288 C 
HETATM   27  O5  UNL     1       7.291  40.941  32.015  1.00  0.00    -0.328 OA
HETATM   28  C32 UNL     1       8.090  41.968  31.593  1.00  0.00     0.260 C 
HETATM   29  C33 UNL     1       8.700  41.636  30.243  1.00  0.00     0.063 C 
HETATM   30  C34 UNL     1       8.415  40.193  29.887  1.00  0.00     0.040 C 
HETATM   31  C35 UNL     1       7.017  39.966  29.434  1.00  0.00     0.158 C 
HETATM   32  O7  UNL     1       6.079  39.809  30.410  1.00  0.00    -0.350 OA
HETATM   33  O8  UNL     1       0.931  40.014  30.064  1.00  0.00    -0.346 OA
HETATM   34  O9  UNL     1      -0.269  37.697  27.316  1.00  0.00    -0.374 OA
ENDROOT
BRANCH   1  35
HETATM   35  C5  UNL     1       7.449  37.551  28.889  1.00  0.00     0.003 C 
HETATM   36  C4  UNL     1       8.342  36.760  28.326  1.00  0.00    -0.028 C 
BRANCH  36  37
HETATM   37  C3  UNL     1       8.769  35.448  28.873  1.00  0.00     0.026 C 
BRANCH  37  38
HETATM   38  C2  UNL     1       9.080  34.443  27.792  1.00  0.00    -0.001 C 
HETATM   39  C1  UNL     1       9.910  33.292  28.336  1.00  0.00     0.005 C 
ENDBRANCH  37  38
ENDBRANCH  36  37
ENDBRANCH   1  35
BRANCH   3  40
HETATM   40  O2  UNL     1       4.597  37.560  29.371  1.00  0.00    -0.371 OA
ATOM     41  H2  UNL     1       3.812  37.047  29.526  1.00  0.00     0.212 HD
ENDBRANCH   3  40
BRANCH  28  42
HETATM   42  O6  UNL     1       9.118  42.087  32.560  1.00  0.00    -0.371 OA
ATOM     43  H6  UNL     1       9.647  42.828  32.290  1.00  0.00     0.212 HD
ENDBRANCH  28  42
BRANCH  20  44
HETATM   44  O4  UNL     1       0.663  41.577  31.763  1.00  0.00    -0.365 OA
ATOM     45  H4  UNL     1       1.225  42.310  31.986  1.00  0.00     0.213 HD
ENDBRANCH  20  44
BRANCH  11  46
HETATM   46  C16 UNL     1      -3.775  37.522  26.425  1.00  0.00     0.172 C 
BRANCH  46  47
HETATM   47  O3  UNL     1      -4.300  37.340  25.159  1.00  0.00    -0.400 OA
ATOM     48  H3  UNL     1      -5.188  37.010  25.228  1.00  0.00     0.209 HD
ENDBRANCH  46  47
ENDBRANCH  11  46
TORSDOF 8
ENDMDL
MODEL 4
REMARK VINA RESULT: -6.853836129      2.423      8.777
REMARK  8 active torsions:
REMARK  status: ('A' for Active; 'I' for Inactive)
REMARK    1  A    between atoms: C2_2  and  C3_3 
REMARK    2  A    between atoms: C3_3  and  C4_4 
REMARK    3  A    between atoms: C5_5  and  C6_6 
REMARK    4  A    between atoms: C7_8  and  O2_9 
REMARK    5  A    between atoms: C15_18  and  C16_19 
REMARK    6  A    between atoms: C16_19  and  O3_20 
REMARK    7  A    between atoms: C25_30  and  O4_31 
REMARK    8  A    between atoms: C32_40  and  O6_41 
ROOT
HETATM    1  C6  UNL     1       5.498  37.189  26.701  1.00  0.00     0.176 C 
HETATM    2  O1  UNL     1       5.729  37.407  28.037  1.00  0.00    -0.350 OA
HETATM    3  C7  UNL     1       6.052  38.666  28.435  1.00  0.00     0.257 C 
HETATM    4  C8  UNL     1       7.493  39.060  28.135  1.00  0.00     0.060 C 
HETATM    5  C9  UNL     1       8.186  39.664  29.322  1.00  0.00     0.005 C 
HETATM    6  C10 UNL     1       7.281  40.388  30.263  1.00  0.00     0.000 C 
HETATM    7  C11 UNL     1       8.079  41.478  30.989  1.00  0.00     0.002 C 
HETATM    8  C12 UNL     1       7.138  42.191  31.957  1.00  0.00     0.032 C 
HETATM    9  C13 UNL     1       6.933  41.330  33.169  1.00  0.00     0.123 C 
HETATM   10  C14 UNL     1       7.126  42.104  34.462  1.00  0.00     0.041 C 
HETATM   11  C15 UNL     1       6.217  41.266  35.356  1.00  0.00     0.046 C 
HETATM   12  C17 UNL     1       5.080  41.019  34.413  1.00  0.00     0.067 C 
HETATM   13  C18 UNL     1       4.327  39.805  34.902  1.00  0.00     0.047 C 
HETATM   14  C19 UNL     1       4.222  42.203  34.145  1.00  0.00     0.071 C 
HETATM   15  C20 UNL     1       2.750  41.903  34.224  1.00  0.00    -0.082 C 
HETATM   16  C21 UNL     1       2.020  42.142  35.524  1.00  0.00     0.043 C 
HETATM   17  C22 UNL     1       2.044  41.442  33.214  1.00  0.00     0.007 C 
HETATM   18  C23 UNL     1       2.585  41.149  31.856  1.00  0.00     0.153 C 
HETATM   19  C24 UNL     1       1.559  41.426  30.778  1.00  0.00     0.104 C 
HETATM   20  C25 UNL     1       1.261  39.944  30.847  1.00  0.00     0.165 C 
HETATM   21  C26 UNL     1       1.488  39.258  29.531  1.00  0.00     0.073 C 
HETATM   22  C27 UNL     1       0.304  38.421  29.102  1.00  0.00     0.039 C 
HETATM   23  C28 UNL     1       0.664  37.002  28.843  1.00  0.00    -0.083 C 
HETATM   24  C29 UNL     1       0.212  35.938  29.815  1.00  0.00     0.043 C 
HETATM   25  C30 UNL     1       1.376  36.652  27.773  1.00  0.00     0.035 C 
HETATM   26  C31 UNL     1       1.881  37.588  26.745  1.00  0.00     0.288 C 
HETATM   27  O5  UNL     1       1.533  37.272  25.452  1.00  0.00    -0.328 OA
HETATM   28  C32 UNL     1       1.363  35.943  25.177  1.00  0.00     0.260 C 
HETATM   29  C33 UNL     1       2.710  35.245  25.118  1.00  0.00     0.063 C 
HETATM   30  C34 UNL     1       3.825  36.267  25.161  1.00  0.00     0.040 C 
HETATM   31  C35 UNL     1       4.053  36.829  26.518  1.00  0.00     0.158 C 
HETATM   32  O7  UNL     1       3.235  37.850  26.899  1.00  0.00    -0.350 OA
HETATM   33  O8  UNL     1       2.421  39.807  31.608  1.00  0.00    -0.346 OA
HETATM   34  O9  UNL     1       5.732  40.689  33.227  1.00  0.00    -0.374 OA
ENDROOT
BRANCH   1  35
HETATM   35  C5  UNL     1       6.049  38.161  25.772  1.00  0.00     0.003 C 
HETATM   36  C4  UNL     1       6.925  37.976  24.802  1.00  0.00    -0.028 C 
BRANCH  36  37
HETATM   37  C3  UNL     1       7.425  39.047  23.904  1.00  0.00     0.026 C 
BRANCH  37  38
HETATM   38  C2  UNL     1       8.510  38.563  22.974  1.00  0.00    -0.001 C 
HETATM   39  C1  UNL     1       9.579  39.625  22.779  1.00  0.00     0.005 C 
ENDBRANCH  37  38
ENDBRANCH  36  37
ENDBRANCH   1  35
BRANCH   3  40
HETATM   40  O2  UNL     1       5.150  39.661  28.077  1.00  0.00    -0.371 OA
ATOM     41  H2  UNL     1       5.483  40.550  28.110  1.00  0.00     0.212 HD
ENDBRANCH   3  40
BRANCH  28  42
HETATM   42  O6  UNL     1       0.743  35.882  23.905  1.00  0.00    -0.371 OA
ATOM     43  H6  UNL     1       0.673  34.959  23.691  1.00  0.00     0.212 HD
ENDBRANCH  28  42
BRANCH  20  44
HETATM   44  O4  UNL     1       0.107  39.612  31.525  1.00  0.00    -0.365 OA
ATOM     45  H4  UNL     1       0.151  38.804  32.022  1.00  0.00     0.213 HD
ENDBRANCH  20  44
BRANCH  11  46
HETATM   46  C16 UNL     1       5.872  41.928  36.627  1.00  0.00     0.172 C 
BRANCH  46  47
HETATM   47  O3  UNL     1       6.952  42.669  37.069  1.00  0.00    -0.400 OA
ATOM     48  H3  UNL     1       7.754  42.310  36.706  1.00  0.00     0.209 HD
ENDBRANCH  46  47
ENDBRANCH  11  46
TORSDOF 8
ENDMDL
MODEL 5
REMARK VINA RESULT: -6.623469978      8.364     14.331
REMARK  8 active torsions:
REMARK  status: ('A' for Active; 'I' for Inactive)
REMARK    1  A    between atoms: C2_2  and  C3_3 
REMARK    2  A    between atoms: C3_3  and  C4_4 
REMARK    3  A    between atoms: C5_5  and  C6_6 
REMARK    4  A    between atoms: C7_8  and  O2_9 
REMARK    5  A    between atoms: C15_18  and  C16_19 
REMARK    6  A    between atoms: C16_19  and  O3_20 
REMARK    7  A    between atoms: C25_30  and  O4_31 
REMARK    8  A    between atoms: C32_40  and  O6_41 
ROOT
HETATM    1  C6  UNL     1       7.648  39.435  19.874  1.00  0.00     0.176 C 
HETATM    2  O1  UNL     1       8.574  40.056  19.071  1.00  0.00    -0.350 OA
HETATM    3  C7  UNL     1       8.162  41.102  18.309  1.00  0.00     0.257 C 
HETATM    4  C8  UNL     1       7.379  40.694  17.067  1.00  0.00     0.060 C 
HETATM    5  C9  UNL     1       7.874  41.372  15.822  1.00  0.00     0.005 C 
HETATM    6  C10 UNL     1       8.469  42.722  16.050  1.00  0.00     0.000 C 
HETATM    7  C11 UNL     1       8.306  43.563  14.779  1.00  0.00     0.002 C 
HETATM    8  C12 UNL     1       8.939  44.931  15.029  1.00  0.00     0.032 C 
HETATM    9  C13 UNL     1      10.431  44.808  14.932  1.00  0.00     0.123 C 
HETATM   10  C14 UNL     1      11.038  45.878  14.040  1.00  0.00     0.041 C 
HETATM   11  C15 UNL     1      12.418  45.944  14.685  1.00  0.00     0.046 C 
HETATM   12  C17 UNL     1      12.037  45.841  16.129  1.00  0.00     0.067 C 
HETATM   13  C18 UNL     1      13.250  45.371  16.896  1.00  0.00     0.047 C 
HETATM   14  C19 UNL     1      11.391  47.055  16.693  1.00  0.00     0.071 C 
HETATM   15  C20 UNL     1      11.951  47.463  18.028  1.00  0.00    -0.082 C 
HETATM   16  C21 UNL     1      13.056  48.491  18.078  1.00  0.00     0.043 C 
HETATM   17  C22 UNL     1      11.529  46.978  19.176  1.00  0.00     0.007 C 
HETATM   18  C23 UNL     1      10.448  45.963  19.329  1.00  0.00     0.153 C 
HETATM   19  C24 UNL     1       9.655  46.185  20.599  1.00  0.00     0.104 C 
HETATM   20  C25 UNL     1      10.560  45.134  21.206  1.00  0.00     0.165 C 
HETATM   21  C26 UNL     1       9.792  43.949  21.717  1.00  0.00     0.073 C 
HETATM   22  C27 UNL     1      10.154  43.596  23.142  1.00  0.00     0.039 C 
HETATM   23  C28 UNL     1      10.606  42.188  23.290  1.00  0.00    -0.083 C 
HETATM   24  C29 UNL     1      12.067  41.908  23.558  1.00  0.00     0.043 C 
HETATM   25  C30 UNL     1       9.752  41.170  23.189  1.00  0.00     0.035 C 
HETATM   26  C31 UNL     1       8.302  41.302  22.930  1.00  0.00     0.288 C 
HETATM   27  O5  UNL     1       7.489  40.669  23.842  1.00  0.00    -0.328 OA
HETATM   28  C32 UNL     1       8.004  39.550  24.438  1.00  0.00     0.260 C 
HETATM   29  C33 UNL     1       8.015  38.392  23.457  1.00  0.00     0.063 C 
HETATM   30  C34 UNL     1       7.256  38.769  22.203  1.00  0.00     0.040 C 
HETATM   31  C35 UNL     1       8.019  39.678  21.307  1.00  0.00     0.158 C 
HETATM   32  O7  UNL     1       7.980  41.006  21.612  1.00  0.00    -0.350 OA
HETATM   33  O8  UNL     1      10.989  44.842  19.912  1.00  0.00    -0.346 OA
HETATM   34  O9  UNL     1      11.091  44.818  16.124  1.00  0.00    -0.374 OA
ENDROOT
BRANCH   1  35
HETATM   35  C5  UNL     1       6.249  39.616  19.524  1.00  0.00     0.003 C 
HETATM   36  C4  UNL     1       5.173  39.288  20.214  1.00  0.00    -0.028 C 
BRANCH  36  37
HETATM   37  C3  UNL     1       3.779  39.518  19.760  1.00  0.00     0.026 C 
BRANCH  37  38
HETATM   38  C2  UNL     1       2.762  39.189  20.825  1.00  0.00    -0.001 C 
HETATM   39  C1  UNL     1       3.079  37.863  21.495  1.00  0.00     0.005 C 
ENDBRANCH  37  38
ENDBRANCH  36  37
ENDBRANCH   1  35
BRANCH   3  40
HETATM   40  O2  UNL     1       7.551  42.145  18.995  1.00  0.00    -0.371 OA
ATOM     41  H2  UNL     1       7.865  43.016  18.785  1.00  0.00     0.212 HD
ENDBRANCH   3  40
BRANCH  28  42
HETATM   42  O6  UNL     1       7.137  39.248  25.517  1.00  0.00    -0.371 OA
ATOM     43  H6  UNL     1       7.067  38.301  25.540  1.00  0.00     0.212 HD
ENDBRANCH  28  42
BRANCH  20  44
HETATM   44  O4  UNL     1      11.554  45.626  22.026  1.00  0.00    -0.365 OA
ATOM     45  H4  UNL     1      12.343  45.906  21.577  1.00  0.00     0.213 HD
ENDBRANCH  20  44
BRANCH  11  46
HETATM   46  C16 UNL     1      13.189  47.140  14.301  1.00  0.00     0.172 C 
BRANCH  46  47
HETATM   47  O3  UNL     1      13.966  46.853  13.195  1.00  0.00    -0.400 OA
ATOM     48  H3  UNL     1      14.485  46.076  13.364  1.00  0.00     0.209 HD
ENDBRANCH  46  47
ENDBRANCH  11  46
TORSDOF 8
ENDMDL
