MODEL 1
REMARK VINA RESULT: -7.667693730      0.000      0.000
REMARK  7 active torsions:
REMARK  status: ('A' for Active; 'I' for Inactive)
REMARK    1  A    between atoms: C3_4  and  O2_5 
REMARK    2  A    between atoms: O2_5  and  C4_6 
REMARK    3  A    between atoms: C18_21  and  O4_22 
REMARK    4  A    between atoms: C29_34  and  O5_35 
REMARK    5  A    between atoms: C30_37  and  O6_38 
REMARK    6  A    between atoms: O6_38  and  S1_39 
REMARK    7  A    between atoms: C31_43  and  O10_44 
ROOT
HETATM    1  C4  UNL     1      11.068  42.119  21.392  1.00  0.00     0.162 C 
HETATM    2  C5  UNL     1      11.662  42.061  22.784  1.00  0.00     0.148 C 
HETATM    3  C6  UNL     1      12.380  40.765  23.105  1.00  0.00     0.042 C 
HETATM    4  O3  UNL     1      12.500  43.050  23.158  1.00  0.00    -0.373 OA
HETATM    5  C7  UNL     1      13.477  43.408  22.270  1.00  0.00     0.059 C 
HETATM    6  C8  UNL     1      14.096  44.677  22.912  1.00  0.00     0.046 C 
HETATM    7  C9  UNL     1      14.625  42.516  22.072  1.00  0.00     0.046 C 
HETATM    8  C10 UNL     1      12.797  43.904  21.047  1.00  0.00     0.031 C 
HETATM    9  C11 UNL     1      13.699  44.591  20.094  1.00  0.00     0.009 C 
HETATM   10  C12 UNL     1      12.798  45.606  19.368  1.00  0.00     0.007 C 
HETATM   11  C13 UNL     1      11.768  44.722  18.670  1.00  0.00     0.003 C 
HETATM   12  C14 UNL     1      11.082  45.451  17.558  1.00  0.00    -0.035 C 
HETATM   13  C15 UNL     1      12.247  46.040  16.739  1.00  0.00     0.016 C 
HETATM   14  C16 UNL     1      10.272  46.636  17.965  1.00  0.00     0.012 C 
HETATM   15  C17 UNL     1       9.942  47.381  16.663  1.00  0.00     0.033 C 
HETATM   16  C18 UNL     1       9.094  46.550  15.780  1.00  0.00     0.126 C 
HETATM   17  C19 UNL     1       9.495  45.119  15.618  1.00  0.00    -0.017 C 
HETATM   18  C20 UNL     1      10.196  44.859  14.276  1.00  0.00     0.018 C 
HETATM   19  C21 UNL     1       8.163  44.352  15.474  1.00  0.00     0.018 C 
HETATM   20  C22 UNL     1      10.244  44.525  16.768  1.00  0.00     0.004 C 
HETATM   21  C23 UNL     1       9.277  43.855  17.680  1.00  0.00     0.007 C 
HETATM   22  C24 UNL     1       9.902  43.165  18.857  1.00  0.00     0.011 C 
HETATM   23  C25 UNL     1      10.915  43.936  19.607  1.00  0.00    -0.029 C 
HETATM   24  C26 UNL     1      10.170  44.833  20.569  1.00  0.00     0.016 C 
HETATM   25  C27 UNL     1      11.805  42.936  20.391  1.00  0.00    -0.001 C 
HETATM   26  C28 UNL     1      12.508  41.999  19.457  1.00  0.00     0.019 C 
ENDROOT
BRANCH   1  27
HETATM   27  O2  UNL     1      10.925  40.745  21.062  1.00  0.00    -0.350 OA
BRANCH  27  28
HETATM   28  C3  UNL     1       9.625  40.328  20.875  1.00  0.00     0.292 C 
HETATM   29  O1  UNL     1       9.291  40.046  19.581  1.00  0.00    -0.351 OA
HETATM   30  C2  UNL     1       8.156  39.364  19.326  1.00  0.00     0.152 C 
HETATM   31  C1  UNL     1       7.522  40.014  18.082  1.00  0.00     0.042 C 
HETATM   32  C31 UNL     1       7.195  39.522  20.476  1.00  0.00     0.180 C 
HETATM   33  C30 UNL     1       7.811  38.859  21.676  1.00  0.00     0.209 C 
HETATM   34  C29 UNL     1       9.288  39.150  21.802  1.00  0.00     0.206 C 
BRANCH  32  35
HETATM   35  O10 UNL     1       5.945  38.977  20.178  1.00  0.00    -0.390 OA
ATOM     36  H10 UNL     1       5.684  38.329  20.822  1.00  0.00     0.210 HD
ENDBRANCH  32  35
BRANCH  33  37
HETATM   37  O6  UNL     1       7.176  39.361  22.806  1.00  0.00    -0.246 OA
BRANCH  37  38
HETATM   38  S1  UNL     1       6.901  38.179  23.965  1.00  0.00     0.252 S 
HETATM   39  O7  UNL     1       5.510  37.634  23.850  1.00  0.00    -0.572 OA
HETATM   40  O8  UNL     1       7.029  38.866  25.316  1.00  0.00    -0.572 OA
HETATM   41  O9  UNL     1       8.072  37.002  23.806  1.00  0.00    -0.572 OA
ENDBRANCH  37  38
ENDBRANCH  33  37
BRANCH  34  42
HETATM   42  O5  UNL     1      10.072  38.041  21.556  1.00  0.00    -0.388 OA
ATOM     43  H5  UNL     1      10.443  37.674  22.349  1.00  0.00     0.210 HD
ENDBRANCH  34  42
ENDBRANCH  27  28
ENDBRANCH   1  27
BRANCH  16  44
HETATM   44  O4  UNL     1       9.071  47.171  14.510  1.00  0.00    -0.395 OA
ATOM     45  H4  UNL     1       8.192  47.077  14.164  1.00  0.00     0.210 HD
ENDBRANCH  16  44
TORSDOF 7
ENDMDL
MODEL 2
REMARK VINA RESULT: -7.543589073      4.534      9.041
REMARK  7 active torsions:
REMARK  status: ('A' for Active; 'I' for Inactive)
REMARK    1  A    between atoms: C3_4  and  O2_5 
REMARK    2  A    between atoms: O2_5  and  C4_6 
REMARK    3  A    between atoms: C18_21  and  O4_22 
REMARK    4  A    between atoms: C29_34  and  O5_35 
REMARK    5  A    between atoms: C30_37  and  O6_38 
REMARK    6  A    between atoms: O6_38  and  S1_39 
REMARK    7  A    between atoms: C31_43  and  O10_44 
ROOT
HETATM    1  C4  UNL     1       4.667  38.679  25.690  1.00  0.00     0.162 C 
HETATM    2  C5  UNL     1       3.432  37.848  25.968  1.00  0.00     0.148 C 
HETATM    3  C6  UNL     1       2.404  38.530  26.850  1.00  0.00     0.042 C 
HETATM    4  O3  UNL     1       2.747  37.357  24.914  1.00  0.00    -0.373 OA
HETATM    5  C7  UNL     1       2.483  38.220  23.885  1.00  0.00     0.059 C 
HETATM    6  C8  UNL     1       1.895  37.296  22.786  1.00  0.00     0.046 C 
HETATM    7  C9  UNL     1       1.458  39.253  24.065  1.00  0.00     0.046 C 
HETATM    8  C10 UNL     1       3.791  38.662  23.339  1.00  0.00     0.031 C 
HETATM    9  C11 UNL     1       3.691  39.379  22.046  1.00  0.00     0.009 C 
HETATM   10  C12 UNL     1       5.025  39.088  21.336  1.00  0.00     0.007 C 
HETATM   11  C13 UNL     1       6.060  39.706  22.272  1.00  0.00     0.003 C 
HETATM   12  C14 UNL     1       7.362  39.941  21.573  1.00  0.00    -0.035 C 
HETATM   13  C15 UNL     1       6.955  40.701  20.296  1.00  0.00     0.016 C 
HETATM   14  C16 UNL     1       8.059  38.718  21.077  1.00  0.00     0.012 C 
HETATM   15  C17 UNL     1       9.170  39.223  20.145  1.00  0.00     0.033 C 
HETATM   16  C18 UNL     1      10.165  40.024  20.894  1.00  0.00     0.126 C 
HETATM   17  C19 UNL     1       9.625  41.033  21.856  1.00  0.00    -0.017 C 
HETATM   18  C20 UNL     1       9.700  42.464  21.303  1.00  0.00     0.018 C 
HETATM   19  C21 UNL     1      10.641  41.050  23.018  1.00  0.00     0.018 C 
HETATM   20  C22 UNL     1       8.279  40.722  22.429  1.00  0.00     0.004 C 
HETATM   21  C23 UNL     1       8.458  40.005  23.721  1.00  0.00     0.007 C 
HETATM   22  C24 UNL     1       7.180  39.677  24.436  1.00  0.00     0.011 C 
HETATM   23  C25 UNL     1       6.108  39.071  23.621  1.00  0.00    -0.029 C 
HETATM   24  C26 UNL     1       6.400  37.591  23.530  1.00  0.00     0.016 C 
HETATM   25  C27 UNL     1       4.756  39.305  24.343  1.00  0.00    -0.001 C 
HETATM   26  C28 UNL     1       4.476  40.769  24.495  1.00  0.00     0.019 C 
ENDROOT
BRANCH   1  27
HETATM   27  O2  UNL     1       4.676  39.589  26.780  1.00  0.00    -0.350 OA
BRANCH  27  28
HETATM   28  C3  UNL     1       5.819  39.557  27.550  1.00  0.00     0.292 C 
HETATM   29  O1  UNL     1       5.906  40.542  28.493  1.00  0.00    -0.351 OA
HETATM   30  C2  UNL     1       6.823  40.435  29.476  1.00  0.00     0.152 C 
HETATM   31  C1  UNL     1       7.408  41.843  29.687  1.00  0.00     0.042 C 
HETATM   32  C31 UNL     1       7.942  39.526  29.035  1.00  0.00     0.180 C 
HETATM   33  C30 UNL     1       7.366  38.149  28.861  1.00  0.00     0.209 C 
HETATM   34  C29 UNL     1       6.017  38.169  28.180  1.00  0.00     0.206 C 
BRANCH  32  35
HETATM   35  O10 UNL     1       8.994  39.526  29.953  1.00  0.00    -0.390 OA
ATOM     36  H10 UNL     1       9.765  39.954  29.600  1.00  0.00     0.210 HD
ENDBRANCH  32  35
BRANCH  33  37
HETATM   37  O6  UNL     1       8.240  37.426  28.058  1.00  0.00    -0.246 OA
BRANCH  37  38
HETATM   38  S1  UNL     1       7.959  35.773  28.131  1.00  0.00     0.252 S 
HETATM   39  O7  UNL     1       8.128  35.265  29.531  1.00  0.00    -0.572 OA
HETATM   40  O8  UNL     1       9.021  35.120  27.260  1.00  0.00    -0.572 OA
HETATM   41  O9  UNL     1       6.441  35.468  27.511  1.00  0.00    -0.572 OA
ENDBRANCH  37  38
ENDBRANCH  33  37
BRANCH  34  42
HETATM   42  O5  UNL     1       4.987  37.822  29.031  1.00  0.00    -0.388 OA
ATOM     43  H5  UNL     1       5.124  36.979  29.444  1.00  0.00     0.210 HD
ENDBRANCH  34  42
ENDBRANCH  27  28
ENDBRANCH   1  27
BRANCH  16  44
HETATM   44  O4  UNL     1      10.980  40.681  19.944  1.00  0.00    -0.395 OA
ATOM     45  H4  UNL     1      11.229  41.519  20.315  1.00  0.00     0.210 HD
ENDBRANCH  16  44
TORSDOF 7
ENDMDL
MODEL 3
REMARK VINA RESULT: -7.356568224      9.707     13.847
REMARK  7 active torsions:
REMARK  status: ('A' for Active; 'I' for Inactive)
REMARK    1  A    between atoms: C3_4  and  O2_5 
REMARK    2  A    between atoms: O2_5  and  C4_6 
REMARK    3  A    between atoms: C18_21  and  O4_22 
REMARK    4  A    between atoms: C29_34  and  O5_35 
REMARK    5  A    between atoms: C30_37  and  O6_38 
REMARK    6  A    between atoms: O6_38  and  S1_39 
REMARK    7  A    between atoms: C31_43  and  O10_44 
ROOT
HETATM    1  C4  UNL     1       4.150  37.864  26.808  1.00  0.00     0.162 C 
HETATM    2  C5  UNL     1       5.120  37.930  25.648  1.00  0.00     0.148 C 
HETATM    3  C6  UNL     1       6.376  37.100  25.834  1.00  0.00     0.042 C 
HETATM    4  O3  UNL     1       4.658  37.630  24.416  1.00  0.00    -0.373 OA
HETATM    5  C7  UNL     1       3.892  36.503  24.295  1.00  0.00     0.059 C 
HETATM    6  C8  UNL     1       3.368  36.581  22.838  1.00  0.00     0.046 C 
HETATM    7  C9  UNL     1       4.540  35.188  24.368  1.00  0.00     0.046 C 
HETATM    8  C10 UNL     1       2.685  36.702  25.137  1.00  0.00     0.031 C 
HETATM    9  C11 UNL     1       1.620  35.699  24.905  1.00  0.00     0.009 C 
HETATM   10  C12 UNL     1       0.311  36.439  25.234  1.00  0.00     0.007 C 
HETATM   11  C13 UNL     1       0.474  36.794  26.710  1.00  0.00     0.003 C 
HETATM   12  C14 UNL     1      -0.843  37.107  27.347  1.00  0.00    -0.035 C 
HETATM   13  C15 UNL     1      -1.730  35.908  26.955  1.00  0.00     0.016 C 
HETATM   14  C16 UNL     1      -1.559  38.298  26.802  1.00  0.00     0.012 C 
HETATM   15  C17 UNL     1      -2.982  38.226  27.376  1.00  0.00     0.033 C 
HETATM   16  C18 UNL     1      -2.965  38.359  28.850  1.00  0.00     0.126 C 
HETATM   17  C19 UNL     1      -1.936  37.561  29.582  1.00  0.00    -0.017 C 
HETATM   18  C20 UNL     1      -2.532  36.313  30.250  1.00  0.00     0.018 C 
HETATM   19  C21 UNL     1      -1.535  38.445  30.783  1.00  0.00     0.018 C 
HETATM   20  C22 UNL     1      -0.693  37.246  28.811  1.00  0.00     0.004 C 
HETATM   21  C23 UNL     1       0.328  38.292  29.092  1.00  0.00     0.007 C 
HETATM   22  C24 UNL     1       1.651  38.069  28.420  1.00  0.00     0.011 C 
HETATM   23  C25 UNL     1       1.609  37.721  26.985  1.00  0.00    -0.029 C 
HETATM   24  C26 UNL     1       1.471  39.015  26.216  1.00  0.00     0.016 C 
HETATM   25  C27 UNL     1       2.941  37.019  26.615  1.00  0.00    -0.001 C 
HETATM   26  C28 UNL     1       3.124  35.763  27.410  1.00  0.00     0.019 C 
ENDROOT
BRANCH   1  27
HETATM   27  O2  UNL     1       4.989  37.480  27.888  1.00  0.00    -0.350 OA
BRANCH  27  28
HETATM   28  C3  UNL     1       5.110  38.419  28.889  1.00  0.00     0.292 C 
HETATM   29  O1  UNL     1       4.260  38.250  29.945  1.00  0.00    -0.351 OA
HETATM   30  C2  UNL     1       4.487  38.925  31.090  1.00  0.00     0.152 C 
HETATM   31  C1  UNL     1       3.113  39.386  31.609  1.00  0.00     0.042 C 
HETATM   32  C31 UNL     1       5.314  40.153  30.804  1.00  0.00     0.180 C 
HETATM   33  C30 UNL     1       6.662  39.690  30.327  1.00  0.00     0.209 C 
HETATM   34  C29 UNL     1       6.567  38.529  29.364  1.00  0.00     0.206 C 
BRANCH  32  35
HETATM   35  O10 UNL     1       5.425  40.969  31.931  1.00  0.00    -0.390 OA
ATOM     36  H10 UNL     1       6.218  41.492  31.906  1.00  0.00     0.210 HD
ENDBRANCH  32  35
BRANCH  33  37
HETATM   37  O6  UNL     1       7.260  40.752  29.661  1.00  0.00    -0.246 OA
BRANCH  37  38
HETATM   38  S1  UNL     1       8.568  41.382  30.501  1.00  0.00     0.252 S 
HETATM   39  O7  UNL     1       8.234  41.563  31.951  1.00  0.00    -0.572 OA
HETATM   40  O8  UNL     1       8.840  42.755  29.905  1.00  0.00    -0.572 OA
HETATM   41  O9  UNL     1       9.881  40.382  30.260  1.00  0.00    -0.572 OA
ENDBRANCH  37  38
ENDBRANCH  33  37
BRANCH  34  42
HETATM   42  O5  UNL     1       7.038  37.350  29.905  1.00  0.00    -0.388 OA
ATOM     43  H5  UNL     1       7.902  37.444  30.287  1.00  0.00     0.210 HD
ENDBRANCH  34  42
ENDBRANCH  27  28
ENDBRANCH   1  27
BRANCH  16  44
HETATM   44  O4  UNL     1      -4.249  38.003  29.321  1.00  0.00    -0.395 OA
ATOM     45  H4  UNL     1      -4.319  38.314  30.215  1.00  0.00     0.210 HD
ENDBRANCH  16  44
TORSDOF 7
ENDMDL
MODEL 4
REMARK VINA RESULT: -7.178848295      2.906      7.542
REMARK  7 active torsions:
REMARK  status: ('A' for Active; 'I' for Inactive)
REMARK    1  A    between atoms: C3_4  and  O2_5 
REMARK    2  A    between atoms: O2_5  and  C4_6 
REMARK    3  A    between atoms: C18_21  and  O4_22 
REMARK    4  A    between atoms: C29_34  and  O5_35 
REMARK    5  A    between atoms: C30_37  and  O6_38 
REMARK    6  A    between atoms: O6_38  and  S1_39 
REMARK    7  A    between atoms: C31_43  and  O10_44 
ROOT
HETATM    1  C4  UNL     1       8.989  42.039  20.063  1.00  0.00     0.162 C 
HETATM    2  C5  UNL     1       7.660  41.394  20.394  1.00  0.00     0.148 C 
HETATM    3  C6  UNL     1       7.079  40.549  19.278  1.00  0.00     0.042 C 
HETATM    4  O3  UNL     1       7.582  40.638  21.509  1.00  0.00    -0.373 OA
HETATM    5  C7  UNL     1       8.584  39.730  21.718  1.00  0.00     0.059 C 
HETATM    6  C8  UNL     1       8.301  39.208  23.151  1.00  0.00     0.046 C 
HETATM    7  C9  UNL     1       8.627  38.512  20.900  1.00  0.00     0.046 C 
HETATM    8  C10 UNL     1       9.849  40.496  21.844  1.00  0.00     0.031 C 
HETATM    9  C11 UNL     1      10.989  39.696  22.349  1.00  0.00     0.009 C 
HETATM   10  C12 UNL     1      11.885  40.711  23.080  1.00  0.00     0.007 C 
HETATM   11  C13 UNL     1      12.291  41.679  21.971  1.00  0.00     0.003 C 
HETATM   12  C14 UNL     1      13.505  42.469  22.350  1.00  0.00    -0.035 C 
HETATM   13  C15 UNL     1      14.506  41.393  22.813  1.00  0.00     0.016 C 
HETATM   14  C16 UNL     1      13.348  43.369  23.529  1.00  0.00     0.012 C 
HETATM   15  C17 UNL     1      14.770  43.813  23.904  1.00  0.00     0.033 C 
HETATM   16  C18 UNL     1      15.379  44.611  22.817  1.00  0.00     0.126 C 
HETATM   17  C19 UNL     1      15.216  44.085  21.428  1.00  0.00    -0.017 C 
HETATM   18  C20 UNL     1      16.493  43.411  20.905  1.00  0.00     0.018 C 
HETATM   19  C21 UNL     1      15.096  45.345  20.543  1.00  0.00     0.018 C 
HETATM   20  C22 UNL     1      14.001  43.245  21.195  1.00  0.00     0.004 C 
HETATM   21  C23 UNL     1      12.902  44.113  20.691  1.00  0.00     0.007 C 
HETATM   22  C24 UNL     1      11.632  43.386  20.362  1.00  0.00     0.011 C 
HETATM   23  C25 UNL     1      11.146  42.423  21.371  1.00  0.00    -0.029 C 
HETATM   24  C26 UNL     1      10.387  43.213  22.412  1.00  0.00     0.016 C 
HETATM   25  C27 UNL     1      10.198  41.417  20.668  1.00  0.00    -0.001 C 
HETATM   26  C28 UNL     1      10.918  40.664  19.591  1.00  0.00     0.019 C 
ENDROOT
BRANCH   1  27
HETATM   27  O2  UNL     1       8.972  42.066  18.643  1.00  0.00    -0.350 OA
BRANCH  27  28
HETATM   28  C3  UNL     1       8.701  43.300  18.091  1.00  0.00     0.292 C 
HETATM   29  O1  UNL     1       8.839  44.356  18.947  1.00  0.00    -0.351 OA
HETATM   30  C2  UNL     1       8.882  45.608  18.447  1.00  0.00     0.152 C 
HETATM   31  C1  UNL     1       8.061  46.492  19.403  1.00  0.00     0.042 C 
HETATM   32  C31 UNL     1       8.218  45.642  17.094  1.00  0.00     0.180 C 
HETATM   33  C30 UNL     1       9.044  44.801  16.162  1.00  0.00     0.209 C 
HETATM   34  C29 UNL     1       9.515  43.517  16.807  1.00  0.00     0.206 C 
BRANCH  32  35
HETATM   35  O10 UNL     1       8.088  46.949  16.620  1.00  0.00    -0.390 OA
ATOM     36  H10 UNL     1       7.595  47.492  17.224  1.00  0.00     0.210 HD
ENDBRANCH  32  35
BRANCH  33  37
HETATM   37  O6  UNL     1       8.244  44.467  15.077  1.00  0.00    -0.246 OA
BRANCH  37  38
HETATM   38  S1  UNL     1       8.907  44.960  13.616  1.00  0.00     0.252 S 
HETATM   39  O7  UNL     1       8.994  43.813  12.656  1.00  0.00    -0.572 OA
HETATM   40  O8  UNL     1      10.322  45.426  13.924  1.00  0.00    -0.572 OA
HETATM   41  O9  UNL     1       8.000  46.229  13.027  1.00  0.00    -0.572 OA
ENDBRANCH  37  38
ENDBRANCH  33  37
BRANCH  34  42
HETATM   42  O5  UNL     1      10.876  43.505  17.035  1.00  0.00    -0.388 OA
ATOM     43  H5  UNL     1      11.379  43.676  16.248  1.00  0.00     0.210 HD
ENDBRANCH  34  42
ENDBRANCH  27  28
ENDBRANCH   1  27
BRANCH  16  44
HETATM   44  O4  UNL     1      16.758  44.736  23.106  1.00  0.00    -0.395 OA
ATOM     45  H4  UNL     1      17.236  44.399  22.357  1.00  0.00     0.210 HD
ENDBRANCH  16  44
TORSDOF 7
ENDMDL
MODEL 5
REMARK VINA RESULT: -7.134634966      2.617      6.125
REMARK  7 active torsions:
REMARK  status: ('A' for Active; 'I' for Inactive)
REMARK    1  A    between atoms: C3_4  and  O2_5 
REMARK    2  A    between atoms: O2_5  and  C4_6 
REMARK    3  A    between atoms: C18_21  and  O4_22 
REMARK    4  A    between atoms: C29_34  and  O5_35 
REMARK    5  A    between atoms: C30_37  and  O6_38 
REMARK    6  A    between atoms: O6_38  and  S1_39 
REMARK    7  A    between atoms: C31_43  and  O10_44 
ROOT
HETATM    1  C4  UNL     1      10.871  41.578  21.049  1.00  0.00     0.162 C 
HETATM    2  C5  UNL     1      10.739  40.111  21.397  1.00  0.00     0.148 C 
HETATM    3  C6  UNL     1      10.177  39.843  22.779  1.00  0.00     0.042 C 
HETATM    4  O3  UNL     1      10.043  39.318  20.555  1.00  0.00    -0.373 OA
HETATM    5  C7  UNL     1       8.832  39.785  20.119  1.00  0.00     0.059 C 
HETATM    6  C8  UNL     1       8.423  38.756  19.033  1.00  0.00     0.046 C 
HETATM    7  C9  UNL     1       7.694  39.795  21.045  1.00  0.00     0.046 C 
HETATM    8  C10 UNL     1       9.092  41.037  19.365  1.00  0.00     0.031 C 
HETATM    9  C11 UNL     1       7.928  41.524  18.589  1.00  0.00     0.009 C 
HETATM   10  C12 UNL     1       8.543  42.279  17.397  1.00  0.00     0.007 C 
HETATM   11  C13 UNL     1       9.319  43.411  18.065  1.00  0.00     0.003 C 
HETATM   12  C14 UNL     1       9.615  44.516  17.101  1.00  0.00    -0.035 C 
HETATM   13  C15 UNL     1       8.244  44.818  16.464  1.00  0.00     0.016 C 
HETATM   14  C16 UNL     1      10.492  44.153  15.949  1.00  0.00     0.012 C 
HETATM   15  C17 UNL     1      10.390  45.326  14.963  1.00  0.00     0.033 C 
HETATM   16  C18 UNL     1      10.936  46.567  15.559  1.00  0.00     0.126 C 
HETATM   17  C19 UNL     1      10.527  46.871  16.964  1.00  0.00    -0.017 C 
HETATM   18  C20 UNL     1       9.449  47.962  17.034  1.00  0.00     0.018 C 
HETATM   19  C21 UNL     1      11.761  47.554  17.592  1.00  0.00     0.018 C 
HETATM   20  C22 UNL     1      10.182  45.684  17.807  1.00  0.00     0.004 C 
HETATM   21  C23 UNL     1      11.395  45.253  18.554  1.00  0.00     0.007 C 
HETATM   22  C24 UNL     1      11.176  44.097  19.486  1.00  0.00     0.011 C 
HETATM   23  C25 UNL     1      10.434  42.944  18.938  1.00  0.00    -0.029 C 
HETATM   24  C26 UNL     1      11.426  42.098  18.173  1.00  0.00     0.016 C 
HETATM   25  C27 UNL     1       9.847  42.135  20.124  1.00  0.00    -0.001 C 
HETATM   26  C28 UNL     1       8.904  42.975  20.931  1.00  0.00     0.019 C 
ENDROOT
BRANCH   1  27
HETATM   27  O2  UNL     1      10.927  42.192  22.328  1.00  0.00    -0.350 OA
BRANCH  27  28
HETATM   28  C3  UNL     1      12.188  42.580  22.729  1.00  0.00     0.292 C 
HETATM   29  O1  UNL     1      13.116  42.643  21.729  1.00  0.00    -0.351 OA
HETATM   30  C2  UNL     1      14.284  43.279  21.953  1.00  0.00     0.152 C 
HETATM   31  C1  UNL     1      15.381  42.434  21.280  1.00  0.00     0.042 C 
HETATM   32  C31 UNL     1      14.569  43.320  23.433  1.00  0.00     0.180 C 
HETATM   33  C30 UNL     1      13.510  44.171  24.075  1.00  0.00     0.209 C 
HETATM   34  C29 UNL     1      12.132  43.897  23.517  1.00  0.00     0.206 C 
BRANCH  32  35
HETATM   35  O10 UNL     1      15.848  43.814  23.696  1.00  0.00    -0.390 OA
ATOM     36  H10 UNL     1      16.004  43.900  24.629  1.00  0.00     0.210 HD
ENDBRANCH  32  35
BRANCH  33  37
HETATM   37  O6  UNL     1      13.491  43.868  25.431  1.00  0.00    -0.246 OA
BRANCH  37  38
HETATM   38  S1  UNL     1      14.411  44.938  26.339  1.00  0.00     0.252 S 
HETATM   39  O7  UNL     1      14.811  46.126  25.519  1.00  0.00    -0.572 OA
HETATM   40  O8  UNL     1      15.675  44.188  26.733  1.00  0.00    -0.572 OA
HETATM   41  O9  UNL     1      13.544  45.354  27.702  1.00  0.00    -0.572 OA
ENDBRANCH  37  38
ENDBRANCH  33  37
BRANCH  34  42
HETATM   42  O5  UNL     1      11.646  44.945  22.762  1.00  0.00    -0.388 OA
ATOM     43  H5  UNL     1      12.120  45.058  21.948  1.00  0.00     0.210 HD
ENDBRANCH  34  42
ENDBRANCH  27  28
ENDBRANCH   1  27
BRANCH  16  44
HETATM   44  O4  UNL     1      10.553  47.641  14.723  1.00  0.00    -0.395 OA
ATOM     45  H4  UNL     1       9.614  47.749  14.813  1.00  0.00     0.210 HD
ENDBRANCH  16  44
TORSDOF 7
ENDMDL
