MODEL 1
REMARK VINA RESULT: -7.478814694      0.000      0.000
REMARK  7 active torsions:
REMARK  status: ('A' for Active; 'I' for Inactive)
REMARK    1  A    between atoms: C2_2  and  O1_3 
REMARK    2  A    between atoms: O1_3  and  C3_4 
REMARK    3  A    between atoms: C3_4  and  C4_6 
REMARK    4  A    between atoms: C13_16  and  O4_17 
REMARK    5  A    between atoms: C14_20  and  C16_22 
REMARK    6  A    between atoms: C26_35  and  O6_36 
REMARK    7  A    between atoms: C32_43  and  O7_44 
ROOT
HETATM    1  C4  UNL     1       5.648  39.513  22.851  1.00  0.00     0.162 C 
HETATM    2  C5  UNL     1       4.353  40.199  23.251  1.00  0.00     0.050 C 
HETATM    3  C6  UNL     1       4.419  40.646  24.658  1.00  0.00     0.012 C 
HETATM    4  C7  UNL     1       5.478  41.676  24.841  1.00  0.00    -0.047 C 
HETATM    5  C8  UNL     1       4.907  43.070  25.006  1.00  0.00     0.015 C 
HETATM    6  C9  UNL     1       6.242  41.367  26.125  1.00  0.00     0.015 C 
HETATM    7  C10 UNL     1       6.525  41.677  23.716  1.00  0.00     0.019 C 
HETATM    8  C11 UNL     1       6.860  40.241  23.402  1.00  0.00     0.061 C 
HETATM    9  C12 UNL     1       8.099  40.002  22.625  1.00  0.00     0.142 C 
HETATM   10  O3  UNL     1       7.936  39.509  21.361  1.00  0.00    -0.302 OA
HETATM   11  C13 UNL     1       6.762  39.341  20.791  1.00  0.00     0.416 C 
HETATM   12  O5  UNL     1       6.704  40.195  19.680  1.00  0.00    -0.292 OA
HETATM   13  C14 UNL     1       7.990  40.680  19.312  1.00  0.00     0.097 C 
HETATM   14  C15 UNL     1       8.922  39.622  18.892  1.00  0.00     0.052 C 
HETATM   15  C17 UNL     1       8.464  41.741  20.228  1.00  0.00     0.049 C 
HETATM   16  C18 UNL     1       9.562  41.469  21.171  1.00  0.00     0.004 C 
HETATM   17  C19 UNL     1       9.135  41.058  22.574  1.00  0.00     0.020 C 
HETATM   18  C20 UNL     1      10.449  40.426  23.083  1.00  0.00     0.008 C 
HETATM   19  C21 UNL     1      11.548  41.394  23.237  1.00  0.00     0.007 C 
HETATM   20  C22 UNL     1      11.393  42.675  22.475  1.00  0.00     0.003 C 
HETATM   21  C23 UNL     1      10.471  42.685  21.332  1.00  0.00    -0.033 C 
HETATM   22  C24 UNL     1       9.521  43.894  21.421  1.00  0.00     0.016 C 
HETATM   23  C25 UNL     1      11.150  42.830  19.976  1.00  0.00     0.042 C 
HETATM   24  C26 UNL     1      12.545  42.288  19.961  1.00  0.00     0.128 C 
HETATM   25  C27 UNL     1      13.418  43.053  20.966  1.00  0.00    -0.010 C 
HETATM   26  C28 UNL     1      13.789  44.299  20.135  1.00  0.00     0.018 C 
HETATM   27  C29 UNL     1      14.680  42.252  21.078  1.00  0.00     0.019 C 
HETATM   28  C30 UNL     1      15.608  42.619  22.160  1.00  0.00     0.011 C 
HETATM   29  C31 UNL     1      16.867  43.342  21.658  1.00  0.00     0.012 C 
HETATM   30  C32 UNL     1      15.052  43.412  23.276  1.00  0.00     0.122 C 
HETATM   31  C33 UNL     1      13.577  43.231  23.482  1.00  0.00     0.042 C 
HETATM   32  C34 UNL     1      12.736  43.376  22.223  1.00  0.00    -0.028 C 
HETATM   33  C35 UNL     1      12.465  44.894  22.202  1.00  0.00     0.016 C 
HETATM   34  O8  UNL     1       5.602  39.453  21.471  1.00  0.00    -0.286 OA
ENDROOT
BRANCH   1  35
HETATM   35  C3  UNL     1       5.582  38.119  23.366  1.00  0.00     0.294 C 
HETATM   36  O2  UNL     1       4.539  37.411  23.359  1.00  0.00    -0.262 OA
BRANCH  35  37
HETATM   37  O1  UNL     1       6.711  37.540  23.888  1.00  0.00    -0.319 OA
BRANCH  37  38
HETATM   38  C2  UNL     1       6.762  36.744  25.050  1.00  0.00     0.174 C 
HETATM   39  C1  UNL     1       6.773  37.704  26.243  1.00  0.00     0.034 C 
ENDBRANCH  37  38
ENDBRANCH  35  37
ENDBRANCH   1  35
BRANCH  11  40
HETATM   40  O4  UNL     1       6.765  38.050  20.185  1.00  0.00    -0.319 OA
ATOM     41  H4  UNL     1       6.615  37.413  20.874  1.00  0.00     0.218 HD
ENDBRANCH  11  40
BRANCH  13  42
HETATM   42  C16 UNL     1       7.631  41.395  18.011  1.00  0.00     0.091 C 
HETATM   43  N1  UNL     1       7.514  40.748  16.931  1.00  0.00    -0.409 N 
ATOM     44  H12 UNL     1       7.665  39.739  16.947  1.00  0.00     0.155 HD
ATOM     45  H11 UNL     1       7.275  41.225  16.063  1.00  0.00     0.155 HD
ENDBRANCH  13  42
BRANCH  24  46
HETATM   46  O6  UNL     1      12.605  40.926  20.122  1.00  0.00    -0.395 OA
ATOM     47  H6  UNL     1      12.891  40.659  20.988  1.00  0.00     0.210 HD
ENDBRANCH  24  46
BRANCH  30  48
HETATM   48  O7  UNL     1      15.460  44.757  23.301  1.00  0.00    -0.395 OA
ATOM     49  H7  UNL     1      16.239  44.927  23.817  1.00  0.00     0.210 HD
ENDBRANCH  30  48
TORSDOF 7
ENDMDL
MODEL 2
REMARK VINA RESULT: -7.196878982      6.865      9.494
REMARK  7 active torsions:
REMARK  status: ('A' for Active; 'I' for Inactive)
REMARK    1  A    between atoms: C2_2  and  O1_3 
REMARK    2  A    between atoms: O1_3  and  C3_4 
REMARK    3  A    between atoms: C3_4  and  C4_6 
REMARK    4  A    between atoms: C13_16  and  O4_17 
REMARK    5  A    between atoms: C14_20  and  C16_22 
REMARK    6  A    between atoms: C26_35  and  O6_36 
REMARK    7  A    between atoms: C32_43  and  O7_44 
ROOT
HETATM    1  C4  UNL     1       6.299  36.361  26.495  1.00  0.00     0.162 C 
HETATM    2  C5  UNL     1       6.559  36.012  27.950  1.00  0.00     0.050 C 
HETATM    3  C6  UNL     1       7.270  37.116  28.628  1.00  0.00     0.012 C 
HETATM    4  C7  UNL     1       6.432  38.346  28.665  1.00  0.00    -0.047 C 
HETATM    5  C8  UNL     1       5.858  38.613  30.042  1.00  0.00     0.015 C 
HETATM    6  C9  UNL     1       7.311  39.546  28.324  1.00  0.00     0.015 C 
HETATM    7  C10 UNL     1       5.300  38.341  27.626  1.00  0.00     0.019 C 
HETATM    8  C11 UNL     1       5.867  37.807  26.335  1.00  0.00     0.061 C 
HETATM    9  C12 UNL     1       5.075  38.056  25.108  1.00  0.00     0.142 C 
HETATM   10  O3  UNL     1       4.525  36.958  24.508  1.00  0.00    -0.302 OA
HETATM   11  C13 UNL     1       4.583  35.746  25.016  1.00  0.00     0.416 C 
HETATM   12  O5  UNL     1       3.270  35.343  25.301  1.00  0.00    -0.292 OA
HETATM   13  C14 UNL     1       2.307  36.165  24.654  1.00  0.00     0.097 C 
HETATM   14  C15 UNL     1       2.376  36.112  23.186  1.00  0.00     0.052 C 
HETATM   15  C17 UNL     1       2.156  37.475  25.325  1.00  0.00     0.049 C 
HETATM   16  C18 UNL     1       2.664  38.699  24.682  1.00  0.00     0.004 C 
HETATM   17  C19 UNL     1       4.060  39.134  25.109  1.00  0.00     0.020 C 
HETATM   18  C20 UNL     1       4.414  40.088  23.949  1.00  0.00     0.008 C 
HETATM   19  C21 UNL     1       3.581  41.302  23.909  1.00  0.00     0.007 C 
HETATM   20  C22 UNL     1       2.283  41.221  24.653  1.00  0.00     0.003 C 
HETATM   21  C23 UNL     1       1.740  39.887  24.940  1.00  0.00    -0.033 C 
HETATM   22  C24 UNL     1       1.344  39.779  26.425  1.00  0.00     0.016 C 
HETATM   23  C25 UNL     1       0.466  39.547  24.178  1.00  0.00     0.042 C 
HETATM   24  C26 UNL     1       0.363  40.262  22.867  1.00  0.00     0.128 C 
HETATM   25  C27 UNL     1       0.338  41.780  23.095  1.00  0.00    -0.010 C 
HETATM   26  C28 UNL     1      -1.151  41.995  23.441  1.00  0.00     0.018 C 
HETATM   27  C29 UNL     1       0.527  42.384  21.737  1.00  0.00     0.019 C 
HETATM   28  C30 UNL     1       0.789  43.831  21.682  1.00  0.00     0.011 C 
HETATM   29  C31 UNL     1      -0.410  44.644  21.173  1.00  0.00     0.012 C 
HETATM   30  C32 UNL     1       1.268  44.471  22.925  1.00  0.00     0.122 C 
HETATM   31  C33 UNL     1       1.985  43.539  23.857  1.00  0.00     0.042 C 
HETATM   32  C34 UNL     1       1.250  42.239  24.148  1.00  0.00    -0.028 C 
HETATM   33  C35 UNL     1       0.373  42.639  25.351  1.00  0.00     0.016 C 
HETATM   34  O8  UNL     1       5.359  35.438  26.075  1.00  0.00    -0.286 OA
ENDROOT
BRANCH   1  35
HETATM   35  C3  UNL     1       7.558  36.094  25.750  1.00  0.00     0.294 C 
HETATM   36  O2  UNL     1       7.726  36.356  24.528  1.00  0.00    -0.262 OA
BRANCH  35  37
HETATM   37  O1  UNL     1       8.622  35.530  26.407  1.00  0.00    -0.319 OA
BRANCH  37  38
HETATM   38  C2  UNL     1       9.056  34.196  26.270  1.00  0.00     0.174 C 
HETATM   39  C1  UNL     1       9.517  33.736  27.655  1.00  0.00     0.034 C 
ENDBRANCH  37  38
ENDBRANCH  35  37
ENDBRANCH   1  35
BRANCH  11  40
HETATM   40  O4  UNL     1       4.951  34.861  23.960  1.00  0.00    -0.319 OA
ATOM     41  H4  UNL     1       5.292  35.393  23.250  1.00  0.00     0.218 HD
ENDBRANCH  11  40
BRANCH  13  42
HETATM   42  C16 UNL     1       1.037  35.385  24.992  1.00  0.00     0.091 C 
HETATM   43  N1  UNL     1      -0.083  35.968  25.041  1.00  0.00    -0.409 N 
ATOM     44  H12 UNL     1      -0.122  36.970  24.850  1.00  0.00     0.155 HD
ATOM     45  H11 UNL     1      -0.931  35.448  25.267  1.00  0.00     0.155 HD
ENDBRANCH  13  42
BRANCH  24  46
HETATM   46  O6  UNL     1       1.310  39.870  21.953  1.00  0.00    -0.395 OA
ATOM     47  H6  UNL     1       1.026  39.962  21.050  1.00  0.00     0.210 HD
ENDBRANCH  24  46
BRANCH  30  48
HETATM   48  O7  UNL     1       0.322  45.287  23.568  1.00  0.00    -0.395 OA
ATOM     49  H7  UNL     1      -0.029  44.929  24.375  1.00  0.00     0.210 HD
ENDBRANCH  30  48
TORSDOF 7
ENDMDL
MODEL 3
REMARK VINA RESULT: -7.183231606      2.385      4.485
REMARK  7 active torsions:
REMARK  status: ('A' for Active; 'I' for Inactive)
REMARK    1  A    between atoms: C2_2  and  O1_3 
REMARK    2  A    between atoms: O1_3  and  C3_4 
REMARK    3  A    between atoms: C3_4  and  C4_6 
REMARK    4  A    between atoms: C13_16  and  O4_17 
REMARK    5  A    between atoms: C14_20  and  C16_22 
REMARK    6  A    between atoms: C26_35  and  O6_36 
REMARK    7  A    between atoms: C32_43  and  O7_44 
ROOT
HETATM    1  C4  UNL     1       5.356  37.488  26.814  1.00  0.00     0.162 C 
HETATM    2  C5  UNL     1       4.812  38.003  28.136  1.00  0.00     0.050 C 
HETATM    3  C6  UNL     1       5.918  38.297  29.072  1.00  0.00     0.012 C 
HETATM    4  C7  UNL     1       6.779  39.394  28.551  1.00  0.00    -0.047 C 
HETATM    5  C8  UNL     1       6.553  40.702  29.282  1.00  0.00     0.015 C 
HETATM    6  C9  UNL     1       8.239  39.019  28.778  1.00  0.00     0.015 C 
HETATM    7  C10 UNL     1       6.629  39.616  27.037  1.00  0.00     0.019 C 
HETATM    8  C11 UNL     1       6.587  38.260  26.378  1.00  0.00     0.061 C 
HETATM    9  C12 UNL     1       6.821  38.224  24.916  1.00  0.00     0.142 C 
HETATM   10  O3  UNL     1       5.757  37.860  24.140  1.00  0.00    -0.302 OA
HETATM   11  C13 UNL     1       4.549  37.648  24.616  1.00  0.00     0.416 C 
HETATM   12  O5  UNL     1       3.697  38.609  24.053  1.00  0.00    -0.292 OA
HETATM   13  C14 UNL     1       4.284  39.249  22.927  1.00  0.00     0.097 C 
HETATM   14  C15 UNL     1       4.565  38.336  21.809  1.00  0.00     0.052 C 
HETATM   15  C17 UNL     1       5.306  40.243  23.325  1.00  0.00     0.049 C 
HETATM   16  C18 UNL     1       6.734  39.972  23.087  1.00  0.00     0.004 C 
HETATM   17  C19 UNL     1       7.493  39.372  24.263  1.00  0.00     0.020 C 
HETATM   18  C20 UNL     1       8.731  38.812  23.530  1.00  0.00     0.008 C 
HETATM   19  C21 UNL     1       9.595  39.855  22.952  1.00  0.00     0.007 C 
HETATM   20  C22 UNL     1       8.948  41.192  22.751  1.00  0.00     0.003 C 
HETATM   21  C23 UNL     1       7.482  41.242  22.689  1.00  0.00    -0.033 C 
HETATM   22  C24 UNL     1       6.944  42.340  23.626  1.00  0.00     0.016 C 
HETATM   23  C25 UNL     1       6.920  41.598  21.319  1.00  0.00     0.042 C 
HETATM   24  C26 UNL     1       7.822  41.192  20.195  1.00  0.00     0.128 C 
HETATM   25  C27 UNL     1       9.169  41.920  20.313  1.00  0.00    -0.010 C 
HETATM   26  C28 UNL     1       8.819  43.279  19.671  1.00  0.00     0.018 C 
HETATM   27  C29 UNL     1      10.072  41.233  19.334  1.00  0.00     0.019 C 
HETATM   28  C30 UNL     1      11.505  41.563  19.404  1.00  0.00     0.011 C 
HETATM   29  C31 UNL     1      11.979  42.450  18.244  1.00  0.00     0.012 C 
HETATM   30  C32 UNL     1      11.989  42.174  20.661  1.00  0.00     0.122 C 
HETATM   31  C33 UNL     1      11.162  41.835  21.865  1.00  0.00     0.042 C 
HETATM   32  C34 UNL     1       9.665  42.039  21.688  1.00  0.00    -0.028 C 
HETATM   33  C35 UNL     1       9.501  43.517  22.092  1.00  0.00     0.016 C 
HETATM   34  O8  UNL     1       4.291  37.576  25.938  1.00  0.00    -0.286 OA
ENDROOT
BRANCH   1  35
HETATM   35  C3  UNL     1       5.669  36.046  27.002  1.00  0.00     0.294 C 
HETATM   36  O2  UNL     1       4.836  35.188  27.402  1.00  0.00    -0.262 OA
BRANCH  35  37
HETATM   37  O1  UNL     1       6.934  35.591  26.731  1.00  0.00    -0.319 OA
BRANCH  37  38
HETATM   38  C2  UNL     1       7.941  35.347  27.687  1.00  0.00     0.174 C 
HETATM   39  C1  UNL     1       8.975  34.439  27.018  1.00  0.00     0.034 C 
ENDBRANCH  37  38
ENDBRANCH  35  37
ENDBRANCH   1  35
BRANCH  11  40
HETATM   40  O4  UNL     1       4.070  36.437  24.033  1.00  0.00    -0.319 OA
ATOM     41  H4  UNL     1       3.238  36.235  24.444  1.00  0.00     0.218 HD
ENDBRANCH  11  40
BRANCH  13  42
HETATM   42  C16 UNL     1       3.087  40.066  22.444  1.00  0.00     0.091 C 
HETATM   43  N1  UNL     1       2.265  39.579  21.617  1.00  0.00    -0.409 N 
ATOM     44  H12 UNL     1       2.418  38.629  21.278  1.00  0.00     0.155 HD
ATOM     45  H11 UNL     1       1.467  40.124  21.294  1.00  0.00     0.155 HD
ENDBRANCH  13  42
BRANCH  24  46
HETATM   46  O6  UNL     1       7.954  39.832  20.062  1.00  0.00    -0.395 OA
ATOM     47  H6  UNL     1       8.844  39.554  19.876  1.00  0.00     0.210 HD
ENDBRANCH  24  46
BRANCH  30  48
HETATM   48  O7  UNL     1      12.306  43.539  20.566  1.00  0.00    -0.395 OA
ATOM     49  H7  UNL     1      12.390  43.987  21.400  1.00  0.00     0.210 HD
ENDBRANCH  30  48
TORSDOF 7
ENDMDL
MODEL 4
REMARK VINA RESULT: -6.927714280      2.703      5.022
REMARK  7 active torsions:
REMARK  status: ('A' for Active; 'I' for Inactive)
REMARK    1  A    between atoms: C2_2  and  O1_3 
REMARK    2  A    between atoms: O1_3  and  C3_4 
REMARK    3  A    between atoms: C3_4  and  C4_6 
REMARK    4  A    between atoms: C13_16  and  O4_17 
REMARK    5  A    between atoms: C14_20  and  C16_22 
REMARK    6  A    between atoms: C26_35  and  O6_36 
REMARK    7  A    between atoms: C32_43  and  O7_44 
ROOT
HETATM    1  C4  UNL     1       5.156  37.824  27.331  1.00  0.00     0.162 C 
HETATM    2  C5  UNL     1       4.987  38.232  28.785  1.00  0.00     0.050 C 
HETATM    3  C6  UNL     1       6.257  38.060  29.521  1.00  0.00     0.012 C 
HETATM    4  C7  UNL     1       7.312  38.962  28.983  1.00  0.00    -0.047 C 
HETATM    5  C8  UNL     1       7.586  40.140  29.897  1.00  0.00     0.015 C 
HETATM    6  C9  UNL     1       8.618  38.181  28.881  1.00  0.00     0.015 C 
HETATM    7  C10 UNL     1       7.010  39.469  27.564  1.00  0.00     0.019 C 
HETATM    8  C11 UNL     1       6.479  38.306  26.765  1.00  0.00     0.061 C 
HETATM    9  C12 UNL     1       6.473  38.458  25.292  1.00  0.00     0.142 C 
HETATM   10  O3  UNL     1       5.246  38.526  24.695  1.00  0.00    -0.302 OA
HETATM   11  C13 UNL     1       4.112  38.562  25.362  1.00  0.00     0.416 C 
HETATM   12  O5  UNL     1       3.502  39.796  25.093  1.00  0.00    -0.292 OA
HETATM   13  C14 UNL     1       4.075  40.440  23.962  1.00  0.00     0.097 C 
HETATM   14  C15 UNL     1       3.909  39.688  22.709  1.00  0.00     0.052 C 
HETATM   15  C17 UNL     1       5.388  41.045  24.275  1.00  0.00     0.049 C 
HETATM   16  C18 UNL     1       6.624  40.451  23.739  1.00  0.00     0.004 C 
HETATM   17  C19 UNL     1       7.343  39.481  24.667  1.00  0.00     0.020 C 
HETATM   18  C20 UNL     1       8.242  38.747  23.649  1.00  0.00     0.008 C 
HETATM   19  C21 UNL     1       9.275  39.607  23.048  1.00  0.00     0.007 C 
HETATM   20  C22 UNL     1       9.022  41.081  23.138  1.00  0.00     0.003 C 
HETATM   21  C23 UNL     1       7.641  41.527  23.363  1.00  0.00    -0.033 C 
HETATM   22  C24 UNL     1       7.590  42.552  24.512  1.00  0.00     0.016 C 
HETATM   23  C25 UNL     1       7.009  42.246  22.178  1.00  0.00     0.042 C 
HETATM   24  C26 UNL     1       7.578  41.813  20.863  1.00  0.00     0.128 C 
HETATM   25  C27 UNL     1       9.079  42.128  20.809  1.00  0.00    -0.010 C 
HETATM   26  C28 UNL     1       9.047  43.620  20.415  1.00  0.00     0.018 C 
HETATM   27  C29 UNL     1       9.589  41.403  19.600  1.00  0.00     0.019 C 
HETATM   28  C30 UNL     1      11.049  41.326  19.436  1.00  0.00     0.011 C 
HETATM   29  C31 UNL     1      11.582  42.239  18.323  1.00  0.00     0.012 C 
HETATM   30  C32 UNL     1      11.871  41.564  20.642  1.00  0.00     0.122 C 
HETATM   31  C33 UNL     1      11.169  41.256  21.932  1.00  0.00     0.042 C 
HETATM   32  C34 UNL     1       9.787  41.876  22.069  1.00  0.00    -0.028 C 
HETATM   33  C35 UNL     1      10.121  43.254  22.673  1.00  0.00     0.016 C 
HETATM   34  O8  UNL     1       4.045  38.338  26.691  1.00  0.00    -0.286 OA
ENDROOT
BRANCH   1  35
HETATM   35  C3  UNL     1       5.062  36.341  27.280  1.00  0.00     0.294 C 
HETATM   36  O2  UNL     1       6.039  35.563  27.455  1.00  0.00    -0.262 OA
BRANCH  35  37
HETATM   37  O1  UNL     1       3.848  35.751  27.028  1.00  0.00    -0.319 OA
BRANCH  37  38
HETATM   38  C2  UNL     1       2.859  35.467  27.992  1.00  0.00     0.174 C 
HETATM   39  C1  UNL     1       1.508  35.563  27.279  1.00  0.00     0.034 C 
ENDBRANCH  37  38
ENDBRANCH  35  37
ENDBRANCH   1  35
BRANCH  11  40
HETATM   40  O4  UNL     1       3.222  37.639  24.739  1.00  0.00    -0.319 OA
ATOM     41  H4  UNL     1       2.819  38.087  24.005  1.00  0.00     0.218 HD
ENDBRANCH  11  40
BRANCH  13  42
HETATM   42  C16 UNL     1       3.108  41.614  23.819  1.00  0.00     0.091 C 
HETATM   43  N1  UNL     1       1.859  41.422  23.800  1.00  0.00    -0.409 N 
ATOM     44  H12 UNL     1       1.510  40.467  23.883  1.00  0.00     0.155 HD
ATOM     45  H11 UNL     1       1.214  42.205  23.704  1.00  0.00     0.155 HD
ENDBRANCH  13  42
BRANCH  24  46
HETATM   46  O6  UNL     1       7.288  40.510  20.543  1.00  0.00    -0.395 OA
ATOM     47  H6  UNL     1       6.567  40.147  21.045  1.00  0.00     0.210 HD
ENDBRANCH  24  46
BRANCH  30  48
HETATM   48  O7  UNL     1      12.552  42.793  20.655  1.00  0.00    -0.395 OA
ATOM     49  H7  UNL     1      13.324  42.814  21.208  1.00  0.00     0.210 HD
ENDBRANCH  30  48
TORSDOF 7
ENDMDL
MODEL 5
REMARK VINA RESULT: -6.911837993      4.601     10.795
REMARK  7 active torsions:
REMARK  status: ('A' for Active; 'I' for Inactive)
REMARK    1  A    between atoms: C2_2  and  O1_3 
REMARK    2  A    between atoms: O1_3  and  C3_4 
REMARK    3  A    between atoms: C3_4  and  C4_6 
REMARK    4  A    between atoms: C13_16  and  O4_17 
REMARK    5  A    between atoms: C14_20  and  C16_22 
REMARK    6  A    between atoms: C26_35  and  O6_36 
REMARK    7  A    between atoms: C32_43  and  O7_44 
ROOT
HETATM    1  C4  UNL     1       7.072  40.671  23.809  1.00  0.00     0.162 C 
HETATM    2  C5  UNL     1       7.884  41.812  24.397  1.00  0.00     0.050 C 
HETATM    3  C6  UNL     1       7.127  43.080  24.319  1.00  0.00     0.012 C 
HETATM    4  C7  UNL     1       5.891  43.014  25.145  1.00  0.00    -0.047 C 
HETATM    5  C8  UNL     1       6.011  43.811  26.429  1.00  0.00     0.015 C 
HETATM    6  C9  UNL     1       4.743  43.635  24.357  1.00  0.00     0.015 C 
HETATM    7  C10 UNL     1       5.453  41.577  25.469  1.00  0.00     0.019 C 
HETATM    8  C11 UNL     1       5.612  40.756  24.214  1.00  0.00     0.061 C 
HETATM    9  C12 UNL     1       4.911  39.452  24.179  1.00  0.00     0.142 C 
HETATM   10  O3  UNL     1       5.702  38.338  24.171  1.00  0.00    -0.302 OA
HETATM   11  C13 UNL     1       7.012  38.375  24.293  1.00  0.00     0.416 C 
HETATM   12  O5  UNL     1       7.346  37.712  25.483  1.00  0.00    -0.292 OA
HETATM   13  C14 UNL     1       6.267  36.928  25.978  1.00  0.00     0.097 C 
HETATM   14  C15 UNL     1       5.865  35.840  25.074  1.00  0.00     0.052 C 
HETATM   15  C17 UNL     1       5.225  37.761  26.618  1.00  0.00     0.049 C 
HETATM   16  C18 UNL     1       3.921  37.950  25.960  1.00  0.00     0.004 C 
HETATM   17  C19 UNL     1       3.788  39.209  25.115  1.00  0.00     0.020 C 
HETATM   18  C20 UNL     1       2.560  38.833  24.258  1.00  0.00     0.008 C 
HETATM   19  C21 UNL     1       1.316  38.707  25.034  1.00  0.00     0.007 C 
HETATM   20  C22 UNL     1       1.491  38.501  26.508  1.00  0.00     0.003 C 
HETATM   21  C23 UNL     1       2.784  37.989  26.979  1.00  0.00    -0.033 C 
HETATM   22  C24 UNL     1       3.310  38.852  28.142  1.00  0.00     0.016 C 
HETATM   23  C25 UNL     1       2.735  36.574  27.543  1.00  0.00     0.042 C 
HETATM   24  C26 UNL     1       1.639  35.747  26.947  1.00  0.00     0.128 C 
HETATM   25  C27 UNL     1       0.275  36.382  27.253  1.00  0.00    -0.010 C 
HETATM   26  C28 UNL     1       0.026  35.858  28.683  1.00  0.00     0.018 C 
HETATM   27  C29 UNL     1      -0.701  35.652  26.380  1.00  0.00     0.019 C 
HETATM   28  C30 UNL     1      -2.058  36.215  26.282  1.00  0.00     0.011 C 
HETATM   29  C31 UNL     1      -3.108  35.398  27.048  1.00  0.00     0.012 C 
HETATM   30  C32 UNL     1      -2.223  37.632  26.671  1.00  0.00     0.122 C 
HETATM   31  C33 UNL     1      -0.977  38.455  26.528  1.00  0.00     0.042 C 
HETATM   32  C34 UNL     1       0.265  37.846  27.161  1.00  0.00    -0.028 C 
HETATM   33  C35 UNL     1       0.174  38.379  28.605  1.00  0.00     0.016 C 
HETATM   34  O8  UNL     1       7.714  39.525  24.238  1.00  0.00    -0.286 OA
ENDROOT
BRANCH   1  35
HETATM   35  C3  UNL     1       7.220  40.745  22.331  1.00  0.00     0.294 C 
HETATM   36  O2  UNL     1       8.309  40.982  21.740  1.00  0.00    -0.262 OA
BRANCH  35  37
HETATM   37  O1  UNL     1       6.122  40.548  21.533  1.00  0.00    -0.319 OA
BRANCH  37  38
HETATM   38  C2  UNL     1       5.984  39.533  20.563  1.00  0.00     0.174 C 
HETATM   39  C1  UNL     1       4.509  39.124  20.559  1.00  0.00     0.034 C 
ENDBRANCH  37  38
ENDBRANCH  35  37
ENDBRANCH   1  35
BRANCH  11  40
HETATM   40  O4  UNL     1       7.555  37.509  23.298  1.00  0.00    -0.319 OA
ATOM     41  H4  UNL     1       7.564  36.631  23.662  1.00  0.00     0.218 HD
ENDBRANCH  11  40
BRANCH  13  42
HETATM   42  C16 UNL     1       6.978  36.212  27.125  1.00  0.00     0.091 C 
HETATM   43  N1  UNL     1       6.597  36.373  28.320  1.00  0.00    -0.409 N 
ATOM     44  H12 UNL     1       5.806  36.991  28.502  1.00  0.00     0.155 HD
ATOM     45  H11 UNL     1       7.071  35.895  29.085  1.00  0.00     0.155 HD
ENDBRANCH  13  42
BRANCH  24  46
HETATM   46  O6  UNL     1       1.821  35.475  25.614  1.00  0.00    -0.395 OA
ATOM     47  H6  UNL     1       1.197  35.916  25.048  1.00  0.00     0.210 HD
ENDBRANCH  24  46
BRANCH  30  48
HETATM   48  O7  UNL     1      -2.890  37.832  27.891  1.00  0.00    -0.395 OA
ATOM     49  H7  UNL     1      -2.666  38.640  28.339  1.00  0.00     0.210 HD
ENDBRANCH  30  48
TORSDOF 7
ENDMDL
