MODEL 1
REMARK VINA RESULT: -8.077083027      0.000      0.000
REMARK  7 active torsions:
REMARK  status: ('A' for Active; 'I' for Inactive)
REMARK    1  A    between atoms: C2_2  and  C3_3 
REMARK    2  A    between atoms: C2_2  and  C11_18 
REMARK       I    between atoms: C3_3  and  N1_5 
REMARK    3  A    between atoms: N1_5  and  C4_7 
REMARK    4  A    between atoms: C5_8  and  O2_9 
REMARK    5  A    between atoms: C6_12  and  O4_13 
REMARK    6  A    between atoms: N2_24  and  O5_26 
REMARK    7  A    between atoms: C27_39  and  O7_40 
ROOT
HETATM    1  C11 UNL     1       9.334  42.857  20.965  1.00  0.00    -0.056 C 
HETATM    2  C12 UNL     1       8.309  42.799  19.889  1.00  0.00     0.037 C 
HETATM    3  C13 UNL     1       8.163  41.348  19.618  1.00  0.00     0.021 C 
HETATM    4  C14 UNL     1       8.668  40.639  20.850  1.00  0.00     0.011 C 
HETATM    5  C15 UNL     1       9.893  39.836  20.338  1.00  0.00     0.023 C 
HETATM    6  C16 UNL     1       7.701  39.628  21.213  1.00  0.00     0.053 C 
HETATM    7  N2  UNL     1       7.232  38.889  20.237  1.00  0.00    -0.274 N 
ATOM      8  H2  UNL     1       6.551  38.185  20.526  1.00  0.00     0.193 HD
HETATM    9  C17 UNL     1       7.065  39.156  22.482  1.00  0.00     0.103 C 
HETATM   10  C18 UNL     1       8.002  38.183  23.111  1.00  0.00     0.053 C 
HETATM   11  O6  UNL     1       5.873  38.472  22.262  1.00  0.00    -0.368 OA
HETATM   12  C19 UNL     1       4.854  39.172  22.913  1.00  0.00     0.137 C 
HETATM   13  C20 UNL     1       5.481  39.907  24.045  1.00  0.00     0.026 C 
HETATM   14  C21 UNL     1       5.792  39.278  25.298  1.00  0.00    -0.012 C 
HETATM   15  C22 UNL     1       5.525  40.251  26.462  1.00  0.00     0.010 C 
HETATM   16  C23 UNL     1       5.126  38.005  25.673  1.00  0.00     0.005 C 
HETATM   17  C24 UNL     1       3.644  38.005  25.507  1.00  0.00     0.013 C 
HETATM   18  C25 UNL     1       3.369  37.489  24.104  1.00  0.00    -0.008 C 
HETATM   19  C26 UNL     1       4.053  36.177  23.904  1.00  0.00     0.019 C 
HETATM   20  C27 UNL     1       1.846  37.288  24.049  1.00  0.00     0.127 C 
HETATM   21  C28 UNL     1       1.318  38.658  23.690  1.00  0.00     0.033 C 
HETATM   22  C29 UNL     1       2.487  39.516  23.323  1.00  0.00     0.015 C 
HETATM   23  C30 UNL     1       3.593  38.494  23.071  1.00  0.00    -0.008 C 
HETATM   24  C31 UNL     1       3.239  37.857  21.715  1.00  0.00     0.019 C 
HETATM   25  C32 UNL     1       6.688  40.362  23.225  1.00  0.00     0.033 C 
HETATM   26  C33 UNL     1       7.759  41.086  23.905  1.00  0.00     0.009 C 
HETATM   27  C34 UNL     1       8.286  42.071  22.938  1.00  0.00     0.015 C 
HETATM   28  C35 UNL     1       9.167  41.640  21.828  1.00  0.00    -0.007 C 
HETATM   29  C36 UNL     1      10.456  41.165  22.441  1.00  0.00     0.021 C 
ENDROOT
BRANCH   1  30
HETATM   30  C2  UNL     1      10.662  43.320  20.587  1.00  0.00     0.025 C 
HETATM   31  C1  UNL     1      11.032  43.228  19.320  1.00  0.00     0.029 C 
BRANCH  30  32
HETATM   32  C3  UNL     1      11.545  43.962  21.509  1.00  0.00     0.251 C 
HETATM   33  O1  UNL     1      11.130  44.834  22.308  1.00  0.00    -0.268 OA
HETATM   34  N1  UNL     1      12.921  43.652  21.575  1.00  0.00    -0.347 N 
ATOM     35  H1  UNL     1      13.309  42.950  20.945  1.00  0.00     0.163 HD
BRANCH  34  36
HETATM   36  C4  UNL     1      13.807  44.327  22.543  1.00  0.00     0.152 C 
HETATM   37  C5  UNL     1      14.003  43.529  23.793  1.00  0.00     0.283 C 
HETATM   38  O3  UNL     1      14.992  42.591  23.529  1.00  0.00    -0.329 OA
HETATM   39  C6  UNL     1      15.744  43.015  22.465  1.00  0.00     0.272 C 
HETATM   40  C8  UNL     1      15.239  44.333  21.986  1.00  0.00     0.027 C 
HETATM   41  C9  UNL     1      15.218  44.494  20.494  1.00  0.00     0.022 C 
HETATM   42  C10 UNL     1      15.951  45.501  22.636  1.00  0.00     0.022 C 
BRANCH  37  43
HETATM   43  O2  UNL     1      12.843  42.952  24.279  1.00  0.00    -0.369 OA
ATOM     44  H2  UNL     1      12.954  42.501  25.108  1.00  0.00     0.212 HD
ENDBRANCH  37  43
BRANCH  39  45
HETATM   45  O4  UNL     1      15.603  42.097  21.426  1.00  0.00    -0.365 OA
HETATM   46  C7  UNL     1      15.367  40.813  21.920  1.00  0.00     0.204 C 
ENDBRANCH  39  45
ENDBRANCH  34  36
ENDBRANCH  30  32
ENDBRANCH   1  30
BRANCH   7  47
HETATM   47  O5  UNL     1       7.493  38.902  18.943  1.00  0.00    -0.290 OA
ATOM     48  H5  UNL     1       6.973  39.207  18.209  1.00  0.00     0.244 HD
ENDBRANCH   7  47
BRANCH  20  49
HETATM   49  O7  UNL     1       1.493  36.313  23.149  1.00  0.00    -0.395 OA
ATOM     50  H7  UNL     1       1.683  35.443  23.480  1.00  0.00     0.210 HD
ENDBRANCH  20  49
TORSDOF 7
ENDMDL
MODEL 2
REMARK VINA RESULT: -7.959908335      2.665     10.379
REMARK  7 active torsions:
REMARK  status: ('A' for Active; 'I' for Inactive)
REMARK    1  A    between atoms: C2_2  and  C3_3 
REMARK    2  A    between atoms: C2_2  and  C11_18 
REMARK       I    between atoms: C3_3  and  N1_5 
REMARK    3  A    between atoms: N1_5  and  C4_7 
REMARK    4  A    between atoms: C5_8  and  O2_9 
REMARK    5  A    between atoms: C6_12  and  O4_13 
REMARK    6  A    between atoms: N2_24  and  O5_26 
REMARK    7  A    between atoms: C27_39  and  O7_40 
ROOT
HETATM    1  C11 UNL     1       7.268  39.822  23.085  1.00  0.00    -0.056 C 
HETATM    2  C12 UNL     1       8.455  40.236  23.879  1.00  0.00     0.037 C 
HETATM    3  C13 UNL     1       9.605  39.791  23.054  1.00  0.00     0.021 C 
HETATM    4  C14 UNL     1       9.079  39.644  21.648  1.00  0.00     0.011 C 
HETATM    5  C15 UNL     1       9.255  38.133  21.345  1.00  0.00     0.023 C 
HETATM    6  C16 UNL     1      10.005  40.300  20.753  1.00  0.00     0.053 C 
HETATM    7  N2  UNL     1      11.279  40.065  20.952  1.00  0.00    -0.274 N 
ATOM      8  H2  UNL     1      11.906  40.544  20.304  1.00  0.00     0.193 HD
HETATM    9  C17 UNL     1       9.894  41.219  19.576  1.00  0.00     0.103 C 
HETATM   10  C18 UNL     1       9.663  40.370  18.374  1.00  0.00     0.053 C 
HETATM   11  O6  UNL     1      11.067  41.930  19.340  1.00  0.00    -0.368 OA
HETATM   12  C19 UNL     1      10.770  43.290  19.457  1.00  0.00     0.137 C 
HETATM   13  C20 UNL     1       9.326  43.453  19.133  1.00  0.00     0.026 C 
HETATM   14  C21 UNL     1       8.838  43.506  17.784  1.00  0.00    -0.012 C 
HETATM   15  C22 UNL     1       7.684  44.522  17.675  1.00  0.00     0.010 C 
HETATM   16  C23 UNL     1       9.767  43.827  16.671  1.00  0.00     0.005 C 
HETATM   17  C24 UNL     1      10.624  45.026  16.904  1.00  0.00     0.013 C 
HETATM   18  C25 UNL     1      11.906  44.519  17.546  1.00  0.00    -0.008 C 
HETATM   19  C26 UNL     1      12.500  43.438  16.704  1.00  0.00     0.019 C 
HETATM   20  C27 UNL     1      12.847  45.734  17.560  1.00  0.00     0.127 C 
HETATM   21  C28 UNL     1      12.461  46.470  18.822  1.00  0.00     0.033 C 
HETATM   22  C29 UNL     1      11.530  45.590  19.596  1.00  0.00     0.015 C 
HETATM   23  C30 UNL     1      11.754  44.219  18.964  1.00  0.00    -0.008 C 
HETATM   24  C31 UNL     1      13.125  43.761  19.494  1.00  0.00     0.019 C 
HETATM   25  C32 UNL     1       8.894  42.227  19.937  1.00  0.00     0.033 C 
HETATM   26  C33 UNL     1       7.493  41.822  19.889  1.00  0.00     0.009 C 
HETATM   27  C34 UNL     1       7.159  41.284  21.224  1.00  0.00     0.015 C 
HETATM   28  C35 UNL     1       7.623  39.937  21.631  1.00  0.00    -0.007 C 
HETATM   29  C36 UNL     1       6.906  38.938  20.764  1.00  0.00     0.021 C 
ENDROOT
BRANCH   1  30
HETATM   30  C2  UNL     1       6.512  38.678  23.575  1.00  0.00     0.025 C 
HETATM   31  C1  UNL     1       7.169  37.670  24.125  1.00  0.00     0.029 C 
BRANCH  30  32
HETATM   32  C3  UNL     1       5.084  38.643  23.577  1.00  0.00     0.251 C 
HETATM   33  O1  UNL     1       4.407  39.679  23.378  1.00  0.00    -0.268 OA
HETATM   34  N1  UNL     1       4.360  37.450  23.797  1.00  0.00    -0.347 N 
ATOM     35  H1  UNL     1       4.864  36.580  23.966  1.00  0.00     0.163 HD
BRANCH  34  36
HETATM   36  C4  UNL     1       2.884  37.445  23.787  1.00  0.00     0.152 C 
HETATM   37  C5  UNL     1       2.323  37.082  22.448  1.00  0.00     0.283 C 
HETATM   38  O3  UNL     1       2.337  35.696  22.359  1.00  0.00    -0.329 OA
HETATM   39  C6  UNL     1       2.383  35.163  23.621  1.00  0.00     0.272 C 
HETATM   40  C8  UNL     1       2.386  36.261  24.630  1.00  0.00     0.027 C 
HETATM   41  C9  UNL     1       3.296  36.035  25.802  1.00  0.00     0.022 C 
HETATM   42  C10 UNL     1       0.992  36.622  25.102  1.00  0.00     0.022 C 
BRANCH  37  43
HETATM   43  O2  UNL     1       2.970  37.687  21.385  1.00  0.00    -0.369 OA
ATOM     44  H2  UNL     1       2.388  38.147  20.791  1.00  0.00     0.212 HD
ENDBRANCH  37  43
BRANCH  39  45
HETATM   45  O4  UNL     1       3.572  34.449  23.760  1.00  0.00    -0.365 OA
HETATM   46  C7  UNL     1       3.368  33.088  23.529  1.00  0.00     0.204 C 
ENDBRANCH  39  45
ENDBRANCH  34  36
ENDBRANCH  30  32
ENDBRANCH   1  30
BRANCH   7  47
HETATM   47  O5  UNL     1      11.888  39.313  21.850  1.00  0.00    -0.290 OA
ATOM     48  H5  UNL     1      12.059  38.379  21.863  1.00  0.00     0.244 HD
ENDBRANCH   7  47
BRANCH  20  49
HETATM   49  O7  UNL     1      14.167  45.357  17.530  1.00  0.00    -0.395 OA
ATOM     50  H7  UNL     1      14.748  46.093  17.683  1.00  0.00     0.210 HD
ENDBRANCH  20  49
TORSDOF 7
ENDMDL
MODEL 3
REMARK VINA RESULT: -7.614238520      2.785      4.687
REMARK  7 active torsions:
REMARK  status: ('A' for Active; 'I' for Inactive)
REMARK    1  A    between atoms: C2_2  and  C3_3 
REMARK    2  A    between atoms: C2_2  and  C11_18 
REMARK       I    between atoms: C3_3  and  N1_5 
REMARK    3  A    between atoms: N1_5  and  C4_7 
REMARK    4  A    between atoms: C5_8  and  O2_9 
REMARK    5  A    between atoms: C6_12  and  O4_13 
REMARK    6  A    between atoms: N2_24  and  O5_26 
REMARK    7  A    between atoms: C27_39  and  O7_40 
ROOT
HETATM    1  C11 UNL     1       9.096  42.996  20.570  1.00  0.00    -0.056 C 
HETATM    2  C12 UNL     1       7.875  42.872  19.730  1.00  0.00     0.037 C 
HETATM    3  C13 UNL     1       7.788  41.419  19.445  1.00  0.00     0.021 C 
HETATM    4  C14 UNL     1       8.595  40.732  20.518  1.00  0.00     0.011 C 
HETATM    5  C15 UNL     1       9.743  40.044  19.734  1.00  0.00     0.023 C 
HETATM    6  C16 UNL     1       7.807  39.638  21.038  1.00  0.00     0.053 C 
HETATM    7  N2  UNL     1       7.202  38.880  20.156  1.00  0.00    -0.274 N 
ATOM      8  H2  UNL     1       6.654  38.117  20.555  1.00  0.00     0.193 HD
HETATM    9  C17 UNL     1       7.491  39.091  22.395  1.00  0.00     0.103 C 
HETATM   10  C18 UNL     1       8.612  38.188  22.779  1.00  0.00     0.053 C 
HETATM   11  O6  UNL     1       6.336  38.314  22.403  1.00  0.00    -0.368 OA
HETATM   12  C19 UNL     1       5.425  38.915  23.276  1.00  0.00     0.137 C 
HETATM   13  C20 UNL     1       6.218  39.679  24.278  1.00  0.00     0.026 C 
HETATM   14  C21 UNL     1       6.833  39.054  25.416  1.00  0.00    -0.012 C 
HETATM   15  C22 UNL     1       6.743  39.981  26.644  1.00  0.00     0.010 C 
HETATM   16  C23 UNL     1       6.362  37.723  25.876  1.00  0.00     0.005 C 
HETATM   17  C24 UNL     1       4.883  37.604  26.022  1.00  0.00     0.013 C 
HETATM   18  C25 UNL     1       4.359  37.093  24.690  1.00  0.00    -0.008 C 
HETATM   19  C26 UNL     1       5.085  35.846  24.306  1.00  0.00     0.019 C 
HETATM   20  C27 UNL     1       2.879  36.767  24.946  1.00  0.00     0.127 C 
HETATM   21  C28 UNL     1       2.183  38.094  24.754  1.00  0.00     0.033 C 
HETATM   22  C29 UNL     1       3.179  39.053  24.183  1.00  0.00     0.015 C 
HETATM   23  C30 UNL     1       4.282  38.132  23.670  1.00  0.00    -0.008 C 
HETATM   24  C31 UNL     1       3.702  37.493  22.395  1.00  0.00     0.019 C 
HETATM   25  C32 UNL     1       7.187  40.247  23.242  1.00  0.00     0.033 C 
HETATM   26  C33 UNL     1       8.317  41.045  23.709  1.00  0.00     0.009 C 
HETATM   27  C34 UNL     1       8.551  42.088  22.689  1.00  0.00     0.015 C 
HETATM   28  C35 UNL     1       9.209  41.753  21.405  1.00  0.00    -0.007 C 
HETATM   29  C36 UNL     1      10.631  41.375  21.719  1.00  0.00     0.021 C 
ENDROOT
BRANCH   1  30
HETATM   30  C2  UNL     1      10.275  43.575  19.941  1.00  0.00     0.025 C 
HETATM   31  C1  UNL     1      11.208  44.112  20.709  1.00  0.00     0.029 C 
BRANCH  30  32
HETATM   32  C3  UNL     1      10.512  43.498  18.534  1.00  0.00     0.251 C 
HETATM   33  O1  UNL     1      11.203  42.575  18.040  1.00  0.00    -0.268 OA
HETATM   34  N1  UNL     1       9.987  44.446  17.628  1.00  0.00    -0.347 N 
ATOM     35  H1  UNL     1       9.421  45.217  17.980  1.00  0.00     0.163 HD
BRANCH  34  36
HETATM   36  C4  UNL     1      10.245  44.336  16.179  1.00  0.00     0.152 C 
HETATM   37  C5  UNL     1       9.125  43.666  15.448  1.00  0.00     0.283 C 
HETATM   38  O3  UNL     1       8.155  44.631  15.211  1.00  0.00    -0.329 OA
HETATM   39  C6  UNL     1       8.729  45.873  15.273  1.00  0.00     0.272 C 
HETATM   40  C8  UNL     1      10.187  45.740  15.556  1.00  0.00     0.027 C 
HETATM   41  C9  UNL     1      10.738  46.758  16.512  1.00  0.00     0.022 C 
HETATM   42  C10 UNL     1      11.024  45.688  14.295  1.00  0.00     0.022 C 
BRANCH  37  43
HETATM   43  O2  UNL     1       8.618  42.553  16.095  1.00  0.00    -0.369 OA
ATOM     44  H2  UNL     1       7.680  42.589  16.245  1.00  0.00     0.212 HD
ENDBRANCH  37  43
BRANCH  39  45
HETATM   45  O4  UNL     1       8.150  46.580  16.325  1.00  0.00    -0.365 OA
HETATM   46  C7  UNL     1       6.762  46.431  16.324  1.00  0.00     0.204 C 
ENDBRANCH  39  45
ENDBRANCH  34  36
ENDBRANCH  30  32
ENDBRANCH   1  30
BRANCH   7  47
HETATM   47  O5  UNL     1       7.182  38.939  18.837  1.00  0.00    -0.290 OA
ATOM     48  H5  UNL     1       7.874  39.127  18.214  1.00  0.00     0.244 HD
ENDBRANCH   7  47
BRANCH  20  49
HETATM   49  O7  UNL     1       2.421  35.782  24.106  1.00  0.00    -0.395 OA
ATOM     50  H7  UNL     1       2.354  36.088  23.209  1.00  0.00     0.210 HD
ENDBRANCH  20  49
TORSDOF 7
ENDMDL
MODEL 4
REMARK VINA RESULT: -7.576353237      2.965     10.621
REMARK  7 active torsions:
REMARK  status: ('A' for Active; 'I' for Inactive)
REMARK    1  A    between atoms: C2_2  and  C3_3 
REMARK    2  A    between atoms: C2_2  and  C11_18 
REMARK       I    between atoms: C3_3  and  N1_5 
REMARK    3  A    between atoms: N1_5  and  C4_7 
REMARK    4  A    between atoms: C5_8  and  O2_9 
REMARK    5  A    between atoms: C6_12  and  O4_13 
REMARK    6  A    between atoms: N2_24  and  O5_26 
REMARK    7  A    between atoms: C27_39  and  O7_40 
ROOT
HETATM    1  C11 UNL     1       5.896  39.367  27.399  1.00  0.00    -0.056 C 
HETATM    2  C12 UNL     1       7.098  38.501  27.529  1.00  0.00     0.037 C 
HETATM    3  C13 UNL     1       7.254  37.908  26.178  1.00  0.00     0.021 C 
HETATM    4  C14 UNL     1       6.515  38.821  25.232  1.00  0.00     0.011 C 
HETATM    5  C15 UNL     1       5.384  37.926  24.662  1.00  0.00     0.023 C 
HETATM    6  C16 UNL     1       7.373  39.081  24.099  1.00  0.00     0.053 C 
HETATM    7  N2  UNL     1       7.993  38.047  23.584  1.00  0.00    -0.274 N 
ATOM      8  H2  UNL     1       8.592  38.264  22.786  1.00  0.00     0.193 HD
HETATM    9  C17 UNL     1       7.756  40.283  23.293  1.00  0.00     0.103 C 
HETATM   10  C18 UNL     1       6.696  40.482  22.266  1.00  0.00     0.053 C 
HETATM   11  O6  UNL     1       8.950  40.105  22.601  1.00  0.00    -0.368 OA
HETATM   12  C19 UNL     1       9.852  41.073  23.053  1.00  0.00     0.137 C 
HETATM   13  C20 UNL     1       9.048  42.228  23.537  1.00  0.00     0.026 C 
HETATM   14  C21 UNL     1       8.499  43.215  22.649  1.00  0.00    -0.012 C 
HETATM   15  C22 UNL     1       8.574  44.612  23.295  1.00  0.00     0.010 C 
HETATM   16  C23 UNL     1       9.052  43.370  21.280  1.00  0.00     0.005 C 
HETATM   17  C24 UNL     1      10.540  43.464  21.218  1.00  0.00     0.013 C 
HETATM   18  C25 UNL     1      11.052  42.044  21.035  1.00  0.00    -0.008 C 
HETATM   19  C26 UNL     1      10.383  41.413  19.859  1.00  0.00     0.019 C 
HETATM   20  C27 UNL     1      12.554  42.201  20.747  1.00  0.00     0.127 C 
HETATM   21  C28 UNL     1      13.173  42.288  22.123  1.00  0.00     0.033 C 
HETATM   22  C29 UNL     1      12.112  41.952  23.123  1.00  0.00     0.015 C 
HETATM   23  C30 UNL     1      11.046  41.270  22.271  1.00  0.00    -0.008 C 
HETATM   24  C31 UNL     1      11.623  39.880  21.954  1.00  0.00     0.019 C 
HETATM   25  C32 UNL     1       8.022  41.354  24.258  1.00  0.00     0.033 C 
HETATM   26  C33 UNL     1       6.865  42.000  24.870  1.00  0.00     0.009 C 
HETATM   27  C34 UNL     1       6.548  41.233  26.092  1.00  0.00     0.015 C 
HETATM   28  C35 UNL     1       5.872  39.917  26.002  1.00  0.00    -0.007 C 
HETATM   29  C36 UNL     1       4.481  40.165  25.485  1.00  0.00     0.021 C 
ENDROOT
BRANCH   1  30
HETATM   30  C2  UNL     1       4.671  38.896  28.030  1.00  0.00     0.025 C 
HETATM   31  C1  UNL     1       4.090  39.659  28.941  1.00  0.00     0.029 C 
BRANCH  30  32
HETATM   32  C3  UNL     1       4.017  37.689  27.635  1.00  0.00     0.251 C 
HETATM   33  O1  UNL     1       4.632  36.597  27.601  1.00  0.00    -0.268 OA
HETATM   34  N1  UNL     1       2.654  37.656  27.266  1.00  0.00    -0.347 N 
ATOM     35  H1  UNL     1       2.110  38.518  27.275  1.00  0.00     0.163 HD
BRANCH  34  36
HETATM   36  C4  UNL     1       2.005  36.392  26.868  1.00  0.00     0.152 C 
HETATM   37  C5  UNL     1       1.391  35.674  28.028  1.00  0.00     0.283 C 
HETATM   38  O3  UNL     1       0.148  36.250  28.256  1.00  0.00    -0.329 OA
HETATM   39  C6  UNL     1      -0.271  36.886  27.117  1.00  0.00     0.272 C 
HETATM   40  C8  UNL     1       0.749  36.716  26.043  1.00  0.00     0.027 C 
HETATM   41  C9  UNL     1       0.982  37.935  25.197  1.00  0.00     0.022 C 
HETATM   42  C10 UNL     1       0.482  35.507  25.170  1.00  0.00     0.022 C 
BRANCH  37  43
HETATM   43  O2  UNL     1       2.183  35.659  29.162  1.00  0.00    -0.369 OA
ATOM     44  H2  UNL     1       1.759  36.017  29.934  1.00  0.00     0.212 HD
ENDBRANCH  37  43
BRANCH  39  45
HETATM   45  O4  UNL     1      -0.390  38.248  27.384  1.00  0.00    -0.365 OA
HETATM   46  C7  UNL     1      -0.933  38.464  28.652  1.00  0.00     0.204 C 
ENDBRANCH  39  45
ENDBRANCH  34  36
ENDBRANCH  30  32
ENDBRANCH   1  30
BRANCH   7  47
HETATM   47  O5  UNL     1       7.973  36.771  23.924  1.00  0.00    -0.290 OA
ATOM     48  H5  UNL     1       7.244  36.189  24.103  1.00  0.00     0.244 HD
ENDBRANCH   7  47
BRANCH  20  49
HETATM   49  O7  UNL     1      13.040  41.161  19.994  1.00  0.00    -0.395 OA
ATOM     50  H7  UNL     1      12.543  40.363  20.132  1.00  0.00     0.210 HD
ENDBRANCH  20  49
TORSDOF 7
ENDMDL
MODEL 5
REMARK VINA RESULT: -7.574605578      4.216      7.390
REMARK  7 active torsions:
REMARK  status: ('A' for Active; 'I' for Inactive)
REMARK    1  A    between atoms: C2_2  and  C3_3 
REMARK    2  A    between atoms: C2_2  and  C11_18 
REMARK       I    between atoms: C3_3  and  N1_5 
REMARK    3  A    between atoms: N1_5  and  C4_7 
REMARK    4  A    between atoms: C5_8  and  O2_9 
REMARK    5  A    between atoms: C6_12  and  O4_13 
REMARK    6  A    between atoms: N2_24  and  O5_26 
REMARK    7  A    between atoms: C27_39  and  O7_40 
ROOT
HETATM    1  C11 UNL     1       4.881  38.337  23.818  1.00  0.00    -0.056 C 
HETATM    2  C12 UNL     1       4.603  36.885  23.980  1.00  0.00     0.037 C 
HETATM    3  C13 UNL     1       4.902  36.625  25.409  1.00  0.00     0.021 C 
HETATM    4  C14 UNL     1       4.816  37.959  26.105  1.00  0.00     0.011 C 
HETATM    5  C15 UNL     1       6.255  38.195  26.633  1.00  0.00     0.023 C 
HETATM    6  C16 UNL     1       4.018  37.790  27.299  1.00  0.00     0.053 C 
HETATM    7  N2  UNL     1       4.280  36.738  28.035  1.00  0.00    -0.274 N 
ATOM      8  H2  UNL     1       3.700  36.647  28.869  1.00  0.00     0.193 HD
HETATM    9  C17 UNL     1       2.917  38.549  27.972  1.00  0.00     0.103 C 
HETATM   10  C18 UNL     1       3.555  39.607  28.804  1.00  0.00     0.053 C 
HETATM   11  O6  UNL     1       2.175  37.755  28.842  1.00  0.00    -0.368 OA
HETATM   12  C19 UNL     1       0.853  37.749  28.387  1.00  0.00     0.137 C 
HETATM   13  C20 UNL     1       0.641  39.018  27.638  1.00  0.00     0.026 C 
HETATM   14  C21 UNL     1       0.366  40.266  28.294  1.00  0.00    -0.012 C 
HETATM   15  C22 UNL     1      -0.652  41.084  27.475  1.00  0.00     0.010 C 
HETATM   16  C23 UNL     1      -0.137  40.274  29.691  1.00  0.00     0.005 C 
HETATM   17  C24 UNL     1      -1.282  39.353  29.945  1.00  0.00     0.013 C 
HETATM   18  C25 UNL     1      -0.678  38.032  30.395  1.00  0.00    -0.008 C 
HETATM   19  C26 UNL     1       0.247  38.265  31.544  1.00  0.00     0.019 C 
HETATM   20  C27 UNL     1      -1.876  37.190  30.863  1.00  0.00     0.127 C 
HETATM   21  C28 UNL     1      -2.391  36.564  29.588  1.00  0.00     0.033 C 
HETATM   22  C29 UNL     1      -1.393  36.841  28.508  1.00  0.00     0.015 C 
HETATM   23  C30 UNL     1      -0.147  37.241  29.292  1.00  0.00    -0.008 C 
HETATM   24  C31 UNL     1       0.391  35.924  29.878  1.00  0.00     0.019 C 
HETATM   25  C32 UNL     1       1.984  38.943  26.913  1.00  0.00     0.033 C 
HETATM   26  C33 UNL     1       2.379  40.061  26.061  1.00  0.00     0.009 C 
HETATM   27  C34 UNL     1       3.131  39.486  24.927  1.00  0.00     0.015 C 
HETATM   28  C35 UNL     1       4.527  39.021  25.107  1.00  0.00    -0.007 C 
HETATM   29  C36 UNL     1       5.369  40.236  25.387  1.00  0.00     0.021 C 
ENDROOT
BRANCH   1  30
HETATM   30  C2  UNL     1       6.092  38.701  23.096  1.00  0.00     0.025 C 
HETATM   31  C1  UNL     1       7.244  38.177  23.481  1.00  0.00     0.029 C 
BRANCH  30  32
HETATM   32  C3  UNL     1       6.074  39.522  21.927  1.00  0.00     0.251 C 
HETATM   33  O1  UNL     1       4.995  39.859  21.385  1.00  0.00    -0.268 OA
HETATM   34  N1  UNL     1       7.258  39.999  21.322  1.00  0.00    -0.347 N 
ATOM     35  H1  UNL     1       8.162  39.751  21.723  1.00  0.00     0.163 HD
BRANCH  34  36
HETATM   36  C4  UNL     1       7.206  40.850  20.118  1.00  0.00     0.152 C 
HETATM   37  C5  UNL     1       7.724  42.231  20.372  1.00  0.00     0.283 C 
HETATM   38  O3  UNL     1       9.109  42.173  20.282  1.00  0.00    -0.329 OA
HETATM   39  C6  UNL     1       9.468  41.071  19.551  1.00  0.00     0.272 C 
HETATM   40  C8  UNL     1       8.245  40.343  19.106  1.00  0.00     0.027 C 
HETATM   41  C9  UNL     1       8.346  38.846  19.167  1.00  0.00     0.022 C 
HETATM   42  C10 UNL     1       7.768  40.787  17.738  1.00  0.00     0.022 C 
BRANCH  37  43
HETATM   43  O2  UNL     1       7.294  42.782  21.566  1.00  0.00    -0.369 OA
ATOM     44  H2  UNL     1       7.996  42.972  22.179  1.00  0.00     0.212 HD
ENDBRANCH  37  43
BRANCH  39  45
HETATM   45  O4  UNL     1      10.203  40.214  20.368  1.00  0.00    -0.365 OA
HETATM   46  C7  UNL     1      11.079  40.932  21.186  1.00  0.00     0.204 C 
ENDBRANCH  39  45
ENDBRANCH  34  36
ENDBRANCH  30  32
ENDBRANCH   1  30
BRANCH   7  47
HETATM   47  O5  UNL     1       5.170  35.775  27.878  1.00  0.00    -0.290 OA
ATOM     48  H5  UNL     1       5.469  35.329  27.095  1.00  0.00     0.244 HD
ENDBRANCH   7  47
BRANCH  20  49
HETATM   49  O7  UNL     1      -1.511  36.271  31.816  1.00  0.00    -0.395 OA
ATOM     50  H7  UNL     1      -1.146  36.688  32.587  1.00  0.00     0.210 HD
ENDBRANCH  20  49
TORSDOF 7
ENDMDL
