MODEL 1
REMARK VINA RESULT: -5.201143434      0.000      0.000
REMARK  4 active torsions:
REMARK  status: ('A' for Active; 'I' for Inactive)
REMARK    1  A    between atoms: C2_2  and  O1_4 
REMARK    2  A    between atoms: C2_2  and  C4_6 
REMARK    3  A    between atoms: C10_13  and  C11_14 
REMARK    4  A    between atoms: C11_14  and  O2_15 
ROOT
HETATM    1  C4  UNL     1      16.148 -13.966 -21.650  1.00  0.00     0.053 C 
HETATM    2  C5  UNL     1      14.654 -14.095 -21.350  1.00  0.00     0.011 C 
HETATM    3  C6  UNL     1      14.303 -13.509 -20.014  1.00  0.00     0.031 C 
HETATM    4  C7  UNL     1      14.967 -12.228 -19.668  1.00  0.00     0.273 C 
HETATM    5  N1  UNL     1      16.366 -12.242 -19.998  1.00  0.00     0.094 N 
HETATM    6  C8  UNL     1      16.955 -10.916 -19.955  1.00  0.00     0.273 C 
HETATM    7  C9  UNL     1      18.185 -11.082 -20.821  1.00  0.00     0.039 C 
HETATM    8  C10 UNL     1      17.683 -11.946 -21.963  1.00  0.00     0.045 C 
HETATM    9  C12 UNL     1      16.454 -12.528 -21.437  1.00  0.00     0.236 C 
ENDROOT
BRANCH   1  10
HETATM   10  C2  UNL     1      16.949 -14.942 -20.849  1.00  0.00     0.056 C 
HETATM   11  C1  UNL     1      16.151 -16.170 -20.445  1.00  0.00     0.045 C 
HETATM   12  C3  UNL     1      18.138 -15.496 -21.602  1.00  0.00     0.045 C 
BRANCH  10  13
HETATM   13  O1  UNL     1      17.409 -14.389 -19.658  1.00  0.00    -0.390 OA
ATOM     14  H1  UNL     1      16.903 -13.594 -19.535  1.00  0.00     0.210 HD
ENDBRANCH  10  13
ENDBRANCH   1  10
BRANCH   8  15
HETATM   15  C11 UNL     1      17.332 -10.932 -23.077  1.00  0.00     0.170 C 
BRANCH  15  16
HETATM   16  O2  UNL     1      18.447 -10.720 -23.879  1.00  0.00    -0.400 OA
ATOM     17  H2  UNL     1      18.227 -10.108 -24.571  1.00  0.00     0.209 HD
ENDBRANCH  15  16
ENDBRANCH   8  15
TORSDOF 4
ENDMDL
MODEL 2
REMARK VINA RESULT: -5.189791887      3.173      4.911
REMARK  4 active torsions:
REMARK  status: ('A' for Active; 'I' for Inactive)
REMARK    1  A    between atoms: C2_2  and  O1_4 
REMARK    2  A    between atoms: C2_2  and  C4_6 
REMARK    3  A    between atoms: C10_13  and  C11_14 
REMARK    4  A    between atoms: C11_14  and  O2_15 
ROOT
HETATM    1  C4  UNL     1      14.399 -16.279 -19.596  1.00  0.00     0.053 C 
HETATM    2  C5  UNL     1      14.438 -17.793 -19.812  1.00  0.00     0.011 C 
HETATM    3  C6  UNL     1      15.454 -18.181 -20.846  1.00  0.00     0.031 C 
HETATM    4  C7  UNL     1      16.749 -17.460 -20.792  1.00  0.00     0.273 C 
HETATM    5  N1  UNL     1      16.570 -16.048 -20.589  1.00  0.00     0.094 N 
HETATM    6  C8  UNL     1      17.809 -15.383 -20.229  1.00  0.00     0.273 C 
HETATM    7  C9  UNL     1      17.313 -14.119 -19.560  1.00  0.00     0.039 C 
HETATM    8  C10 UNL     1      16.134 -14.608 -18.739  1.00  0.00     0.045 C 
HETATM    9  C12 UNL     1      15.812 -15.898 -19.338  1.00  0.00     0.236 C 
ENDROOT
BRANCH   1  10
HETATM   10  C2  UNL     1      13.721 -15.585 -20.733  1.00  0.00     0.056 C 
HETATM   11  C1  UNL     1      12.726 -16.475 -21.459  1.00  0.00     0.045 C 
HETATM   12  C3  UNL     1      12.908 -14.386 -20.299  1.00  0.00     0.045 C 
BRANCH  10  13
HETATM   13  O1  UNL     1      14.624 -15.168 -21.706  1.00  0.00    -0.390 OA
ATOM     14  H1  UNL     1      15.389 -14.867 -21.230  1.00  0.00     0.210 HD
ENDBRANCH  10  13
ENDBRANCH   1  10
BRANCH   8  15
HETATM   15  C11 UNL     1      16.725 -14.834 -17.327  1.00  0.00     0.170 C 
BRANCH  15  16
HETATM   16  O2  UNL     1      16.816 -16.198 -17.076  1.00  0.00    -0.400 OA
ATOM     17  H2  UNL     1      16.390 -16.397 -16.251  1.00  0.00     0.209 HD
ENDBRANCH  15  16
ENDBRANCH   8  15
TORSDOF 4
ENDMDL
MODEL 3
REMARK VINA RESULT: -5.182347154      2.986      4.766
REMARK  4 active torsions:
REMARK  status: ('A' for Active; 'I' for Inactive)
REMARK    1  A    between atoms: C2_2  and  O1_4 
REMARK    2  A    between atoms: C2_2  and  C4_6 
REMARK    3  A    between atoms: C10_13  and  C11_14 
REMARK    4  A    between atoms: C11_14  and  O2_15 
ROOT
HETATM    1  C4  UNL     1      16.289 -17.290 -18.979  1.00  0.00     0.053 C 
HETATM    2  C5  UNL     1      17.368 -18.317 -18.634  1.00  0.00     0.011 C 
HETATM    3  C6  UNL     1      18.434 -18.379 -19.688  1.00  0.00     0.031 C 
HETATM    4  C7  UNL     1      18.876 -17.080 -20.249  1.00  0.00     0.273 C 
HETATM    5  N1  UNL     1      17.765 -16.211 -20.532  1.00  0.00     0.094 N 
HETATM    6  C8  UNL     1      18.185 -14.845 -20.784  1.00  0.00     0.273 C 
HETATM    7  C9  UNL     1      16.917 -14.063 -20.513  1.00  0.00     0.039 C 
HETATM    8  C10 UNL     1      16.349 -14.753 -19.286  1.00  0.00     0.045 C 
HETATM    9  C12 UNL     1      17.036 -16.039 -19.267  1.00  0.00     0.236 C 
ENDROOT
BRANCH   1  10
HETATM   10  C2  UNL     1      15.390 -17.791 -20.064  1.00  0.00     0.056 C 
HETATM   11  C1  UNL     1      15.070 -19.270 -19.930  1.00  0.00     0.045 C 
HETATM   12  C3  UNL     1      14.039 -17.113 -20.078  1.00  0.00     0.045 C 
BRANCH  10  13
HETATM   13  O1  UNL     1      15.961 -17.648 -21.325  1.00  0.00    -0.390 OA
ATOM     14  H1  UNL     1      15.975 -16.712 -21.492  1.00  0.00     0.210 HD
ENDBRANCH  10  13
ENDBRANCH   1  10
BRANCH   8  15
HETATM   15  C11 UNL     1      16.846 -13.890 -18.103  1.00  0.00     0.170 C 
BRANCH  15  16
HETATM   16  O2  UNL     1      16.690 -12.544 -18.413  1.00  0.00    -0.400 OA
ATOM     17  H2  UNL     1      16.813 -12.417 -19.345  1.00  0.00     0.209 HD
ENDBRANCH  15  16
ENDBRANCH   8  15
TORSDOF 4
ENDMDL
MODEL 4
REMARK VINA RESULT: -5.166854052      2.043      2.731
REMARK  4 active torsions:
REMARK  status: ('A' for Active; 'I' for Inactive)
REMARK    1  A    between atoms: C2_2  and  O1_4 
REMARK    2  A    between atoms: C2_2  and  C4_6 
REMARK    3  A    between atoms: C10_13  and  C11_14 
REMARK    4  A    between atoms: C11_14  and  O2_15 
ROOT
HETATM    1  C4  UNL     1      16.671 -16.732 -20.847  1.00  0.00     0.053 C 
HETATM    2  C5  UNL     1      15.194 -17.086 -20.662  1.00  0.00     0.011 C 
HETATM    3  C6  UNL     1      14.554 -16.256 -19.589  1.00  0.00     0.031 C 
HETATM    4  C7  UNL     1      14.927 -14.821 -19.563  1.00  0.00     0.273 C 
HETATM    5  N1  UNL     1      16.340 -14.629 -19.743  1.00  0.00     0.094 N 
HETATM    6  C8  UNL     1      16.676 -13.246 -20.027  1.00  0.00     0.273 C 
HETATM    7  C9  UNL     1      18.030 -13.373 -20.691  1.00  0.00     0.039 C 
HETATM    8  C10 UNL     1      17.860 -14.591 -21.580  1.00  0.00     0.045 C 
HETATM    9  C12 UNL     1      16.687 -15.258 -21.026  1.00  0.00     0.236 C 
ENDROOT
BRANCH   1  10
HETATM   10  C2  UNL     1      17.503 -17.275 -19.730  1.00  0.00     0.056 C 
HETATM   11  C1  UNL     1      16.914 -18.533 -19.112  1.00  0.00     0.045 C 
HETATM   12  C3  UNL     1      18.892 -17.683 -20.166  1.00  0.00     0.045 C 
BRANCH  10  13
HETATM   13  O1  UNL     1      17.626 -16.369 -18.680  1.00  0.00    -0.390 OA
ATOM     14  H1  UNL     1      16.738 -16.111 -18.463  1.00  0.00     0.210 HD
ENDBRANCH  10  13
ENDBRANCH   1  10
BRANCH   8  15
HETATM   15  C11 UNL     1      17.505 -14.001 -22.966  1.00  0.00     0.170 C 
BRANCH  15  16
HETATM   16  O2  UNL     1      18.632 -14.018 -23.779  1.00  0.00    -0.400 OA
ATOM     17  H2  UNL     1      19.168 -14.771 -23.562  1.00  0.00     0.209 HD
ENDBRANCH  15  16
ENDBRANCH   8  15
TORSDOF 4
ENDMDL
MODEL 5
REMARK VINA RESULT: -5.139304558      2.183      3.259
REMARK  4 active torsions:
REMARK  status: ('A' for Active; 'I' for Inactive)
REMARK    1  A    between atoms: C2_2  and  O1_4 
REMARK    2  A    between atoms: C2_2  and  C4_6 
REMARK    3  A    between atoms: C10_13  and  C11_14 
REMARK    4  A    between atoms: C11_14  and  O2_15 
ROOT
HETATM    1  C4  UNL     1      17.941 -14.036 -20.642  1.00  0.00     0.053 C 
HETATM    2  C5  UNL     1      18.870 -14.160 -21.850  1.00  0.00     0.011 C 
HETATM    3  C6  UNL     1      18.109 -14.137 -23.142  1.00  0.00     0.031 C 
HETATM    4  C7  UNL     1      16.996 -13.160 -23.228  1.00  0.00     0.273 C 
HETATM    5  N1  UNL     1      16.200 -13.147 -22.031  1.00  0.00     0.094 N 
HETATM    6  C8  UNL     1      15.312 -12.000 -21.973  1.00  0.00     0.273 C 
HETATM    7  C9  UNL     1      15.016 -11.896 -20.492  1.00  0.00     0.039 C 
HETATM    8  C10 UNL     1      16.363 -12.185 -19.855  1.00  0.00     0.045 C 
HETATM    9  C12 UNL     1      17.115 -12.834 -20.923  1.00  0.00     0.236 C 
ENDROOT
BRANCH   1  10
HETATM   10  C2  UNL     1      17.199 -15.310 -20.395  1.00  0.00     0.056 C 
HETATM   11  C1  UNL     1      17.908 -16.527 -20.965  1.00  0.00     0.045 C 
HETATM   12  C3  UNL     1      17.030 -15.626 -18.926  1.00  0.00     0.045 C 
BRANCH  10  13
HETATM   13  O1  UNL     1      15.938 -15.305 -20.986  1.00  0.00    -0.390 OA
ATOM     14  H1  UNL     1      15.524 -16.113 -20.706  1.00  0.00     0.210 HD
ENDBRANCH  10  13
ENDBRANCH   1  10
BRANCH   8  15
HETATM   15  C11 UNL     1      16.963 -10.785 -19.586  1.00  0.00     0.170 C 
BRANCH  15  16
HETATM   16  O2  UNL     1      16.631 -10.378 -18.300  1.00  0.00    -0.400 OA
ATOM     17  H2  UNL     1      17.341 -10.593 -17.707  1.00  0.00     0.209 HD
ENDBRANCH  15  16
ENDBRANCH   8  15
TORSDOF 4
ENDMDL
