MODEL 1
REMARK VINA RESULT: -5.719494139      0.000      0.000
REMARK  4 active torsions:
REMARK  status: ('A' for Active; 'I' for Inactive)
REMARK    1  A    between atoms: O1_2  and  C2_3 
REMARK    2  A    between atoms: C4_5  and  O2_6 
REMARK    3  A    between atoms: C5_8  and  C6_9 
REMARK    4  A    between atoms: C9_12  and  O3_13 
ROOT
HETATM    1  C2  UNL     1      17.025 -15.962 -18.949  1.00  0.00     0.133 C 
HETATM    2  C3  UNL     1      16.006 -14.898 -19.235  1.00  0.00     0.065 C 
HETATM    3  C4  UNL     1      14.817 -15.391 -20.010  1.00  0.00     0.127 C 
HETATM    4  C5  UNL     1      14.601 -16.892 -19.835  1.00  0.00     0.048 C 
HETATM    5  C9  UNL     1      15.807 -17.547 -20.480  1.00  0.00     0.135 C 
HETATM    6  C10 UNL     1      17.108 -17.040 -19.962  1.00  0.00     0.005 C 
HETATM    7  C11 UNL     1      17.823 -18.240 -19.324  1.00  0.00     0.020 C 
HETATM    8  C12 UNL     1      17.973 -16.634 -21.145  1.00  0.00     0.020 C 
ENDROOT
BRANCH   4   9
HETATM    9  C6  UNL     1      13.403 -17.249 -20.692  1.00  0.00    -0.006 A 
HETATM   10  C7  UNL     1      12.398 -18.220 -20.195  1.00  0.00     0.005 A 
HETATM   11  C8  UNL     1      12.058 -16.735 -20.403  1.00  0.00     0.005 A 
ENDBRANCH   4   9
BRANCH   3  12
HETATM   12  O2  UNL     1      14.912 -15.118 -21.374  1.00  0.00    -0.395 OA
ATOM     13  H2  UNL     1      14.653 -15.855 -21.915  1.00  0.00     0.210 HD
ENDBRANCH   3  12
BRANCH   5  14
HETATM   14  O3  UNL     1      15.671 -18.927 -20.360  1.00  0.00    -0.394 OA
ATOM     15  H3  UNL     1      16.506 -19.286 -20.083  1.00  0.00     0.210 HD
ENDBRANCH   5  14
BRANCH   1  16
HETATM   16  O1  UNL     1      16.903 -16.515 -17.690  1.00  0.00    -0.390 OA
HETATM   17  C1  UNL     1      16.558 -15.605 -16.708  1.00  0.00     0.202 C 
ENDBRANCH   1  16
TORSDOF 4
ENDMDL
MODEL 2
REMARK VINA RESULT: -5.576005551      1.773      3.893
REMARK  4 active torsions:
REMARK  status: ('A' for Active; 'I' for Inactive)
REMARK    1  A    between atoms: O1_2  and  C2_3 
REMARK    2  A    between atoms: C4_5  and  O2_6 
REMARK    3  A    between atoms: C5_8  and  C6_9 
REMARK    4  A    between atoms: C9_12  and  O3_13 
ROOT
HETATM    1  C2  UNL     1      17.742 -14.343 -21.010  1.00  0.00     0.133 C 
HETATM    2  C3  UNL     1      18.366 -15.667 -20.681  1.00  0.00     0.065 C 
HETATM    3  C4  UNL     1      17.409 -16.657 -20.082  1.00  0.00     0.127 C 
HETATM    4  C5  UNL     1      15.961 -16.358 -20.466  1.00  0.00     0.048 C 
HETATM    5  C9  UNL     1      15.641 -15.031 -19.805  1.00  0.00     0.135 C 
HETATM    6  C10 UNL     1      16.610 -13.950 -20.139  1.00  0.00     0.005 C 
HETATM    7  C11 UNL     1      15.812 -12.853 -20.858  1.00  0.00     0.020 C 
HETATM    8  C12 UNL     1      17.091 -13.317 -18.842  1.00  0.00     0.020 C 
ENDROOT
BRANCH   4   9
HETATM    9  C6  UNL     1      15.115 -17.405 -19.768  1.00  0.00    -0.006 A 
HETATM   10  C7  UNL     1      13.937 -17.985 -20.458  1.00  0.00     0.005 A 
HETATM   11  C8  UNL     1      15.181 -18.827 -20.132  1.00  0.00     0.005 A 
ENDBRANCH   4   9
BRANCH   3  12
HETATM   12  O2  UNL     1      17.492 -16.714 -18.692  1.00  0.00    -0.395 OA
ATOM     13  H2  UNL     1      17.480 -17.604 -18.360  1.00  0.00     0.210 HD
ENDBRANCH   3  12
BRANCH   5  14
HETATM   14  O3  UNL     1      14.324 -14.699 -20.111  1.00  0.00    -0.394 OA
ATOM     15  H3  UNL     1      14.037 -14.027 -19.503  1.00  0.00     0.210 HD
ENDBRANCH   5  14
BRANCH   1  16
HETATM   16  O1  UNL     1      17.372 -14.223 -22.334  1.00  0.00    -0.390 OA
HETATM   17  C1  UNL     1      18.440 -14.129 -23.208  1.00  0.00     0.202 C 
ENDBRANCH   1  16
TORSDOF 4
ENDMDL
MODEL 3
REMARK VINA RESULT: -5.350632845      2.003      3.982
REMARK  4 active torsions:
REMARK  status: ('A' for Active; 'I' for Inactive)
REMARK    1  A    between atoms: O1_2  and  C2_3 
REMARK    2  A    between atoms: C4_5  and  O2_6 
REMARK    3  A    between atoms: C5_8  and  C6_9 
REMARK    4  A    between atoms: C9_12  and  O3_13 
ROOT
HETATM    1  C2  UNL     1      15.368 -16.815 -19.580  1.00  0.00     0.133 C 
HETATM    2  C3  UNL     1      14.667 -15.602 -20.118  1.00  0.00     0.065 C 
HETATM    3  C4  UNL     1      15.588 -14.606 -20.762  1.00  0.00     0.127 C 
HETATM    4  C5  UNL     1      16.879 -15.255 -21.256  1.00  0.00     0.048 C 
HETATM    5  C9  UNL     1      17.596 -15.720 -20.002  1.00  0.00     0.135 C 
HETATM    6  C10 UNL     1      16.759 -16.585 -19.125  1.00  0.00     0.005 C 
HETATM    7  C11 UNL     1      17.467 -17.945 -19.048  1.00  0.00     0.020 C 
HETATM    8  C12 UNL     1      16.803 -16.024 -17.712  1.00  0.00     0.020 C 
ENDROOT
BRANCH   4   9
HETATM    9  C6  UNL     1      17.716 -14.136 -21.844  1.00  0.00    -0.006 A 
HETATM   10  C7  UNL     1      18.364 -14.311 -23.166  1.00  0.00     0.005 A 
HETATM   11  C8  UNL     1      17.230 -13.297 -22.947  1.00  0.00     0.005 A 
ENDBRANCH   4   9
BRANCH   3  12
HETATM   12  O2  UNL     1      15.923 -13.553 -19.913  1.00  0.00    -0.395 OA
ATOM     13  H2  UNL     1      16.060 -12.736 -20.377  1.00  0.00     0.210 HD
ENDBRANCH   3  12
BRANCH   5  14
HETATM   14  O3  UNL     1      18.793 -16.321 -20.382  1.00  0.00    -0.394 OA
ATOM     15  H3  UNL     1      18.689 -17.262 -20.312  1.00  0.00     0.210 HD
ENDBRANCH   5  14
BRANCH   1  16
HETATM   16  O1  UNL     1      15.332 -17.896 -20.437  1.00  0.00    -0.390 OA
HETATM   17  C1  UNL     1      14.084 -18.480 -20.551  1.00  0.00     0.202 C 
ENDBRANCH   1  16
TORSDOF 4
ENDMDL
MODEL 4
REMARK VINA RESULT: -5.264164072      2.433      4.561
REMARK  4 active torsions:
REMARK  status: ('A' for Active; 'I' for Inactive)
REMARK    1  A    between atoms: O1_2  and  C2_3 
REMARK    2  A    between atoms: C4_5  and  O2_6 
REMARK    3  A    between atoms: C5_8  and  C6_9 
REMARK    4  A    between atoms: C9_12  and  O3_13 
ROOT
HETATM    1  C2  UNL     1      15.070 -14.578 -19.092  1.00  0.00     0.133 C 
HETATM    2  C3  UNL     1      15.432 -13.131 -19.259  1.00  0.00     0.065 C 
HETATM    3  C4  UNL     1      16.756 -12.912 -19.933  1.00  0.00     0.127 C 
HETATM    4  C5  UNL     1      17.159 -14.099 -20.804  1.00  0.00     0.048 C 
HETATM    5  C9  UNL     1      17.380 -15.247 -19.837  1.00  0.00     0.135 C 
HETATM    6  C10 UNL     1      16.220 -15.498 -18.937  1.00  0.00     0.005 C 
HETATM    7  C11 UNL     1      15.735 -16.924 -19.238  1.00  0.00     0.020 C 
HETATM    8  C12 UNL     1      16.722 -15.535 -17.502  1.00  0.00     0.020 C 
ENDROOT
BRANCH   4   9
HETATM    9  C6  UNL     1      18.516 -13.755 -21.386  1.00  0.00    -0.006 A 
HETATM   10  C7  UNL     1      18.767 -13.932 -22.837  1.00  0.00     0.005 A 
HETATM   11  C8  UNL     1      18.736 -12.541 -22.183  1.00  0.00     0.005 A 
ENDBRANCH   4   9
BRANCH   3  12
HETATM   12  O2  UNL     1      17.787 -12.662 -19.029  1.00  0.00    -0.395 OA
ATOM     13  H2  UNL     1      17.842 -13.317 -18.343  1.00  0.00     0.210 HD
ENDBRANCH   3  12
BRANCH   5  14
HETATM   14  O3  UNL     1      17.758 -16.368 -20.570  1.00  0.00    -0.394 OA
ATOM     15  H3  UNL     1      17.809 -17.108 -19.976  1.00  0.00     0.210 HD
ENDBRANCH   5  14
BRANCH   1  16
HETATM   16  O1  UNL     1      14.225 -15.050 -20.076  1.00  0.00    -0.390 OA
HETATM   17  C1  UNL     1      13.257 -14.143 -20.467  1.00  0.00     0.202 C 
ENDBRANCH   1  16
TORSDOF 4
ENDMDL
MODEL 5
REMARK VINA RESULT: -5.162140419      1.890      3.907
REMARK  4 active torsions:
REMARK  status: ('A' for Active; 'I' for Inactive)
REMARK    1  A    between atoms: O1_2  and  C2_3 
REMARK    2  A    between atoms: C4_5  and  O2_6 
REMARK    3  A    between atoms: C5_8  and  C6_9 
REMARK    4  A    between atoms: C9_12  and  O3_13 
ROOT
HETATM    1  C2  UNL     1      15.669 -14.275 -20.984  1.00  0.00     0.133 C 
HETATM    2  C3  UNL     1      16.593 -15.448 -20.834  1.00  0.00     0.065 C 
HETATM    3  C4  UNL     1      15.916 -16.691 -20.333  1.00  0.00     0.127 C 
HETATM    4  C5  UNL     1      14.420 -16.693 -20.637  1.00  0.00     0.048 C 
HETATM    5  C9  UNL     1      13.846 -15.556 -19.813  1.00  0.00     0.135 C 
HETATM    6  C10 UNL     1      14.528 -14.252 -20.040  1.00  0.00     0.005 C 
HETATM    7  C11 UNL     1      13.465 -13.294 -20.600  1.00  0.00     0.020 C 
HETATM    8  C12 UNL     1      14.924 -13.673 -18.691  1.00  0.00     0.020 C 
ENDROOT
BRANCH   4   9
HETATM    9  C6  UNL     1      13.870 -17.976 -20.047  1.00  0.00    -0.006 A 
HETATM   10  C7  UNL     1      12.854 -18.758 -20.792  1.00  0.00     0.005 A 
HETATM   11  C8  UNL     1      14.273 -19.297 -20.547  1.00  0.00     0.005 A 
ENDBRANCH   4   9
BRANCH   3  12
HETATM   12  O2  UNL     1      16.086 -16.882 -18.962  1.00  0.00    -0.395 OA
ATOM     13  H2  UNL     1      15.261 -16.924 -18.492  1.00  0.00     0.210 HD
ENDBRANCH   3  12
BRANCH   5  14
HETATM   14  O3  UNL     1      12.473 -15.503 -20.040  1.00  0.00    -0.394 OA
ATOM     15  H3  UNL     1      12.251 -14.621 -20.314  1.00  0.00     0.210 HD
ENDBRANCH   5  14
BRANCH   1  16
HETATM   16  O1  UNL     1      15.211 -14.097 -22.273  1.00  0.00    -0.390 OA
HETATM   17  C1  UNL     1      16.110 -13.456 -23.105  1.00  0.00     0.202 C 
ENDBRANCH   1  16
TORSDOF 4
ENDMDL
