MODEL 1
REMARK VINA RESULT: -6.047860025      0.000      0.000
REMARK  4 active torsions:
REMARK  status: ('A' for Active; 'I' for Inactive)
REMARK    1  A    between atoms: O1_2  and  C2_3 
REMARK    2  A    between atoms: C3_4  and  C4_5 
REMARK    3  A    between atoms: C4_5  and  O2_6 
REMARK    4  A    between atoms: C11_14  and  O3_16 
ROOT
HETATM    1  C2  UNL     1      10.707 -17.287 -20.333  1.00  0.00     0.161 C 
HETATM    2  C3  UNL     1      11.891 -18.140 -19.957  1.00  0.00     0.046 C 
HETATM    3  C5  UNL     1      13.003 -17.538 -20.792  1.00  0.00     0.001 C 
HETATM    4  C6  UNL     1      14.250 -17.615 -19.975  1.00  0.00     0.005 C 
HETATM    5  C7  UNL     1      15.335 -16.677 -20.408  1.00  0.00     0.000 C 
HETATM    6  C8  UNL     1      14.753 -15.287 -20.340  1.00  0.00     0.001 C 
HETATM    7  C9  UNL     1      13.544 -15.101 -21.181  1.00  0.00     0.008 C 
HETATM    8  C10 UNL     1      12.591 -16.210 -21.250  1.00  0.00     0.027 C 
HETATM    9  C11 UNL     1      11.337 -15.913 -20.414  1.00  0.00     0.085 C 
HETATM   10  C12 UNL     1      10.447 -14.920 -21.125  1.00  0.00     0.049 C 
ENDROOT
BRANCH   2  11
HETATM   11  C4  UNL     1      11.689 -19.595 -20.286  1.00  0.00     0.171 C 
BRANCH  11  12
HETATM   12  O2  UNL     1      10.934 -20.164 -19.264  1.00  0.00    -0.400 OA
ATOM     13  H2  UNL     1      10.794 -21.079 -19.479  1.00  0.00     0.209 HD
ENDBRANCH  11  12
ENDBRANCH   2  11
BRANCH   1  14
HETATM   14  O1  UNL     1       9.714 -17.298 -19.379  1.00  0.00    -0.387 OA
HETATM   15  C1  UNL     1       8.462 -17.604 -19.914  1.00  0.00     0.202 C 
ENDBRANCH   1  14
BRANCH   9  16
HETATM   16  O3  UNL     1      11.759 -15.467 -19.188  1.00  0.00    -0.387 OA
ATOM     17  H3  UNL     1      12.383 -14.754 -19.263  1.00  0.00     0.210 HD
ENDBRANCH   9  16
TORSDOF 4
ENDMDL
MODEL 2
REMARK VINA RESULT: -5.914020147      1.624      3.808
REMARK  4 active torsions:
REMARK  status: ('A' for Active; 'I' for Inactive)
REMARK    1  A    between atoms: O1_2  and  C2_3 
REMARK    2  A    between atoms: C3_4  and  C4_5 
REMARK    3  A    between atoms: C4_5  and  O2_6 
REMARK    4  A    between atoms: C11_14  and  O3_16 
ROOT
HETATM    1  C2  UNL     1      13.115 -18.072 -19.885  1.00  0.00     0.161 C 
HETATM    2  C3  UNL     1      11.762 -18.737 -19.845  1.00  0.00     0.046 C 
HETATM    3  C5  UNL     1      10.859 -17.605 -19.399  1.00  0.00     0.001 C 
HETATM    4  C6  UNL     1       9.558 -17.783 -20.108  1.00  0.00     0.005 C 
HETATM    5  C7  UNL     1       8.712 -16.549 -20.172  1.00  0.00     0.000 C 
HETATM    6  C8  UNL     1       9.542 -15.495 -20.863  1.00  0.00     0.001 C 
HETATM    7  C9  UNL     1      10.829 -15.204 -20.183  1.00  0.00     0.008 C 
HETATM    8  C10 UNL     1      11.553 -16.332 -19.596  1.00  0.00     0.027 C 
HETATM    9  C11 UNL     1      12.769 -16.714 -20.455  1.00  0.00     0.085 C 
HETATM   10  C12 UNL     1      13.888 -15.716 -20.267  1.00  0.00     0.049 C 
ENDROOT
BRANCH   2  11
HETATM   11  C4  UNL     1      11.709 -19.891 -18.880  1.00  0.00     0.171 C 
BRANCH  11  12
HETATM   12  O2  UNL     1      12.146 -21.030 -19.551  1.00  0.00    -0.400 OA
ATOM     13  H2  UNL     1      12.294 -21.710 -18.905  1.00  0.00     0.209 HD
ENDBRANCH  11  12
ENDBRANCH   2  11
BRANCH   1  14
HETATM   14  O1  UNL     1      14.006 -18.721 -20.711  1.00  0.00    -0.387 OA
HETATM   15  C1  UNL     1      15.145 -19.156 -20.033  1.00  0.00     0.202 C 
ENDBRANCH   1  14
BRANCH   9  16
HETATM   16  O3  UNL     1      12.341 -16.795 -21.756  1.00  0.00    -0.387 OA
ATOM     17  H3  UNL     1      12.273 -15.939 -22.163  1.00  0.00     0.210 HD
ENDBRANCH   9  16
TORSDOF 4
ENDMDL
MODEL 3
REMARK VINA RESULT: -5.610438197      2.277      4.369
REMARK  4 active torsions:
REMARK  status: ('A' for Active; 'I' for Inactive)
REMARK    1  A    between atoms: O1_2  and  C2_3 
REMARK    2  A    between atoms: C3_4  and  C4_5 
REMARK    3  A    between atoms: C4_5  and  O2_6 
REMARK    4  A    between atoms: C11_14  and  O3_16 
ROOT
HETATM    1  C2  UNL     1      12.267 -13.917 -20.418  1.00  0.00     0.161 C 
HETATM    2  C3  UNL     1      11.152 -14.620 -19.688  1.00  0.00     0.046 C 
HETATM    3  C5  UNL     1      11.076 -15.948 -20.413  1.00  0.00     0.001 C 
HETATM    4  C6  UNL     1      10.739 -16.982 -19.391  1.00  0.00     0.005 C 
HETATM    5  C7  UNL     1      11.070 -18.386 -19.795  1.00  0.00     0.000 C 
HETATM    6  C8  UNL     1      12.549 -18.410 -20.092  1.00  0.00     0.001 C 
HETATM    7  C9  UNL     1      12.964 -17.456 -21.151  1.00  0.00     0.008 C 
HETATM    8  C10 UNL     1      12.309 -16.148 -21.176  1.00  0.00     0.027 C 
HETATM    9  C11 UNL     1      13.244 -15.051 -20.644  1.00  0.00     0.085 C 
HETATM   10  C12 UNL     1      14.293 -14.702 -21.672  1.00  0.00     0.049 C 
ENDROOT
BRANCH   2  11
HETATM   11  C4  UNL     1       9.844 -13.879 -19.769  1.00  0.00     0.171 C 
BRANCH  11  12
HETATM   12  O2  UNL     1       9.861 -12.874 -18.807  1.00  0.00    -0.400 OA
ATOM     13  H2  UNL     1       9.596 -13.256 -17.979  1.00  0.00     0.209 HD
ENDBRANCH  11  12
ENDBRANCH   2  11
BRANCH   1  14
HETATM   14  O1  UNL     1      12.857 -12.925 -19.668  1.00  0.00    -0.387 OA
HETATM   15  C1  UNL     1      12.833 -11.685 -20.308  1.00  0.00     0.202 C 
ENDBRANCH   1  14
BRANCH   9  16
HETATM   16  O3  UNL     1      13.782 -15.509 -19.468  1.00  0.00    -0.387 OA
ATOM     17  H3  UNL     1      13.154 -16.011 -18.960  1.00  0.00     0.210 HD
ENDBRANCH   9  16
TORSDOF 4
ENDMDL
MODEL 4
REMARK VINA RESULT: -5.566404151      3.135      5.485
REMARK  4 active torsions:
REMARK  status: ('A' for Active; 'I' for Inactive)
REMARK    1  A    between atoms: O1_2  and  C2_3 
REMARK    2  A    between atoms: C3_4  and  C4_5 
REMARK    3  A    between atoms: C4_5  and  O2_6 
REMARK    4  A    between atoms: C11_14  and  O3_16 
ROOT
HETATM    1  C2  UNL     1      16.252 -14.523 -20.422  1.00  0.00     0.161 C 
HETATM    2  C3  UNL     1      16.570 -15.989 -20.569  1.00  0.00     0.046 C 
HETATM    3  C5  UNL     1      15.378 -16.647 -19.904  1.00  0.00     0.001 C 
HETATM    4  C6  UNL     1      15.088 -17.895 -20.669  1.00  0.00     0.005 C 
HETATM    5  C7  UNL     1      13.703 -18.434 -20.476  1.00  0.00     0.000 C 
HETATM    6  C8  UNL     1      12.754 -17.336 -20.890  1.00  0.00     0.001 C 
HETATM    7  C9  UNL     1      12.927 -16.074 -20.128  1.00  0.00     0.008 C 
HETATM    8  C10 UNL     1      14.293 -15.671 -19.791  1.00  0.00     0.027 C 
HETATM    9  C11 UNL     1      14.761 -14.509 -20.681  1.00  0.00     0.085 C 
HETATM   10  C12 UNL     1      14.120 -13.213 -20.243  1.00  0.00     0.049 C 
ENDROOT
BRANCH   2  11
HETATM   11  C4  UNL     1      17.857 -16.377 -19.891  1.00  0.00     0.171 C 
BRANCH  11  12
HETATM   12  O2  UNL     1      18.908 -16.011 -20.726  1.00  0.00    -0.400 OA
ATOM     13  H2  UNL     1      19.272 -16.804 -21.102  1.00  0.00     0.209 HD
ENDBRANCH  11  12
ENDBRANCH   2  11
BRANCH   1  14
HETATM   14  O1  UNL     1      16.902 -13.739 -21.349  1.00  0.00    -0.387 OA
HETATM   15  C1  UNL     1      17.687 -12.750 -20.756  1.00  0.00     0.202 C 
ENDBRANCH   1  14
BRANCH   9  16
HETATM   16  O3  UNL     1      14.460 -14.840 -21.978  1.00  0.00    -0.387 OA
ATOM     17  H3  UNL     1      13.801 -14.265 -22.349  1.00  0.00     0.210 HD
ENDBRANCH   9  16
TORSDOF 4
ENDMDL
MODEL 5
REMARK VINA RESULT: -5.446382955      1.342      2.500
REMARK  4 active torsions:
REMARK  status: ('A' for Active; 'I' for Inactive)
REMARK    1  A    between atoms: O1_2  and  C2_3 
REMARK    2  A    between atoms: C3_4  and  C4_5 
REMARK    3  A    between atoms: C4_5  and  O2_6 
REMARK    4  A    between atoms: C11_14  and  O3_16 
ROOT
HETATM    1  C2  UNL     1      11.075 -14.743 -20.125  1.00  0.00     0.161 C 
HETATM    2  C3  UNL     1      10.949 -16.232 -19.919  1.00  0.00     0.046 C 
HETATM    3  C5  UNL     1      12.062 -16.774 -20.791  1.00  0.00     0.001 C 
HETATM    4  C6  UNL     1      12.620 -17.968 -20.090  1.00  0.00     0.005 C 
HETATM    5  C7  UNL     1      13.995 -18.363 -20.534  1.00  0.00     0.000 C 
HETATM    6  C8  UNL     1      14.881 -17.162 -20.304  1.00  0.00     0.001 C 
HETATM    7  C9  UNL     1      14.437 -15.943 -21.023  1.00  0.00     0.008 C 
HETATM    8  C10 UNL     1      12.997 -15.692 -21.104  1.00  0.00     0.027 C 
HETATM    9  C11 UNL     1      12.578 -14.567 -20.145  1.00  0.00     0.085 C 
HETATM   10  C12 UNL     1      12.985 -13.220 -20.696  1.00  0.00     0.049 C 
ENDROOT
BRANCH   2  11
HETATM   11  C4  UNL     1       9.609 -16.767 -20.348  1.00  0.00     0.171 C 
BRANCH  11  12
HETATM   12  O2  UNL     1       9.283 -17.827 -19.507  1.00  0.00    -0.400 OA
ATOM     13  H2  UNL     1       8.452 -18.185 -19.797  1.00  0.00     0.209 HD
ENDBRANCH  11  12
ENDBRANCH   2  11
BRANCH   1  14
HETATM   14  O1  UNL     1      10.525 -14.012 -19.095  1.00  0.00    -0.387 OA
HETATM   15  C1  UNL     1       9.487 -13.184 -19.523  1.00  0.00     0.202 C 
ENDBRANCH   1  14
BRANCH   9  16
HETATM   16  O3  UNL     1      13.145 -14.837 -18.925  1.00  0.00    -0.387 OA
ATOM     17  H3  UNL     1      13.140 -15.766 -18.728  1.00  0.00     0.210 HD
ENDBRANCH   9  16
TORSDOF 4
ENDMDL
