MODEL 1
REMARK VINA RESULT: -6.597458271      0.000      0.000
REMARK  1 active torsions:
REMARK  status: ('A' for Active; 'I' for Inactive)
REMARK       I    between atoms: C2_5  and  N3_6 
REMARK       I    between atoms: C2_5  and  N5_10 
REMARK    1  A    between atoms: N5_10  and  C4_12 
ROOT
HETATM    1  N1  UNL     1      16.914  -9.412 -19.173  1.00  0.00    -0.171 NA
HETATM    2  C1  UNL     1      16.548 -10.494 -18.981  1.00  0.00     0.196 C 
HETATM    3  N2  UNL     1      16.103 -11.824 -18.768  1.00  0.00    -0.125 N 
ATOM      4  H2  UNL     1      15.257 -12.034 -18.240  1.00  0.00     0.197 HD
HETATM    5  C2  UNL     1      16.837 -12.747 -19.283  1.00  0.00     0.696 C 
HETATM    6  N3  UNL     1      16.444 -14.098 -19.105  1.00  0.00    -0.125 N 
ATOM      7  H3  UNL     1      15.926 -14.556 -19.854  1.00  0.00     0.197 HD
HETATM    8  C3  UNL     1      16.733 -14.832 -17.952  1.00  0.00     0.196 C 
HETATM    9  N4  UNL     1      16.962 -15.456 -16.992  1.00  0.00    -0.171 NA
HETATM   10  N5  UNL     1      18.020 -12.509 -20.025  1.00  0.00    -0.215 N 
ATOM     11  H5  UNL     1      18.731 -11.881 -19.651  1.00  0.00     0.178 HD
ENDROOT
BRANCH  10  12
HETATM   12  C4  UNL     1      18.222 -13.115 -21.245  1.00  0.00     0.055 C 
HETATM   13  C5  UNL     1      18.602 -14.602 -21.264  1.00  0.00     0.037 C 
HETATM   14  C6  UNL     1      18.058 -14.514 -22.686  1.00  0.00    -0.005 C 
HETATM   15  C7  UNL     1      19.072 -13.612 -23.330  1.00  0.00     0.012 C 
HETATM   16  C11 UNL     1      17.037 -13.535 -22.098  1.00  0.00     0.019 C 
HETATM   17  C8  UNL     1      19.026 -12.448 -22.322  1.00  0.00     0.015 C 
HETATM   18  C9  UNL     1      18.014 -11.477 -22.875  1.00  0.00     0.007 C 
HETATM   19  C10 UNL     1      16.808 -12.410 -23.057  1.00  0.00     0.008 C 
ENDBRANCH  10  12
TORSDOF 1
ENDMDL
MODEL 2
REMARK VINA RESULT: -6.484964963      2.245      4.356
REMARK  1 active torsions:
REMARK  status: ('A' for Active; 'I' for Inactive)
REMARK       I    between atoms: C2_5  and  N3_6 
REMARK       I    between atoms: C2_5  and  N5_10 
REMARK    1  A    between atoms: N5_10  and  C4_12 
ROOT
HETATM    1  N1  UNL     1      14.607 -10.600 -22.088  1.00  0.00    -0.171 NA
HETATM    2  C1  UNL     1      15.733 -10.830 -21.945  1.00  0.00     0.196 C 
HETATM    3  N2  UNL     1      17.107 -11.122 -21.749  1.00  0.00    -0.125 N 
ATOM      4  H2  UNL     1      17.836 -10.424 -21.900  1.00  0.00     0.197 HD
HETATM    5  C2  UNL     1      17.375 -12.322 -21.370  1.00  0.00     0.696 C 
HETATM    6  N3  UNL     1      18.731 -12.675 -21.158  1.00  0.00    -0.125 N 
ATOM      7  H3  UNL     1      19.096 -12.650 -20.205  1.00  0.00     0.197 HD
HETATM    8  C3  UNL     1      19.594 -13.055 -22.189  1.00  0.00     0.196 C 
HETATM    9  N4  UNL     1      20.326 -13.369 -23.042  1.00  0.00    -0.171 NA
HETATM   10  N5  UNL     1      16.401 -13.326 -21.145  1.00  0.00    -0.215 N 
ATOM     11  H5  UNL     1      15.685 -13.499 -21.850  1.00  0.00     0.178 HD
ENDROOT
BRANCH  10  12
HETATM   12  C4  UNL     1      16.410 -14.072 -19.988  1.00  0.00     0.055 C 
HETATM   13  C5  UNL     1      16.832 -13.384 -18.683  1.00  0.00     0.037 C 
HETATM   14  C6  UNL     1      16.048 -14.533 -18.059  1.00  0.00    -0.005 C 
HETATM   15  C7  UNL     1      16.902 -15.708 -18.440  1.00  0.00     0.012 C 
HETATM   16  C11 UNL     1      15.111 -14.375 -19.261  1.00  0.00     0.019 C 
HETATM   17  C8  UNL     1      16.991 -15.455 -19.957  1.00  0.00     0.015 C 
HETATM   18  C9  UNL     1      15.864 -16.253 -20.564  1.00  0.00     0.007 C 
HETATM   19  C10 UNL     1      14.679 -15.722 -19.745  1.00  0.00     0.008 C 
ENDBRANCH  10  12
TORSDOF 1
ENDMDL
MODEL 3
REMARK VINA RESULT: -6.430389698      4.479      5.972
REMARK  1 active torsions:
REMARK  status: ('A' for Active; 'I' for Inactive)
REMARK       I    between atoms: C2_5  and  N3_6 
REMARK       I    between atoms: C2_5  and  N5_10 
REMARK    1  A    between atoms: N5_10  and  C4_12 
ROOT
HETATM    1  N1  UNL     1      12.358 -14.559 -21.126  1.00  0.00    -0.171 NA
HETATM    2  C1  UNL     1      12.368 -15.717 -21.116  1.00  0.00     0.196 C 
HETATM    3  N2  UNL     1      12.402 -17.134 -21.107  1.00  0.00    -0.125 N 
ATOM      4  H2  UNL     1      11.714 -17.696 -21.608  1.00  0.00     0.197 HD
HETATM    5  C2  UNL     1      13.357 -17.666 -20.427  1.00  0.00     0.696 C 
HETATM    6  N3  UNL     1      13.444 -19.080 -20.381  1.00  0.00    -0.125 N 
ATOM      7  H3  UNL     1      14.088 -19.548 -21.019  1.00  0.00     0.197 HD
HETATM    8  C3  UNL     1      12.692 -19.865 -19.502  1.00  0.00     0.196 C 
HETATM    9  N4  UNL     1      12.067 -20.532 -18.778  1.00  0.00    -0.171 NA
HETATM   10  N5  UNL     1      14.338 -16.932 -19.717  1.00  0.00    -0.215 N 
ATOM     11  H5  UNL     1      14.049 -16.179 -19.092  1.00  0.00     0.178 HD
ENDROOT
BRANCH  10  12
HETATM   12  C4  UNL     1      15.676 -17.222 -19.858  1.00  0.00     0.055 C 
HETATM   13  C5  UNL     1      16.106 -18.125 -21.022  1.00  0.00     0.037 C 
HETATM   14  C6  UNL     1      17.452 -17.448 -20.786  1.00  0.00    -0.005 C 
HETATM   15  C7  UNL     1      17.811 -17.981 -19.428  1.00  0.00     0.012 C 
HETATM   16  C11 UNL     1      16.622 -16.200 -20.466  1.00  0.00     0.019 C 
HETATM   17  C8  UNL     1      16.519 -17.606 -18.677  1.00  0.00     0.015 C 
HETATM   18  C9  UNL     1      16.788 -16.254 -18.066  1.00  0.00     0.007 C 
HETATM   19  C10 UNL     1      17.232 -15.472 -19.311  1.00  0.00     0.008 C 
ENDBRANCH  10  12
TORSDOF 1
ENDMDL
MODEL 4
REMARK VINA RESULT: -6.417756113      0.957      3.029
REMARK  1 active torsions:
REMARK  status: ('A' for Active; 'I' for Inactive)
REMARK       I    between atoms: C2_5  and  N3_6 
REMARK       I    between atoms: C2_5  and  N5_10 
REMARK    1  A    between atoms: N5_10  and  C4_12 
ROOT
HETATM    1  N1  UNL     1      16.176 -15.760 -18.006  1.00  0.00    -0.171 NA
HETATM    2  C1  UNL     1      16.482 -14.642 -18.005  1.00  0.00     0.196 C 
HETATM    3  N2  UNL     1      16.872 -13.279 -18.020  1.00  0.00    -0.125 N 
ATOM      4  H2  UNL     1      17.095 -12.770 -17.165  1.00  0.00     0.197 HD
HETATM    5  C2  UNL     1      16.925 -12.726 -19.181  1.00  0.00     0.696 C 
HETATM    6  N3  UNL     1      17.308 -11.364 -19.262  1.00  0.00    -0.125 N 
ATOM      7  H3  UNL     1      18.279 -11.145 -19.483  1.00  0.00     0.197 HD
HETATM    8  C3  UNL     1      16.420 -10.306 -19.053  1.00  0.00     0.196 C 
HETATM    9  N4  UNL     1      15.690  -9.412 -18.876  1.00  0.00    -0.171 NA
HETATM   10  N5  UNL     1      16.626 -13.389 -20.397  1.00  0.00    -0.215 N 
ATOM     11  H5  UNL     1      15.765 -13.930 -20.477  1.00  0.00     0.178 HD
ENDROOT
BRANCH  10  12
HETATM   12  C4  UNL     1      17.483 -13.311 -21.472  1.00  0.00     0.055 C 
HETATM   13  C5  UNL     1      18.781 -14.128 -21.427  1.00  0.00     0.037 C 
HETATM   14  C6  UNL     1      18.701 -13.960 -22.941  1.00  0.00    -0.005 C 
HETATM   15  C7  UNL     1      18.910 -12.479 -23.081  1.00  0.00     0.012 C 
HETATM   16  C11 UNL     1      17.187 -14.085 -22.745  1.00  0.00     0.019 C 
HETATM   17  C8  UNL     1      17.820 -11.993 -22.105  1.00  0.00     0.015 C 
HETATM   18  C9  UNL     1      16.595 -11.762 -22.955  1.00  0.00     0.007 C 
HETATM   19  C10 UNL     1      16.480 -13.126 -23.649  1.00  0.00     0.008 C 
ENDBRANCH  10  12
TORSDOF 1
ENDMDL
MODEL 5
REMARK VINA RESULT: -6.397666070      6.175      7.114
REMARK  1 active torsions:
REMARK  status: ('A' for Active; 'I' for Inactive)
REMARK       I    between atoms: C2_5  and  N3_6 
REMARK       I    between atoms: C2_5  and  N5_10 
REMARK    1  A    between atoms: N5_10  and  C4_12 
ROOT
HETATM    1  N1  UNL     1      11.007 -12.356 -18.782  1.00  0.00    -0.171 NA
HETATM    2  C1  UNL     1      10.390 -13.160 -19.344  1.00  0.00     0.196 C 
HETATM    3  N2  UNL     1       9.655 -14.152 -20.040  1.00  0.00    -0.125 N 
ATOM      4  H2  UNL     1       8.800 -13.934 -20.552  1.00  0.00     0.197 HD
HETATM    5  C2  UNL     1      10.135 -15.345 -19.985  1.00  0.00     0.696 C 
HETATM    6  N3  UNL     1       9.444 -16.381 -20.662  1.00  0.00    -0.125 N 
ATOM      7  H3  UNL     1       9.766 -16.654 -21.590  1.00  0.00     0.197 HD
HETATM    8  C3  UNL     1       8.342 -17.047 -20.119  1.00  0.00     0.196 C 
HETATM    9  N4  UNL     1       7.417 -17.608 -19.681  1.00  0.00    -0.171 NA
HETATM   10  N5  UNL     1      11.317 -15.700 -19.290  1.00  0.00    -0.215 N 
ATOM     11  H5  UNL     1      11.446 -15.393 -18.326  1.00  0.00     0.178 HD
ENDROOT
BRANCH  10  12
HETATM   12  C4  UNL     1      12.293 -16.456 -19.899  1.00  0.00     0.055 C 
HETATM   13  C5  UNL     1      12.083 -17.973 -19.998  1.00  0.00     0.037 C 
HETATM   14  C6  UNL     1      13.090 -17.835 -21.135  1.00  0.00    -0.005 C 
HETATM   15  C7  UNL     1      14.325 -17.433 -20.382  1.00  0.00     0.012 C 
HETATM   16  C11 UNL     1      12.397 -16.498 -21.415  1.00  0.00     0.019 C 
HETATM   17  C8  UNL     1      13.747 -16.238 -19.599  1.00  0.00     0.015 C 
HETATM   18  C9  UNL     1      14.036 -15.025 -20.447  1.00  0.00     0.007 C 
HETATM   19  C10 UNL     1      13.417 -15.468 -21.781  1.00  0.00     0.008 C 
ENDBRANCH  10  12
TORSDOF 1
ENDMDL
