MODEL 1
REMARK VINA RESULT: -6.217665756      0.000      0.000
REMARK  3 active torsions:
REMARK  status: ('A' for Active; 'I' for Inactive)
REMARK    1  A    between atoms: N1_1  and  C1_5 
REMARK    2  A    between atoms: C2_6  and  C3_7 
REMARK    3  A    between atoms: C6_12  and  N2_13 
ROOT
HETATM    1  C1  UNL     1      15.790 -17.026 -19.150  1.00  0.00     0.230 C 
HETATM    2  C2  UNL     1      15.532 -15.550 -18.893  1.00  0.00     0.119 C 
HETATM    3  C4  UNL     1      15.386 -15.061 -20.335  1.00  0.00     0.020 C 
HETATM    4  C5  UNL     1      14.285 -16.034 -20.785  1.00  0.00     0.039 C 
HETATM    5  C6  UNL     1      14.773 -17.341 -20.218  1.00  0.00     0.254 C 
ENDROOT
BRANCH   5   6
HETATM    6  N2  UNL     1      13.690 -18.165 -19.788  1.00  0.00     0.095 N 
HETATM    7  C7  UNL     1      13.913 -19.544 -20.166  1.00  0.00     0.273 C 
HETATM    8  C8  UNL     1      12.903 -20.376 -19.403  1.00  0.00     0.030 C 
HETATM    9  C9  UNL     1      11.531 -20.007 -19.858  1.00  0.00     0.003 C 
HETATM   10  C10 UNL     1      11.271 -18.537 -19.905  1.00  0.00     0.030 C 
HETATM   11  C11 UNL     1      12.459 -17.732 -20.374  1.00  0.00     0.273 C 
ENDBRANCH   5   6
BRANCH   1  12
HETATM   12  N1  UNL     1      17.111 -17.176 -19.731  1.00  0.00    -0.072 N 
ATOM     13  H13 UNL     1      17.196 -18.023 -20.291  1.00  0.00     0.274 HD
ATOM     14  H12 UNL     1      17.289 -16.498 -20.471  1.00  0.00     0.274 HD
ATOM     15  H11 UNL     1      17.805 -17.130 -18.985  1.00  0.00     0.274 HD
ENDBRANCH   1  12
BRANCH   2  16
HETATM   16  C3  UNL     1      16.580 -14.881 -18.140  1.00  0.00     0.179 C 
HETATM   17  O1  UNL     1      16.999 -13.741 -18.425  1.00  0.00    -0.648 OA
HETATM   18  O2  UNL     1      17.147 -15.532 -17.055  1.00  0.00    -0.648 OA
ENDBRANCH   2  16
TORSDOF 3
ENDMDL
MODEL 2
REMARK VINA RESULT: -6.077311764      1.227      2.101
REMARK  3 active torsions:
REMARK  status: ('A' for Active; 'I' for Inactive)
REMARK    1  A    between atoms: N1_1  and  C1_5 
REMARK    2  A    between atoms: C2_6  and  C3_7 
REMARK    3  A    between atoms: C6_12  and  N2_13 
ROOT
HETATM    1  C1  UNL     1      15.253 -17.402 -19.907  1.00  0.00     0.230 C 
HETATM    2  C2  UNL     1      15.552 -16.271 -18.936  1.00  0.00     0.119 C 
HETATM    3  C4  UNL     1      15.723 -15.120 -19.930  1.00  0.00     0.020 C 
HETATM    4  C5  UNL     1      14.378 -15.260 -20.659  1.00  0.00     0.039 C 
HETATM    5  C6  UNL     1      14.285 -16.749 -20.862  1.00  0.00     0.254 C 
ENDROOT
BRANCH   5   6
HETATM    6  N2  UNL     1      12.939 -17.212 -20.759  1.00  0.00     0.095 N 
HETATM    7  C7  UNL     1      12.102 -16.215 -20.129  1.00  0.00     0.273 C 
HETATM    8  C8  UNL     1      10.666 -16.643 -20.353  1.00  0.00     0.030 C 
HETATM    9  C9  UNL     1      10.432 -17.934 -19.642  1.00  0.00     0.003 C 
HETATM   10  C10 UNL     1      11.475 -18.974 -19.890  1.00  0.00     0.030 C 
HETATM   11  C11 UNL     1      12.873 -18.410 -19.982  1.00  0.00     0.273 C 
ENDBRANCH   5   6
BRANCH   1  12
HETATM   12  N1  UNL     1      16.462 -17.720 -20.642  1.00  0.00    -0.072 N 
ATOM     13  H13 UNL     1      17.241 -17.957 -20.027  1.00  0.00     0.274 HD
ATOM     14  H12 UNL     1      16.396 -18.609 -21.135  1.00  0.00     0.274 HD
ATOM     15  H11 UNL     1      16.681 -16.944 -21.266  1.00  0.00     0.274 HD
ENDBRANCH   1  12
BRANCH   2  16
HETATM   16  C3  UNL     1      16.708 -16.501 -18.086  1.00  0.00     0.179 C 
HETATM   17  O1  UNL     1      17.260 -17.614 -17.977  1.00  0.00    -0.648 OA
HETATM   18  O2  UNL     1      17.230 -15.441 -17.361  1.00  0.00    -0.648 OA
ENDBRANCH   2  16
TORSDOF 3
ENDMDL
MODEL 3
REMARK VINA RESULT: -6.050196382      1.393      1.789
REMARK  3 active torsions:
REMARK  status: ('A' for Active; 'I' for Inactive)
REMARK    1  A    between atoms: N1_1  and  C1_5 
REMARK    2  A    between atoms: C2_6  and  C3_7 
REMARK    3  A    between atoms: C6_12  and  N2_13 
ROOT
HETATM    1  C1  UNL     1      15.035 -17.485 -19.700  1.00  0.00     0.230 C 
HETATM    2  C2  UNL     1      15.652 -16.153 -19.303  1.00  0.00     0.119 C 
HETATM    3  C4  UNL     1      15.688 -15.471 -20.672  1.00  0.00     0.020 C 
HETATM    4  C5  UNL     1      14.202 -15.627 -21.032  1.00  0.00     0.039 C 
HETATM    5  C6  UNL     1      13.932 -17.054 -20.635  1.00  0.00     0.254 C 
ENDROOT
BRANCH   5   6
HETATM    6  N2  UNL     1      12.612 -17.216 -20.117  1.00  0.00     0.095 N 
HETATM    7  C7  UNL     1      12.117 -18.549 -20.385  1.00  0.00     0.273 C 
HETATM    8  C8  UNL     1      10.876 -18.733 -19.536  1.00  0.00     0.030 C 
HETATM    9  C9  UNL     1       9.831 -17.771 -19.994  1.00  0.00     0.003 C 
HETATM   10  C10 UNL     1      10.314 -16.367 -20.156  1.00  0.00     0.030 C 
HETATM   11  C11 UNL     1      11.715 -16.276 -20.713  1.00  0.00     0.273 C 
ENDBRANCH   5   6
BRANCH   1  12
HETATM   12  N1  UNL     1      16.005 -18.240 -20.469  1.00  0.00    -0.072 N 
ATOM     13  H13 UNL     1      16.930 -17.811 -20.458  1.00  0.00     0.274 HD
ATOM     14  H12 UNL     1      16.254 -19.123 -20.023  1.00  0.00     0.274 HD
ATOM     15  H11 UNL     1      15.646 -18.370 -21.415  1.00  0.00     0.274 HD
ENDBRANCH   1  12
BRANCH   2  16
HETATM   16  C3  UNL     1      16.950 -16.264 -18.659  1.00  0.00     0.179 C 
HETATM   17  O1  UNL     1      17.995 -16.544 -19.280  1.00  0.00    -0.648 OA
HETATM   18  O2  UNL     1      17.042 -16.049 -17.292  1.00  0.00    -0.648 OA
ENDBRANCH   2  16
TORSDOF 3
ENDMDL
MODEL 4
REMARK VINA RESULT: -6.048947975      3.146      5.540
REMARK  3 active torsions:
REMARK  status: ('A' for Active; 'I' for Inactive)
REMARK    1  A    between atoms: N1_1  and  C1_5 
REMARK    2  A    between atoms: C2_6  and  C3_7 
REMARK    3  A    between atoms: C6_12  and  N2_13 
ROOT
HETATM    1  C1  UNL     1      13.012 -17.303 -20.130  1.00  0.00     0.230 C 
HETATM    2  C2  UNL     1      13.060 -18.749 -19.662  1.00  0.00     0.119 C 
HETATM    3  C4  UNL     1      14.129 -19.290 -20.614  1.00  0.00     0.020 C 
HETATM    4  C5  UNL     1      15.238 -18.274 -20.297  1.00  0.00     0.039 C 
HETATM    5  C6  UNL     1      14.476 -16.974 -20.285  1.00  0.00     0.254 C 
ENDROOT
BRANCH   5   6
HETATM    6  N2  UNL     1      14.993 -16.071 -19.308  1.00  0.00     0.095 N 
HETATM    7  C7  UNL     1      15.344 -14.806 -19.915  1.00  0.00     0.273 C 
HETATM    8  C8  UNL     1      15.567 -13.823 -18.784  1.00  0.00     0.030 C 
HETATM    9  C9  UNL     1      16.742 -14.272 -17.980  1.00  0.00     0.003 C 
HETATM   10  C10 UNL     1      16.716 -15.716 -17.602  1.00  0.00     0.030 C 
HETATM   11  C11 UNL     1      16.162 -16.610 -18.686  1.00  0.00     0.273 C 
ENDBRANCH   5   6
BRANCH   1  12
HETATM   12  N1  UNL     1      12.401 -17.256 -21.444  1.00  0.00    -0.072 N 
ATOM     13  H13 UNL     1      12.964 -17.725 -22.152  1.00  0.00     0.274 HD
ATOM     14  H12 UNL     1      11.572 -17.846 -21.509  1.00  0.00     0.274 HD
ATOM     15  H11 UNL     1      12.206 -16.283 -21.682  1.00  0.00     0.274 HD
ENDBRANCH   1  12
BRANCH   2  16
HETATM   16  C3  UNL     1      11.787 -19.445 -19.740  1.00  0.00     0.179 C 
HETATM   17  O1  UNL     1      10.697 -18.855 -19.878  1.00  0.00    -0.648 OA
HETATM   18  O2  UNL     1      11.772 -20.829 -19.658  1.00  0.00    -0.648 OA
ENDBRANCH   2  16
TORSDOF 3
ENDMDL
MODEL 5
REMARK VINA RESULT: -5.937286628      2.317      3.282
REMARK  3 active torsions:
REMARK  status: ('A' for Active; 'I' for Inactive)
REMARK    1  A    between atoms: N1_1  and  C1_5 
REMARK    2  A    between atoms: C2_6  and  C3_7 
REMARK    3  A    between atoms: C6_12  and  N2_13 
ROOT
HETATM    1  C1  UNL     1      16.578 -15.145 -20.314  1.00  0.00     0.230 C 
HETATM    2  C2  UNL     1      17.717 -15.275 -21.313  1.00  0.00     0.119 C 
HETATM    3  C4  UNL     1      18.499 -16.418 -20.662  1.00  0.00     0.020 C 
HETATM    4  C5  UNL     1      17.353 -17.438 -20.566  1.00  0.00     0.039 C 
HETATM    5  C6  UNL     1      16.219 -16.588 -20.059  1.00  0.00     0.254 C 
ENDROOT
BRANCH   5   6
HETATM    6  N2  UNL     1      14.967 -16.999 -20.607  1.00  0.00     0.095 N 
HETATM    7  C7  UNL     1      13.978 -15.953 -20.466  1.00  0.00     0.273 C 
HETATM    8  C8  UNL     1      12.805 -16.337 -21.346  1.00  0.00     0.030 C 
HETATM    9  C9  UNL     1      12.200 -17.596 -20.819  1.00  0.00     0.003 C 
HETATM   10  C10 UNL     1      13.185 -18.679 -20.527  1.00  0.00     0.030 C 
HETATM   11  C11 UNL     1      14.482 -18.169 -19.944  1.00  0.00     0.273 C 
ENDBRANCH   5   6
BRANCH   1  12
HETATM   12  N1  UNL     1      17.098 -14.588 -19.081  1.00  0.00    -0.072 N 
ATOM     13  H13 UNL     1      16.766 -15.089 -18.257  1.00  0.00     0.274 HD
ATOM     14  H12 UNL     1      18.095 -14.766 -18.963  1.00  0.00     0.274 HD
ATOM     15  H11 UNL     1      16.873 -13.593 -19.049  1.00  0.00     0.274 HD
ENDBRANCH   1  12
BRANCH   2  16
HETATM   16  C3  UNL     1      18.489 -14.058 -21.501  1.00  0.00     0.179 C 
HETATM   17  O1  UNL     1      19.657 -14.055 -21.938  1.00  0.00    -0.648 OA
HETATM   18  O2  UNL     1      17.909 -12.839 -21.185  1.00  0.00    -0.648 OA
ENDBRANCH   2  16
TORSDOF 3
ENDMDL
