MODEL 1
REMARK VINA RESULT: -6.296459103      0.000      0.000
REMARK  5 active torsions:
REMARK  status: ('A' for Active; 'I' for Inactive)
REMARK    1  A    between atoms: C2_2  and  O1_3 
REMARK    2  A    between atoms: O1_3  and  C3_4 
REMARK    3  A    between atoms: C3_4  and  C4_6 
REMARK    4  A    between atoms: C6_8  and  C7_9 
REMARK    5  A    between atoms: C13_15  and  O3_16 
ROOT
HETATM    1  C4  UNL     1      -0.003  -0.263   5.052  1.00  0.00     0.112 A 
HETATM    2  C5  UNL     1      -0.159   0.615   6.119  1.00  0.00     0.048 A 
HETATM    3  C6  UNL     1       0.329  -0.031   7.251  1.00  0.00    -0.001 A 
HETATM    4  C13 UNL     1       0.742  -1.240   6.802  1.00  0.00     0.149 A 
HETATM    5  N1  UNL     1       0.558  -1.427   5.485  1.00  0.00    -0.327 N 
HETATM    6  C14 UNL     1       0.840  -2.591   4.717  1.00  0.00     0.159 C 
ENDROOT
BRANCH   3   7
HETATM    7  C7  UNL     1       0.539   0.584   8.565  1.00  0.00     0.023 C 
HETATM    8  C8  UNL     1      -0.505   0.201   9.603  1.00  0.00     0.009 C 
HETATM    9  C9  UNL     1       0.065   0.682  10.941  1.00  0.00     0.001 C 
HETATM   10  C10 UNL     1       0.240   2.171  10.982  1.00  0.00     0.000 C 
HETATM   11  C11 UNL     1       0.543   2.800   9.679  1.00  0.00     0.001 C 
HETATM   12  C12 UNL     1       0.215   2.125   8.417  1.00  0.00     0.009 C 
ENDBRANCH   3   7
BRANCH   4  13
HETATM   13  O3  UNL     1       1.301  -2.188   7.658  1.00  0.00    -0.346 OA
ATOM     14  H3  UNL     1       1.942  -2.821   7.353  1.00  0.00     0.219 HD
ENDBRANCH   4  13
BRANCH   1  15
HETATM   15  C3  UNL     1      -0.181  -0.037   3.623  1.00  0.00     0.310 C 
HETATM   16  O2  UNL     1      -1.331  -0.309   3.125  1.00  0.00    -0.258 OA
BRANCH  15  17
HETATM   17  O1  UNL     1       0.811   0.442   2.819  1.00  0.00    -0.317 OA
BRANCH  17  18
HETATM   18  C2  UNL     1       1.309   1.746   2.964  1.00  0.00     0.175 C 
HETATM   19  C1  UNL     1       2.860   1.713   3.029  1.00  0.00     0.034 C 
ENDBRANCH  17  18
ENDBRANCH  15  17
ENDBRANCH   1  15
TORSDOF 5
ENDMDL
MODEL 2
REMARK VINA RESULT: -6.295355722      2.134      3.439
REMARK  5 active torsions:
REMARK  status: ('A' for Active; 'I' for Inactive)
REMARK    1  A    between atoms: C2_2  and  O1_3 
REMARK    2  A    between atoms: O1_3  and  C3_4 
REMARK    3  A    between atoms: C3_4  and  C4_6 
REMARK    4  A    between atoms: C6_8  and  C7_9 
REMARK    5  A    between atoms: C13_15  and  O3_16 
ROOT
HETATM    1  C4  UNL     1      -0.384  -0.472   4.565  1.00  0.00     0.112 A 
HETATM    2  C5  UNL     1      -0.410  -1.309   5.674  1.00  0.00     0.048 A 
HETATM    3  C6  UNL     1       0.218  -0.627   6.712  1.00  0.00    -0.001 A 
HETATM    4  C13 UNL     1       0.579   0.560   6.171  1.00  0.00     0.149 A 
HETATM    5  N1  UNL     1       0.241   0.697   4.878  1.00  0.00    -0.327 N 
HETATM    6  C14 UNL     1       0.511   1.794   4.013  1.00  0.00     0.159 C 
ENDROOT
BRANCH   3   7
HETATM    7  C7  UNL     1       0.254  -1.047   8.116  1.00  0.00     0.023 C 
HETATM    8  C8  UNL     1      -0.443  -2.372   8.386  1.00  0.00     0.009 C 
HETATM    9  C9  UNL     1      -0.024  -2.764   9.807  1.00  0.00     0.001 C 
HETATM   10  C10 UNL     1      -0.491  -1.773  10.831  1.00  0.00     0.000 C 
HETATM   11  C11 UNL     1      -0.588  -0.378  10.351  1.00  0.00     0.001 C 
HETATM   12  C12 UNL     1      -0.702  -0.074   8.919  1.00  0.00     0.009 C 
ENDBRANCH   3   7
BRANCH   4  13
HETATM   13  O3  UNL     1       1.246   1.534   6.914  1.00  0.00    -0.346 OA
ATOM     14  H3  UNL     1       1.810   2.178   6.502  1.00  0.00     0.219 HD
ENDBRANCH   4  13
BRANCH   1  15
HETATM   15  C3  UNL     1      -1.050  -0.610   3.275  1.00  0.00     0.310 C 
HETATM   16  O2  UNL     1      -0.305  -0.638   2.231  1.00  0.00    -0.258 OA
BRANCH  15  17
HETATM   17  O1  UNL     1      -2.404  -0.708   3.146  1.00  0.00    -0.317 OA
BRANCH  17  18
HETATM   18  C2  UNL     1      -3.015  -1.888   2.694  1.00  0.00     0.175 C 
HETATM   19  C1  UNL     1      -3.373  -2.791   3.905  1.00  0.00     0.034 C 
ENDBRANCH  17  18
ENDBRANCH  15  17
ENDBRANCH   1  15
TORSDOF 5
ENDMDL
MODEL 3
REMARK VINA RESULT: -6.294311564      1.265      1.786
REMARK  5 active torsions:
REMARK  status: ('A' for Active; 'I' for Inactive)
REMARK    1  A    between atoms: C2_2  and  O1_3 
REMARK    2  A    between atoms: O1_3  and  C3_4 
REMARK    3  A    between atoms: C3_4  and  C4_6 
REMARK    4  A    between atoms: C6_8  and  C7_9 
REMARK    5  A    between atoms: C13_15  and  O3_16 
ROOT
HETATM    1  C4  UNL     1       0.403   0.471   4.582  1.00  0.00     0.112 A 
HETATM    2  C5  UNL     1       0.430   1.302   5.697  1.00  0.00     0.048 A 
HETATM    3  C6  UNL     1      -0.212   0.620   6.726  1.00  0.00    -0.001 A 
HETATM    4  C13 UNL     1      -0.580  -0.561   6.176  1.00  0.00     0.149 A 
HETATM    5  N1  UNL     1      -0.235  -0.694   4.885  1.00  0.00    -0.327 N 
HETATM    6  C14 UNL     1      -0.509  -1.783   4.011  1.00  0.00     0.159 C 
ENDROOT
BRANCH   3   7
HETATM    7  C7  UNL     1      -0.254   1.032   8.132  1.00  0.00     0.023 C 
HETATM    8  C8  UNL     1       0.450   2.351   8.415  1.00  0.00     0.009 C 
HETATM    9  C9  UNL     1       0.025   2.738   9.834  1.00  0.00     0.001 C 
HETATM   10  C10 UNL     1       0.479   1.738  10.856  1.00  0.00     0.000 C 
HETATM   11  C11 UNL     1       0.570   0.345  10.369  1.00  0.00     0.001 C 
HETATM   12  C12 UNL     1       0.690   0.049   8.936  1.00  0.00     0.009 C 
ENDBRANCH   3   7
BRANCH   4  13
HETATM   13  O3  UNL     1      -1.262  -1.532   6.909  1.00  0.00    -0.346 OA
ATOM     14  H3  UNL     1      -1.198  -1.580   7.856  1.00  0.00     0.219 HD
ENDBRANCH   4  13
BRANCH   1  15
HETATM   15  C3  UNL     1       1.080   0.610   3.298  1.00  0.00     0.310 C 
HETATM   16  O2  UNL     1       0.341   0.689   2.253  1.00  0.00    -0.258 OA
BRANCH  15  17
HETATM   17  O1  UNL     1       2.437   0.658   3.177  1.00  0.00    -0.317 OA
BRANCH  17  18
HETATM   18  C2  UNL     1       3.093   1.808   2.711  1.00  0.00     0.175 C 
HETATM   19  C1  UNL     1       3.326   2.793   3.887  1.00  0.00     0.034 C 
ENDBRANCH  17  18
ENDBRANCH  15  17
ENDBRANCH   1  15
TORSDOF 5
ENDMDL
MODEL 4
REMARK VINA RESULT: -6.293537150      2.187      3.535
REMARK  5 active torsions:
REMARK  status: ('A' for Active; 'I' for Inactive)
REMARK    1  A    between atoms: C2_2  and  O1_3 
REMARK    2  A    between atoms: O1_3  and  C3_4 
REMARK    3  A    between atoms: C3_4  and  C4_6 
REMARK    4  A    between atoms: C6_8  and  C7_9 
REMARK    5  A    between atoms: C13_15  and  O3_16 
ROOT
HETATM    1  C4  UNL     1       0.039   0.287   5.091  1.00  0.00     0.112 A 
HETATM    2  C5  UNL     1       0.201  -0.601   6.149  1.00  0.00     0.048 A 
HETATM    3  C6  UNL     1      -0.330   0.014   7.279  1.00  0.00    -0.001 A 
HETATM    4  C13 UNL     1      -0.772   1.215   6.838  1.00  0.00     0.149 A 
HETATM    5  N1  UNL     1      -0.566   1.426   5.528  1.00  0.00    -0.327 N 
HETATM    6  C14 UNL     1      -0.870   2.591   4.769  1.00  0.00     0.159 C 
ENDROOT
BRANCH   3   7
HETATM    7  C7  UNL     1      -0.547  -0.625   8.581  1.00  0.00     0.023 C 
HETATM    8  C8  UNL     1       0.460  -0.220   9.647  1.00  0.00     0.009 C 
HETATM    9  C9  UNL     1      -0.122  -0.738  10.966  1.00  0.00     0.001 C 
HETATM   10  C10 UNL     1      -0.245  -2.232  10.984  1.00  0.00     0.000 C 
HETATM   11  C11 UNL     1      -0.497  -2.854   9.667  1.00  0.00     0.001 C 
HETATM   12  C12 UNL     1      -0.165  -2.152   8.421  1.00  0.00     0.009 C 
ENDBRANCH   3   7
BRANCH   4  13
HETATM   13  O3  UNL     1      -1.377   2.135   7.695  1.00  0.00    -0.346 OA
ATOM     14  H3  UNL     1      -1.058   3.026   7.777  1.00  0.00     0.219 HD
ENDBRANCH   4  13
BRANCH   1  15
HETATM   15  C3  UNL     1       0.252   0.086   3.663  1.00  0.00     0.310 C 
HETATM   16  O2  UNL     1       1.408   0.387   3.195  1.00  0.00    -0.258 OA
BRANCH  15  17
HETATM   17  O1  UNL     1      -0.713  -0.400   2.831  1.00  0.00    -0.317 OA
BRANCH  17  18
HETATM   18  C2  UNL     1      -1.221  -1.701   2.975  1.00  0.00     0.175 C 
HETATM   19  C1  UNL     1      -2.757  -1.643   3.195  1.00  0.00     0.034 C 
ENDBRANCH  17  18
ENDBRANCH  15  17
ENDBRANCH   1  15
TORSDOF 5
ENDMDL
MODEL 5
REMARK VINA RESULT: -6.287473801      2.060      2.975
REMARK  5 active torsions:
REMARK  status: ('A' for Active; 'I' for Inactive)
REMARK    1  A    between atoms: C2_2  and  O1_3 
REMARK    2  A    between atoms: O1_3  and  C3_4 
REMARK    3  A    between atoms: C3_4  and  C4_6 
REMARK    4  A    between atoms: C6_8  and  C7_9 
REMARK    5  A    between atoms: C13_15  and  O3_16 
ROOT
HETATM    1  C4  UNL     1       0.089   0.477   5.086  1.00  0.00     0.112 A 
HETATM    2  C5  UNL     1       0.273  -0.432   6.121  1.00  0.00     0.048 A 
HETATM    3  C6  UNL     1      -0.322   0.115   7.254  1.00  0.00    -0.001 A 
HETATM    4  C13 UNL     1      -0.819   1.303   6.837  1.00  0.00     0.149 A 
HETATM    5  N1  UNL     1      -0.592   1.567   5.540  1.00  0.00    -0.327 N 
HETATM    6  C14 UNL     1      -0.941   2.736   4.808  1.00  0.00     0.159 C 
ENDROOT
BRANCH   3   7
HETATM    7  C7  UNL     1      -0.536  -0.575   8.529  1.00  0.00     0.023 C 
HETATM    8  C8  UNL     1       0.460  -0.198   9.615  1.00  0.00     0.009 C 
HETATM    9  C9  UNL     1      -0.121  -0.773  10.910  1.00  0.00     0.001 C 
HETATM   10  C10 UNL     1      -0.224  -2.269  10.871  1.00  0.00     0.000 C 
HETATM   11  C11 UNL     1      -0.461  -2.843   9.530  1.00  0.00     0.001 C 
HETATM   12  C12 UNL     1      -0.132  -2.090   8.313  1.00  0.00     0.009 C 
ENDBRANCH   3   7
BRANCH   4  13
HETATM   13  O3  UNL     1      -1.498   2.160   7.703  1.00  0.00    -0.346 OA
ATOM     14  H3  UNL     1      -2.103   2.819   7.383  1.00  0.00     0.219 HD
ENDBRANCH   4  13
BRANCH   1  15
HETATM   15  C3  UNL     1       0.351   0.334   3.659  1.00  0.00     0.310 C 
HETATM   16  O2  UNL     1      -0.606  -0.111   2.930  1.00  0.00    -0.258 OA
BRANCH  15  17
HETATM   17  O1  UNL     1       1.549   0.652   3.090  1.00  0.00    -0.317 OA
BRANCH  17  18
HETATM   18  C2  UNL     1       1.871   1.974   2.745  1.00  0.00     0.175 C 
HETATM   19  C1  UNL     1       3.074   2.460   3.599  1.00  0.00     0.034 C 
ENDBRANCH  17  18
ENDBRANCH  15  17
ENDBRANCH   1  15
TORSDOF 5
ENDMDL
