MODEL 1
REMARK VINA RESULT: -6.714393891      0.000      0.000
REMARK  3 active torsions:
REMARK  status: ('A' for Active; 'I' for Inactive)
REMARK    1  A    between atoms: C5_5  and  N1_6 
REMARK    2  A    between atoms: N2_8  and  C6_10 
REMARK    3  A    between atoms: C9_16  and  C10_17 
ROOT
HETATM    1  N1  UNL     1      -0.590   0.435   7.016  1.00  0.00    -0.326 N 
ATOM      2  H1  UNL     1      -1.226   1.097   6.572  1.00  0.00     0.181 HD
HETATM    3  N2  UNL     1      -0.120  -0.482   6.317  1.00  0.00    -0.302 N 
ATOM      4  H2  UNL     1       0.516  -1.133   6.778  1.00  0.00     0.186 HD
ENDROOT
BRANCH   3   5
HETATM    5  C6  UNL     1      -0.382  -0.706   4.952  1.00  0.00     0.082 A 
HETATM    6  C7  UNL     1      -1.275  -1.613   4.448  1.00  0.00     0.075 A 
HETATM    7  C8  UNL     1      -1.251  -1.544   3.072  1.00  0.00     0.106 A 
HETATM    8 CL1  UNL     1      -2.196  -2.483   1.915  1.00  0.00    -0.064 Cl
HETATM    9  N3  UNL     1      -0.353  -0.603   2.729  1.00  0.00    -0.341 N 
HETATM   10  C9  UNL     1       0.184  -0.084   3.865  1.00  0.00     0.127 A 
ATOM     11  H3  UNL     1      -0.116  -0.326   1.776  1.00  0.00     0.167 HD
BRANCH  10  12
HETATM   12  C10 UNL     1       1.193   0.958   3.925  1.00  0.00     0.283 C 
HETATM   13  N4  UNL     1       1.968   1.206   2.760  1.00  0.00    -0.056 NA
HETATM   14  O1  UNL     1       1.352   1.604   4.992  1.00  0.00    -0.269 OA
ENDBRANCH  10  12
ENDBRANCH   3   5
BRANCH   1  15
HETATM   15  C5  UNL     1      -0.304   0.612   8.351  1.00  0.00     0.047 C 
HETATM   16  C4  UNL     1      -0.778  -0.366   9.387  1.00  0.00     0.033 C 
HETATM   17  C3  UNL     1      -0.189   0.310  10.643  1.00  0.00     0.012 C 
HETATM   18  C2  UNL     1       0.520   1.452  10.000  1.00  0.00    -0.039 C 
HETATM   19  C1  UNL     1       1.287   2.403  10.757  1.00  0.00     0.015 C 
HETATM   20  C11 UNL     1      -0.524   1.968   9.000  1.00  0.00     0.041 C 
HETATM   21  C12 UNL     1       1.162   0.790   8.773  1.00  0.00     0.041 C 
ENDBRANCH   1  15
TORSDOF 3
ENDMDL
MODEL 2
REMARK VINA RESULT: -6.699502905      2.202      3.283
REMARK  3 active torsions:
REMARK  status: ('A' for Active; 'I' for Inactive)
REMARK    1  A    between atoms: C5_5  and  N1_6 
REMARK    2  A    between atoms: N2_8  and  C6_10 
REMARK    3  A    between atoms: C9_16  and  C10_17 
ROOT
HETATM    1  N1  UNL     1       0.548   0.374   7.382  1.00  0.00    -0.326 N 
ATOM      2  H1  UNL     1       1.311   1.042   7.281  1.00  0.00     0.181 HD
HETATM    3  N2  UNL     1      -0.038  -0.004   6.350  1.00  0.00    -0.302 N 
ATOM      4  H2  UNL     1      -0.798  -0.673   6.470  1.00  0.00     0.186 HD
ENDROOT
BRANCH   3   5
HETATM    5  C6  UNL     1       0.249   0.406   5.033  1.00  0.00     0.082 A 
HETATM    6  C7  UNL     1       1.119   1.401   4.678  1.00  0.00     0.075 A 
HETATM    7  C8  UNL     1       1.131   1.511   3.304  1.00  0.00     0.106 A 
HETATM    8 CL1  UNL     1       2.069   2.625   2.307  1.00  0.00    -0.064 Cl
HETATM    9  N3  UNL     1       0.279   0.593   2.816  1.00  0.00    -0.341 N 
HETATM   10  C9  UNL     1      -0.267  -0.088   3.859  1.00  0.00     0.127 A 
ATOM     11  H3  UNL     1       0.075   0.435   1.829  1.00  0.00     0.167 HD
BRANCH  10  12
HETATM   12  C10 UNL     1      -1.237  -1.163   3.755  1.00  0.00     0.283 C 
HETATM   13  N4  UNL     1      -1.742  -1.484   2.465  1.00  0.00    -0.056 NA
HETATM   14  O1  UNL     1      -1.598  -1.772   4.792  1.00  0.00    -0.269 OA
ENDBRANCH  10  12
ENDBRANCH   3   5
BRANCH   1  15
HETATM   15  C5  UNL     1       0.229  -0.056   8.650  1.00  0.00     0.047 C 
HETATM   16  C4  UNL     1       0.491   0.803   9.854  1.00  0.00     0.033 C 
HETATM   17  C3  UNL     1      -0.043  -0.147  10.948  1.00  0.00     0.012 C 
HETATM   18  C2  UNL     1      -0.529  -1.265  10.089  1.00  0.00    -0.039 C 
HETATM   19  C1  UNL     1      -1.170  -2.429  10.635  1.00  0.00     0.015 C 
HETATM   20  C11 UNL     1       0.631  -1.451   9.101  1.00  0.00     0.041 C 
HETATM   21  C12 UNL     1      -1.208  -0.518   8.933  1.00  0.00     0.041 C 
ENDBRANCH   1  15
TORSDOF 3
ENDMDL
MODEL 3
REMARK VINA RESULT: -6.698519035      1.160      1.480
REMARK  3 active torsions:
REMARK  status: ('A' for Active; 'I' for Inactive)
REMARK    1  A    between atoms: C5_5  and  N1_6 
REMARK    2  A    between atoms: N2_8  and  C6_10 
REMARK    3  A    between atoms: C9_16  and  C10_17 
ROOT
HETATM    1  N1  UNL     1       0.011  -1.474   6.880  1.00  0.00    -0.326 N 
ATOM      2  H1  UNL     1       0.803  -1.955   6.454  1.00  0.00     0.181 HD
HETATM    3  N2  UNL     1      -0.871  -1.023   6.126  1.00  0.00    -0.302 N 
ATOM      4  H2  UNL     1      -1.657  -0.546   6.569  1.00  0.00     0.186 HD
ENDROOT
BRANCH   3   5
HETATM    5  C6  UNL     1      -0.889  -1.107   4.720  1.00  0.00     0.082 A 
HETATM    6  C7  UNL     1      -1.669  -1.955   3.981  1.00  0.00     0.075 A 
HETATM    7  C8  UNL     1      -1.408  -1.747   2.644  1.00  0.00     0.106 A 
HETATM    8 CL1  UNL     1      -2.127  -2.560   1.253  1.00  0.00    -0.064 Cl
HETATM    9  N3  UNL     1      -0.477  -0.781   2.558  1.00  0.00    -0.341 N 
HETATM   10  C9  UNL     1      -0.151  -0.381   3.816  1.00  0.00     0.127 A 
ATOM     11  H3  UNL     1      -0.081  -0.410   1.694  1.00  0.00     0.167 HD
BRANCH  10  12
HETATM   12  C10 UNL     1       0.819   0.644   4.155  1.00  0.00     0.283 C 
HETATM   13  N4  UNL     1       1.757   1.031   3.160  1.00  0.00    -0.056 NA
HETATM   14  O1  UNL     1       0.802   1.155   5.303  1.00  0.00    -0.269 OA
ENDBRANCH  10  12
ENDBRANCH   3   5
BRANCH   1  15
HETATM   15  C5  UNL     1      -0.016  -1.365   8.251  1.00  0.00     0.047 C 
HETATM   16  C4  UNL     1       0.059  -2.579   9.133  1.00  0.00     0.033 C 
HETATM   17  C3  UNL     1      -0.010  -1.882  10.508  1.00  0.00     0.012 C 
HETATM   18  C2  UNL     1      -0.039  -0.459  10.063  1.00  0.00    -0.039 C 
HETATM   19  C1  UNL     1      -0.070   0.635  10.995  1.00  0.00     0.015 C 
HETATM   20  C11 UNL     1      -1.064  -0.491   8.922  1.00  0.00     0.041 C 
HETATM   21  C12 UNL     1       1.004  -0.447   8.938  1.00  0.00     0.041 C 
ENDBRANCH   1  15
TORSDOF 3
ENDMDL
MODEL 4
REMARK VINA RESULT: -6.685482301      2.067      3.063
REMARK  3 active torsions:
REMARK  status: ('A' for Active; 'I' for Inactive)
REMARK    1  A    between atoms: C5_5  and  N1_6 
REMARK    2  A    between atoms: N2_8  and  C6_10 
REMARK    3  A    between atoms: C9_16  and  C10_17 
ROOT
HETATM    1  N1  UNL     1      -0.009   1.458   6.897  1.00  0.00    -0.326 N 
ATOM      2  H1  UNL     1      -0.813   1.918   6.469  1.00  0.00     0.181 HD
HETATM    3  N2  UNL     1       0.885   1.029   6.145  1.00  0.00    -0.302 N 
ATOM      4  H2  UNL     1       1.682   0.573   6.589  1.00  0.00     0.186 HD
ENDROOT
BRANCH   3   5
HETATM    5  C6  UNL     1       0.903   1.113   4.739  1.00  0.00     0.082 A 
HETATM    6  C7  UNL     1       1.685   1.959   3.999  1.00  0.00     0.075 A 
HETATM    7  C8  UNL     1       1.423   1.752   2.663  1.00  0.00     0.106 A 
HETATM    8 CL1  UNL     1       2.143   2.563   1.271  1.00  0.00    -0.064 Cl
HETATM    9  N3  UNL     1       0.491   0.787   2.577  1.00  0.00    -0.341 N 
HETATM   10  C9  UNL     1       0.164   0.388   3.835  1.00  0.00     0.127 A 
ATOM     11  H3  UNL     1       0.094   0.417   1.713  1.00  0.00     0.167 HD
BRANCH  10  12
HETATM   12  C10 UNL     1      -0.807  -0.635   4.174  1.00  0.00     0.283 C 
HETATM   13  N4  UNL     1      -1.731  -1.038   3.172  1.00  0.00    -0.056 NA
HETATM   14  O1  UNL     1      -0.805  -1.132   5.329  1.00  0.00    -0.269 OA
ENDBRANCH  10  12
ENDBRANCH   3   5
BRANCH   1  15
HETATM   15  C5  UNL     1       0.019   1.350   8.268  1.00  0.00     0.047 C 
HETATM   16  C4  UNL     1      -0.064   2.565   9.149  1.00  0.00     0.033 C 
HETATM   17  C3  UNL     1       0.009   1.869  10.525  1.00  0.00     0.012 C 
HETATM   18  C2  UNL     1       0.046   0.446  10.081  1.00  0.00    -0.039 C 
HETATM   19  C1  UNL     1       0.083  -0.647  11.014  1.00  0.00     0.015 C 
HETATM   20  C11 UNL     1       1.071   0.483   8.939  1.00  0.00     0.041 C 
HETATM   21  C12 UNL     1      -0.997   0.427   8.956  1.00  0.00     0.041 C 
ENDBRANCH   1  15
TORSDOF 3
ENDMDL
MODEL 5
REMARK VINA RESULT: -6.668829918      2.309      3.069
REMARK  3 active torsions:
REMARK  status: ('A' for Active; 'I' for Inactive)
REMARK    1  A    between atoms: C5_5  and  N1_6 
REMARK    2  A    between atoms: N2_8  and  C6_10 
REMARK    3  A    between atoms: C9_16  and  C10_17 
ROOT
HETATM    1  N1  UNL     1       0.490  -0.855   6.864  1.00  0.00    -0.326 N 
ATOM      2  H1  UNL     1       1.070  -1.512   6.343  1.00  0.00     0.181 HD
HETATM    3  N2  UNL     1       0.065   0.150   6.265  1.00  0.00    -0.302 N 
ATOM      4  H2  UNL     1      -0.514   0.797   6.801  1.00  0.00     0.186 HD
ENDROOT
BRANCH   3   5
HETATM    5  C6  UNL     1       0.308   0.481   4.918  1.00  0.00     0.082 A 
HETATM    6  C7  UNL     1       1.174   1.445   4.475  1.00  0.00     0.075 A 
HETATM    7  C8  UNL     1       1.138   1.477   3.098  1.00  0.00     0.106 A 
HETATM    8 CL1  UNL     1       2.049   2.521   2.007  1.00  0.00    -0.064 Cl
HETATM    9  N3  UNL     1       0.260   0.543   2.694  1.00  0.00    -0.341 N 
HETATM   10  C9  UNL     1      -0.254  -0.072   3.792  1.00  0.00     0.127 A 
ATOM     11  H3  UNL     1       0.019   0.331   1.725  1.00  0.00     0.167 HD
BRANCH  10  12
HETATM   12  C10 UNL     1      -1.237  -1.140   3.784  1.00  0.00     0.283 C 
HETATM   13  N4  UNL     1      -1.853  -1.472   2.546  1.00  0.00    -0.056 NA
HETATM   14  O1  UNL     1      -1.514  -1.735   4.856  1.00  0.00    -0.269 OA
ENDBRANCH  10  12
ENDBRANCH   3   5
BRANCH   1  15
HETATM   15  C5  UNL     1       0.225  -1.134   8.186  1.00  0.00     0.047 C 
HETATM   16  C4  UNL     1       0.103  -2.548   8.676  1.00  0.00     0.033 C 
HETATM   17  C3  UNL     1      -0.183  -2.263  10.165  1.00  0.00     0.012 C 
HETATM   18  C2  UNL     1      -0.086  -0.775  10.155  1.00  0.00    -0.039 C 
HETATM   19  C1  UNL     1      -0.243   0.012  11.348  1.00  0.00     0.015 C 
HETATM   20  C11 UNL     1      -0.894  -0.399   8.906  1.00  0.00     0.041 C 
HETATM   21  C12 UNL     1       1.139  -0.533   9.263  1.00  0.00     0.041 C 
ENDBRANCH   1  15
TORSDOF 3
ENDMDL
