MODEL 1
REMARK VINA RESULT: -6.212081362      0.000      0.000
REMARK  4 active torsions:
REMARK  status: ('A' for Active; 'I' for Inactive)
REMARK    1  A    between atoms: C2_2  and  O1_3 
REMARK    2  A    between atoms: C2_2  and  C3_6 
REMARK    3  A    between atoms: C5_10  and  S1_11 
REMARK    4  A    between atoms: S1_11  and  C6_12 
ROOT
HETATM    1  C3  UNL     1       1.246   1.217   3.730  1.00  0.00     0.076 A 
HETATM    2  C4  UNL     1       0.279   0.436   3.158  1.00  0.00     0.119 A 
HETATM    3  N1  UNL     1      -0.443  -0.088   4.162  1.00  0.00    -0.345 N 
ATOM      4  H1  UNL     1      -1.235  -0.720   4.046  1.00  0.00     0.167 HD
HETATM    5  C5  UNL     1       0.041   0.350   5.365  1.00  0.00     0.144 A 
HETATM    6  N2  UNL     1       1.092   1.162   5.101  1.00  0.00    -0.336 N 
ATOM      7  H2  UNL     1       1.667   1.647   5.791  1.00  0.00     0.168 HD
ENDROOT
BRANCH   5   8
HETATM    8  S1  UNL     1      -0.515  -0.149   7.006  1.00  0.00    -0.089 SA
BRANCH   8   9
HETATM    9  C6  UNL     1       0.295   0.958   8.203  1.00  0.00     0.055 C 
HETATM   10  C7  UNL     1       0.805   0.188   9.379  1.00  0.00     0.015 C 
HETATM   11  C8  UNL     1       0.351   0.880  10.662  1.00  0.00     0.001 C 
HETATM   12  C9  UNL     1       0.787   2.349  10.674  1.00  0.00     0.000 C 
HETATM   13  C10 UNL     1       0.519   3.052   9.377  1.00  0.00     0.001 C 
HETATM   14  C11 UNL     1      -0.453   2.199   8.559  1.00  0.00     0.015 C 
ENDBRANCH   8   9
ENDBRANCH   5   8
BRANCH   1  15
HETATM   15  C2  UNL     1       2.348   1.900   3.079  1.00  0.00     0.174 C 
HETATM   16  C1  UNL     1       3.119   2.738   4.060  1.00  0.00     0.071 C 
HETATM   17 CL1  UNL     1       1.710   2.798   1.681  1.00  0.00    -0.082 Cl
BRANCH  15  18
HETATM   18  O1  UNL     1       3.221   0.848   2.626  1.00  0.00    -0.370 OA
ATOM     19  H1  UNL     1       2.674   0.131   2.326  1.00  0.00     0.212 HD
ENDBRANCH  15  18
ENDBRANCH   1  15
TORSDOF 4
ENDMDL
MODEL 2
REMARK VINA RESULT: -6.208111070      3.303      4.440
REMARK  4 active torsions:
REMARK  status: ('A' for Active; 'I' for Inactive)
REMARK    1  A    between atoms: C2_2  and  O1_3 
REMARK    2  A    between atoms: C2_2  and  C3_6 
REMARK    3  A    between atoms: C5_10  and  S1_11 
REMARK    4  A    between atoms: S1_11  and  C6_12 
ROOT
HETATM    1  C3  UNL     1      -1.266  -1.243   3.709  1.00  0.00     0.076 A 
HETATM    2  C4  UNL     1      -0.304  -0.457   3.134  1.00  0.00     0.119 A 
HETATM    3  N1  UNL     1       0.424   0.062   4.136  1.00  0.00    -0.345 N 
ATOM      4  H1  UNL     1       1.214   0.696   4.017  1.00  0.00     0.167 HD
HETATM    5  C5  UNL     1      -0.051  -0.383   5.339  1.00  0.00     0.144 A 
HETATM    6  N2  UNL     1      -1.103  -1.196   5.078  1.00  0.00    -0.336 N 
ATOM      7  H2  UNL     1      -1.672  -1.685   5.769  1.00  0.00     0.168 HD
ENDROOT
BRANCH   5   8
HETATM    8  S1  UNL     1       0.517   0.107   6.980  1.00  0.00    -0.089 SA
BRANCH   8   9
HETATM    9  C6  UNL     1      -0.299  -0.996   8.177  1.00  0.00     0.055 C 
HETATM   10  C7  UNL     1      -0.835  -0.219   9.336  1.00  0.00     0.015 C 
HETATM   11  C8  UNL     1      -0.392  -0.891  10.634  1.00  0.00     0.001 C 
HETATM   12  C9  UNL     1      -0.811  -2.365  10.657  1.00  0.00     0.000 C 
HETATM   13  C10 UNL     1      -0.516  -3.079   9.372  1.00  0.00     0.001 C 
HETATM   14  C11 UNL     1       0.458  -2.224   8.559  1.00  0.00     0.015 C 
ENDBRANCH   8   9
ENDBRANCH   5   8
BRANCH   1  15
HETATM   15  C2  UNL     1      -2.372  -1.923   3.060  1.00  0.00     0.174 C 
HETATM   16  C1  UNL     1      -3.136  -2.766   4.043  1.00  0.00     0.071 C 
HETATM   17 CL1  UNL     1      -1.743  -2.814   1.655  1.00  0.00    -0.082 Cl
BRANCH  15  18
HETATM   18  O1  UNL     1      -3.248  -0.869   2.618  1.00  0.00    -0.370 OA
ATOM     19  H1  UNL     1      -2.738  -0.068   2.583  1.00  0.00     0.212 HD
ENDBRANCH  15  18
ENDBRANCH   1  15
TORSDOF 4
ENDMDL
MODEL 3
REMARK VINA RESULT: -6.029053300      2.696      3.616
REMARK  4 active torsions:
REMARK  status: ('A' for Active; 'I' for Inactive)
REMARK    1  A    between atoms: C2_2  and  O1_3 
REMARK    2  A    between atoms: C2_2  and  C3_6 
REMARK    3  A    between atoms: C5_10  and  S1_11 
REMARK    4  A    between atoms: S1_11  and  C6_12 
ROOT
HETATM    1  C3  UNL     1      -0.317   0.405   4.775  1.00  0.00     0.076 A 
HETATM    2  C4  UNL     1      -0.891   1.646   4.704  1.00  0.00     0.119 A 
HETATM    3  N1  UNL     1      -0.782   2.195   5.925  1.00  0.00    -0.345 N 
ATOM      4  H1  UNL     1      -1.125   3.119   6.183  1.00  0.00     0.167 HD
HETATM    5  C5  UNL     1      -0.142   1.331   6.771  1.00  0.00     0.144 A 
HETATM    6  N2  UNL     1       0.149   0.216   6.060  1.00  0.00    -0.336 N 
ATOM      7  H2  UNL     1       0.627  -0.615   6.411  1.00  0.00     0.168 HD
ENDROOT
BRANCH   5   8
HETATM    8  S1  UNL     1       0.153   1.558   8.536  1.00  0.00    -0.089 SA
BRANCH   8   9
HETATM    9  C6  UNL     1       0.109  -0.094   9.300  1.00  0.00     0.055 C 
HETATM   10  C7  UNL     1       1.252  -0.931   8.822  1.00  0.00     0.015 C 
HETATM   11  C8  UNL     1       0.722  -2.293   8.379  1.00  0.00     0.001 C 
HETATM   12  C9  UNL     1      -0.079  -2.959   9.503  1.00  0.00     0.000 C 
HETATM   13  C10 UNL     1      -1.043  -2.025  10.171  1.00  0.00     0.001 C 
HETATM   14  C11 UNL     1      -1.210  -0.790   9.283  1.00  0.00     0.015 C 
ENDBRANCH   8   9
ENDBRANCH   5   8
BRANCH   1  15
HETATM   15  C2  UNL     1      -0.289  -0.628   3.756  1.00  0.00     0.174 C 
HETATM   16  C1  UNL     1      -1.676  -1.119   3.450  1.00  0.00     0.071 C 
HETATM   17 CL1  UNL     1       0.847  -1.897   4.268  1.00  0.00    -0.082 Cl
BRANCH  15  18
HETATM   18  O1  UNL     1       0.211   0.027   2.576  1.00  0.00    -0.370 OA
ATOM     19  H1  UNL     1      -0.479   0.007   1.923  1.00  0.00     0.212 HD
ENDBRANCH  15  18
ENDBRANCH   1  15
TORSDOF 4
ENDMDL
MODEL 4
REMARK VINA RESULT: -6.010566333      1.959      2.447
REMARK  4 active torsions:
REMARK  status: ('A' for Active; 'I' for Inactive)
REMARK    1  A    between atoms: C2_2  and  O1_3 
REMARK    2  A    between atoms: C2_2  and  C3_6 
REMARK    3  A    between atoms: C5_10  and  S1_11 
REMARK    4  A    between atoms: S1_11  and  C6_12 
ROOT
HETATM    1  C3  UNL     1       0.391  -0.423   4.689  1.00  0.00     0.076 A 
HETATM    2  C4  UNL     1       0.954  -1.662   4.545  1.00  0.00     0.119 A 
HETATM    3  N1  UNL     1       0.893  -2.259   5.747  1.00  0.00    -0.345 N 
ATOM      4  H1  UNL     1       1.241  -3.195   5.954  1.00  0.00     0.167 HD
HETATM    5  C5  UNL     1       0.295  -1.426   6.653  1.00  0.00     0.144 A 
HETATM    6  N2  UNL     1      -0.018  -0.282   5.999  1.00  0.00    -0.336 N 
ATOM      7  H2  UNL     1      -0.475   0.536   6.403  1.00  0.00     0.168 HD
ENDROOT
BRANCH   5   8
HETATM    8  S1  UNL     1       0.075  -1.722   8.419  1.00  0.00    -0.089 SA
BRANCH   8   9
HETATM    9  C6  UNL     1       0.005  -0.091   9.227  1.00  0.00     0.055 C 
HETATM   10  C7  UNL     1      -1.237   0.643   8.836  1.00  0.00     0.015 C 
HETATM   11  C8  UNL     1      -0.865   2.059   8.405  1.00  0.00     0.001 C 
HETATM   12  C9  UNL     1      -0.068   2.773   9.501  1.00  0.00     0.000 C 
HETATM   13  C10 UNL     1       1.017   1.920  10.089  1.00  0.00     0.001 C 
HETATM   14  C11 UNL     1       1.250   0.729   9.157  1.00  0.00     0.015 C 
ENDBRANCH   8   9
ENDBRANCH   5   8
BRANCH   1  15
HETATM   15  C2  UNL     1       0.326   0.649   3.714  1.00  0.00     0.174 C 
HETATM   16  C1  UNL     1       1.698   1.186   3.412  1.00  0.00     0.071 C 
HETATM   17 CL1  UNL     1      -0.833   1.870   4.291  1.00  0.00    -0.082 Cl
BRANCH  15  18
HETATM   18  O1  UNL     1      -0.173   0.031   2.513  1.00  0.00    -0.370 OA
ATOM     19  H1  UNL     1      -0.305  -0.891   2.699  1.00  0.00     0.212 HD
ENDBRANCH  15  18
ENDBRANCH   1  15
TORSDOF 4
ENDMDL
MODEL 5
REMARK VINA RESULT: -5.885687118      3.223      4.248
REMARK  4 active torsions:
REMARK  status: ('A' for Active; 'I' for Inactive)
REMARK    1  A    between atoms: C2_2  and  O1_3 
REMARK    2  A    between atoms: C2_2  and  C3_6 
REMARK    3  A    between atoms: C5_10  and  S1_11 
REMARK    4  A    between atoms: S1_11  and  C6_12 
ROOT
HETATM    1  C3  UNL     1      -1.020  -1.100   4.107  1.00  0.00     0.076 A 
HETATM    2  C4  UNL     1      -0.006  -0.479   3.431  1.00  0.00     0.119 A 
HETATM    3  N1  UNL     1       0.662   0.265   4.327  1.00  0.00    -0.345 N 
ATOM      4  H1  UNL     1       1.471   0.849   4.117  1.00  0.00     0.167 HD
HETATM    5  C5  UNL     1       0.097   0.125   5.566  1.00  0.00     0.144 A 
HETATM    6  N2  UNL     1      -0.951  -0.723   5.433  1.00  0.00    -0.336 N 
ATOM      7  H2  UNL     1      -1.576  -1.029   6.179  1.00  0.00     0.168 HD
ENDROOT
BRANCH   5   8
HETATM    8  S1  UNL     1       0.560   0.996   7.076  1.00  0.00    -0.089 SA
BRANCH   8   9
HETATM    9  C6  UNL     1       0.485  -0.216   8.433  1.00  0.00     0.055 C 
HETATM   10  C7  UNL     1       1.288  -1.433   8.103  1.00  0.00     0.015 C 
HETATM   11  C8  UNL     1       0.443  -2.676   8.373  1.00  0.00     0.001 C 
HETATM   12  C9  UNL     1      -0.083  -2.678   9.811  1.00  0.00     0.000 C 
HETATM   13  C10 UNL     1      -0.646  -1.354  10.233  1.00  0.00     0.001 C 
HETATM   14  C11 UNL     1      -0.873  -0.506   8.980  1.00  0.00     0.015 C 
ENDBRANCH   8   9
ENDBRANCH   5   8
BRANCH   1  15
HETATM   15  C2  UNL     1      -2.092  -1.913   3.564  1.00  0.00     0.174 C 
HETATM   16  C1  UNL     1      -3.015  -2.385   4.654  1.00  0.00     0.071 C 
HETATM   17 CL1  UNL     1      -1.376  -3.216   2.588  1.00  0.00    -0.082 Cl
BRANCH  15  18
HETATM   18  O1  UNL     1      -2.841  -1.023   2.716  1.00  0.00    -0.370 OA
ATOM     19  H1  UNL     1      -2.413  -0.176   2.740  1.00  0.00     0.212 HD
ENDBRANCH  15  18
ENDBRANCH   1  15
TORSDOF 4
ENDMDL
