MODEL 1
REMARK VINA RESULT: -6.110492305      0.000      0.000
REMARK  3 active torsions:
REMARK  status: ('A' for Active; 'I' for Inactive)
REMARK    1  A    between atoms: C2_2  and  C3_3 
REMARK    2  A    between atoms: C3_3  and  C9_13 
REMARK    3  A    between atoms: N1_4  and  N2_6 
ROOT
HETATM    1  C3  UNL     1       0.639   0.779   4.688  1.00  0.00     0.039 C 
HETATM    2  N1  UNL     1       0.503   1.326   5.799  1.00  0.00    -0.304 N 
ATOM      3  H1  UNL     1       1.196   2.031   6.050  1.00  0.00     0.186 HD
ENDROOT
BRANCH   1   4
HETATM    4  C2  UNL     1       1.821   1.239   3.864  1.00  0.00     0.055 C 
HETATM    5  C1  UNL     1       1.406   2.425   3.005  1.00  0.00     0.011 C 
ENDBRANCH   1   4
BRANCH   1   6
HETATM    6  C9  UNL     1      -0.259  -0.239   4.175  1.00  0.00     0.032 A 
HETATM    7  C10 UNL     1      -1.462  -0.174   3.531  1.00  0.00     0.059 A 
HETATM    8  C11 UNL     1      -1.928  -1.443   3.239  1.00  0.00     0.105 A 
HETATM    9 CL1  UNL     1      -3.416  -1.895   2.424  1.00  0.00    -0.064 Cl
HETATM   10  N3  UNL     1      -1.010  -2.292   3.704  1.00  0.00    -0.335 N 
HETATM   11  C12 UNL     1       0.004  -1.617   4.270  1.00  0.00     0.129 A 
ATOM     12  H3  UNL     1      -1.069  -3.309   3.639  1.00  0.00     0.168 HD
HETATM   13  N4  UNL     1       1.143  -2.236   4.863  1.00  0.00    -0.082 NA
ENDBRANCH   1   6
BRANCH   2  14
HETATM   14  N2  UNL     1      -0.476   1.080   6.713  1.00  0.00    -0.309 N 
HETATM   15  C4  UNL     1      -0.280   0.338   7.726  1.00  0.00     0.004 C 
HETATM   16  C5  UNL     1       0.996  -0.348   8.058  1.00  0.00     0.054 C 
HETATM   17  C8  UNL     1      -1.307   0.034   8.754  1.00  0.00     0.054 C 
HETATM   18  C6  UNL     1       0.523  -1.405   9.063  1.00  0.00     0.006 C 
HETATM   19  C7  UNL     1      -0.490  -0.574   9.859  1.00  0.00     0.006 C 
ATOM     20  H2  UNL     1      -1.395   1.504   6.581  1.00  0.00     0.186 HD
ENDBRANCH   2  14
TORSDOF 3
ENDMDL
MODEL 2
REMARK VINA RESULT: -6.107847337      2.345      3.797
REMARK  3 active torsions:
REMARK  status: ('A' for Active; 'I' for Inactive)
REMARK    1  A    between atoms: C2_2  and  C3_3 
REMARK    2  A    between atoms: C3_3  and  C9_13 
REMARK    3  A    between atoms: N1_4  and  N2_6 
ROOT
HETATM    1  C3  UNL     1      -0.636  -0.797   4.713  1.00  0.00     0.039 C 
HETATM    2  N1  UNL     1      -0.494  -1.334   5.828  1.00  0.00    -0.304 N 
ATOM      3  H1  UNL     1      -1.183  -2.040   6.087  1.00  0.00     0.186 HD
ENDROOT
BRANCH   1   4
HETATM    4  C2  UNL     1      -1.817  -1.270   3.897  1.00  0.00     0.055 C 
HETATM    5  C1  UNL     1      -1.378  -2.409   2.986  1.00  0.00     0.011 C 
ENDBRANCH   1   4
BRANCH   1   6
HETATM    6  C9  UNL     1       0.255   0.222   4.189  1.00  0.00     0.032 A 
HETATM    7  C10 UNL     1       1.457   0.158   3.541  1.00  0.00     0.059 A 
HETATM    8  C11 UNL     1       1.915   1.427   3.239  1.00  0.00     0.105 A 
HETATM    9 CL1  UNL     1       3.397   1.880   2.415  1.00  0.00    -0.064 Cl
HETATM   10  N3  UNL     1       0.993   2.275   3.700  1.00  0.00    -0.335 N 
HETATM   11  C12 UNL     1      -0.015   1.599   4.275  1.00  0.00     0.129 A 
ATOM     12  H3  UNL     1       1.047   3.291   3.626  1.00  0.00     0.168 HD
HETATM   13  N4  UNL     1      -1.155   2.216   4.866  1.00  0.00    -0.082 NA
ENDBRANCH   1   6
BRANCH   2  14
HETATM   14  N2  UNL     1       0.486  -1.075   6.738  1.00  0.00    -0.309 N 
HETATM   15  C4  UNL     1       0.290  -0.321   7.742  1.00  0.00     0.004 C 
HETATM   16  C5  UNL     1      -0.987   0.366   8.068  1.00  0.00     0.054 C 
HETATM   17  C8  UNL     1       1.318  -0.003   8.765  1.00  0.00     0.054 C 
HETATM   18  C6  UNL     1      -0.515   1.436   9.060  1.00  0.00     0.006 C 
HETATM   19  C7  UNL     1       0.501   0.616   9.864  1.00  0.00     0.006 C 
ATOM     20  H2  UNL     1       1.405  -1.498   6.609  1.00  0.00     0.186 HD
ENDBRANCH   2  14
TORSDOF 3
ENDMDL
MODEL 3
REMARK VINA RESULT: -5.910049262      3.431      6.106
REMARK  3 active torsions:
REMARK  status: ('A' for Active; 'I' for Inactive)
REMARK    1  A    between atoms: C2_2  and  C3_3 
REMARK    2  A    between atoms: C3_3  and  C9_13 
REMARK    3  A    between atoms: N1_4  and  N2_6 
ROOT
HETATM    1  C3  UNL     1      -0.114  -0.111   6.855  1.00  0.00     0.039 C 
HETATM    2  N1  UNL     1      -0.116   0.174   5.642  1.00  0.00    -0.304 N 
ATOM      3  H1  UNL     1      -0.280  -0.595   4.992  1.00  0.00     0.186 HD
ENDROOT
BRANCH   1   4
HETATM    4  C2  UNL     1      -0.356  -1.565   7.193  1.00  0.00     0.055 C 
HETATM    5  C1  UNL     1       0.980  -2.266   7.392  1.00  0.00     0.011 C 
ENDBRANCH   1   4
BRANCH   1   6
HETATM    6  C9  UNL     1       0.099   0.860   7.912  1.00  0.00     0.032 A 
HETATM    7  C10 UNL     1       0.951   0.896   8.980  1.00  0.00     0.059 A 
HETATM    8  C11 UNL     1       0.771   2.057   9.708  1.00  0.00     0.105 A 
HETATM    9 CL1  UNL     1       1.615   2.574  11.158  1.00  0.00    -0.064 Cl
HETATM   10  N3  UNL     1      -0.195   2.739   9.089  1.00  0.00    -0.335 N 
HETATM   11  C12 UNL     1      -0.625   2.062   8.012  1.00  0.00     0.129 A 
ATOM     12  H3  UNL     1      -0.555   3.644   9.391  1.00  0.00     0.168 HD
HETATM   13  N4  UNL     1      -1.652   2.521   7.138  1.00  0.00    -0.082 NA
ENDBRANCH   1   6
BRANCH   2  14
HETATM   14  N2  UNL     1       0.080   1.406   5.095  1.00  0.00    -0.309 N 
HETATM   15  C4  UNL     1       0.915   1.600   4.158  1.00  0.00     0.004 C 
HETATM   16  C5  UNL     1       1.773   0.558   3.536  1.00  0.00     0.054 C 
HETATM   17  C8  UNL     1       1.170   2.919   3.523  1.00  0.00     0.054 C 
HETATM   18  C6  UNL     1       2.839   1.412   2.840  1.00  0.00     0.006 C 
HETATM   19  C7  UNL     1       1.954   2.542   2.297  1.00  0.00     0.006 C 
ATOM     20  H2  UNL     1      -0.461   2.196   5.449  1.00  0.00     0.186 HD
ENDBRANCH   2  14
TORSDOF 3
ENDMDL
MODEL 4
REMARK VINA RESULT: -5.907878666      1.174      1.614
REMARK  3 active torsions:
REMARK  status: ('A' for Active; 'I' for Inactive)
REMARK    1  A    between atoms: C2_2  and  C3_3 
REMARK    2  A    between atoms: C3_3  and  C9_13 
REMARK    3  A    between atoms: N1_4  and  N2_6 
ROOT
HETATM    1  C3  UNL     1      -0.079   0.164   5.530  1.00  0.00     0.039 C 
HETATM    2  N1  UNL     1       0.187  -0.151   6.706  1.00  0.00    -0.304 N 
ATOM      3  H1  UNL     1       0.577   0.581   7.299  1.00  0.00     0.186 HD
ENDROOT
BRANCH   1   4
HETATM    4  C2  UNL     1       0.219   1.596   5.147  1.00  0.00     0.055 C 
HETATM    5  C1  UNL     1       1.156   1.614   3.947  1.00  0.00     0.011 C 
ENDBRANCH   1   4
BRANCH   1   6
HETATM    6  C9  UNL     1      -0.642  -0.752   4.556  1.00  0.00     0.032 A 
HETATM    7  C10 UNL     1      -1.762  -0.701   3.775  1.00  0.00     0.059 A 
HETATM    8  C11 UNL     1      -1.865  -1.838   2.996  1.00  0.00     0.105 A 
HETATM    9 CL1  UNL     1      -3.113  -2.251   1.832  1.00  0.00    -0.064 Cl
HETATM   10  N3  UNL     1      -0.806  -2.593   3.297  1.00  0.00    -0.335 N 
HETATM   11  C12 UNL     1      -0.049  -1.983   4.224  1.00  0.00     0.129 A 
ATOM     12  H3  UNL     1      -0.601  -3.502   2.883  1.00  0.00     0.168 HD
HETATM   13  N4  UNL     1       1.153  -2.530   4.760  1.00  0.00    -0.082 NA
ENDBRANCH   1   6
BRANCH   2  14
HETATM   14  N2  UNL     1       0.009  -1.373   7.281  1.00  0.00    -0.309 N 
HETATM   15  C4  UNL     1      -0.240  -1.503   8.520  1.00  0.00     0.004 C 
HETATM   16  C5  UNL     1      -0.371  -0.390   9.496  1.00  0.00     0.054 C 
HETATM   17  C8  UNL     1      -0.443  -2.808   9.201  1.00  0.00     0.054 C 
HETATM   18  C6  UNL     1      -0.211  -1.130  10.829  1.00  0.00     0.006 C 
HETATM   19  C7  UNL     1      -1.023  -2.395  10.525  1.00  0.00     0.006 C 
ATOM     20  H2  UNL     1       0.077  -2.208   6.699  1.00  0.00     0.186 HD
ENDBRANCH   2  14
TORSDOF 3
ENDMDL
MODEL 5
REMARK VINA RESULT: -5.907777391      2.547      3.804
REMARK  3 active torsions:
REMARK  status: ('A' for Active; 'I' for Inactive)
REMARK    1  A    between atoms: C2_2  and  C3_3 
REMARK    2  A    between atoms: C3_3  and  C9_13 
REMARK    3  A    between atoms: N1_4  and  N2_6 
ROOT
HETATM    1  C3  UNL     1       0.075  -0.172   5.526  1.00  0.00     0.039 C 
HETATM    2  N1  UNL     1      -0.184   0.144   6.703  1.00  0.00    -0.304 N 
ATOM      3  H1  UNL     1      -0.564  -0.590   7.301  1.00  0.00     0.186 HD
ENDROOT
BRANCH   1   4
HETATM    4  C2  UNL     1      -0.215  -1.607   5.147  1.00  0.00     0.055 C 
HETATM    5  C1  UNL     1      -1.170  -1.634   3.962  1.00  0.00     0.011 C 
ENDBRANCH   1   4
BRANCH   1   6
HETATM    6  C9  UNL     1       0.623   0.746   4.545  1.00  0.00     0.032 A 
HETATM    7  C10 UNL     1       1.742   0.707   3.763  1.00  0.00     0.059 A 
HETATM    8  C11 UNL     1       1.828   1.841   2.977  1.00  0.00     0.105 A 
HETATM    9 CL1  UNL     1       3.068   2.265   1.809  1.00  0.00    -0.064 Cl
HETATM   10  N3  UNL     1       0.758   2.582   3.276  1.00  0.00    -0.335 N 
HETATM   11  C12 UNL     1       0.012   1.967   4.207  1.00  0.00     0.129 A 
ATOM     12  H3  UNL     1       0.540   3.486   2.856  1.00  0.00     0.168 HD
HETATM   13  N4  UNL     1      -1.197   2.499   4.741  1.00  0.00    -0.082 NA
ENDBRANCH   1   6
BRANCH   2  14
HETATM   14  N2  UNL     1      -0.011   1.368   7.274  1.00  0.00    -0.309 N 
HETATM   15  C4  UNL     1       0.238   1.503   8.513  1.00  0.00     0.004 C 
HETATM   16  C5  UNL     1       0.373   0.394   9.492  1.00  0.00     0.054 C 
HETATM   17  C8  UNL     1       0.436   2.810   9.190  1.00  0.00     0.054 C 
HETATM   18  C6  UNL     1       0.210   1.136  10.823  1.00  0.00     0.006 C 
HETATM   19  C7  UNL     1       1.017   2.403  10.515  1.00  0.00     0.006 C 
ATOM     20  H2  UNL     1      -0.082   2.201   6.689  1.00  0.00     0.186 HD
ENDBRANCH   2  14
TORSDOF 3
ENDMDL
