MODEL 1
REMARK VINA RESULT: -6.807154597      0.000      0.000
REMARK  5 active torsions:
REMARK  status: ('A' for Active; 'I' for Inactive)
REMARK    1  A    between atoms: O1_2  and  C2_3 
REMARK    2  A    between atoms: N1_6  and  C5_7 
REMARK    3  A    between atoms: C5_7  and  C6_8 
REMARK    4  A    between atoms: C6_8  and  C7_9 
REMARK    5  A    between atoms: C15_17  and  O2_18 
ROOT
HETATM    1  C5  UNL     1      -0.629  -0.717   5.104  1.00  0.00     0.135 C 
ENDROOT
BRANCH   1   2
HETATM    2  N1  UNL     1       0.191   0.251   4.409  1.00  0.00    -0.335 N 
HETATM    3  C4  UNL     1       0.945   1.183   5.012  1.00  0.00     0.096 A 
HETATM    4  C3  UNL     1       1.596   1.939   4.059  1.00  0.00     0.058 A 
HETATM    5  C2  UNL     1       1.239   1.466   2.831  1.00  0.00     0.120 A 
HETATM    6  C15 UNL     1       0.358   0.411   3.106  1.00  0.00     0.176 A 
BRANCH   5   7
HETATM    7  O1  UNL     1       1.647   1.920   1.602  1.00  0.00    -0.352 OA
HETATM    8  C1  UNL     1       3.000   2.294   1.436  1.00  0.00     0.210 C 
ENDBRANCH   5   7
BRANCH   6   9
HETATM    9  O2  UNL     1      -0.268  -0.376   2.142  1.00  0.00    -0.344 OA
ATOM     10  H2  UNL     1      -0.163  -1.317   2.058  1.00  0.00     0.219 HD
ENDBRANCH   6   9
ENDBRANCH   1   2
BRANCH   1  11
HETATM   11  C6  UNL     1       0.275  -1.445   6.092  1.00  0.00     0.054 C 
BRANCH  11  12
HETATM   12  C7  UNL     1       0.139  -0.938   7.455  1.00  0.00    -0.082 C 
HETATM   13  C8  UNL     1      -1.035  -0.494   7.881  1.00  0.00    -0.023 C 
HETATM   14  C9  UNL     1      -1.181   0.022   9.263  1.00  0.00     0.036 C 
HETATM   15  C10 UNL     1       0.035   0.710   9.798  1.00  0.00    -0.044 C 
HETATM   16  C11 UNL     1      -0.151   2.233   9.776  1.00  0.00     0.015 C 
HETATM   17  C12 UNL     1       0.143   0.328  11.281  1.00  0.00     0.015 C 
HETATM   18  C13 UNL     1       1.301   0.417   9.064  1.00  0.00     0.013 C 
HETATM   19  C14 UNL     1       1.317  -0.921   8.363  1.00  0.00     0.034 C 
ENDBRANCH  11  12
ENDBRANCH   1  11
TORSDOF 5
ENDMDL
MODEL 2
REMARK VINA RESULT: -6.795695263      1.745      3.330
REMARK  5 active torsions:
REMARK  status: ('A' for Active; 'I' for Inactive)
REMARK    1  A    between atoms: O1_2  and  C2_3 
REMARK    2  A    between atoms: N1_6  and  C5_7 
REMARK    3  A    between atoms: C5_7  and  C6_8 
REMARK    4  A    between atoms: C6_8  and  C7_9 
REMARK    5  A    between atoms: C15_17  and  O2_18 
ROOT
HETATM    1  C5  UNL     1       0.634   0.776   5.147  1.00  0.00     0.135 C 
ENDROOT
BRANCH   1   2
HETATM    2  N1  UNL     1      -0.169  -0.207   4.452  1.00  0.00    -0.335 N 
HETATM    3  C4  UNL     1      -0.905  -1.154   5.055  1.00  0.00     0.096 A 
HETATM    4  C3  UNL     1      -1.543  -1.921   4.102  1.00  0.00     0.058 A 
HETATM    5  C2  UNL     1      -1.196  -1.440   2.874  1.00  0.00     0.120 A 
HETATM    6  C15 UNL     1      -0.335  -0.369   3.149  1.00  0.00     0.176 A 
BRANCH   5   7
HETATM    7  O1  UNL     1      -1.598  -1.900   1.645  1.00  0.00    -0.352 OA
HETATM    8  C1  UNL     1      -2.946  -2.296   1.480  1.00  0.00     0.210 C 
ENDBRANCH   5   7
BRANCH   6   9
HETATM    9  O2  UNL     1       0.274   0.431   2.185  1.00  0.00    -0.344 OA
ATOM     10  H2  UNL     1       0.485   1.351   2.296  1.00  0.00     0.219 HD
ENDBRANCH   6   9
ENDBRANCH   1   2
BRANCH   1  11
HETATM   11  C6  UNL     1      -0.281   1.483   6.139  1.00  0.00     0.054 C 
BRANCH  11  12
HETATM   12  C7  UNL     1      -0.143   0.964   7.498  1.00  0.00    -0.082 C 
HETATM   13  C8  UNL     1       1.031   0.516   7.918  1.00  0.00    -0.023 C 
HETATM   14  C9  UNL     1       1.178  -0.012   9.296  1.00  0.00     0.036 C 
HETATM   15  C10 UNL     1      -0.037  -0.706   9.825  1.00  0.00    -0.044 C 
HETATM   16  C11 UNL     1       0.150  -2.228   9.789  1.00  0.00     0.015 C 
HETATM   17  C12 UNL     1      -0.145  -0.337  11.311  1.00  0.00     0.015 C 
HETATM   18  C13 UNL     1      -1.304  -0.407   9.095  1.00  0.00     0.013 C 
HETATM   19  C14 UNL     1      -1.321   0.938   8.406  1.00  0.00     0.034 C 
ENDBRANCH  11  12
ENDBRANCH   1  11
TORSDOF 5
ENDMDL
MODEL 3
REMARK VINA RESULT: -6.729771180      1.224      2.033
REMARK  5 active torsions:
REMARK  status: ('A' for Active; 'I' for Inactive)
REMARK    1  A    between atoms: O1_2  and  C2_3 
REMARK    2  A    between atoms: N1_6  and  C5_7 
REMARK    3  A    between atoms: C5_7  and  C6_8 
REMARK    4  A    between atoms: C6_8  and  C7_9 
REMARK    5  A    between atoms: C15_17  and  O2_18 
ROOT
HETATM    1  C5  UNL     1       0.189   0.362   5.049  1.00  0.00     0.135 C 
ENDROOT
BRANCH   1   2
HETATM    2  N1  UNL     1       1.057   1.111   4.166  1.00  0.00    -0.335 N 
HETATM    3  C4  UNL     1       2.027   1.943   4.577  1.00  0.00     0.096 A 
HETATM    4  C3  UNL     1       2.661   2.492   3.482  1.00  0.00     0.058 A 
HETATM    5  C2  UNL     1       2.073   1.988   2.359  1.00  0.00     0.120 A 
HETATM    6  C15 UNL     1       1.075   1.130   2.843  1.00  0.00     0.176 A 
BRANCH   5   7
HETATM    7  O1  UNL     1       2.384   2.260   1.051  1.00  0.00    -0.352 OA
HETATM    8  C1  UNL     1       3.747   2.333   0.682  1.00  0.00     0.210 C 
ENDBRANCH   5   7
BRANCH   6   9
HETATM    9  O2  UNL     1       0.208   0.387   2.045  1.00  0.00    -0.344 OA
ATOM     10  H2  UNL     1       0.230  -0.559   1.953  1.00  0.00     0.219 HD
ENDBRANCH   6   9
ENDBRANCH   1   2
BRANCH   1  11
HETATM   11  C6  UNL     1      -0.364   1.344   6.074  1.00  0.00     0.054 C 
BRANCH  11  12
HETATM   12  C7  UNL     1      -0.182   0.882   7.448  1.00  0.00    -0.082 C 
HETATM   13  C8  UNL     1       0.987   0.384   7.828  1.00  0.00    -0.023 C 
HETATM   14  C9  UNL     1       1.178  -0.086   9.221  1.00  0.00     0.036 C 
HETATM   15  C10 UNL     1      -0.044  -0.678   9.848  1.00  0.00    -0.044 C 
HETATM   16  C11 UNL     1       0.052  -2.209   9.880  1.00  0.00     0.015 C 
HETATM   17  C12 UNL     1      -0.046  -0.234  11.317  1.00  0.00     0.015 C 
HETATM   18  C13 UNL     1      -1.329  -0.337   9.172  1.00  0.00     0.013 C 
HETATM   19  C14 UNL     1      -1.306   0.972   8.417  1.00  0.00     0.034 C 
ENDBRANCH  11  12
ENDBRANCH   1  11
TORSDOF 5
ENDMDL
MODEL 4
REMARK VINA RESULT: -6.715773488      2.008      3.259
REMARK  5 active torsions:
REMARK  status: ('A' for Active; 'I' for Inactive)
REMARK    1  A    between atoms: O1_2  and  C2_3 
REMARK    2  A    between atoms: N1_6  and  C5_7 
REMARK    3  A    between atoms: C5_7  and  C6_8 
REMARK    4  A    between atoms: C6_8  and  C7_9 
REMARK    5  A    between atoms: C15_17  and  O2_18 
ROOT
HETATM    1  C5  UNL     1      -0.060  -0.442   5.042  1.00  0.00     0.135 C 
ENDROOT
BRANCH   1   2
HETATM    2  N1  UNL     1      -1.009  -1.123   4.188  1.00  0.00    -0.335 N 
HETATM    3  C4  UNL     1      -2.005  -1.907   4.629  1.00  0.00     0.096 A 
HETATM    4  C3  UNL     1      -2.718  -2.397   3.555  1.00  0.00     0.058 A 
HETATM    5  C2  UNL     1      -2.153  -1.906   2.415  1.00  0.00     0.120 A 
HETATM    6  C15 UNL     1      -1.087  -1.116   2.867  1.00  0.00     0.176 A 
BRANCH   5   7
HETATM    7  O1  UNL     1      -2.538  -2.134   1.118  1.00  0.00    -0.352 OA
HETATM    8  C1  UNL     1      -3.912  -2.330   0.846  1.00  0.00     0.210 C 
ENDBRANCH   5   7
BRANCH   6   9
HETATM    9  O2  UNL     1      -0.215  -0.408   2.043  1.00  0.00    -0.344 OA
ATOM     10  H2  UNL     1       0.712  -0.284   2.211  1.00  0.00     0.219 HD
ENDBRANCH   6   9
ENDBRANCH   1   2
BRANCH   1  11
HETATM   11  C6  UNL     1       0.358  -1.429   6.126  1.00  0.00     0.054 C 
BRANCH  11  12
HETATM   12  C7  UNL     1       0.183  -0.890   7.472  1.00  0.00    -0.082 C 
HETATM   13  C8  UNL     1      -0.988  -0.387   7.836  1.00  0.00    -0.023 C 
HETATM   14  C9  UNL     1      -1.171   0.161   9.201  1.00  0.00     0.036 C 
HETATM   15  C10 UNL     1       0.048   0.807   9.778  1.00  0.00    -0.044 C 
HETATM   16  C11 UNL     1      -0.069   2.335   9.721  1.00  0.00     0.015 C 
HETATM   17  C12 UNL     1       0.074   0.449  11.271  1.00  0.00     0.015 C 
HETATM   18  C13 UNL     1       1.331   0.445   9.108  1.00  0.00     0.013 C 
HETATM   19  C14 UNL     1       1.320  -0.906   8.432  1.00  0.00     0.034 C 
ENDBRANCH  11  12
ENDBRANCH   1  11
TORSDOF 5
ENDMDL
MODEL 5
REMARK VINA RESULT: -6.568742576      1.291      1.630
REMARK  5 active torsions:
REMARK  status: ('A' for Active; 'I' for Inactive)
REMARK    1  A    between atoms: O1_2  and  C2_3 
REMARK    2  A    between atoms: N1_6  and  C5_7 
REMARK    3  A    between atoms: C5_7  and  C6_8 
REMARK    4  A    between atoms: C6_8  and  C7_9 
REMARK    5  A    between atoms: C15_17  and  O2_18 
ROOT
HETATM    1  C5  UNL     1      -0.168   0.796   4.994  1.00  0.00     0.135 C 
ENDROOT
BRANCH   1   2
HETATM    2  N1  UNL     1       0.945   1.313   4.227  1.00  0.00    -0.335 N 
HETATM    3  C4  UNL     1       1.969   2.008   4.744  1.00  0.00     0.096 A 
HETATM    4  C3  UNL     1       2.852   2.348   3.740  1.00  0.00     0.058 A 
HETATM    5  C2  UNL     1       2.366   1.851   2.567  1.00  0.00     0.120 A 
HETATM    6  C15 UNL     1       1.171   1.213   2.926  1.00  0.00     0.176 A 
BRANCH   5   7
HETATM    7  O1  UNL     1       2.920   1.953   1.315  1.00  0.00    -0.352 OA
HETATM    8  C1  UNL     1       4.289   2.291   1.208  1.00  0.00     0.210 C 
ENDBRANCH   5   7
BRANCH   6   9
HETATM    9  O2  UNL     1       0.321   0.555   2.040  1.00  0.00    -0.344 OA
ATOM     10  H2  UNL     1       0.158   0.824   1.143  1.00  0.00     0.219 HD
ENDBRANCH   6   9
ENDBRANCH   1   2
BRANCH   1  11
HETATM   11  C6  UNL     1      -0.118   1.463   6.363  1.00  0.00     0.054 C 
BRANCH  11  12
HETATM   12  C7  UNL     1      -0.228   0.503   7.459  1.00  0.00    -0.082 C 
HETATM   13  C8  UNL     1      -1.307   0.500   8.229  1.00  0.00    -0.023 C 
HETATM   14  C9  UNL     1      -1.424  -0.473   9.342  1.00  0.00     0.036 C 
HETATM   15  C10 UNL     1      -0.127  -0.823   9.997  1.00  0.00    -0.044 C 
HETATM   16  C11 UNL     1       0.012  -0.102  11.345  1.00  0.00     0.015 C 
HETATM   17  C12 UNL     1      -0.191  -2.319  10.334  1.00  0.00     0.015 C 
HETATM   18  C13 UNL     1       1.092  -0.494   9.202  1.00  0.00     0.013 C 
HETATM   19  C14 UNL     1       0.871  -0.469   7.708  1.00  0.00     0.034 C 
ENDBRANCH  11  12
ENDBRANCH   1  11
TORSDOF 5
ENDMDL
