MODEL 1
REMARK VINA RESULT: -7.167687632      0.000      0.000
REMARK  6 active torsions:
REMARK  status: ('A' for Active; 'I' for Inactive)
REMARK    1  A    between atoms: C2_2  and  C5_5 
REMARK    2  A    between atoms: C5_5  and  C8_8 
REMARK    3  A    between atoms: C8_8  and  C9_10 
REMARK    4  A    between atoms: C11_12  and  C12_13 
REMARK    5  A    between atoms: C12_13  and  O2_14 
REMARK    6  A    between atoms: N1_16  and  O3_18 
ROOT
HETATM    1  C9  UNL     1     -42.578  -0.396  71.261  1.00  0.00     0.192 C 
HETATM    2  C10 UNL     1     -42.093   0.757  72.100  1.00  0.00     0.055 C 
HETATM    3  C11 UNL     1     -42.015   0.023  73.452  1.00  0.00     0.089 C 
HETATM    4  C13 UNL     1     -43.280  -0.783  73.366  1.00  0.00     0.181 C 
HETATM    5  O4  UNL     1     -43.655  -0.839  72.051  1.00  0.00    -0.378 OA
ENDROOT
BRANCH   1   6
HETATM    6  C8  UNL     1     -42.987  -0.088  69.901  1.00  0.00     0.164 C 
HETATM    7  O1  UNL     1     -43.683   0.932  69.740  1.00  0.00    -0.294 OA
BRANCH   6   8
HETATM    8  C5  UNL     1     -42.599  -0.942  68.763  1.00  0.00     0.022 C 
HETATM    9  C6  UNL     1     -41.688  -2.043  69.277  1.00  0.00     0.024 C 
HETATM   10  C7  UNL     1     -43.804  -1.577  68.153  1.00  0.00     0.024 C 
BRANCH   8  11
HETATM   11  C2  UNL     1     -41.814  -0.154  67.716  1.00  0.00    -0.037 C 
HETATM   12  C1  UNL     1     -40.614  -1.028  67.359  1.00  0.00     0.015 C 
HETATM   13  C3  UNL     1     -42.602   0.047  66.466  1.00  0.00     0.015 C 
HETATM   14  C4  UNL     1     -41.283   1.128  68.271  1.00  0.00     0.015 C 
ENDBRANCH   8  11
ENDBRANCH   6   8
ENDBRANCH   1   6
BRANCH   3  15
HETATM   15  C12 UNL     1     -42.001   0.975  74.576  1.00  0.00     0.141 C 
HETATM   16  N1  UNL     1     -41.627   2.181  74.429  1.00  0.00    -0.251 N 
ATOM     17  H1  UNL     1     -41.327   2.511  73.512  1.00  0.00     0.196 HD
BRANCH  15  18
HETATM   18  O2  UNL     1     -42.413   0.507  75.818  1.00  0.00    -0.348 OA
ATOM     19  H2  UNL     1     -43.348   0.476  75.987  1.00  0.00     0.219 HD
ENDBRANCH  15  18
BRANCH  16  20
HETATM   20  O3  UNL     1     -41.627   3.048  75.509  1.00  0.00    -0.288 OA
ATOM     21  H3  UNL     1     -41.079   3.824  75.500  1.00  0.00     0.244 HD
ENDBRANCH  16  20
ENDBRANCH   3  15
TORSDOF 6
ENDMDL
MODEL 2
REMARK VINA RESULT: -7.134647355      2.052      3.112
REMARK  6 active torsions:
REMARK  status: ('A' for Active; 'I' for Inactive)
REMARK    1  A    between atoms: C2_2  and  C5_5 
REMARK    2  A    between atoms: C5_5  and  C8_8 
REMARK    3  A    between atoms: C8_8  and  C9_10 
REMARK    4  A    between atoms: C11_12  and  C12_13 
REMARK    5  A    between atoms: C12_13  and  O2_14 
REMARK    6  A    between atoms: N1_16  and  O3_18 
ROOT
HETATM    1  C9  UNL     1     -43.001   0.440  71.276  1.00  0.00     0.192 C 
HETATM    2  C10 UNL     1     -43.418  -0.713  72.150  1.00  0.00     0.055 C 
HETATM    3  C11 UNL     1     -43.530   0.053  73.481  1.00  0.00     0.089 C 
HETATM    4  C13 UNL     1     -42.311   0.925  73.364  1.00  0.00     0.181 C 
HETATM    5  O4  UNL     1     -41.946   0.963  72.046  1.00  0.00    -0.378 OA
ENDROOT
BRANCH   1   6
HETATM    6  C8  UNL     1     -42.583   0.116  69.922  1.00  0.00     0.164 C 
HETATM    7  O1  UNL     1     -41.884  -0.905  69.778  1.00  0.00    -0.294 OA
BRANCH   6   8
HETATM    8  C5  UNL     1     -42.964   0.956  68.772  1.00  0.00     0.022 C 
HETATM    9  C6  UNL     1     -43.897   2.049  69.263  1.00  0.00     0.024 C 
HETATM   10  C7  UNL     1     -41.759   1.601  68.174  1.00  0.00     0.024 C 
BRANCH   8  11
HETATM   11  C2  UNL     1     -43.724   0.148  67.720  1.00  0.00    -0.037 C 
HETATM   12  C1  UNL     1     -44.923   1.009  67.329  1.00  0.00     0.015 C 
HETATM   13  C3  UNL     1     -42.911  -0.063  66.488  1.00  0.00     0.015 C 
HETATM   14  C4  UNL     1     -44.256  -1.130  68.281  1.00  0.00     0.015 C 
ENDBRANCH   8  11
ENDBRANCH   6   8
ENDBRANCH   1   6
BRANCH   3  15
HETATM   15  C12 UNL     1     -43.487  -0.865  74.632  1.00  0.00     0.141 C 
HETATM   16  N1  UNL     1     -43.961  -2.042  74.568  1.00  0.00    -0.251 N 
ATOM     17  H1  UNL     1     -44.386  -2.372  73.702  1.00  0.00     0.196 HD
BRANCH  15  18
HETATM   18  O2  UNL     1     -42.904  -0.399  75.804  1.00  0.00    -0.348 OA
ATOM     19  H2  UNL     1     -43.087   0.498  76.059  1.00  0.00     0.219 HD
ENDBRANCH  15  18
BRANCH  16  20
HETATM   20  O3  UNL     1     -43.903  -2.879  75.671  1.00  0.00    -0.288 OA
ATOM     21  H3  UNL     1     -44.291  -3.746  75.635  1.00  0.00     0.244 HD
ENDBRANCH  16  20
ENDBRANCH   3  15
TORSDOF 6
ENDMDL
MODEL 3
REMARK VINA RESULT: -7.065765312      1.599      2.279
REMARK  6 active torsions:
REMARK  status: ('A' for Active; 'I' for Inactive)
REMARK    1  A    between atoms: C2_2  and  C5_5 
REMARK    2  A    between atoms: C5_5  and  C8_8 
REMARK    3  A    between atoms: C8_8  and  C9_10 
REMARK    4  A    between atoms: C11_12  and  C12_13 
REMARK    5  A    between atoms: C12_13  and  O2_14 
REMARK    6  A    between atoms: N1_16  and  O3_18 
ROOT
HETATM    1  C9  UNL     1     -42.714  -0.947  71.202  1.00  0.00     0.192 C 
HETATM    2  C10 UNL     1     -42.188  -0.750  72.600  1.00  0.00     0.055 C 
HETATM    3  C11 UNL     1     -43.109  -1.752  73.321  1.00  0.00     0.089 C 
HETATM    4  C13 UNL     1     -44.399  -1.455  72.608  1.00  0.00     0.181 C 
HETATM    5  O4  UNL     1     -44.095  -0.814  71.438  1.00  0.00    -0.378 OA
ENDROOT
BRANCH   1   6
HETATM    6  C8  UNL     1     -42.240  -0.020  70.189  1.00  0.00     0.164 C 
HETATM    7  O1  UNL     1     -41.937   1.126  70.572  1.00  0.00    -0.294 OA
BRANCH   6   8
HETATM    8  C5  UNL     1     -42.122  -0.414  68.773  1.00  0.00     0.022 C 
HETATM    9  C6  UNL     1     -41.075   0.467  68.115  1.00  0.00     0.024 C 
HETATM   10  C7  UNL     1     -41.677  -1.834  68.662  1.00  0.00     0.024 C 
BRANCH   8  11
HETATM   11  C2  UNL     1     -43.436  -0.198  68.023  1.00  0.00    -0.037 C 
HETATM   12  C1  UNL     1     -43.049  -0.048  66.553  1.00  0.00     0.015 C 
HETATM   13  C3  UNL     1     -44.334  -1.384  68.125  1.00  0.00     0.015 C 
HETATM   14  C4  UNL     1     -44.110   1.069  68.439  1.00  0.00     0.015 C 
ENDBRANCH   8  11
ENDBRANCH   6   8
ENDBRANCH   1   6
BRANCH   3  15
HETATM   15  C12 UNL     1     -43.163  -1.483  74.768  1.00  0.00     0.141 C 
HETATM   16  N1  UNL     1     -42.747  -0.388  75.262  1.00  0.00    -0.251 N 
ATOM     17  H1  UNL     1     -42.362   0.331  74.650  1.00  0.00     0.196 HD
BRANCH  15  18
HETATM   18  O2  UNL     1     -43.690  -2.474  75.586  1.00  0.00    -0.348 OA
ATOM     19  H2  UNL     1     -44.054  -2.206  76.422  1.00  0.00     0.219 HD
ENDBRANCH  15  18
BRANCH  16  20
HETATM   20  O3  UNL     1     -42.813  -0.169  76.628  1.00  0.00    -0.288 OA
ATOM     21  H3  UNL     1     -43.065   0.683  76.965  1.00  0.00     0.244 HD
ENDBRANCH  16  20
ENDBRANCH   3  15
TORSDOF 6
ENDMDL
MODEL 4
REMARK VINA RESULT: -7.028898203      1.416      2.275
REMARK  6 active torsions:
REMARK  status: ('A' for Active; 'I' for Inactive)
REMARK    1  A    between atoms: C2_2  and  C5_5 
REMARK    2  A    between atoms: C5_5  and  C8_8 
REMARK    3  A    between atoms: C8_8  and  C9_10 
REMARK    4  A    between atoms: C11_12  and  C12_13 
REMARK    5  A    between atoms: C12_13  and  O2_14 
REMARK    6  A    between atoms: N1_16  and  O3_18 
ROOT
HETATM    1  C9  UNL     1     -42.810   0.895  71.185  1.00  0.00     0.192 C 
HETATM    2  C10 UNL     1     -43.371   0.732  72.573  1.00  0.00     0.055 C 
HETATM    3  C11 UNL     1     -42.400   1.673  73.310  1.00  0.00     0.089 C 
HETATM    4  C13 UNL     1     -41.120   1.294  72.619  1.00  0.00     0.181 C 
HETATM    5  O4  UNL     1     -41.445   0.674  71.444  1.00  0.00    -0.378 OA
ENDROOT
BRANCH   1   6
HETATM    6  C8  UNL     1     -43.327  -0.000  70.163  1.00  0.00     0.164 C 
HETATM    7  O1  UNL     1     -43.673  -1.138  70.534  1.00  0.00    -0.294 OA
BRANCH   6   8
HETATM    8  C5  UNL     1     -43.435   0.415  68.752  1.00  0.00     0.022 C 
HETATM    9  C6  UNL     1     -44.498  -0.436  68.081  1.00  0.00     0.024 C 
HETATM   10  C7  UNL     1     -43.851   1.845  68.660  1.00  0.00     0.024 C 
BRANCH   8  11
HETATM   11  C2  UNL     1     -42.124   0.184  68.000  1.00  0.00    -0.037 C 
HETATM   12  C1  UNL     1     -42.517   0.025  66.533  1.00  0.00     0.015 C 
HETATM   13  C3  UNL     1     -41.217   1.363  68.090  1.00  0.00     0.015 C 
HETATM   14  C4  UNL     1     -41.459  -1.085  68.425  1.00  0.00     0.015 C 
ENDBRANCH   8  11
ENDBRANCH   6   8
ENDBRANCH   1   6
BRANCH   3  15
HETATM   15  C12 UNL     1     -42.387   1.401  74.758  1.00  0.00     0.141 C 
HETATM   16  N1  UNL     1     -42.913   0.353  75.248  1.00  0.00    -0.251 N 
ATOM     17  H1  UNL     1     -43.359  -0.327  74.632  1.00  0.00     0.196 HD
BRANCH  15  18
HETATM   18  O2  UNL     1     -41.775   2.337  75.582  1.00  0.00    -0.348 OA
ATOM     19  H2  UNL     1     -42.103   2.422  76.469  1.00  0.00     0.219 HD
ENDBRANCH  15  18
BRANCH  16  20
HETATM   20  O3  UNL     1     -42.883   0.130  76.614  1.00  0.00    -0.288 OA
ATOM     21  H3  UNL     1     -43.580  -0.359  77.036  1.00  0.00     0.244 HD
ENDBRANCH  16  20
ENDBRANCH   3  15
TORSDOF 6
ENDMDL
MODEL 5
REMARK VINA RESULT: -6.931365190      1.677      2.078
REMARK  6 active torsions:
REMARK  status: ('A' for Active; 'I' for Inactive)
REMARK    1  A    between atoms: C2_2  and  C5_5 
REMARK    2  A    between atoms: C5_5  and  C8_8 
REMARK    3  A    between atoms: C8_8  and  C9_10 
REMARK    4  A    between atoms: C11_12  and  C12_13 
REMARK    5  A    between atoms: C12_13  and  O2_14 
REMARK    6  A    between atoms: N1_16  and  O3_18 
ROOT
HETATM    1  C9  UNL     1     -43.302  -0.498  71.511  1.00  0.00     0.192 C 
HETATM    2  C10 UNL     1     -42.637  -0.918  72.795  1.00  0.00     0.055 C 
HETATM    3  C11 UNL     1     -43.905  -1.060  73.658  1.00  0.00     0.089 C 
HETATM    4  C13 UNL     1     -44.658   0.153  73.187  1.00  0.00     0.181 C 
HETATM    5  O4  UNL     1     -44.125   0.539  71.987  1.00  0.00    -0.378 OA
ENDROOT
BRANCH   1   6
HETATM    6  C8  UNL     1     -42.427  -0.054  70.438  1.00  0.00     0.164 C 
HETATM    7  O1  UNL     1     -41.502   0.720  70.750  1.00  0.00    -0.294 OA
BRANCH   6   8
HETATM    8  C5  UNL     1     -42.624  -0.495  69.045  1.00  0.00     0.022 C 
HETATM    9  C6  UNL     1     -41.442  -1.358  68.642  1.00  0.00     0.024 C 
HETATM   10  C7  UNL     1     -43.866  -1.316  68.929  1.00  0.00     0.024 C 
BRANCH   8  11
HETATM   11  C2  UNL     1     -42.669   0.693  68.084  1.00  0.00    -0.037 C 
HETATM   12  C1  UNL     1     -43.193   0.132  66.764  1.00  0.00     0.015 C 
HETATM   13  C3  UNL     1     -43.634   1.736  68.536  1.00  0.00     0.015 C 
HETATM   14  C4  UNL     1     -41.306   1.246  67.825  1.00  0.00     0.015 C 
ENDBRANCH   8  11
ENDBRANCH   6   8
ENDBRANCH   1   6
BRANCH   3  15
HETATM   15  C12 UNL     1     -43.581  -1.027  75.094  1.00  0.00     0.141 C 
HETATM   16  N1  UNL     1     -43.058  -0.005  75.641  1.00  0.00    -0.251 N 
ATOM     17  H1  UNL     1     -42.854   0.821  75.080  1.00  0.00     0.196 HD
BRANCH  15  18
HETATM   18  O2  UNL     1     -43.867  -2.162  75.843  1.00  0.00    -0.348 OA
ATOM     19  H2  UNL     1     -44.274  -2.036  76.693  1.00  0.00     0.219 HD
ENDBRANCH  15  18
BRANCH  16  20
HETATM   20  O3  UNL     1     -42.767  -0.010  76.995  1.00  0.00    -0.288 OA
ATOM     21  H3  UNL     1     -41.990   0.431  77.319  1.00  0.00     0.244 HD
ENDBRANCH  16  20
ENDBRANCH   3  15
TORSDOF 6
ENDMDL
