MODEL 1
REMARK VINA RESULT: -6.542475581      0.000      0.000
REMARK  3 active torsions:
REMARK  status: ('A' for Active; 'I' for Inactive)
REMARK    1  A    between atoms: N1_4  and  C4_5 
REMARK    2  A    between atoms: C5_7  and  N2_8 
REMARK    3  A    between atoms: C6_13  and  C7_14 
ROOT
HETATM    1  C4  UNL     1     -43.546  -0.326  72.303  1.00  0.00     0.099 A 
HETATM    2  S1  UNL     1     -43.725  -1.894  72.931  1.00  0.00    -0.035 SA
HETATM    3  C5  UNL     1     -43.650  -1.559  74.600  1.00  0.00     0.144 A 
HETATM    4  N3  UNL     1     -43.494  -0.241  74.583  1.00  0.00    -0.338 N 
ATOM      5  H3  UNL     1     -43.412   0.272  75.460  1.00  0.00     0.168 HD
HETATM    6  C6  UNL     1     -43.445   0.402  73.449  1.00  0.00     0.049 A 
ENDROOT
BRANCH   1   7
HETATM    7  N1  UNL     1     -43.532   0.037  70.932  1.00  0.00    -0.369 N 
HETATM    8  C3  UNL     1     -43.300  -1.029  69.966  1.00  0.00     0.155 C 
HETATM    9  C2  UNL     1     -42.403  -0.673  68.836  1.00  0.00     0.136 C 
HETATM   10  C1  UNL     1     -41.329  -1.724  68.621  1.00  0.00     0.041 C 
HETATM   11  O1  UNL     1     -41.850   0.576  69.006  1.00  0.00    -0.378 OA
HETATM   12  C11 UNL     1     -42.888   1.489  69.090  1.00  0.00     0.136 C 
HETATM   13  C10 UNL     1     -43.701   1.343  70.382  1.00  0.00     0.155 C 
HETATM   14  C12 UNL     1     -43.819   1.453  67.894  1.00  0.00     0.041 C 
ENDBRANCH   1   7
BRANCH   6  15
HETATM   15  C7  UNL     1     -43.268   1.918  73.344  1.00  0.00     0.038 A 
HETATM   16  C8  UNL     1     -42.616   2.648  74.456  1.00  0.00     0.011 A 
HETATM   17  C9  UNL     1     -41.744   2.321  73.347  1.00  0.00     0.011 A 
ENDBRANCH   6  15
BRANCH   3  18
HETATM   18  N2  UNL     1     -43.759  -2.330  75.613  1.00  0.00    -0.380 N 
ATOM     19  H22 UNL     1     -44.502  -2.353  76.313  1.00  0.00     0.158 HD
ATOM     20  H21 UNL     1     -43.174  -3.103  75.929  1.00  0.00     0.158 HD
ENDBRANCH   3  18
TORSDOF 3
ENDMDL
MODEL 2
REMARK VINA RESULT: -6.542411057      1.868      3.435
REMARK  3 active torsions:
REMARK  status: ('A' for Active; 'I' for Inactive)
REMARK    1  A    between atoms: N1_4  and  C4_5 
REMARK    2  A    between atoms: C5_7  and  N2_8 
REMARK    3  A    between atoms: C6_13  and  C7_14 
ROOT
HETATM    1  C4  UNL     1     -42.002   0.362  72.303  1.00  0.00     0.099 A 
HETATM    2  S1  UNL     1     -41.823   1.929  72.935  1.00  0.00    -0.035 SA
HETATM    3  C5  UNL     1     -41.896   1.591  74.603  1.00  0.00     0.144 A 
HETATM    4  N3  UNL     1     -42.052   0.273  74.583  1.00  0.00    -0.338 N 
ATOM      5  H3  UNL     1     -42.133  -0.242  75.460  1.00  0.00     0.168 HD
HETATM    6  C6  UNL     1     -42.102  -0.368  73.448  1.00  0.00     0.049 A 
ENDROOT
BRANCH   1   7
HETATM    7  N1  UNL     1     -42.017   0.001  70.932  1.00  0.00    -0.369 N 
HETATM    8  C3  UNL     1     -42.254   1.069  69.968  1.00  0.00     0.155 C 
HETATM    9  C2  UNL     1     -43.152   0.711  68.839  1.00  0.00     0.136 C 
HETATM   10  C1  UNL     1     -44.230   1.759  68.628  1.00  0.00     0.041 C 
HETATM   11  O1  UNL     1     -43.699  -0.540  69.008  1.00  0.00    -0.378 OA
HETATM   12  C11 UNL     1     -42.658  -1.449  69.088  1.00  0.00     0.136 C 
HETATM   13  C10 UNL     1     -41.844  -1.303  70.379  1.00  0.00     0.155 C 
HETATM   14  C12 UNL     1     -41.730  -1.408  67.890  1.00  0.00     0.041 C 
ENDBRANCH   1   7
BRANCH   6  15
HETATM   15  C7  UNL     1     -42.278  -1.884  73.341  1.00  0.00     0.038 A 
HETATM   16  C8  UNL     1     -42.927  -2.616  74.452  1.00  0.00     0.011 A 
HETATM   17  C9  UNL     1     -43.802  -2.287  73.346  1.00  0.00     0.011 A 
ENDBRANCH   6  15
BRANCH   3  18
HETATM   18  N2  UNL     1     -41.786   2.360  75.617  1.00  0.00    -0.380 N 
ATOM     19  H22 UNL     1     -41.001   2.957  75.876  1.00  0.00     0.158 HD
ATOM     20  H21 UNL     1     -42.448   2.582  76.360  1.00  0.00     0.158 HD
ENDBRANCH   3  18
TORSDOF 3
ENDMDL
MODEL 3
REMARK VINA RESULT: -6.396042214      1.648      2.780
REMARK  3 active torsions:
REMARK  status: ('A' for Active; 'I' for Inactive)
REMARK    1  A    between atoms: N1_4  and  C4_5 
REMARK    2  A    between atoms: C5_7  and  N2_8 
REMARK    3  A    between atoms: C6_13  and  C7_14 
ROOT
HETATM    1  C4  UNL     1     -42.812   0.810  72.223  1.00  0.00     0.099 A 
HETATM    2  S1  UNL     1     -42.605   2.304  73.007  1.00  0.00    -0.035 SA
HETATM    3  C5  UNL     1     -42.135   1.768  74.554  1.00  0.00     0.144 A 
HETATM    4  N3  UNL     1     -42.158   0.452  74.380  1.00  0.00    -0.338 N 
ATOM      5  H3  UNL     1     -41.918  -0.166  75.154  1.00  0.00     0.168 HD
HETATM    6  C6  UNL     1     -42.487  -0.054  73.224  1.00  0.00     0.049 A 
ENDROOT
BRANCH   1   7
HETATM    7  N1  UNL     1     -43.207   0.611  70.875  1.00  0.00    -0.369 N 
HETATM    8  C3  UNL     1     -43.066  -0.735  70.335  1.00  0.00     0.155 C 
HETATM    9  C2  UNL     1     -42.557  -0.805  68.941  1.00  0.00     0.136 C 
HETATM   10  C1  UNL     1     -41.423  -1.805  68.809  1.00  0.00     0.041 C 
HETATM   11  O1  UNL     1     -42.183   0.437  68.479  1.00  0.00    -0.378 OA
HETATM   12  C11 UNL     1     -43.294   1.261  68.533  1.00  0.00     0.136 C 
HETATM   13  C10 UNL     1     -43.715   1.591  69.971  1.00  0.00     0.155 C 
HETATM   14  C12 UNL     1     -44.483   0.719  67.765  1.00  0.00     0.041 C 
ENDBRANCH   1   7
BRANCH   6  15
HETATM   15  C7  UNL     1     -42.537  -1.557  72.943  1.00  0.00     0.038 A 
HETATM   16  C8  UNL     1     -42.631  -2.501  74.080  1.00  0.00     0.011 A 
HETATM   17  C9  UNL     1     -43.892  -2.190  73.441  1.00  0.00     0.011 A 
ENDBRANCH   6  15
BRANCH   3  18
HETATM   18  N2  UNL     1     -41.798   2.423  75.598  1.00  0.00    -0.380 N 
ATOM     19  H22 UNL     1     -42.361   3.076  76.143  1.00  0.00     0.158 HD
ATOM     20  H21 UNL     1     -40.933   2.418  76.138  1.00  0.00     0.158 HD
ENDBRANCH   3  18
TORSDOF 3
ENDMDL
MODEL 4
REMARK VINA RESULT: -6.385539087      0.968      1.993
REMARK  3 active torsions:
REMARK  status: ('A' for Active; 'I' for Inactive)
REMARK    1  A    between atoms: N1_4  and  C4_5 
REMARK    2  A    between atoms: C5_7  and  N2_8 
REMARK    3  A    between atoms: C6_13  and  C7_14 
ROOT
HETATM    1  C4  UNL     1     -42.740  -0.791  72.218  1.00  0.00     0.099 A 
HETATM    2  S1  UNL     1     -42.940  -2.291  72.992  1.00  0.00    -0.035 SA
HETATM    3  C5  UNL     1     -43.401  -1.768  74.546  1.00  0.00     0.144 A 
HETATM    4  N3  UNL     1     -43.381  -0.451  74.382  1.00  0.00    -0.338 N 
ATOM      5  H3  UNL     1     -43.617   0.161  75.163  1.00  0.00     0.168 HD
HETATM    6  C6  UNL     1     -43.060   0.065  73.228  1.00  0.00     0.049 A 
ENDROOT
BRANCH   1   7
HETATM    7  N1  UNL     1     -42.353  -0.582  70.870  1.00  0.00    -0.369 N 
HETATM    8  C3  UNL     1     -42.488   0.771  70.344  1.00  0.00     0.155 C 
HETATM    9  C2  UNL     1     -43.007   0.859  68.955  1.00  0.00     0.136 C 
HETATM   10  C1  UNL     1     -44.134   1.870  68.842  1.00  0.00     0.041 C 
HETATM   11  O1  UNL     1     -43.394  -0.375  68.483  1.00  0.00    -0.378 OA
HETATM   12  C11 UNL     1     -42.289  -1.207  68.521  1.00  0.00     0.136 C 
HETATM   13  C10 UNL     1     -41.860  -1.556  69.951  1.00  0.00     0.155 C 
HETATM   14  C12 UNL     1     -41.102  -0.667  67.748  1.00  0.00     0.041 C 
ENDBRANCH   1   7
BRANCH   6  15
HETATM   15  C7  UNL     1     -43.014   1.570  72.959  1.00  0.00     0.038 A 
HETATM   16  C8  UNL     1     -42.913   2.506  74.102  1.00  0.00     0.011 A 
HETATM   17  C9  UNL     1     -41.656   2.201  73.452  1.00  0.00     0.011 A 
ENDBRANCH   6  15
BRANCH   3  18
HETATM   18  N2  UNL     1     -43.730  -2.431  75.587  1.00  0.00    -0.380 N 
ATOM     19  H22 UNL     1     -43.238  -3.213  76.021  1.00  0.00     0.158 HD
ATOM     20  H21 UNL     1     -44.512  -2.316  76.232  1.00  0.00     0.158 HD
ENDBRANCH   3  18
TORSDOF 3
ENDMDL
MODEL 5
REMARK VINA RESULT: -6.087748578      2.887      6.101
REMARK  3 active torsions:
REMARK  status: ('A' for Active; 'I' for Inactive)
REMARK    1  A    between atoms: N1_4  and  C4_5 
REMARK    2  A    between atoms: C5_7  and  N2_8 
REMARK    3  A    between atoms: C6_13  and  C7_14 
ROOT
HETATM    1  C4  UNL     1     -42.669  -0.063  68.631  1.00  0.00     0.099 A 
HETATM    2  S1  UNL     1     -41.144  -0.519  68.034  1.00  0.00    -0.035 SA
HETATM    3  C5  UNL     1     -41.382  -0.250  66.369  1.00  0.00     0.144 A 
HETATM    4  N3  UNL     1     -42.635   0.186  66.363  1.00  0.00    -0.338 N 
ATOM      5  H3  UNL     1     -43.081   0.437  65.481  1.00  0.00     0.168 HD
HETATM    6  C6  UNL     1     -43.301   0.295  67.480  1.00  0.00     0.049 A 
ENDROOT
BRANCH   1   7
HETATM    7  N1  UNL     1     -43.081  -0.072  69.988  1.00  0.00    -0.369 N 
HETATM    8  C3  UNL     1     -42.651   1.045  70.819  1.00  0.00     0.155 C 
HETATM    9  C2  UNL     1     -42.221   0.681  72.193  1.00  0.00     0.136 C 
HETATM   10  C1  UNL     1     -40.888   1.315  72.550  1.00  0.00     0.041 C 
HETATM   11  O1  UNL     1     -42.184  -0.685  72.364  1.00  0.00    -0.378 OA
HETATM   12  C11 UNL     1     -43.456  -1.175  72.123  1.00  0.00     0.136 C 
HETATM   13  C10 UNL     1     -43.861  -1.068  70.648  1.00  0.00     0.155 C 
HETATM   14  C12 UNL     1     -44.521  -0.537  72.993  1.00  0.00     0.041 C 
ENDBRANCH   1   7
BRANCH   6  15
HETATM   15  C7  UNL     1     -44.747   0.790  67.556  1.00  0.00     0.038 A 
HETATM   16  C8  UNL     1     -45.508   0.992  66.303  1.00  0.00     0.011 A 
HETATM   17  C9  UNL     1     -45.749  -0.273  66.964  1.00  0.00     0.011 A 
ENDBRANCH   6  15
BRANCH   3  18
HETATM   18  N2  UNL     1     -40.582  -0.375  65.380  1.00  0.00    -0.380 N 
ATOM     19  H22 UNL     1     -40.224   0.352  64.761  1.00  0.00     0.158 HD
ATOM     20  H21 UNL     1     -40.099  -1.194  65.013  1.00  0.00     0.158 HD
ENDBRANCH   3  18
TORSDOF 3
ENDMDL
