MODEL 1
REMARK VINA RESULT: -7.433629653      0.000      0.000
REMARK  2 active torsions:
REMARK  status: ('A' for Active; 'I' for Inactive)
REMARK    1  A    between atoms: C2_2  and  C4_4 
REMARK    2  A    between atoms: C5_9  and  C6_10 
ROOT
HETATM    1  C6  UNL     1     -42.863  -1.264  72.482  1.00  0.00     0.092 C 
HETATM    2  C7  UNL     1     -42.289  -2.436  73.284  1.00  0.00     0.043 C 
HETATM    3  C8  UNL     1     -43.249  -2.700  74.424  1.00  0.00     0.233 C 
HETATM    4  N3  UNL     1     -43.690  -1.445  75.015  1.00  0.00    -0.072 N 
ATOM      5  H31 UNL     1     -43.882  -1.544  76.012  1.00  0.00     0.277 HD
ATOM      6  H32 UNL     1     -44.627  -1.188  74.703  1.00  0.00     0.277 HD
HETATM    7  C9  UNL     1     -42.731  -0.393  74.755  1.00  0.00     0.271 C 
HETATM    8  C10 UNL     1     -42.699  -0.016  73.267  1.00  0.00     0.095 C 
HETATM    9  C11 UNL     1     -41.415   0.731  73.051  1.00  0.00     0.042 C 
HETATM   10  C12 UNL     1     -41.762   2.020  73.817  1.00  0.00     0.029 C 
HETATM   11  C13 UNL     1     -43.222   2.143  73.499  1.00  0.00     0.169 C 
HETATM   12  O1  UNL     1     -43.712   0.921  73.099  1.00  0.00    -0.378 OA
ENDROOT
BRANCH   1  13
HETATM   13  C5  UNL     1     -42.334  -1.243  71.111  1.00  0.00     0.104 A 
HETATM   14  N2  UNL     1     -41.612  -2.217  70.531  1.00  0.00    -0.287 N 
HETATM   15  N1  UNL     1     -41.310  -1.845  69.304  1.00  0.00    -0.287 N 
ATOM     16  H2  UNL     1     -41.342  -3.098  70.967  1.00  0.00     0.188 HD
HETATM   17  C4  UNL     1     -41.820  -0.629  69.045  1.00  0.00     0.100 A 
ATOM     18  H1  UNL     1     -40.766  -2.400  68.643  1.00  0.00     0.188 HD
HETATM   19  N4  UNL     1     -42.449  -0.281  70.181  1.00  0.00    -0.333 N 
ATOM     20  H4  UNL     1     -42.947   0.598  70.318  1.00  0.00     0.168 HD
BRANCH  17  21
HETATM   21  C2  UNL     1     -41.698   0.134  67.776  1.00  0.00     0.047 C 
HETATM   22  C1  UNL     1     -40.711  -0.541  66.854  1.00  0.00     0.017 C 
HETATM   23  C3  UNL     1     -41.153   1.517  68.075  1.00  0.00     0.017 C 
ENDBRANCH  17  21
ENDBRANCH   1  13
TORSDOF 2
ENDMDL
MODEL 2
REMARK VINA RESULT: -7.387901169      1.056      1.172
REMARK  2 active torsions:
REMARK  status: ('A' for Active; 'I' for Inactive)
REMARK    1  A    between atoms: C2_2  and  C4_4 
REMARK    2  A    between atoms: C5_9  and  C6_10 
ROOT
HETATM    1  C6  UNL     1     -43.026  -1.138  72.457  1.00  0.00     0.092 C 
HETATM    2  C7  UNL     1     -42.261  -2.300  73.098  1.00  0.00     0.043 C 
HETATM    3  C8  UNL     1     -42.923  -2.579  74.431  1.00  0.00     0.233 C 
HETATM    4  N3  UNL     1     -43.233  -1.331  75.113  1.00  0.00    -0.072 N 
ATOM      5  H31 UNL     1     -43.184  -1.432  76.126  1.00  0.00     0.277 HD
ATOM      6  H32 UNL     1     -44.221  -1.089  75.029  1.00  0.00     0.277 HD
HETATM    7  C9  UNL     1     -42.379  -0.264  74.638  1.00  0.00     0.271 C 
HETATM    8  C10 UNL     1     -42.702   0.113  73.185  1.00  0.00     0.095 C 
HETATM    9  C11 UNL     1     -41.516   0.880  72.675  1.00  0.00     0.042 C 
HETATM   10  C12 UNL     1     -41.695   2.163  73.505  1.00  0.00     0.029 C 
HETATM   11  C13 UNL     1     -43.190   2.263  73.539  1.00  0.00     0.169 C 
HETATM   12  O1  UNL     1     -43.741   1.033  73.261  1.00  0.00    -0.378 OA
ENDROOT
BRANCH   1  13
HETATM   13  C5  UNL     1     -42.833  -1.110  71.000  1.00  0.00     0.104 A 
HETATM   14  N2  UNL     1     -41.790  -1.634  70.333  1.00  0.00    -0.287 N 
HETATM   15  N1  UNL     1     -41.957  -1.412  69.046  1.00  0.00    -0.287 N 
ATOM     16  H2  UNL     1     -40.999  -2.122  70.754  1.00  0.00     0.188 HD
HETATM   17  C4  UNL     1     -43.104  -0.745  68.831  1.00  0.00     0.100 A 
ATOM     18  H1  UNL     1     -41.309  -1.705  68.315  1.00  0.00     0.188 HD
HETATM   19  N4  UNL     1     -43.625  -0.571  70.058  1.00  0.00    -0.333 N 
ATOM     20  H4  UNL     1     -44.505  -0.094  70.248  1.00  0.00     0.168 HD
BRANCH  17  21
HETATM   21  C2  UNL     1     -43.645  -0.309  67.518  1.00  0.00     0.047 C 
HETATM   22  C1  UNL     1     -42.517   0.041  66.578  1.00  0.00     0.017 C 
HETATM   23  C3  UNL     1     -44.470   0.949  67.711  1.00  0.00     0.017 C 
ENDBRANCH  17  21
ENDBRANCH   1  13
TORSDOF 2
ENDMDL
MODEL 3
REMARK VINA RESULT: -7.382099344      1.688      3.191
REMARK  2 active torsions:
REMARK  status: ('A' for Active; 'I' for Inactive)
REMARK    1  A    between atoms: C2_2  and  C4_4 
REMARK    2  A    between atoms: C5_9  and  C6_10 
ROOT
HETATM    1  C6  UNL     1     -42.527   1.130  72.426  1.00  0.00     0.092 C 
HETATM    2  C7  UNL     1     -43.295   2.294  73.060  1.00  0.00     0.043 C 
HETATM    3  C8  UNL     1     -42.637   2.578  74.394  1.00  0.00     0.233 C 
HETATM    4  N3  UNL     1     -42.327   1.333  75.082  1.00  0.00    -0.072 N 
ATOM      5  H31 UNL     1     -42.379   1.438  76.095  1.00  0.00     0.277 HD
ATOM      6  H32 UNL     1     -41.339   1.093  75.002  1.00  0.00     0.277 HD
HETATM    7  C9  UNL     1     -43.179   0.263  74.609  1.00  0.00     0.271 C 
HETATM    8  C10 UNL     1     -42.850  -0.118  73.158  1.00  0.00     0.095 C 
HETATM    9  C11 UNL     1     -44.034  -0.889  72.648  1.00  0.00     0.042 C 
HETATM   10  C12 UNL     1     -43.855  -2.169  73.484  1.00  0.00     0.029 C 
HETATM   11  C13 UNL     1     -42.360  -2.266  73.522  1.00  0.00     0.169 C 
HETATM   12  O1  UNL     1     -41.810  -1.036  73.241  1.00  0.00    -0.378 OA
ENDROOT
BRANCH   1  13
HETATM   13  C5  UNL     1     -42.715   1.096  70.969  1.00  0.00     0.104 A 
HETATM   14  N2  UNL     1     -43.762   1.608  70.298  1.00  0.00    -0.287 N 
HETATM   15  N1  UNL     1     -43.588   1.384  69.011  1.00  0.00    -0.287 N 
ATOM     16  H2  UNL     1     -44.558   2.089  70.715  1.00  0.00     0.188 HD
HETATM   17  C4  UNL     1     -42.435   0.727  68.802  1.00  0.00     0.100 A 
ATOM     18  H1  UNL     1     -44.238   1.669  68.278  1.00  0.00     0.188 HD
HETATM   19  N4  UNL     1     -41.916   0.562  70.030  1.00  0.00    -0.333 N 
ATOM     20  H4  UNL     1     -41.031   0.094  70.224  1.00  0.00     0.168 HD
BRANCH  17  21
HETATM   21  C2  UNL     1     -41.885   0.293  67.492  1.00  0.00     0.047 C 
HETATM   22  C1  UNL     1     -43.009  -0.025  66.533  1.00  0.00     0.017 C 
HETATM   23  C3  UNL     1     -41.090  -0.984  67.683  1.00  0.00     0.017 C 
ENDBRANCH  17  21
ENDBRANCH   1  13
TORSDOF 2
ENDMDL
MODEL 4
REMARK VINA RESULT: -7.357799946      2.115      3.583
REMARK  2 active torsions:
REMARK  status: ('A' for Active; 'I' for Inactive)
REMARK    1  A    between atoms: C2_2  and  C4_4 
REMARK    2  A    between atoms: C5_9  and  C6_10 
ROOT
HETATM    1  C6  UNL     1     -42.679   1.132  72.244  1.00  0.00     0.092 C 
HETATM    2  C7  UNL     1     -43.265   2.314  73.022  1.00  0.00     0.043 C 
HETATM    3  C8  UNL     1     -42.296   2.626  74.141  1.00  0.00     0.233 C 
HETATM    4  N3  UNL     1     -41.823   1.396  74.760  1.00  0.00    -0.072 N 
ATOM      5  H31 UNL     1     -41.620   1.525  75.751  1.00  0.00     0.277 HD
ATOM      6  H32 UNL     1     -40.885   1.149  74.442  1.00  0.00     0.277 HD
HETATM    7  C9  UNL     1     -42.764   0.319  74.541  1.00  0.00     0.271 C 
HETATM    8  C10 UNL     1     -42.809  -0.098  73.063  1.00  0.00     0.095 C 
HETATM    9  C11 UNL     1     -44.081  -0.874  72.884  1.00  0.00     0.042 C 
HETATM   10  C12 UNL     1     -43.699  -2.135  73.679  1.00  0.00     0.029 C 
HETATM   11  C13 UNL     1     -42.241  -2.239  73.345  1.00  0.00     0.169 C 
HETATM   12  O1  UNL     1     -41.780  -1.019  72.906  1.00  0.00    -0.378 OA
ENDROOT
BRANCH   1  13
HETATM   13  C5  UNL     1     -43.225   1.064  70.881  1.00  0.00     0.104 A 
HETATM   14  N2  UNL     1     -43.915   2.037  70.260  1.00  0.00    -0.287 N 
HETATM   15  N1  UNL     1     -44.247   1.617  69.057  1.00  0.00    -0.287 N 
ATOM     16  H2  UNL     1     -44.145   2.949  70.655  1.00  0.00     0.188 HD
HETATM   17  C4  UNL     1     -43.789   0.370  68.853  1.00  0.00     0.100 A 
ATOM     18  H1  UNL     1     -44.777   2.160  68.375  1.00  0.00     0.188 HD
HETATM   19  N4  UNL     1     -43.160   0.053  69.999  1.00  0.00    -0.333 N 
ATOM     20  H4  UNL     1     -42.696  -0.837  70.174  1.00  0.00     0.168 HD
BRANCH  17  21
HETATM   21  C2  UNL     1     -43.956  -0.449  67.625  1.00  0.00     0.047 C 
HETATM   22  C1  UNL     1     -44.700   0.336  66.571  1.00  0.00     0.017 C 
HETATM   23  C3  UNL     1     -44.800  -1.667  67.949  1.00  0.00     0.017 C 
ENDBRANCH  17  21
ENDBRANCH   1  13
TORSDOF 2
ENDMDL
MODEL 5
REMARK VINA RESULT: -7.234341298      1.993      3.327
REMARK  2 active torsions:
REMARK  status: ('A' for Active; 'I' for Inactive)
REMARK    1  A    between atoms: C2_2  and  C4_4 
REMARK    2  A    between atoms: C5_9  and  C6_10 
ROOT
HETATM    1  C6  UNL     1     -42.608   0.811  72.322  1.00  0.00     0.092 C 
HETATM    2  C7  UNL     1     -43.393   2.068  72.707  1.00  0.00     0.043 C 
HETATM    3  C8  UNL     1     -42.752   2.618  73.963  1.00  0.00     0.233 C 
HETATM    4  N3  UNL     1     -42.439   1.536  74.886  1.00  0.00    -0.072 N 
ATOM      5  H31 UNL     1     -42.502   1.839  75.858  1.00  0.00     0.277 HD
ATOM      6  H32 UNL     1     -41.447   1.296  74.865  1.00  0.00     0.277 HD
HETATM    7  C9  UNL     1     -43.276   0.385  74.627  1.00  0.00     0.271 C 
HETATM    8  C10 UNL     1     -42.929  -0.272  73.283  1.00  0.00     0.095 C 
HETATM    9  C11 UNL     1     -44.100  -1.141  72.926  1.00  0.00     0.042 C 
HETATM   10  C12 UNL     1     -43.920  -2.229  74.000  1.00  0.00     0.029 C 
HETATM   11  C13 UNL     1     -42.424  -2.300  74.069  1.00  0.00     0.169 C 
HETATM   12  O1  UNL     1     -41.882  -1.145  73.555  1.00  0.00    -0.378 OA
ENDROOT
BRANCH   1  13
HETATM   13  C5  UNL     1     -42.781   0.487  70.899  1.00  0.00     0.104 A 
HETATM   14  N2  UNL     1     -42.094  -0.443  70.213  1.00  0.00    -0.287 N 
HETATM   15  N1  UNL     1     -42.516  -0.446  68.965  1.00  0.00    -0.287 N 
ATOM     16  H2  UNL     1     -41.367  -1.048  70.595  1.00  0.00     0.188 HD
HETATM   17  C4  UNL     1     -43.483   0.473  68.796  1.00  0.00     0.100 A 
ATOM     18  H1  UNL     1     -42.160  -1.057  68.231  1.00  0.00     0.188 HD
HETATM   19  N4  UNL     1     -43.626   1.035  70.009  1.00  0.00    -0.333 N 
ATOM     20  H4  UNL     1     -44.289   1.779  70.225  1.00  0.00     0.168 HD
BRANCH  17  21
HETATM   21  C2  UNL     1     -44.210   0.776  67.537  1.00  0.00     0.047 C 
HETATM   22  C1  UNL     1     -45.173   1.919  67.752  1.00  0.00     0.017 C 
HETATM   23  C3  UNL     1     -45.035  -0.431  67.134  1.00  0.00     0.017 C 
ENDBRANCH  17  21
ENDBRANCH   1  13
TORSDOF 2
ENDMDL
