MODEL 1
REMARK VINA RESULT: -6.892651471      0.000      0.000
REMARK  3 active torsions:
REMARK  status: ('A' for Active; 'I' for Inactive)
REMARK    1  A    between atoms: N1_8  and  N2_10 
REMARK       I    between atoms: N2_10  and  C8_12 
REMARK    2  A    between atoms: C8_12  and  O2_14 
REMARK    3  A    between atoms: O2_14  and  C9_15 
ROOT
HETATM    1  N2  UNL     1     -43.805   1.196  72.383  1.00  0.00    -0.245 N 
ATOM      2  H2  UNL     1     -44.258   0.293  72.524  1.00  0.00     0.192 HD
HETATM    3  C8  UNL     1     -43.212   1.852  73.496  1.00  0.00     0.379 C 
HETATM    4  O1  UNL     1     -42.656   2.949  73.355  1.00  0.00    -0.237 OA
ENDROOT
BRANCH   1   5
HETATM    5  N1  UNL     1     -43.785   1.755  71.094  1.00  0.00    -0.304 N 
HETATM    6  C7  UNL     1     -43.224   1.115  70.152  1.00  0.00     0.007 C 
HETATM    7  C2  UNL     1     -43.199   1.690  68.803  1.00  0.00     0.029 C 
HETATM    8  C6  UNL     1     -42.591  -0.204  70.375  1.00  0.00     0.054 C 
HETATM    9  C1  UNL     1     -44.637   1.724  68.284  1.00  0.00     0.016 C 
HETATM   10  C3  UNL     1     -42.255   1.043  67.860  1.00  0.00     0.010 C 
HETATM   11  C4  UNL     1     -42.186  -0.432  67.911  1.00  0.00     0.001 C 
HETATM   12  C5  UNL     1     -42.671  -1.069  69.157  1.00  0.00     0.006 C 
ATOM     13  H1  UNL     1     -44.215   2.663  70.917  1.00  0.00     0.186 HD
ENDBRANCH   1   5
BRANCH   3  14
HETATM   14  O2  UNL     1     -43.266   1.257  74.725  1.00  0.00    -0.295 OA
BRANCH  14  15
HETATM   15  C9  UNL     1     -42.697  -0.004  75.024  1.00  0.00     0.157 C 
HETATM   16  C10 UNL     1     -41.753  -0.354  73.913  1.00  0.00     0.037 C 
HETATM   17  C11 UNL     1     -41.744  -1.815  73.572  1.00  0.00     0.029 C 
HETATM   18  C12 UNL     1     -43.113  -2.423  73.505  1.00  0.00     0.167 C 
HETATM   19  O3  UNL     1     -44.112  -1.568  73.945  1.00  0.00    -0.389 OA
HETATM   20  C13 UNL     1     -43.824  -0.997  75.172  1.00  0.00     0.200 C 
ENDBRANCH  14  15
ENDBRANCH   3  14
TORSDOF 3
ENDMDL
MODEL 2
REMARK VINA RESULT: -6.890897308      1.688      3.418
REMARK  3 active torsions:
REMARK  status: ('A' for Active; 'I' for Inactive)
REMARK    1  A    between atoms: N1_8  and  N2_10 
REMARK       I    between atoms: N2_10  and  C8_12 
REMARK    2  A    between atoms: C8_12  and  O2_14 
REMARK    3  A    between atoms: O2_14  and  C9_15 
ROOT
HETATM    1  N2  UNL     1     -41.758  -1.212  72.402  1.00  0.00    -0.245 N 
ATOM      2  H2  UNL     1     -41.289  -0.318  72.547  1.00  0.00     0.192 HD
HETATM    3  C8  UNL     1     -42.370  -1.859  73.510  1.00  0.00     0.379 C 
HETATM    4  O1  UNL     1     -42.947  -2.945  73.363  1.00  0.00    -0.237 OA
ENDROOT
BRANCH   1   5
HETATM    5  N1  UNL     1     -41.781  -1.768  71.111  1.00  0.00    -0.304 N 
HETATM    6  C7  UNL     1     -42.343  -1.125  70.172  1.00  0.00     0.007 C 
HETATM    7  C2  UNL     1     -42.372  -1.698  68.822  1.00  0.00     0.029 C 
HETATM    8  C6  UNL     1     -42.975   0.193  70.400  1.00  0.00     0.054 C 
HETATM    9  C1  UNL     1     -40.936  -1.731  68.300  1.00  0.00     0.016 C 
HETATM   10  C3  UNL     1     -43.317  -1.048  67.882  1.00  0.00     0.010 C 
HETATM   11  C4  UNL     1     -43.386   0.427  67.937  1.00  0.00     0.001 C 
HETATM   12  C5  UNL     1     -42.898   1.061  69.183  1.00  0.00     0.006 C 
ATOM     13  H1  UNL     1     -41.352  -2.676  70.931  1.00  0.00     0.186 HD
ENDBRANCH   1   5
BRANCH   3  14
HETATM   14  O2  UNL     1     -42.312  -1.268  74.741  1.00  0.00    -0.295 OA
BRANCH  14  15
HETATM   15  C9  UNL     1     -42.880  -0.008  75.045  1.00  0.00     0.157 C 
HETATM   16  C10 UNL     1     -43.828   0.345  73.939  1.00  0.00     0.037 C 
HETATM   17  C11 UNL     1     -43.839   1.808  73.602  1.00  0.00     0.029 C 
HETATM   18  C12 UNL     1     -42.470   2.415  73.531  1.00  0.00     0.167 C 
HETATM   19  O3  UNL     1     -41.469   1.559  73.965  1.00  0.00    -0.389 OA
HETATM   20  C13 UNL     1     -41.753   0.985  75.191  1.00  0.00     0.200 C 
ENDBRANCH  14  15
ENDBRANCH   3  14
TORSDOF 3
ENDMDL
MODEL 3
REMARK VINA RESULT: -6.810132724      3.034      6.369
REMARK  3 active torsions:
REMARK  status: ('A' for Active; 'I' for Inactive)
REMARK    1  A    between atoms: N1_8  and  N2_10 
REMARK       I    between atoms: N2_10  and  C8_12 
REMARK    2  A    between atoms: C8_12  and  O2_14 
REMARK    3  A    between atoms: O2_14  and  C9_15 
ROOT
HETATM    1  N2  UNL     1     -43.740   1.239  70.390  1.00  0.00    -0.245 N 
ATOM      2  H2  UNL     1     -44.674   1.034  70.745  1.00  0.00     0.192 HD
HETATM    3  C8  UNL     1     -43.574   1.515  69.006  1.00  0.00     0.379 C 
HETATM    4  O1  UNL     1     -42.452   1.768  68.547  1.00  0.00    -0.237 OA
ENDROOT
BRANCH   1   5
HETATM    5  N1  UNL     1     -42.656   1.241  71.284  1.00  0.00    -0.304 N 
HETATM    6  C7  UNL     1     -42.849   0.893  72.490  1.00  0.00     0.007 C 
HETATM    7  C2  UNL     1     -41.723   0.892  73.429  1.00  0.00     0.029 C 
HETATM    8  C6  UNL     1     -44.185   0.485  72.978  1.00  0.00     0.054 C 
HETATM    9  C1  UNL     1     -40.749  -0.202  72.988  1.00  0.00     0.016 C 
HETATM   10  C3  UNL     1     -42.097   0.794  74.861  1.00  0.00     0.010 C 
HETATM   11  C4  UNL     1     -43.187  -0.149  75.190  1.00  0.00     0.001 C 
HETATM   12  C5  UNL     1     -44.086  -0.527  74.076  1.00  0.00     0.006 C 
ATOM     13  H1  UNL     1     -41.726   1.519  70.969  1.00  0.00     0.186 HD
ENDBRANCH   1   5
BRANCH   3  14
HETATM   14  O2  UNL     1     -44.668   1.497  68.187  1.00  0.00    -0.295 OA
BRANCH  14  15
HETATM   15  C9  UNL     1     -44.731   0.799  66.958  1.00  0.00     0.157 C 
HETATM   16  C10 UNL     1     -45.918   1.314  66.201  1.00  0.00     0.037 C 
HETATM   17  C11 UNL     1     -46.637   0.254  65.419  1.00  0.00     0.029 C 
HETATM   18  C12 UNL     1     -46.830  -1.023  66.181  1.00  0.00     0.167 C 
HETATM   19  O3  UNL     1     -46.153  -1.045  67.391  1.00  0.00    -0.389 OA
HETATM   20  C13 UNL     1     -44.826  -0.675  67.267  1.00  0.00     0.200 C 
ENDBRANCH  14  15
ENDBRANCH   3  14
TORSDOF 3
ENDMDL
MODEL 4
REMARK VINA RESULT: -6.783513896      3.658      6.571
REMARK  3 active torsions:
REMARK  status: ('A' for Active; 'I' for Inactive)
REMARK    1  A    between atoms: N1_8  and  N2_10 
REMARK       I    between atoms: N2_10  and  C8_12 
REMARK    2  A    between atoms: C8_12  and  O2_14 
REMARK    3  A    between atoms: O2_14  and  C9_15 
ROOT
HETATM    1  N2  UNL     1     -42.107  -0.323  69.671  1.00  0.00    -0.245 N 
ATOM      2  H2  UNL     1     -41.545  -1.169  69.769  1.00  0.00     0.192 HD
HETATM    3  C8  UNL     1     -41.798   0.593  68.628  1.00  0.00     0.379 C 
HETATM    4  O1  UNL     1     -42.463   1.628  68.485  1.00  0.00    -0.237 OA
ENDROOT
BRANCH   1   5
HETATM    5  N1  UNL     1     -43.163  -0.097  70.570  1.00  0.00    -0.304 N 
HETATM    6  C7  UNL     1     -42.929  -0.128  71.817  1.00  0.00     0.007 C 
HETATM    7  C2  UNL     1     -44.025   0.106  72.763  1.00  0.00     0.029 C 
HETATM    8  C6  UNL     1     -41.574  -0.396  72.349  1.00  0.00     0.054 C 
HETATM    9  C1  UNL     1     -44.467   1.562  72.611  1.00  0.00     0.016 C 
HETATM   10  C3  UNL     1     -43.735  -0.269  74.168  1.00  0.00     0.010 C 
HETATM   11  C4  UNL     1     -42.389   0.073  74.674  1.00  0.00     0.001 C 
HETATM   12  C5  UNL     1     -41.343   0.304  73.651  1.00  0.00     0.006 C 
ATOM     13  H1  UNL     1     -44.105   0.089  70.226  1.00  0.00     0.186 HD
ENDBRANCH   1   5
BRANCH   3  14
HETATM   14  O2  UNL     1     -40.758   0.317  67.786  1.00  0.00    -0.295 OA
BRANCH  14  15
HETATM   15  C9  UNL     1     -40.816  -0.625  66.732  1.00  0.00     0.157 C 
HETATM   16  C10 UNL     1     -39.959  -1.793  67.115  1.00  0.00     0.037 C 
HETATM   17  C11 UNL     1     -39.218  -2.399  65.959  1.00  0.00     0.029 C 
HETATM   18  C12 UNL     1     -38.598  -1.383  65.048  1.00  0.00     0.167 C 
HETATM   19  O3  UNL     1     -38.976  -0.081  65.342  1.00  0.00    -0.389 OA
HETATM   20  C13 UNL     1     -40.346   0.060  65.472  1.00  0.00     0.200 C 
ENDBRANCH  14  15
ENDBRANCH   3  14
TORSDOF 3
ENDMDL
MODEL 5
REMARK VINA RESULT: -6.783501993      3.532      6.878
REMARK  3 active torsions:
REMARK  status: ('A' for Active; 'I' for Inactive)
REMARK    1  A    between atoms: N1_8  and  N2_10 
REMARK       I    between atoms: N2_10  and  C8_12 
REMARK    2  A    between atoms: C8_12  and  O2_14 
REMARK    3  A    between atoms: O2_14  and  C9_15 
ROOT
HETATM    1  N2  UNL     1     -43.383   0.383  69.627  1.00  0.00    -0.245 N 
ATOM      2  H2  UNL     1     -43.890   1.265  69.707  1.00  0.00     0.192 HD
HETATM    3  C8  UNL     1     -43.747  -0.531  68.601  1.00  0.00     0.379 C 
HETATM    4  O1  UNL     1     -43.150  -1.609  68.480  1.00  0.00    -0.237 OA
ENDROOT
BRANCH   1   5
HETATM    5  N1  UNL     1     -42.347   0.107  70.536  1.00  0.00    -0.304 N 
HETATM    6  C7  UNL     1     -42.593   0.135  71.781  1.00  0.00     0.007 C 
HETATM    7  C2  UNL     1     -41.518  -0.152  72.736  1.00  0.00     0.029 C 
HETATM    8  C6  UNL     1     -43.943   0.450  72.301  1.00  0.00     0.054 C 
HETATM    9  C1  UNL     1     -41.131  -1.622  72.573  1.00  0.00     0.016 C 
HETATM   10  C3  UNL     1     -41.808   0.221  74.141  1.00  0.00     0.010 C 
HETATM   11  C4  UNL     1     -43.172  -0.073  74.629  1.00  0.00     0.001 C 
HETATM   12  C5  UNL     1     -44.215  -0.253  73.593  1.00  0.00     0.006 C 
ATOM     13  H1  UNL     1     -41.409  -0.112  70.200  1.00  0.00     0.186 HD
ENDBRANCH   1   5
BRANCH   3  14
HETATM   14  O2  UNL     1     -44.765  -0.205  67.749  1.00  0.00    -0.295 OA
BRANCH  14  15
HETATM   15  C9  UNL     1     -44.671   0.780  66.738  1.00  0.00     0.157 C 
HETATM   16  C10 UNL     1     -45.708   1.825  67.020  1.00  0.00     0.037 C 
HETATM   17  C11 UNL     1     -46.344   2.387  65.783  1.00  0.00     0.029 C 
HETATM   18  C12 UNL     1     -46.701   1.345  64.766  1.00  0.00     0.167 C 
HETATM   19  O3  UNL     1     -46.216   0.085  65.082  1.00  0.00    -0.389 OA
HETATM   20  C13 UNL     1     -44.871   0.098  65.407  1.00  0.00     0.200 C 
ENDBRANCH  14  15
ENDBRANCH   3  14
TORSDOF 3
ENDMDL
