MODEL 1
REMARK VINA RESULT: -7.345946183      0.000      0.000
REMARK  5 active torsions:
REMARK  status: ('A' for Active; 'I' for Inactive)
REMARK    1  A    between atoms: C2_2  and  C3_3 
REMARK    2  A    between atoms: C4_7  and  C5_8 
REMARK    3  A    between atoms: C5_8  and  C6_9 
REMARK    4  A    between atoms: C6_9  and  C7_10 
REMARK    5  A    between atoms: C7_10  and  O1_11 
ROOT
HETATM    1  C1  UNL     1     -19.649   0.394 -23.699  1.00  0.00     0.049 C 
HETATM    2  C2  UNL     1     -20.998  -0.279 -23.893  1.00  0.00     0.139 C 
HETATM    3  C4  UNL     1     -21.575   0.016 -25.252  1.00  0.00     0.023 C 
HETATM    4  C8  UNL     1     -20.508  -0.325 -26.269  1.00  0.00     0.009 C 
HETATM    5  C9  UNL     1     -20.111  -1.762 -26.212  1.00  0.00     0.021 C 
HETATM    6  C10 UNL     1     -19.933  -2.306 -24.815  1.00  0.00     0.136 C 
HETATM    7  N1  UNL     1     -20.827  -1.705 -23.867  1.00  0.00    -0.301 N 
HETATM    8  C11 UNL     1     -21.510  -2.474 -22.951  1.00  0.00     0.180 C 
HETATM    9  N2  UNL     1     -22.088  -3.150 -22.181  1.00  0.00    -0.172 NA
ENDROOT
BRANCH   2  10
HETATM   10  C3  UNL     1     -21.851   0.147 -22.746  1.00  0.00     0.413 C 
HETATM   11  F1  UNL     1     -21.405  -0.213 -21.515  1.00  0.00    -0.168 F 
HETATM   12  F2  UNL     1     -21.890   1.551 -22.768  1.00  0.00    -0.168 F 
HETATM   13  F3  UNL     1     -23.194  -0.202 -22.957  1.00  0.00    -0.168 F 
ENDBRANCH   2  10
BRANCH   3  14
HETATM   14  C5  UNL     1     -22.160   1.359 -25.422  1.00  0.00     0.009 C 
BRANCH  14  15
HETATM   15  C6  UNL     1     -22.368   1.766 -26.858  1.00  0.00     0.027 C 
BRANCH  15  16
HETATM   16  C7  UNL     1     -23.265   3.008 -26.949  1.00  0.00     0.164 C 
BRANCH  16  17
HETATM   17  O1  UNL     1     -23.436   3.602 -25.721  1.00  0.00    -0.401 OA
ATOM     18  H1  UNL     1     -24.275   3.377 -25.336  1.00  0.00     0.209 HD
ENDBRANCH  16  17
ENDBRANCH  15  16
ENDBRANCH  14  15
ENDBRANCH   3  14
TORSDOF 5
ENDMDL
MODEL 2
REMARK VINA RESULT: -7.304851790      2.853      4.333
REMARK  5 active torsions:
REMARK  status: ('A' for Active; 'I' for Inactive)
REMARK    1  A    between atoms: C2_2  and  C3_3 
REMARK    2  A    between atoms: C4_7  and  C5_8 
REMARK    3  A    between atoms: C5_8  and  C6_9 
REMARK    4  A    between atoms: C6_9  and  C7_10 
REMARK    5  A    between atoms: C7_10  and  O1_11 
ROOT
HETATM    1  C1  UNL     1     -22.892  -0.404 -23.681  1.00  0.00     0.049 C 
HETATM    2  C2  UNL     1     -21.551   0.282 -23.888  1.00  0.00     0.139 C 
HETATM    3  C4  UNL     1     -20.980  -0.014 -25.250  1.00  0.00     0.023 C 
HETATM    4  C8  UNL     1     -22.058   0.311 -26.261  1.00  0.00     0.009 C 
HETATM    5  C9  UNL     1     -22.470   1.743 -26.208  1.00  0.00     0.021 C 
HETATM    6  C10 UNL     1     -22.643   2.293 -24.813  1.00  0.00     0.136 C 
HETATM    7  N1  UNL     1     -21.736   1.706 -23.868  1.00  0.00    -0.301 N 
HETATM    8  C11 UNL     1     -21.055   2.487 -22.962  1.00  0.00     0.180 C 
HETATM    9  N2  UNL     1     -20.478   3.173 -22.199  1.00  0.00    -0.172 NA
ENDROOT
BRANCH   2  10
HETATM   10  C3  UNL     1     -20.686  -0.130 -22.745  1.00  0.00     0.413 C 
HETATM   11  F1  UNL     1     -21.125   0.235 -21.514  1.00  0.00    -0.168 F 
HETATM   12  F2  UNL     1     -20.635  -1.534 -22.759  1.00  0.00    -0.168 F 
HETATM   13  F3  UNL     1     -19.347   0.229 -22.970  1.00  0.00    -0.168 F 
ENDBRANCH   2  10
BRANCH   3  14
HETATM   14  C5  UNL     1     -20.383  -1.353 -25.418  1.00  0.00     0.009 C 
BRANCH  14  15
HETATM   15  C6  UNL     1     -20.140  -1.747 -26.851  1.00  0.00     0.027 C 
BRANCH  15  16
HETATM   16  C7  UNL     1     -19.377  -3.076 -26.930  1.00  0.00     0.164 C 
BRANCH  16  17
HETATM   17  O1  UNL     1     -19.062  -3.555 -25.681  1.00  0.00    -0.401 OA
ATOM     18  H1  UNL     1     -19.413  -4.427 -25.541  1.00  0.00     0.209 HD
ENDBRANCH  16  17
ENDBRANCH  15  16
ENDBRANCH  14  15
ENDBRANCH   3  14
TORSDOF 5
ENDMDL
MODEL 3
REMARK VINA RESULT: -6.720115341      2.826      4.463
REMARK  5 active torsions:
REMARK  status: ('A' for Active; 'I' for Inactive)
REMARK    1  A    between atoms: C2_2  and  C3_3 
REMARK    2  A    between atoms: C4_7  and  C5_8 
REMARK    3  A    between atoms: C5_8  and  C6_9 
REMARK    4  A    between atoms: C6_9  and  C7_10 
REMARK    5  A    between atoms: C7_10  and  O1_11 
ROOT
HETATM    1  C1  UNL     1     -23.064  -0.993 -24.992  1.00  0.00     0.049 C 
HETATM    2  C2  UNL     1     -22.167   0.235 -24.996  1.00  0.00     0.139 C 
HETATM    3  C4  UNL     1     -20.711  -0.141 -24.939  1.00  0.00     0.023 C 
HETATM    4  C8  UNL     1     -20.470  -1.147 -26.045  1.00  0.00     0.009 C 
HETATM    5  C9  UNL     1     -20.774  -0.588 -27.393  1.00  0.00     0.021 C 
HETATM    6  C10 UNL     1     -22.046   0.223 -27.461  1.00  0.00     0.136 C 
HETATM    7  N1  UNL     1     -22.319   0.931 -26.244  1.00  0.00    -0.301 N 
HETATM    8  C11 UNL     1     -22.717   2.249 -26.265  1.00  0.00     0.180 C 
HETATM    9  N2  UNL     1     -23.051   3.377 -26.305  1.00  0.00    -0.172 NA
ENDROOT
BRANCH   2  10
HETATM   10  C3  UNL     1     -22.633   1.102 -23.876  1.00  0.00     0.413 C 
HETATM   11  F1  UNL     1     -23.881   1.619 -24.012  1.00  0.00    -0.168 F 
HETATM   12  F2  UNL     1     -22.650   0.301 -22.722  1.00  0.00    -0.168 F 
HETATM   13  F3  UNL     1     -21.675   2.078 -23.560  1.00  0.00    -0.168 F 
ENDBRANCH   2  10
BRANCH   3  14
HETATM   14  C5  UNL     1     -20.210  -0.569 -23.619  1.00  0.00     0.009 C 
BRANCH  14  15
HETATM   15  C6  UNL     1     -20.300  -2.052 -23.373  1.00  0.00     0.027 C 
BRANCH  15  16
HETATM   16  C7  UNL     1     -21.205  -2.352 -22.171  1.00  0.00     0.164 C 
BRANCH  16  17
HETATM   17  O1  UNL     1     -22.062  -3.395 -22.429  1.00  0.00    -0.401 OA
ATOM     18  H1  UNL     1     -22.917  -3.087 -22.705  1.00  0.00     0.209 HD
ENDBRANCH  16  17
ENDBRANCH  15  16
ENDBRANCH  14  15
ENDBRANCH   3  14
TORSDOF 5
ENDMDL
MODEL 4
REMARK VINA RESULT: -6.563040396      2.433      3.647
REMARK  5 active torsions:
REMARK  status: ('A' for Active; 'I' for Inactive)
REMARK    1  A    between atoms: C2_2  and  C3_3 
REMARK    2  A    between atoms: C4_7  and  C5_8 
REMARK    3  A    between atoms: C5_8  and  C6_9 
REMARK    4  A    between atoms: C6_9  and  C7_10 
REMARK    5  A    between atoms: C7_10  and  O1_11 
ROOT
HETATM    1  C1  UNL     1     -22.492  -0.820 -24.306  1.00  0.00     0.049 C 
HETATM    2  C2  UNL     1     -21.326   0.150 -24.204  1.00  0.00     0.139 C 
HETATM    3  C4  UNL     1     -20.953   0.713 -25.550  1.00  0.00     0.023 C 
HETATM    4  C8  UNL     1     -22.222   1.257 -26.169  1.00  0.00     0.009 C 
HETATM    5  C9  UNL     1     -22.834   2.339 -25.345  1.00  0.00     0.021 C 
HETATM    6  C10 UNL     1     -22.854   2.058 -23.862  1.00  0.00     0.136 C 
HETATM    7  N1  UNL     1     -21.723   1.291 -23.426  1.00  0.00    -0.301 N 
HETATM    8  C11 UNL     1     -21.028   1.636 -22.288  1.00  0.00     0.180 C 
HETATM    9  N2  UNL     1     -20.445   1.953 -21.317  1.00  0.00    -0.172 NA
ENDROOT
BRANCH   2  10
HETATM   10  C3  UNL     1     -20.230  -0.579 -23.505  1.00  0.00     0.413 C 
HETATM   11  F1  UNL     1     -20.508  -0.990 -22.242  1.00  0.00    -0.168 F 
HETATM   12  F2  UNL     1     -19.966  -1.735 -24.259  1.00  0.00    -0.168 F 
HETATM   13  F3  UNL     1     -19.019   0.126 -23.589  1.00  0.00    -0.168 F 
ENDBRANCH   2  10
BRANCH   3  14
HETATM   14  C5  UNL     1     -20.193  -0.191 -26.434  1.00  0.00     0.009 C 
BRANCH  14  15
HETATM   15  C6  UNL     1     -20.404   0.058 -27.904  1.00  0.00     0.027 C 
BRANCH  15  16
HETATM   16  C7  UNL     1     -19.414   1.106 -28.428  1.00  0.00     0.164 C 
BRANCH  16  17
HETATM   17  O1  UNL     1     -20.050   2.267 -28.797  1.00  0.00    -0.401 OA
ATOM     18  H1  UNL     1     -19.468   3.016 -28.753  1.00  0.00     0.209 HD
ENDBRANCH  16  17
ENDBRANCH  15  16
ENDBRANCH  14  15
ENDBRANCH   3  14
TORSDOF 5
ENDMDL
MODEL 5
REMARK VINA RESULT: -6.560462934      1.744      1.833
REMARK  5 active torsions:
REMARK  status: ('A' for Active; 'I' for Inactive)
REMARK    1  A    between atoms: C2_2  and  C3_3 
REMARK    2  A    between atoms: C4_7  and  C5_8 
REMARK    3  A    between atoms: C5_8  and  C6_9 
REMARK    4  A    between atoms: C6_9  and  C7_10 
REMARK    5  A    between atoms: C7_10  and  O1_11 
ROOT
HETATM    1  C1  UNL     1     -19.993   0.811 -24.413  1.00  0.00     0.049 C 
HETATM    2  C2  UNL     1     -21.172  -0.138 -24.264  1.00  0.00     0.139 C 
HETATM    3  C4  UNL     1     -21.562  -0.748 -25.584  1.00  0.00     0.023 C 
HETATM    4  C8  UNL     1     -20.306  -1.335 -26.190  1.00  0.00     0.009 C 
HETATM    5  C9  UNL     1     -19.703  -2.391 -25.327  1.00  0.00     0.021 C 
HETATM    6  C10 UNL     1     -19.669  -2.053 -23.856  1.00  0.00     0.136 C 
HETATM    7  N1  UNL     1     -20.786  -1.253 -23.444  1.00  0.00    -0.301 N 
HETATM    8  C11 UNL     1     -21.477  -1.542 -22.289  1.00  0.00     0.180 C 
HETATM    9  N2  UNL     1     -22.058  -1.811 -21.302  1.00  0.00    -0.172 NA
ENDROOT
BRANCH   2  10
HETATM   10  C3  UNL     1     -22.252   0.635 -23.588  1.00  0.00     0.413 C 
HETATM   11  F1  UNL     1     -21.959   1.092 -22.344  1.00  0.00    -0.168 F 
HETATM   12  F2  UNL     1     -22.506   1.763 -24.386  1.00  0.00    -0.168 F 
HETATM   13  F3  UNL     1     -23.473  -0.056 -23.635  1.00  0.00    -0.168 F 
ENDBRANCH   2  10
BRANCH   3  14
HETATM   14  C5  UNL     1     -22.316   0.132 -26.499  1.00  0.00     0.009 C 
BRANCH  14  15
HETATM   15  C6  UNL     1     -21.712   0.259 -27.873  1.00  0.00     0.027 C 
BRANCH  15  16
HETATM   16  C7  UNL     1     -20.992   1.604 -28.030  1.00  0.00     0.164 C 
BRANCH  16  17
HETATM   17  O1  UNL     1     -19.653   1.436 -28.292  1.00  0.00    -0.401 OA
ATOM     18  H1  UNL     1     -19.469   0.571 -28.636  1.00  0.00     0.209 HD
ENDBRANCH  16  17
ENDBRANCH  15  16
ENDBRANCH  14  15
ENDBRANCH   3  14
TORSDOF 5
ENDMDL
