MODEL 1
REMARK VINA RESULT: -6.825817374      0.000      0.000
REMARK  4 active torsions:
REMARK  status: ('A' for Active; 'I' for Inactive)
REMARK    1  A    between atoms: C2_2  and  N1_4 
REMARK    2  A    between atoms: C2_2  and  C11_18 
REMARK    3  A    between atoms: N1_4  and  C3_6 
REMARK    4  A    between atoms: C3_6  and  C4_7 
ROOT
HETATM    1  C3  UNL     1     -21.010  -0.929 -24.278  1.00  0.00     0.072 C 
HETATM    2  C8  UNL     1     -20.117  -2.224 -24.238  1.00  0.00     0.037 C 
HETATM    3  C9  UNL     1     -20.980  -2.574 -23.014  1.00  0.00     0.006 C 
HETATM    4  C10 UNL     1     -22.096  -1.838 -23.783  1.00  0.00     0.037 C 
ENDROOT
BRANCH   1   5
HETATM    5  N1  UNL     1     -20.469  -0.038 -23.366  1.00  0.00    -0.366 N 
ATOM      6  H1  UNL     1     -19.456  -0.049 -23.240  1.00  0.00     0.158 HD
BRANCH   5   7
HETATM    7  C2  UNL     1     -21.199   0.870 -22.608  1.00  0.00     0.267 C 
HETATM    8  C1  UNL     1     -20.947   0.752 -21.126  1.00  0.00     0.086 C 
HETATM    9  F1  UNL     1     -22.586   0.690 -22.773  1.00  0.00    -0.210 F 
BRANCH   7  10
HETATM   10  C11 UNL     1     -20.928   2.325 -23.053  1.00  0.00     0.442 C 
HETATM   11  F2  UNL     1     -20.604   3.116 -21.969  1.00  0.00    -0.166 F 
HETATM   12  F3  UNL     1     -22.079   2.825 -23.667  1.00  0.00    -0.166 F 
HETATM   13  F4  UNL     1     -19.848   2.350 -23.910  1.00  0.00    -0.166 F 
ENDBRANCH   7  10
ENDBRANCH   5   7
ENDBRANCH   1   5
BRANCH   1  14
HETATM   14  C4  UNL     1     -21.111  -0.537 -25.702  1.00  0.00     0.053 A 
HETATM   15  C5  UNL     1     -21.908   0.528 -26.044  1.00  0.00     0.030 A 
HETATM   16  C6  UNL     1     -22.041   0.967 -27.350  1.00  0.00     0.021 A 
HETATM   17  C7  UNL     1     -21.323   0.272 -28.303  1.00  0.00     0.107 A 
HETATM   18  N2  UNL     1     -20.559  -0.760 -27.923  1.00  0.00    -0.312 N 
HETATM   19  N3  UNL     1     -20.441  -1.171 -26.664  1.00  0.00    -0.303 N 
ATOM     20  H2  UNL     1     -20.037  -1.260 -28.642  1.00  0.00     0.186 HD
ATOM     21  H3  UNL     1     -19.842  -1.965 -26.436  1.00  0.00     0.186 HD
ENDBRANCH   1  14
TORSDOF 4
ENDMDL
MODEL 2
REMARK VINA RESULT: -6.825584596      2.179      3.648
REMARK  4 active torsions:
REMARK  status: ('A' for Active; 'I' for Inactive)
REMARK    1  A    between atoms: C2_2  and  N1_4 
REMARK    2  A    between atoms: C2_2  and  C11_18 
REMARK    3  A    between atoms: N1_4  and  C3_6 
REMARK    4  A    between atoms: C3_6  and  C4_7 
ROOT
HETATM    1  C3  UNL     1     -21.534   0.933 -24.253  1.00  0.00     0.072 C 
HETATM    2  C8  UNL     1     -22.421   2.232 -24.213  1.00  0.00     0.037 C 
HETATM    3  C9  UNL     1     -21.552   2.580 -22.991  1.00  0.00     0.006 C 
HETATM    4  C10 UNL     1     -20.443   1.839 -23.763  1.00  0.00     0.037 C 
ENDROOT
BRANCH   1   5
HETATM    5  N1  UNL     1     -22.075   0.046 -23.337  1.00  0.00    -0.366 N 
ATOM      6  H1  UNL     1     -23.087   0.065 -23.204  1.00  0.00     0.158 HD
BRANCH   5   7
HETATM    7  C2  UNL     1     -21.348  -0.869 -22.586  1.00  0.00     0.267 C 
HETATM    8  C1  UNL     1     -21.597  -0.758 -21.103  1.00  0.00     0.086 C 
HETATM    9  F1  UNL     1     -19.960  -0.694 -22.752  1.00  0.00    -0.210 F 
BRANCH   7  10
HETATM   10  C11 UNL     1     -21.624  -2.320 -23.038  1.00  0.00     0.442 C 
HETATM   11  F2  UNL     1     -21.969  -3.112 -21.962  1.00  0.00    -0.166 F 
HETATM   12  F3  UNL     1     -20.470  -2.828 -23.640  1.00  0.00    -0.166 F 
HETATM   13  F4  UNL     1     -22.693  -2.335 -23.909  1.00  0.00    -0.166 F 
ENDBRANCH   7  10
ENDBRANCH   5   7
ENDBRANCH   1   5
BRANCH   1  14
HETATM   14  C4  UNL     1     -21.439   0.538 -25.676  1.00  0.00     0.053 A 
HETATM   15  C5  UNL     1     -20.664  -0.544 -26.017  1.00  0.00     0.030 A 
HETATM   16  C6  UNL     1     -20.538  -0.986 -27.323  1.00  0.00     0.021 A 
HETATM   17  C7  UNL     1     -21.241  -0.276 -28.277  1.00  0.00     0.107 A 
HETATM   18  N2  UNL     1     -21.983   0.771 -27.899  1.00  0.00    -0.312 N 
HETATM   19  N3  UNL     1     -22.094   1.185 -26.640  1.00  0.00    -0.303 N 
ATOM     20  H2  UNL     1     -22.493   1.282 -28.618  1.00  0.00     0.186 HD
ATOM     21  H3  UNL     1     -22.676   1.992 -26.414  1.00  0.00     0.186 HD
ENDBRANCH   1  14
TORSDOF 4
ENDMDL
MODEL 3
REMARK VINA RESULT: -6.745561184      2.034      3.510
REMARK  4 active torsions:
REMARK  status: ('A' for Active; 'I' for Inactive)
REMARK    1  A    between atoms: C2_2  and  N1_4 
REMARK    2  A    between atoms: C2_2  and  C11_18 
REMARK    3  A    between atoms: N1_4  and  C3_6 
REMARK    4  A    between atoms: C3_6  and  C4_7 
ROOT
HETATM    1  C3  UNL     1     -21.484   0.927 -24.175  1.00  0.00     0.072 C 
HETATM    2  C8  UNL     1     -22.396   2.209 -24.202  1.00  0.00     0.037 C 
HETATM    3  C9  UNL     1     -21.578   2.606 -22.960  1.00  0.00     0.006 C 
HETATM    4  C10 UNL     1     -20.428   1.866 -23.671  1.00  0.00     0.037 C 
ENDROOT
BRANCH   1   5
HETATM    5  N1  UNL     1     -22.043   0.054 -23.256  1.00  0.00    -0.366 N 
ATOM      6  H1  UNL     1     -23.047   0.124 -23.090  1.00  0.00     0.158 HD
BRANCH   5   7
HETATM    7  C2  UNL     1     -21.341  -0.910 -22.542  1.00  0.00     0.267 C 
HETATM    8  C1  UNL     1     -21.611  -0.872 -21.060  1.00  0.00     0.086 C 
HETATM    9  F1  UNL     1     -19.948  -0.749 -22.680  1.00  0.00    -0.210 F 
BRANCH   7  10
HETATM   10  C11 UNL     1     -21.633  -2.331 -23.074  1.00  0.00     0.442 C 
HETATM   11  F2  UNL     1     -21.991  -3.176 -22.042  1.00  0.00    -0.166 F 
HETATM   12  F3  UNL     1     -20.482  -2.819 -23.699  1.00  0.00    -0.166 F 
HETATM   13  F4  UNL     1     -22.699  -2.286 -23.947  1.00  0.00    -0.166 F 
ENDBRANCH   7  10
ENDBRANCH   5   7
ENDBRANCH   1   5
BRANCH   1  14
HETATM   14  C4  UNL     1     -21.331   0.496 -25.583  1.00  0.00     0.053 A 
HETATM   15  C5  UNL     1     -21.987   1.194 -26.568  1.00  0.00     0.030 A 
HETATM   16  C6  UNL     1     -21.881   0.865 -27.908  1.00  0.00     0.021 A 
HETATM   17  C7  UNL     1     -21.071  -0.213 -28.209  1.00  0.00     0.107 A 
HETATM   18  N2  UNL     1     -20.451  -0.863 -27.217  1.00  0.00    -0.312 N 
HETATM   19  N3  UNL     1     -20.563  -0.536 -25.933  1.00  0.00    -0.303 N 
ATOM     20  H2  UNL     1     -19.859  -1.656 -27.459  1.00  0.00     0.186 HD
ATOM     21  H3  UNL     1     -20.065  -1.071 -25.221  1.00  0.00     0.186 HD
ENDBRANCH   1  14
TORSDOF 4
ENDMDL
MODEL 4
REMARK VINA RESULT: -6.298281825      2.422      3.344
REMARK  4 active torsions:
REMARK  status: ('A' for Active; 'I' for Inactive)
REMARK    1  A    between atoms: C2_2  and  N1_4 
REMARK    2  A    between atoms: C2_2  and  C11_18 
REMARK    3  A    between atoms: N1_4  and  C3_6 
REMARK    4  A    between atoms: C3_6  and  C4_7 
ROOT
HETATM    1  C3  UNL     1     -20.632  -0.080 -24.200  1.00  0.00     0.072 C 
HETATM    2  C8  UNL     1     -19.423   0.299 -23.267  1.00  0.00     0.037 C 
HETATM    3  C9  UNL     1     -20.532   0.665 -22.266  1.00  0.00     0.006 C 
HETATM    4  C10 UNL     1     -21.297  -0.502 -22.923  1.00  0.00     0.037 C 
ENDROOT
BRANCH   1   5
HETATM    5  N1  UNL     1     -21.075   1.096 -24.783  1.00  0.00    -0.366 N 
ATOM      6  H1  UNL     1     -20.413   1.870 -24.844  1.00  0.00     0.158 HD
BRANCH   5   7
HETATM    7  C2  UNL     1     -22.352   1.304 -25.291  1.00  0.00     0.267 C 
HETATM    8  C1  UNL     1     -23.167   2.278 -24.479  1.00  0.00     0.086 C 
HETATM    9  F1  UNL     1     -23.101   0.111 -25.318  1.00  0.00    -0.210 F 
BRANCH   7  10
HETATM   10  C11 UNL     1     -22.306   1.781 -26.759  1.00  0.00     0.442 C 
HETATM   11  F2  UNL     1     -21.002   1.919 -27.189  1.00  0.00    -0.166 F 
HETATM   12  F3  UNL     1     -22.959   3.014 -26.848  1.00  0.00    -0.166 F 
HETATM   13  F4  UNL     1     -22.901   0.837 -27.569  1.00  0.00    -0.166 F 
ENDBRANCH   7  10
ENDBRANCH   5   7
ENDBRANCH   1   5
BRANCH   1  14
HETATM   14  C4  UNL     1     -20.160  -1.184 -25.065  1.00  0.00     0.053 A 
HETATM   15  C5  UNL     1     -20.444  -1.147 -26.409  1.00  0.00     0.030 A 
HETATM   16  C6  UNL     1     -20.024  -2.131 -27.285  1.00  0.00     0.021 A 
HETATM   17  C7  UNL     1     -19.294  -3.167 -26.734  1.00  0.00     0.107 A 
HETATM   18  N2  UNL     1     -19.041  -3.162 -25.420  1.00  0.00    -0.312 N 
HETATM   19  N3  UNL     1     -19.452  -2.209 -24.589  1.00  0.00    -0.303 N 
ATOM     20  H2  UNL     1     -18.501  -3.935 -25.032  1.00  0.00     0.186 HD
ATOM     21  H3  UNL     1     -19.228  -2.261 -23.595  1.00  0.00     0.186 HD
ENDBRANCH   1  14
TORSDOF 4
ENDMDL
MODEL 5
REMARK VINA RESULT: -6.295986441      1.282      1.971
REMARK  4 active torsions:
REMARK  status: ('A' for Active; 'I' for Inactive)
REMARK    1  A    between atoms: C2_2  and  N1_4 
REMARK    2  A    between atoms: C2_2  and  C11_18 
REMARK    3  A    between atoms: N1_4  and  C3_6 
REMARK    4  A    between atoms: C3_6  and  C4_7 
ROOT
HETATM    1  C3  UNL     1     -20.737  -0.662 -24.841  1.00  0.00     0.072 C 
HETATM    2  C8  UNL     1     -19.863  -1.968 -24.757  1.00  0.00     0.037 C 
HETATM    3  C9  UNL     1     -20.682  -2.228 -23.480  1.00  0.00     0.006 C 
HETATM    4  C10 UNL     1     -21.816  -1.520 -24.249  1.00  0.00     0.037 C 
ENDROOT
BRANCH   1   5
HETATM    5  N1  UNL     1     -20.146   0.273 -24.007  1.00  0.00    -0.366 N 
ATOM      6  H1  UNL     1     -19.145   0.183 -23.834  1.00  0.00     0.158 HD
BRANCH   5   7
HETATM    7  C2  UNL     1     -20.812   1.324 -23.388  1.00  0.00     0.267 C 
HETATM    8  C1  UNL     1     -22.181   1.586 -23.963  1.00  0.00     0.086 C 
HETATM    9  F1  UNL     1     -20.106   2.536 -23.517  1.00  0.00    -0.210 F 
BRANCH   7  10
HETATM   10  C11 UNL     1     -20.938   1.095 -21.865  1.00  0.00     0.442 C 
HETATM   11  F2  UNL     1     -22.205   0.653 -21.539  1.00  0.00    -0.166 F 
HETATM   12  F3  UNL     1     -20.683   2.302 -21.210  1.00  0.00    -0.166 F 
HETATM   13  F4  UNL     1     -20.054   0.112 -21.473  1.00  0.00    -0.166 F 
ENDBRANCH   7  10
ENDBRANCH   5   7
ENDBRANCH   1   5
BRANCH   1  14
HETATM   14  C4  UNL     1     -20.889  -0.355 -26.281  1.00  0.00     0.053 A 
HETATM   15  C5  UNL     1     -21.737  -1.125 -27.040  1.00  0.00     0.030 A 
HETATM   16  C6  UNL     1     -21.947  -0.891 -28.388  1.00  0.00     0.021 A 
HETATM   17  C7  UNL     1     -21.252   0.169 -28.938  1.00  0.00     0.107 A 
HETATM   18  N2  UNL     1     -20.436   0.890 -28.160  1.00  0.00    -0.312 N 
HETATM   19  N3  UNL     1     -20.244   0.654 -26.866  1.00  0.00    -0.303 N 
ATOM     20  H2  UNL     1     -19.931   1.667 -28.586  1.00  0.00     0.186 HD
ATOM     21  H3  UNL     1     -19.607   1.240 -26.325  1.00  0.00     0.186 HD
ENDBRANCH   1  14
TORSDOF 4
ENDMDL
