MODEL 1
REMARK VINA RESULT: -7.380746790      0.000      0.000
REMARK  4 active torsions:
REMARK  status: ('A' for Active; 'I' for Inactive)
REMARK    1  A    between atoms: C2_2  and  C3_3 
REMARK    2  A    between atoms: N1_6  and  C5_7 
REMARK    3  A    between atoms: C11_13  and  O2_14 
REMARK    4  A    between atoms: C11_13  and  C12_16 
ROOT
HETATM    1  C3  UNL     1     -22.259   1.540 -23.174  1.00  0.00     0.101 C 
HETATM    2  C4  UNL     1     -20.887   2.191 -23.383  1.00  0.00     0.215 C 
HETATM    3  O1  UNL     1     -20.082   1.193 -23.800  1.00  0.00    -0.274 OA
HETATM    4  N1  UNL     1     -20.799   0.046 -24.030  1.00  0.00    -0.213 N 
HETATM    5  C11 UNL     1     -21.941   0.065 -23.170  1.00  0.00     0.265 C 
ENDROOT
BRANCH   4   6
HETATM    6  C5  UNL     1     -20.380  -0.921 -24.988  1.00  0.00     0.061 A 
HETATM    7  C6  UNL     1     -19.691  -2.055 -24.664  1.00  0.00     0.032 A 
HETATM    8  C7  UNL     1     -19.321  -2.959 -25.645  1.00  0.00     0.002 A 
HETATM    9  C8  UNL     1     -19.612  -2.787 -26.978  1.00  0.00     0.000 A 
HETATM   10  C9  UNL     1     -20.307  -1.647 -27.320  1.00  0.00     0.002 A 
HETATM   11  C10 UNL     1     -20.673  -0.751 -26.345  1.00  0.00     0.032 A 
ENDBRANCH   4   6
BRANCH   5  12
HETATM   12  O2  UNL     1     -23.035  -0.648 -23.557  1.00  0.00    -0.361 OA
ATOM     13  H2  UNL     1     -22.771  -1.509 -23.857  1.00  0.00     0.213 HD
ENDBRANCH   5  12
BRANCH   5  14
HETATM   14  C12 UNL     1     -21.568  -0.288 -21.730  1.00  0.00     0.440 C 
HETATM   15  F1  UNL     1     -20.231  -0.583 -21.606  1.00  0.00    -0.166 F 
HETATM   16  F2  UNL     1     -22.265  -1.437 -21.425  1.00  0.00    -0.166 F 
HETATM   17  F3  UNL     1     -21.917   0.723 -20.905  1.00  0.00    -0.166 F 
ENDBRANCH   5  14
BRANCH   1  18
HETATM   18  C2  UNL     1     -23.149   2.041 -24.214  1.00  0.00    -0.025 C 
HETATM   19  C1  UNL     1     -22.943   2.485 -25.412  1.00  0.00     0.007 C 
ENDBRANCH   1  18
TORSDOF 4
ENDMDL
MODEL 2
REMARK VINA RESULT: -7.378149572      1.366      4.039
REMARK  4 active torsions:
REMARK  status: ('A' for Active; 'I' for Inactive)
REMARK    1  A    between atoms: C2_2  and  C3_3 
REMARK    2  A    between atoms: N1_6  and  C5_7 
REMARK    3  A    between atoms: C11_13  and  O2_14 
REMARK    4  A    between atoms: C11_13  and  C12_16 
ROOT
HETATM    1  C3  UNL     1     -20.320  -1.517 -23.099  1.00  0.00     0.101 C 
HETATM    2  C4  UNL     1     -21.690  -2.172 -23.308  1.00  0.00     0.215 C 
HETATM    3  O1  UNL     1     -22.493  -1.179 -23.740  1.00  0.00    -0.274 OA
HETATM    4  N1  UNL     1     -21.776  -0.034 -23.977  1.00  0.00    -0.213 N 
HETATM    5  C11 UNL     1     -20.639  -0.043 -23.111  1.00  0.00     0.265 C 
ENDROOT
BRANCH   4   6
HETATM    6  C5  UNL     1     -22.191   0.923 -24.948  1.00  0.00     0.061 A 
HETATM    7  C6  UNL     1     -22.878   2.063 -24.638  1.00  0.00     0.032 A 
HETATM    8  C7  UNL     1     -23.244   2.957 -25.630  1.00  0.00     0.002 A 
HETATM    9  C8  UNL     1     -22.950   2.769 -26.960  1.00  0.00     0.000 A 
HETATM   10  C9  UNL     1     -22.258   1.624 -27.287  1.00  0.00     0.002 A 
HETATM   11  C10 UNL     1     -21.896   0.738 -26.301  1.00  0.00     0.032 A 
ENDBRANCH   4   6
BRANCH   5  12
HETATM   12  O2  UNL     1     -19.544   0.667 -23.499  1.00  0.00    -0.361 OA
ATOM     13  H2  UNL     1     -19.808   1.524 -23.811  1.00  0.00     0.213 HD
ENDBRANCH   5  12
BRANCH   5  14
HETATM   14  C12 UNL     1     -21.021   0.324 -21.676  1.00  0.00     0.440 C 
HETATM   15  F1  UNL     1     -22.372   0.543 -21.547  1.00  0.00    -0.166 F 
HETATM   16  F2  UNL     1     -20.390   1.518 -21.406  1.00  0.00    -0.166 F 
HETATM   17  F3  UNL     1     -20.606  -0.644 -20.830  1.00  0.00    -0.166 F 
ENDBRANCH   5  14
BRANCH   1  18
HETATM   18  C2  UNL     1     -19.424  -2.028 -24.129  1.00  0.00    -0.025 C 
HETATM   19  C1  UNL     1     -19.620  -2.462 -25.331  1.00  0.00     0.007 C 
ENDBRANCH   1  18
TORSDOF 4
ENDMDL
MODEL 3
REMARK VINA RESULT: -6.977883784      1.902      3.370
REMARK  4 active torsions:
REMARK  status: ('A' for Active; 'I' for Inactive)
REMARK    1  A    between atoms: C2_2  and  C3_3 
REMARK    2  A    between atoms: N1_6  and  C5_7 
REMARK    3  A    between atoms: C11_13  and  O2_14 
REMARK    4  A    between atoms: C11_13  and  C12_16 
ROOT
HETATM    1  C3  UNL     1     -21.507  -0.055 -22.344  1.00  0.00     0.101 C 
HETATM    2  C4  UNL     1     -22.939  -0.290 -22.839  1.00  0.00     0.215 C 
HETATM    3  O1  UNL     1     -22.942   0.128 -24.121  1.00  0.00    -0.274 OA
HETATM    4  N1  UNL     1     -21.675   0.445 -24.539  1.00  0.00    -0.213 N 
HETATM    5  C11 UNL     1     -20.929   0.862 -23.393  1.00  0.00     0.265 C 
ENDROOT
BRANCH   4   6
HETATM    6  C5  UNL     1     -21.286   0.333 -25.904  1.00  0.00     0.061 A 
HETATM    7  C6  UNL     1     -20.706  -0.784 -26.435  1.00  0.00     0.032 A 
HETATM    8  C7  UNL     1     -20.361  -0.830 -27.775  1.00  0.00     0.002 A 
HETATM    9  C8  UNL     1     -20.569   0.215 -28.644  1.00  0.00     0.000 A 
HETATM   10  C9  UNL     1     -21.152   1.349 -28.123  1.00  0.00     0.002 A 
HETATM   11  C10 UNL     1     -21.495   1.392 -26.792  1.00  0.00     0.032 A 
ENDBRANCH   4   6
BRANCH   5  12
HETATM   12  O2  UNL     1     -19.575   0.724 -23.436  1.00  0.00    -0.361 OA
ATOM     13  H2  UNL     1     -19.205   1.347 -24.050  1.00  0.00     0.213 HD
ENDBRANCH   5  12
BRANCH   5  14
HETATM   14  C12 UNL     1     -21.297   2.285 -22.968  1.00  0.00     0.440 C 
HETATM   15  F1  UNL     1     -22.270   2.824 -23.776  1.00  0.00    -0.166 F 
HETATM   16  F2  UNL     1     -20.160   3.042 -23.144  1.00  0.00    -0.166 F 
HETATM   17  F3  UNL     1     -21.686   2.290 -21.675  1.00  0.00    -0.166 F 
ENDBRANCH   5  14
BRANCH   1  18
HETATM   18  C2  UNL     1     -20.883  -1.359 -22.161  1.00  0.00    -0.025 C 
HETATM   19  C1  UNL     1     -21.108  -2.524 -22.677  1.00  0.00     0.007 C 
ENDBRANCH   1  18
TORSDOF 4
ENDMDL
MODEL 4
REMARK VINA RESULT: -6.946260585      1.892      3.503
REMARK  4 active torsions:
REMARK  status: ('A' for Active; 'I' for Inactive)
REMARK    1  A    between atoms: C2_2  and  C3_3 
REMARK    2  A    between atoms: N1_6  and  C5_7 
REMARK    3  A    between atoms: C11_13  and  O2_14 
REMARK    4  A    between atoms: C11_13  and  C12_16 
ROOT
HETATM    1  C3  UNL     1     -21.465  -0.058 -22.351  1.00  0.00     0.101 C 
HETATM    2  C4  UNL     1     -22.908  -0.299 -22.811  1.00  0.00     0.215 C 
HETATM    3  O1  UNL     1     -22.951   0.140 -24.085  1.00  0.00    -0.274 OA
HETATM    4  N1  UNL     1     -21.698   0.476 -24.532  1.00  0.00    -0.213 N 
HETATM    5  C11 UNL     1     -20.925   0.881 -23.400  1.00  0.00     0.265 C 
ENDROOT
BRANCH   4   6
HETATM    6  C5  UNL     1     -21.346   0.390 -25.909  1.00  0.00     0.061 A 
HETATM    7  C6  UNL     1     -21.546   1.403 -26.804  1.00  0.00     0.032 A 
HETATM    8  C7  UNL     1     -21.171   1.257 -28.129  1.00  0.00     0.002 A 
HETATM    9  C8  UNL     1     -20.587   0.116 -28.626  1.00  0.00     0.000 A 
HETATM   10  C9  UNL     1     -20.379  -0.914 -27.735  1.00  0.00     0.002 A 
HETATM   11  C10 UNL     1     -20.751  -0.767 -26.421  1.00  0.00     0.032 A 
ENDBRANCH   4   6
BRANCH   5  12
HETATM   12  O2  UNL     1     -19.571   0.757 -23.482  1.00  0.00    -0.361 OA
ATOM     13  H2  UNL     1     -19.216   1.440 -24.038  1.00  0.00     0.213 HD
ENDBRANCH   5  12
BRANCH   5  14
HETATM   14  C12 UNL     1     -21.294   2.293 -22.942  1.00  0.00     0.440 C 
HETATM   15  F1  UNL     1     -22.283   2.842 -23.723  1.00  0.00    -0.166 F 
HETATM   16  F2  UNL     1     -20.164   3.061 -23.122  1.00  0.00    -0.166 F 
HETATM   17  F3  UNL     1     -21.662   2.271 -21.643  1.00  0.00    -0.166 F 
ENDBRANCH   5  14
BRANCH   1  18
HETATM   18  C2  UNL     1     -20.824  -1.359 -22.207  1.00  0.00    -0.025 C 
HETATM   19  C1  UNL     1     -21.110  -2.537 -22.659  1.00  0.00     0.007 C 
ENDBRANCH   1  18
TORSDOF 4
ENDMDL
MODEL 5
REMARK VINA RESULT: -6.890110751      1.738      2.728
REMARK  4 active torsions:
REMARK  status: ('A' for Active; 'I' for Inactive)
REMARK    1  A    between atoms: C2_2  and  C3_3 
REMARK    2  A    between atoms: N1_6  and  C5_7 
REMARK    3  A    between atoms: C11_13  and  O2_14 
REMARK    4  A    between atoms: C11_13  and  C12_16 
ROOT
HETATM    1  C3  UNL     1     -21.114   0.033 -22.396  1.00  0.00     0.101 C 
HETATM    2  C4  UNL     1     -19.654   0.285 -22.792  1.00  0.00     0.215 C 
HETATM    3  O1  UNL     1     -19.562  -0.118 -24.075  1.00  0.00    -0.274 OA
HETATM    4  N1  UNL     1     -20.796  -0.439 -24.580  1.00  0.00    -0.213 N 
HETATM    5  C11 UNL     1     -21.614  -0.875 -23.492  1.00  0.00     0.265 C 
ENDROOT
BRANCH   4   6
HETATM    6  C5  UNL     1     -21.094  -0.315 -25.968  1.00  0.00     0.061 A 
HETATM    7  C6  UNL     1     -21.316   0.883 -26.588  1.00  0.00     0.032 A 
HETATM    8  C7  UNL     1     -21.591   0.934 -27.943  1.00  0.00     0.002 A 
HETATM    9  C8  UNL     1     -21.660  -0.184 -28.742  1.00  0.00     0.000 A 
HETATM   10  C9  UNL     1     -21.440  -1.398 -28.130  1.00  0.00     0.002 A 
HETATM   11  C10 UNL     1     -21.166  -1.447 -26.785  1.00  0.00     0.032 A 
ENDBRANCH   4   6
BRANCH   5  12
HETATM   12  O2  UNL     1     -22.963  -0.746 -23.624  1.00  0.00    -0.361 OA
ATOM     13  H2  UNL     1     -23.387  -1.579 -23.451  1.00  0.00     0.213 HD
ENDBRANCH   5  12
BRANCH   5  14
HETATM   14  C12 UNL     1     -21.263  -2.300 -23.059  1.00  0.00     0.440 C 
HETATM   15  F1  UNL     1     -22.364  -3.123 -23.072  1.00  0.00    -0.166 F 
HETATM   16  F2  UNL     1     -20.841  -2.209 -21.751  1.00  0.00    -0.166 F 
HETATM   17  F3  UNL     1     -20.284  -2.790 -23.850  1.00  0.00    -0.166 F 
ENDBRANCH   5  14
BRANCH   1  18
HETATM   18  C2  UNL     1     -21.760   1.331 -22.241  1.00  0.00    -0.025 C 
HETATM   19  C1  UNL     1     -21.499   2.507 -22.712  1.00  0.00     0.007 C 
ENDBRANCH   1  18
TORSDOF 4
ENDMDL
