MODEL 1
REMARK VINA RESULT: -8.110315234      0.000      0.000
REMARK  11 active torsions:
REMARK  status: ('A' for Active; 'I' for Inactive)
REMARK    1  A    between atoms: S1_2  and  C2_5 
REMARK    2  A    between atoms: C2_5  and  C3_6 
REMARK    3  A    between atoms: C3_6  and  O3_7 
REMARK    4  A    between atoms: C3_6  and  C4_9 
REMARK    5  A    between atoms: C4_9  and  N1_10 
REMARK    6  A    between atoms: N1_10  and  C5_12 
REMARK    7  A    between atoms: C8_15  and  C9_16 
REMARK    8  A    between atoms: C9_16  and  N2_17 
REMARK    9  A    between atoms: N2_17  and  C10_19 
REMARK   10  A    between atoms: C10_19  and  C11_20 
REMARK   11  A    between atoms: C11_20  and  C12_21 
ROOT
HETATM    1  C5  UNL     1      38.474  13.697  23.456  1.00  0.00     0.028 A 
HETATM    2  C6  UNL     1      39.148  12.686  22.812  1.00  0.00     0.029 A 
HETATM    3  C7  UNL     1      39.874  12.898  21.659  1.00  0.00     0.011 A 
HETATM    4  C8  UNL     1      39.963  14.158  21.080  1.00  0.00    -0.041 A 
HETATM    5  C15 UNL     1      39.289  15.176  21.722  1.00  0.00     0.011 A 
HETATM    6  C16 UNL     1      38.564  14.965  22.874  1.00  0.00     0.029 A 
ENDROOT
BRANCH   4   7
HETATM    7  C9  UNL     1      40.745  14.396  19.840  1.00  0.00     0.152 C 
BRANCH   7   8
HETATM    8  N2  UNL     1      41.650  13.299  19.691  1.00  0.00    -0.417 N 
ATOM      9  H2  UNL     1      41.323  12.360  19.465  1.00  0.00     0.153 HD
BRANCH   8  10
HETATM   10  C10 UNL     1      43.029  13.590  19.875  1.00  0.00     0.120 C 
BRANCH  10  11
HETATM   11  C11 UNL     1      43.573  13.169  21.211  1.00  0.00     0.077 C 
BRANCH  11  12
HETATM   12  C12 UNL     1      43.521  11.694  21.256  1.00  0.00     0.027 A 
HETATM   13  C13 UNL     1      43.025  10.929  22.285  1.00  0.00     0.114 A 
HETATM   14  N3  UNL     1      43.137   9.620  21.981  1.00  0.00    -0.360 N 
HETATM   15  C14 UNL     1      43.701   9.574  20.767  1.00  0.00     0.180 A 
ATOM     16  H3  UNL     1      42.851   8.828  22.556  1.00  0.00     0.166 HD
HETATM   17  N4  UNL     1      43.939  10.841  20.316  1.00  0.00    -0.355 N 
ATOM     18  H4  UNL     1      44.360  11.091  19.421  1.00  0.00     0.166 HD
ENDBRANCH  11  12
ENDBRANCH  10  11
ENDBRANCH   8  10
ENDBRANCH   7   8
ENDBRANCH   4   7
BRANCH   1  19
HETATM   19  N1  UNL     1      37.730  13.538  24.638  1.00  0.00    -0.387 N 
ATOM     20  H1  UNL     1      38.080  13.986  25.485  1.00  0.00     0.159 HD
BRANCH  19  21
HETATM   21  C4  UNL     1      36.515  12.790  24.734  1.00  0.00     0.152 C 
BRANCH  21  22
HETATM   22  C3  UNL     1      35.593  13.441  25.712  1.00  0.00     0.149 C 
BRANCH  22  23
HETATM   23  C2  UNL     1      34.773  14.571  25.148  1.00  0.00     0.173 C 
BRANCH  23  24
HETATM   24  S1  UNL     1      35.260  16.169  25.696  1.00  0.00     0.143 S 
HETATM   25  C1  UNL     1      34.361  17.368  24.698  1.00  0.00     0.161 C 
HETATM   26  O1  UNL     1      34.868  16.379  27.140  1.00  0.00    -0.228 OA
HETATM   27  O2  UNL     1      36.727  16.387  25.501  1.00  0.00    -0.228 OA
ENDBRANCH  23  24
ENDBRANCH  22  23
BRANCH  22  28
HETATM   28  O3  UNL     1      36.260  13.794  26.893  1.00  0.00    -0.393 OA
ATOM     29  H3  UNL     1      35.763  14.402  27.428  1.00  0.00     0.210 HD
ENDBRANCH  22  28
ENDBRANCH  21  22
ENDBRANCH  19  21
ENDBRANCH   1  19
TORSDOF 11
ENDMDL
MODEL 2
REMARK VINA RESULT: -7.984921448      4.480      8.571
REMARK  11 active torsions:
REMARK  status: ('A' for Active; 'I' for Inactive)
REMARK    1  A    between atoms: S1_2  and  C2_5 
REMARK    2  A    between atoms: C2_5  and  C3_6 
REMARK    3  A    between atoms: C3_6  and  O3_7 
REMARK    4  A    between atoms: C3_6  and  C4_9 
REMARK    5  A    between atoms: C4_9  and  N1_10 
REMARK    6  A    between atoms: N1_10  and  C5_12 
REMARK    7  A    between atoms: C8_15  and  C9_16 
REMARK    8  A    between atoms: C9_16  and  N2_17 
REMARK    9  A    between atoms: N2_17  and  C10_19 
REMARK   10  A    between atoms: C10_19  and  C11_20 
REMARK   11  A    between atoms: C11_20  and  C12_21 
ROOT
HETATM    1  C5  UNL     1      38.273  12.910  22.433  1.00  0.00     0.028 A 
HETATM    2  C6  UNL     1      37.416  11.989  22.989  1.00  0.00     0.029 A 
HETATM    3  C7  UNL     1      36.695  12.248  24.136  1.00  0.00     0.011 A 
HETATM    4  C8  UNL     1      36.799  13.465  24.798  1.00  0.00    -0.041 A 
HETATM    5  C15 UNL     1      37.657  14.392  24.245  1.00  0.00     0.011 A 
HETATM    6  C16 UNL     1      38.377  14.135  23.100  1.00  0.00     0.029 A 
ENDROOT
BRANCH   4   7
HETATM    7  C9  UNL     1      36.025  13.753  26.032  1.00  0.00     0.152 C 
BRANCH   7   8
HETATM    8  N2  UNL     1      36.079  15.165  26.248  1.00  0.00    -0.417 N 
ATOM      9  H2  UNL     1      36.924  15.626  26.584  1.00  0.00     0.153 HD
BRANCH   8  10
HETATM   10  C10 UNL     1      34.889  15.891  25.969  1.00  0.00     0.120 C 
BRANCH  10  11
HETATM   11  C11 UNL     1      35.097  17.371  25.805  1.00  0.00     0.077 C 
BRANCH  11  12
HETATM   12  C12 UNL     1      35.909  17.563  24.587  1.00  0.00     0.027 A 
HETATM   13  C13 UNL     1      35.510  17.312  23.295  1.00  0.00     0.114 A 
HETATM   14  N3  UNL     1      36.510  17.604  22.440  1.00  0.00    -0.360 N 
HETATM   15  C14 UNL     1      37.525  18.036  23.198  1.00  0.00     0.180 A 
ATOM     16  H3  UNL     1      36.496  17.516  21.424  1.00  0.00     0.166 HD
HETATM   17  N4  UNL     1      37.165  18.014  24.516  1.00  0.00    -0.355 N 
ATOM     18  H4  UNL     1      37.750  18.293  25.303  1.00  0.00     0.166 HD
ENDBRANCH  11  12
ENDBRANCH  10  11
ENDBRANCH   8  10
ENDBRANCH   7   8
ENDBRANCH   4   7
BRANCH   1  19
HETATM   19  N1  UNL     1      39.022  12.702  21.261  1.00  0.00    -0.387 N 
ATOM     20  H1  UNL     1      38.527  12.369  20.434  1.00  0.00     0.159 HD
BRANCH  19  21
HETATM   21  C4  UNL     1      40.429  12.926  21.151  1.00  0.00     0.152 C 
BRANCH  21  22
HETATM   22  C3  UNL     1      41.167  11.652  21.404  1.00  0.00     0.149 C 
BRANCH  22  23
HETATM   23  C2  UNL     1      42.655  11.733  21.188  1.00  0.00     0.173 C 
BRANCH  23  24
HETATM   24  S1  UNL     1      43.486  10.185  21.257  1.00  0.00     0.143 S 
HETATM   25  C1  UNL     1      43.917   9.739  19.568  1.00  0.00     0.161 C 
HETATM   26  O1  UNL     1      44.767  10.304  22.049  1.00  0.00    -0.228 OA
HETATM   27  O2  UNL     1      42.603   9.118  21.824  1.00  0.00    -0.228 OA
ENDBRANCH  23  24
ENDBRANCH  22  23
BRANCH  22  28
HETATM   28  O3  UNL     1      40.580  10.573  20.730  1.00  0.00    -0.393 OA
ATOM     29  H3  UNL     1      39.987  10.850  20.041  1.00  0.00     0.210 HD
ENDBRANCH  22  28
ENDBRANCH  21  22
ENDBRANCH  19  21
ENDBRANCH   1  19
TORSDOF 11
ENDMDL
MODEL 3
REMARK VINA RESULT: -7.906568706      1.241      1.681
REMARK  11 active torsions:
REMARK  status: ('A' for Active; 'I' for Inactive)
REMARK    1  A    between atoms: S1_2  and  C2_5 
REMARK    2  A    between atoms: C2_5  and  C3_6 
REMARK    3  A    between atoms: C3_6  and  O3_7 
REMARK    4  A    between atoms: C3_6  and  C4_9 
REMARK    5  A    between atoms: C4_9  and  N1_10 
REMARK    6  A    between atoms: N1_10  and  C5_12 
REMARK    7  A    between atoms: C8_15  and  C9_16 
REMARK    8  A    between atoms: C9_16  and  N2_17 
REMARK    9  A    between atoms: N2_17  and  C10_19 
REMARK   10  A    between atoms: C10_19  and  C11_20 
REMARK   11  A    between atoms: C11_20  and  C12_21 
ROOT
HETATM    1  C5  UNL     1      38.161  14.243  23.007  1.00  0.00     0.028 A 
HETATM    2  C6  UNL     1      38.631  15.453  22.551  1.00  0.00     0.029 A 
HETATM    3  C7  UNL     1      39.798  15.568  21.825  1.00  0.00     0.011 A 
HETATM    4  C8  UNL     1      40.570  14.455  21.513  1.00  0.00    -0.041 A 
HETATM    5  C15 UNL     1      40.104  13.239  21.968  1.00  0.00     0.011 A 
HETATM    6  C16 UNL     1      38.939  13.123  22.693  1.00  0.00     0.029 A 
ENDROOT
BRANCH   4   7
HETATM    7  C9  UNL     1      41.827  14.570  20.731  1.00  0.00     0.152 C 
BRANCH   7   8
HETATM    8  N2  UNL     1      42.856  13.922  21.482  1.00  0.00    -0.417 N 
ATOM      9  H2  UNL     1      43.055  14.174  22.450  1.00  0.00     0.153 HD
BRANCH   8  10
HETATM   10  C10 UNL     1      43.585  12.905  20.807  1.00  0.00     0.120 C 
BRANCH  10  11
HETATM   11  C11 UNL     1      43.464  11.544  21.432  1.00  0.00     0.077 C 
BRANCH  11  12
HETATM   12  C12 UNL     1      42.833  10.661  20.431  1.00  0.00     0.027 A 
HETATM   13  C13 UNL     1      41.635  10.881  19.792  1.00  0.00     0.114 A 
HETATM   14  N3  UNL     1      41.374   9.867  18.943  1.00  0.00    -0.360 N 
HETATM   15  C14 UNL     1      42.405   9.021  19.055  1.00  0.00     0.180 A 
ATOM     16  H3  UNL     1      40.558   9.765  18.339  1.00  0.00     0.166 HD
HETATM   17  N4  UNL     1      43.305   9.500  19.964  1.00  0.00    -0.355 N 
ATOM     18  H4  UNL     1      44.179   9.053  20.238  1.00  0.00     0.166 HD
ENDBRANCH  11  12
ENDBRANCH  10  11
ENDBRANCH   8  10
ENDBRANCH   7   8
ENDBRANCH   4   7
BRANCH   1  19
HETATM   19  N1  UNL     1      36.975  14.068  23.740  1.00  0.00    -0.387 N 
ATOM     20  H1  UNL     1      36.189  14.682  23.525  1.00  0.00     0.159 HD
BRANCH  19  21
HETATM   21  C4  UNL     1      36.795  13.089  24.766  1.00  0.00     0.152 C 
BRANCH  21  22
HETATM   22  C3  UNL     1      35.768  13.560  25.742  1.00  0.00     0.149 C 
BRANCH  22  23
HETATM   23  C2  UNL     1      34.848  14.632  25.222  1.00  0.00     0.173 C 
BRANCH  23  24
HETATM   24  S1  UNL     1      35.235  16.256  25.774  1.00  0.00     0.143 S 
HETATM   25  C1  UNL     1      34.238  17.398  24.804  1.00  0.00     0.161 C 
HETATM   26  O1  UNL     1      34.858  16.427  27.228  1.00  0.00    -0.228 OA
HETATM   27  O2  UNL     1      36.680  16.575  25.554  1.00  0.00    -0.228 OA
ENDBRANCH  23  24
ENDBRANCH  22  23
BRANCH  22  28
HETATM   28  O3  UNL     1      36.344  13.893  26.976  1.00  0.00    -0.393 OA
ATOM     29  H3  UNL     1      36.138  13.265  27.658  1.00  0.00     0.210 HD
ENDBRANCH  22  28
ENDBRANCH  21  22
ENDBRANCH  19  21
ENDBRANCH   1  19
TORSDOF 11
ENDMDL
MODEL 4
REMARK VINA RESULT: -7.905823076      4.611      8.909
REMARK  11 active torsions:
REMARK  status: ('A' for Active; 'I' for Inactive)
REMARK    1  A    between atoms: S1_2  and  C2_5 
REMARK    2  A    between atoms: C2_5  and  C3_6 
REMARK    3  A    between atoms: C3_6  and  O3_7 
REMARK    4  A    between atoms: C3_6  and  C4_9 
REMARK    5  A    between atoms: C4_9  and  N1_10 
REMARK    6  A    between atoms: N1_10  and  C5_12 
REMARK    7  A    between atoms: C8_15  and  C9_16 
REMARK    8  A    between atoms: C9_16  and  N2_17 
REMARK    9  A    between atoms: N2_17  and  C10_19 
REMARK   10  A    between atoms: C10_19  and  C11_20 
REMARK   11  A    between atoms: C11_20  and  C12_21 
ROOT
HETATM    1  C5  UNL     1      40.349  12.926  21.650  1.00  0.00     0.028 A 
HETATM    2  C6  UNL     1      39.528  11.965  22.194  1.00  0.00     0.029 A 
HETATM    3  C7  UNL     1      38.294  12.264  22.731  1.00  0.00     0.011 A 
HETATM    4  C8  UNL     1      37.809  13.566  22.753  1.00  0.00    -0.041 A 
HETATM    5  C15 UNL     1      38.627  14.534  22.209  1.00  0.00     0.011 A 
HETATM    6  C16 UNL     1      39.860  14.236  21.672  1.00  0.00     0.029 A 
ENDROOT
BRANCH   4   7
HETATM    7  C9  UNL     1      36.480  13.896  23.328  1.00  0.00     0.152 C 
BRANCH   7   8
HETATM    8  N2  UNL     1      36.177  12.892  24.300  1.00  0.00    -0.417 N 
ATOM      9  H2  UNL     1      36.390  11.908  24.141  1.00  0.00     0.153 HD
BRANCH   8  10
HETATM   10  C10 UNL     1      35.561  13.341  25.500  1.00  0.00     0.120 C 
BRANCH  10  11
HETATM   11  C11 UNL     1      36.306  14.445  26.197  1.00  0.00     0.077 C 
BRANCH  11  12
HETATM   12  C12 UNL     1      35.576  15.700  25.927  1.00  0.00     0.027 A 
HETATM   13  C13 UNL     1      36.132  16.898  25.544  1.00  0.00     0.114 A 
HETATM   14  N3  UNL     1      35.165  17.824  25.386  1.00  0.00    -0.360 N 
HETATM   15  C14 UNL     1      34.014  17.203  25.670  1.00  0.00     0.180 A 
ATOM     16  H3  UNL     1      35.286  18.798  25.107  1.00  0.00     0.166 HD
HETATM   17  N4  UNL     1      34.256  15.900  26.002  1.00  0.00    -0.355 N 
ATOM     18  H4  UNL     1      33.556  15.205  26.261  1.00  0.00     0.166 HD
ENDBRANCH  11  12
ENDBRANCH  10  11
ENDBRANCH   8  10
ENDBRANCH   7   8
ENDBRANCH   4   7
BRANCH   1  19
HETATM   19  N1  UNL     1      41.609  12.674  21.080  1.00  0.00    -0.387 N 
ATOM     20  H1  UNL     1      41.647  12.073  20.257  1.00  0.00     0.159 HD
BRANCH  19  21
HETATM   21  C4  UNL     1      42.840  13.203  21.576  1.00  0.00     0.152 C 
BRANCH  21  22
HETATM   22  C3  UNL     1      43.972  12.315  21.177  1.00  0.00     0.149 C 
BRANCH  22  23
HETATM   23  C2  UNL     1      43.639  11.314  20.103  1.00  0.00     0.173 C 
BRANCH  23  24
HETATM   24  S1  UNL     1      43.399   9.673  20.685  1.00  0.00     0.143 S 
HETATM   25  C1  UNL     1      42.703   8.723  19.324  1.00  0.00     0.161 C 
HETATM   26  O1  UNL     1      44.720   9.044  21.064  1.00  0.00    -0.228 OA
HETATM   27  O2  UNL     1      42.440   9.638  21.833  1.00  0.00    -0.228 OA
ENDBRANCH  23  24
ENDBRANCH  22  23
BRANCH  22  28
HETATM   28  O3  UNL     1      44.585  11.728  22.292  1.00  0.00    -0.393 OA
ATOM     29  H3  UNL     1      44.246  12.061  23.115  1.00  0.00     0.210 HD
ENDBRANCH  22  28
ENDBRANCH  21  22
ENDBRANCH  19  21
ENDBRANCH   1  19
TORSDOF 11
ENDMDL
MODEL 5
REMARK VINA RESULT: -7.885816958      4.400      8.527
REMARK  11 active torsions:
REMARK  status: ('A' for Active; 'I' for Inactive)
REMARK    1  A    between atoms: S1_2  and  C2_5 
REMARK    2  A    between atoms: C2_5  and  C3_6 
REMARK    3  A    between atoms: C3_6  and  O3_7 
REMARK    4  A    between atoms: C3_6  and  C4_9 
REMARK    5  A    between atoms: C4_9  and  N1_10 
REMARK    6  A    between atoms: N1_10  and  C5_12 
REMARK    7  A    between atoms: C8_15  and  C9_16 
REMARK    8  A    between atoms: C9_16  and  N2_17 
REMARK    9  A    between atoms: N2_17  and  C10_19 
REMARK   10  A    between atoms: C10_19  and  C11_20 
REMARK   11  A    between atoms: C11_20  and  C12_21 
ROOT
HETATM    1  C5  UNL     1      38.559  12.907  22.332  1.00  0.00     0.028 A 
HETATM    2  C6  UNL     1      38.587  14.090  23.033  1.00  0.00     0.029 A 
HETATM    3  C7  UNL     1      37.785  14.318  24.131  1.00  0.00     0.011 A 
HETATM    4  C8  UNL     1      36.895  13.354  24.592  1.00  0.00    -0.041 A 
HETATM    5  C15 UNL     1      36.863  12.166  23.892  1.00  0.00     0.011 A 
HETATM    6  C16 UNL     1      37.664  11.937  22.796  1.00  0.00     0.029 A 
ENDROOT
BRANCH   4   7
HETATM    7  C9  UNL     1      36.029  13.591  25.775  1.00  0.00     0.152 C 
BRANCH   7   8
HETATM    8  N2  UNL     1      36.144  14.975  26.115  1.00  0.00    -0.417 N 
ATOM      9  H2  UNL     1      37.021  15.377  26.445  1.00  0.00     0.153 HD
BRANCH   8  10
HETATM   10  C10 UNL     1      34.968  15.760  25.967  1.00  0.00     0.120 C 
BRANCH  10  11
HETATM   11  C11 UNL     1      35.226  17.236  25.850  1.00  0.00     0.077 C 
BRANCH  11  12
HETATM   12  C12 UNL     1      35.985  17.447  24.600  1.00  0.00     0.027 A 
HETATM   13  C13 UNL     1      35.549  17.165  23.327  1.00  0.00     0.114 A 
HETATM   14  N3  UNL     1      36.504  17.488  22.432  1.00  0.00    -0.360 N 
HETATM   15  C14 UNL     1      37.529  17.968  23.148  1.00  0.00     0.180 A 
ATOM     16  H3  UNL     1      36.456  17.387  21.418  1.00  0.00     0.166 HD
HETATM   17  N4  UNL     1      37.218  17.947  24.478  1.00  0.00    -0.355 N 
ATOM     18  H4  UNL     1      37.820  18.258  25.241  1.00  0.00     0.166 HD
ENDBRANCH  11  12
ENDBRANCH  10  11
ENDBRANCH   8  10
ENDBRANCH   7   8
ENDBRANCH   4   7
BRANCH   1  19
HETATM   19  N1  UNL     1      39.362  12.618  21.215  1.00  0.00    -0.387 N 
ATOM     20  H1  UNL     1      38.979  12.000  20.500  1.00  0.00     0.159 HD
BRANCH  19  21
HETATM   21  C4  UNL     1      40.680  13.134  21.012  1.00  0.00     0.152 C 
BRANCH  21  22
HETATM   22  C3  UNL     1      41.497  12.151  20.239  1.00  0.00     0.149 C 
BRANCH  22  23
HETATM   23  C2  UNL     1      42.952  12.102  20.622  1.00  0.00     0.173 C 
BRANCH  23  24
HETATM   24  S1  UNL     1      43.382  10.769  21.684  1.00  0.00     0.143 S 
HETATM   25  C1  UNL     1      44.232   9.542  20.679  1.00  0.00     0.161 C 
HETATM   26  O1  UNL     1      44.337  11.232  22.760  1.00  0.00    -0.228 OA
HETATM   27  O2  UNL     1      42.165  10.137  22.284  1.00  0.00    -0.228 OA
ENDBRANCH  23  24
ENDBRANCH  22  23
BRANCH  22  28
HETATM   28  O3  UNL     1      41.305  12.294  18.858  1.00  0.00    -0.393 OA
ATOM     29  H3  UNL     1      40.768  11.604  18.489  1.00  0.00     0.210 HD
ENDBRANCH  22  28
ENDBRANCH  21  22
ENDBRANCH  19  21
ENDBRANCH   1  19
TORSDOF 11
ENDMDL
