MODEL 1
REMARK VINA RESULT: -7.649856723      0.000      0.000
REMARK  11 active torsions:
REMARK  status: ('A' for Active; 'I' for Inactive)
REMARK    1  A    between atoms: O1_2  and  C2_3 
REMARK    2  A    between atoms: C2_3  and  C3_4 
REMARK    3  A    between atoms: C3_4  and  C4_5 
REMARK    4  A    between atoms: C3_4  and  O2_9 
REMARK    5  A    between atoms: C4_5  and  C5_6 
REMARK    6  A    between atoms: O2_9  and  C8_10 
REMARK       I    between atoms: C8_10  and  N1_12 
REMARK    7  A    between atoms: N1_12  and  C9_14 
REMARK    8  A    between atoms: C9_14  and  C10_15 
REMARK    9  A    between atoms: C9_14  and  C11_17 
REMARK   10  A    between atoms: C11_17  and  N2_18 
REMARK       I    between atoms: N2_18  and  C12_20 
REMARK   11  A    between atoms: C12_20  and  C13_22 
ROOT
HETATM    1  C9  UNL     1      43.045  15.894  20.262  1.00  0.00     0.166 C 
ENDROOT
BRANCH   1   2
HETATM    2  N1  UNL     1      41.772  15.948  20.933  1.00  0.00    -0.324 N 
HETATM    3  C8  UNL     1      40.614  15.326  20.426  1.00  0.00     0.361 C 
HETATM    4  O3  UNL     1      40.713  14.704  19.346  1.00  0.00    -0.238 OA
ATOM      5  H1  UNL     1      41.706  16.458  21.814  1.00  0.00     0.165 HD
BRANCH   3   6
HETATM    6  O2  UNL     1      39.385  15.355  21.034  1.00  0.00    -0.296 OA
BRANCH   6   7
HETATM    7  C3  UNL     1      39.160  15.363  22.430  1.00  0.00     0.157 C 
BRANCH   7   8
HETATM    8  C2  UNL     1      38.438  16.623  22.756  1.00  0.00     0.199 C 
BRANCH   8   9
HETATM    9  O1  UNL     1      37.442  16.605  23.656  1.00  0.00    -0.393 OA
HETATM   10  C1  UNL     1      37.017  17.682  24.328  1.00  0.00     0.201 C 
ENDBRANCH   8   9
ENDBRANCH   7   8
BRANCH   7  11
HETATM   11  C4  UNL     1      38.725  14.103  23.028  1.00  0.00     0.038 C 
BRANCH  11  12
HETATM   12  C5  UNL     1      38.711  12.847  22.281  1.00  0.00    -0.020 C 
HETATM   13  C6  UNL     1      37.521  12.021  22.830  1.00  0.00     0.009 C 
HETATM   14  C7  UNL     1      39.867  11.943  22.263  1.00  0.00     0.009 C 
ENDBRANCH  11  12
ENDBRANCH   7  11
ENDBRANCH   6   7
ENDBRANCH   3   6
ENDBRANCH   1   2
BRANCH   1  15
HETATM   15  C10 UNL     1      43.770  17.180  20.450  1.00  0.00     0.258 C 
HETATM   16  O4  UNL     1      43.354  18.029  21.220  1.00  0.00    -0.305 OA
ENDBRANCH   1  15
BRANCH   1  17
HETATM   17  C11 UNL     1      43.886  14.780  20.801  1.00  0.00     0.155 C 
BRANCH  17  18
HETATM   18  N2  UNL     1      43.488  13.520  20.213  1.00  0.00    -0.353 N 
HETATM   19  C12 UNL     1      43.593  12.285  20.916  1.00  0.00     0.277 C 
HETATM   20  O5  UNL     1      44.042  12.257  22.088  1.00  0.00    -0.265 OA
ATOM     21  H2  UNL     1      43.120  13.515  19.262  1.00  0.00     0.162 HD
BRANCH  19  22
HETATM   22  C13 UNL     1      43.186  11.029  20.303  1.00  0.00     0.162 A 
HETATM   23  C14 UNL     1      43.869   9.823  20.358  1.00  0.00     0.134 A 
HETATM   24  N3  UNL     1      43.170   8.910  19.671  1.00  0.00    -0.329 N 
HETATM   25  C15 UNL     1      42.080   9.547  19.205  1.00  0.00     0.222 A 
ATOM     26  H3  UNL     1      43.414   7.930  19.530  1.00  0.00     0.168 HD
HETATM   27  N4  UNL     1      41.186   8.937  18.491  1.00  0.00    -0.365 N 
HETATM   28  O6  UNL     1      42.113  10.794  19.592  1.00  0.00    -0.273 OA
ATOM     29  H42 UNL     1      41.160   7.962  18.189  1.00  0.00     0.159 HD
ATOM     30  H41 UNL     1      40.361   9.420  18.137  1.00  0.00     0.159 HD
ENDBRANCH  19  22
ENDBRANCH  17  18
ENDBRANCH   1  17
TORSDOF 11
ENDMDL
MODEL 2
REMARK VINA RESULT: -7.436831277      3.484      5.497
REMARK  11 active torsions:
REMARK  status: ('A' for Active; 'I' for Inactive)
REMARK    1  A    between atoms: O1_2  and  C2_3 
REMARK    2  A    between atoms: C2_3  and  C3_4 
REMARK    3  A    between atoms: C3_4  and  C4_5 
REMARK    4  A    between atoms: C3_4  and  O2_9 
REMARK    5  A    between atoms: C4_5  and  C5_6 
REMARK    6  A    between atoms: O2_9  and  C8_10 
REMARK       I    between atoms: C8_10  and  N1_12 
REMARK    7  A    between atoms: N1_12  and  C9_14 
REMARK    8  A    between atoms: C9_14  and  C10_15 
REMARK    9  A    between atoms: C9_14  and  C11_17 
REMARK   10  A    between atoms: C11_17  and  N2_18 
REMARK       I    between atoms: N2_18  and  C12_20 
REMARK   11  A    between atoms: C12_20  and  C13_22 
ROOT
HETATM    1  C9  UNL     1      41.959  16.720  19.678  1.00  0.00     0.166 C 
ENDROOT
BRANCH   1   2
HETATM    2  N1  UNL     1      42.194  15.353  20.070  1.00  0.00    -0.324 N 
HETATM    3  C8  UNL     1      41.456  14.713  21.085  1.00  0.00     0.361 C 
HETATM    4  O3  UNL     1      40.563  15.372  21.659  1.00  0.00    -0.238 OA
ATOM      5  H1  UNL     1      42.926  14.827  19.593  1.00  0.00     0.165 HD
BRANCH   3   6
HETATM    6  O2  UNL     1      41.649  13.416  21.488  1.00  0.00    -0.296 OA
BRANCH   6   7
HETATM    7  C3  UNL     1      40.721  12.361  21.331  1.00  0.00     0.157 C 
BRANCH   7   8
HETATM    8  C2  UNL     1      41.420  11.259  20.616  1.00  0.00     0.199 C 
BRANCH   8   9
HETATM    9  O1  UNL     1      41.905  10.218  21.311  1.00  0.00    -0.393 OA
HETATM   10  C1  UNL     1      43.084   9.634  21.064  1.00  0.00     0.201 C 
ENDBRANCH   8   9
ENDBRANCH   7   8
BRANCH   7  11
HETATM   11  C4  UNL     1      39.877  12.057  22.484  1.00  0.00     0.038 C 
BRANCH  11  12
HETATM   12  C5  UNL     1      38.498  12.528  22.588  1.00  0.00    -0.020 C 
HETATM   13  C6  UNL     1      38.468  13.550  23.751  1.00  0.00     0.009 C 
HETATM   14  C7  UNL     1      37.379  11.607  22.820  1.00  0.00     0.009 C 
ENDBRANCH  11  12
ENDBRANCH   7  11
ENDBRANCH   6   7
ENDBRANCH   3   6
ENDBRANCH   1   2
BRANCH   1  15
HETATM   15  C10 UNL     1      43.224  17.497  19.777  1.00  0.00     0.258 C 
HETATM   16  O4  UNL     1      44.017  17.295  20.682  1.00  0.00    -0.305 OA
ENDBRANCH   1  15
BRANCH   1  17
HETATM   17  C11 UNL     1      41.456  16.791  18.271  1.00  0.00     0.155 C 
BRANCH  17  18
HETATM   18  N2  UNL     1      42.534  16.549  17.338  1.00  0.00    -0.353 N 
HETATM   19  C12 UNL     1      42.423  15.608  16.275  1.00  0.00     0.277 C 
HETATM   20  O5  UNL     1      41.366  14.950  16.115  1.00  0.00    -0.265 OA
ATOM     21  H2  UNL     1      43.404  17.070  17.445  1.00  0.00     0.162 HD
BRANCH  19  22
HETATM   22  C13 UNL     1      43.523  15.380  15.348  1.00  0.00     0.162 A 
HETATM   23  C14 UNL     1      44.156  16.334  14.565  1.00  0.00     0.134 A 
HETATM   24  N3  UNL     1      45.113  15.729  13.852  1.00  0.00    -0.329 N 
HETATM   25  C15 UNL     1      45.066  14.428  14.192  1.00  0.00     0.222 A 
ATOM     26  H3  UNL     1      45.750  16.165  13.185  1.00  0.00     0.168 HD
HETATM   27  N4  UNL     1      45.875  13.557  13.673  1.00  0.00    -0.365 N 
HETATM   28  O6  UNL     1      44.121  14.248  15.076  1.00  0.00    -0.273 OA
ATOM     29  H42 UNL     1      46.614  13.697  12.983  1.00  0.00     0.159 HD
ATOM     30  H41 UNL     1      45.839  12.571  13.931  1.00  0.00     0.159 HD
ENDBRANCH  19  22
ENDBRANCH  17  18
ENDBRANCH   1  17
TORSDOF 11
ENDMDL
MODEL 3
REMARK VINA RESULT: -7.364272368      2.779      6.176
REMARK  11 active torsions:
REMARK  status: ('A' for Active; 'I' for Inactive)
REMARK    1  A    between atoms: O1_2  and  C2_3 
REMARK    2  A    between atoms: C2_3  and  C3_4 
REMARK    3  A    between atoms: C3_4  and  C4_5 
REMARK    4  A    between atoms: C3_4  and  O2_9 
REMARK    5  A    between atoms: C4_5  and  C5_6 
REMARK    6  A    between atoms: O2_9  and  C8_10 
REMARK       I    between atoms: C8_10  and  N1_12 
REMARK    7  A    between atoms: N1_12  and  C9_14 
REMARK    8  A    between atoms: C9_14  and  C10_15 
REMARK    9  A    between atoms: C9_14  and  C11_17 
REMARK   10  A    between atoms: C11_17  and  N2_18 
REMARK       I    between atoms: N2_18  and  C12_20 
REMARK   11  A    between atoms: C12_20  and  C13_22 
ROOT
HETATM    1  C9  UNL     1      42.637  11.416  20.927  1.00  0.00     0.166 C 
ENDROOT
BRANCH   1   2
HETATM    2  N1  UNL     1      42.850  12.776  21.353  1.00  0.00    -0.324 N 
HETATM    3  C8  UNL     1      43.714  13.661  20.679  1.00  0.00     0.361 C 
HETATM    4  O3  UNL     1      44.314  13.233  19.670  1.00  0.00    -0.238 OA
ATOM      5  H1  UNL     1      42.353  13.113  22.179  1.00  0.00     0.165 HD
BRANCH   3   6
HETATM    6  O2  UNL     1      43.943  14.961  21.053  1.00  0.00    -0.296 OA
BRANCH   6   7
HETATM    7  C3  UNL     1      43.143  16.071  20.696  1.00  0.00     0.157 C 
BRANCH   7   8
HETATM    8  C2  UNL     1      44.060  17.215  20.440  1.00  0.00     0.199 C 
BRANCH   8   9
HETATM    9  O1  UNL     1      43.690  18.455  20.793  1.00  0.00    -0.393 OA
HETATM   10  C1  UNL     1      43.301  19.399  19.928  1.00  0.00     0.201 C 
ENDBRANCH   8   9
ENDBRANCH   7   8
BRANCH   7  11
HETATM   11  C4  UNL     1      42.035  15.810  19.780  1.00  0.00     0.038 C 
BRANCH  11  12
HETATM   12  C5  UNL     1      42.042  16.274  18.395  1.00  0.00    -0.020 C 
HETATM   13  C6  UNL     1      40.672  16.957  18.154  1.00  0.00     0.009 C 
HETATM   14  C7  UNL     1      42.248  15.355  17.270  1.00  0.00     0.009 C 
ENDBRANCH  11  12
ENDBRANCH   7  11
ENDBRANCH   6   7
ENDBRANCH   3   6
ENDBRANCH   1   2
BRANCH   1  15
HETATM   15  C10 UNL     1      42.797  10.494  22.085  1.00  0.00     0.258 C 
HETATM   16  O4  UNL     1      42.766   9.285  21.933  1.00  0.00    -0.305 OA
ENDBRANCH   1  15
BRANCH   1  17
HETATM   17  C11 UNL     1      41.265  11.244  20.357  1.00  0.00     0.155 C 
BRANCH  17  18
HETATM   18  N2  UNL     1      40.268  11.371  21.397  1.00  0.00    -0.353 N 
HETATM   19  C12 UNL     1      39.547  12.579  21.618  1.00  0.00     0.277 C 
HETATM   20  O5  UNL     1      39.761  13.587  20.900  1.00  0.00    -0.265 OA
ATOM     21  H2  UNL     1      40.075  10.567  21.994  1.00  0.00     0.162 HD
BRANCH  19  22
HETATM   22  C13 UNL     1      38.549  12.683  22.672  1.00  0.00     0.162 A 
HETATM   23  C14 UNL     1      37.434  11.874  22.837  1.00  0.00     0.134 A 
HETATM   24  N3  UNL     1      36.767  12.291  23.921  1.00  0.00    -0.329 N 
HETATM   25  C15 UNL     1      37.461  13.335  24.409  1.00  0.00     0.222 A 
ATOM     26  H3  UNL     1      35.906  11.897  24.301  1.00  0.00     0.168 HD
HETATM   27  N4  UNL     1      37.078  13.974  25.470  1.00  0.00    -0.365 N 
HETATM   28  O6  UNL     1      38.507  13.546  23.655  1.00  0.00    -0.273 OA
ATOM     29  H42 UNL     1      36.261  13.810  26.059  1.00  0.00     0.159 HD
ATOM     30  H41 UNL     1      37.604  14.766  25.839  1.00  0.00     0.159 HD
ENDBRANCH  19  22
ENDBRANCH  17  18
ENDBRANCH   1  17
TORSDOF 11
ENDMDL
MODEL 4
REMARK VINA RESULT: -7.353714259      1.852      2.399
REMARK  11 active torsions:
REMARK  status: ('A' for Active; 'I' for Inactive)
REMARK    1  A    between atoms: O1_2  and  C2_3 
REMARK    2  A    between atoms: C2_3  and  C3_4 
REMARK    3  A    between atoms: C3_4  and  C4_5 
REMARK    4  A    between atoms: C3_4  and  O2_9 
REMARK    5  A    between atoms: C4_5  and  C5_6 
REMARK    6  A    between atoms: O2_9  and  C8_10 
REMARK       I    between atoms: C8_10  and  N1_12 
REMARK    7  A    between atoms: N1_12  and  C9_14 
REMARK    8  A    between atoms: C9_14  and  C10_15 
REMARK    9  A    between atoms: C9_14  and  C11_17 
REMARK   10  A    between atoms: C11_17  and  N2_18 
REMARK       I    between atoms: N2_18  and  C12_20 
REMARK   11  A    between atoms: C12_20  and  C13_22 
ROOT
HETATM    1  C9  UNL     1      41.493  15.966  19.905  1.00  0.00     0.166 C 
ENDROOT
BRANCH   1   2
HETATM    2  N1  UNL     1      40.776  15.911  21.153  1.00  0.00    -0.324 N 
HETATM    3  C8  UNL     1      39.578  16.618  21.378  1.00  0.00     0.361 C 
HETATM    4  O3  UNL     1      39.131  17.317  20.443  1.00  0.00    -0.238 OA
ATOM      5  H1  UNL     1      41.152  15.336  21.907  1.00  0.00     0.165 HD
BRANCH   3   6
HETATM    6  O2  UNL     1      38.868  16.593  22.551  1.00  0.00    -0.296 OA
BRANCH   6   7
HETATM    7  C3  UNL     1      37.927  15.604  22.920  1.00  0.00     0.157 C 
BRANCH   7   8
HETATM    8  C2  UNL     1      36.716  15.808  22.079  1.00  0.00     0.199 C 
BRANCH   8   9
HETATM    9  O1  UNL     1      35.873  16.814  22.361  1.00  0.00    -0.393 OA
HETATM   10  C1  UNL     1      35.708  17.894  21.588  1.00  0.00     0.201 C 
ENDBRANCH   8   9
ENDBRANCH   7   8
BRANCH   7  11
HETATM   11  C4  UNL     1      38.447  14.254  23.128  1.00  0.00     0.038 C 
BRANCH  11  12
HETATM   12  C5  UNL     1      37.885  13.347  24.126  1.00  0.00    -0.020 C 
HETATM   13  C6  UNL     1      37.202  12.198  23.342  1.00  0.00     0.009 C 
HETATM   14  C7  UNL     1      36.910  13.800  25.125  1.00  0.00     0.009 C 
ENDBRANCH  11  12
ENDBRANCH   7  11
ENDBRANCH   6   7
ENDBRANCH   3   6
ENDBRANCH   1   2
BRANCH   1  15
HETATM   15  C10 UNL     1      42.958  15.959  20.163  1.00  0.00     0.258 C 
HETATM   16  O4  UNL     1      43.412  15.494  21.195  1.00  0.00    -0.305 OA
ENDBRANCH   1  15
BRANCH   1  17
HETATM   17  C11 UNL     1      41.148  14.794  19.040  1.00  0.00     0.155 C 
BRANCH  17  18
HETATM   18  N2  UNL     1      41.938  13.642  19.416  1.00  0.00    -0.353 N 
HETATM   19  C12 UNL     1      41.471  12.668  20.344  1.00  0.00     0.277 C 
HETATM   20  O5  UNL     1      40.337  12.785  20.871  1.00  0.00    -0.265 OA
ATOM     21  H2  UNL     1      42.863  13.524  19.002  1.00  0.00     0.162 HD
BRANCH  19  22
HETATM   22  C13 UNL     1      42.284  11.517  20.707  1.00  0.00     0.162 A 
HETATM   23  C14 UNL     1      42.218  10.798  21.891  1.00  0.00     0.134 A 
HETATM   24  N3  UNL     1      43.128   9.817  21.842  1.00  0.00    -0.329 N 
HETATM   25  C15 UNL     1      43.739   9.934  20.649  1.00  0.00     0.222 A 
ATOM     26  H3  UNL     1      43.319   9.121  22.562  1.00  0.00     0.168 HD
HETATM   27  N4  UNL     1      44.684   9.124  20.283  1.00  0.00    -0.365 N 
HETATM   28  O6  UNL     1      43.224  10.943  19.999  1.00  0.00    -0.273 OA
ATOM     29  H42 UNL     1      45.086   8.336  20.790  1.00  0.00     0.159 HD
ATOM     30  H41 UNL     1      45.147   9.214  19.379  1.00  0.00     0.159 HD
ENDBRANCH  19  22
ENDBRANCH  17  18
ENDBRANCH   1  17
TORSDOF 11
ENDMDL
MODEL 5
REMARK VINA RESULT: -7.330318909      3.155      5.683
REMARK  11 active torsions:
REMARK  status: ('A' for Active; 'I' for Inactive)
REMARK    1  A    between atoms: O1_2  and  C2_3 
REMARK    2  A    between atoms: C2_3  and  C3_4 
REMARK    3  A    between atoms: C3_4  and  C4_5 
REMARK    4  A    between atoms: C3_4  and  O2_9 
REMARK    5  A    between atoms: C4_5  and  C5_6 
REMARK    6  A    between atoms: O2_9  and  C8_10 
REMARK       I    between atoms: C8_10  and  N1_12 
REMARK    7  A    between atoms: N1_12  and  C9_14 
REMARK    8  A    between atoms: C9_14  and  C10_15 
REMARK    9  A    between atoms: C9_14  and  C11_17 
REMARK   10  A    between atoms: C11_17  and  N2_18 
REMARK       I    between atoms: N2_18  and  C12_20 
REMARK   11  A    between atoms: C12_20  and  C13_22 
ROOT
HETATM    1  C9  UNL     1      37.350  12.654  23.407  1.00  0.00     0.166 C 
ENDROOT
BRANCH   1   2
HETATM    2  N1  UNL     1      36.193  13.467  23.679  1.00  0.00    -0.324 N 
HETATM    3  C8  UNL     1      36.024  14.176  24.885  1.00  0.00     0.361 C 
HETATM    4  O3  UNL     1      36.927  14.085  25.745  1.00  0.00    -0.238 OA
ATOM      5  H1  UNL     1      35.464  13.534  22.968  1.00  0.00     0.165 HD
BRANCH   3   6
HETATM    6  O2  UNL     1      34.939  14.960  25.182  1.00  0.00    -0.296 OA
BRANCH   6   7
HETATM    7  C3  UNL     1      34.888  16.369  25.071  1.00  0.00     0.157 C 
BRANCH   7   8
HETATM    8  C2  UNL     1      34.895  16.924  26.452  1.00  0.00     0.199 C 
BRANCH   8   9
HETATM    9  O1  UNL     1      33.815  17.574  26.912  1.00  0.00    -0.393 OA
HETATM   10  C1  UNL     1      32.949  18.235  26.136  1.00  0.00     0.201 C 
ENDBRANCH   8   9
ENDBRANCH   7   8
BRANCH   7  11
HETATM   11  C4  UNL     1      35.732  16.973  24.042  1.00  0.00     0.038 C 
BRANCH  11  12
HETATM   12  C5  UNL     1      35.260  17.194  22.677  1.00  0.00    -0.020 C 
HETATM   13  C6  UNL     1      36.322  16.567  21.738  1.00  0.00     0.009 C 
HETATM   14  C7  UNL     1      34.994  18.540  22.157  1.00  0.00     0.009 C 
ENDBRANCH  11  12
ENDBRANCH   7  11
ENDBRANCH   6   7
ENDBRANCH   3   6
ENDBRANCH   1   2
BRANCH   1  15
HETATM   15  C10 UNL     1      36.970  11.215  23.427  1.00  0.00     0.258 C 
HETATM   16  O4  UNL     1      36.293  10.756  24.331  1.00  0.00    -0.305 OA
ENDBRANCH   1  15
BRANCH   1  17
HETATM   17  C11 UNL     1      37.930  12.983  22.068  1.00  0.00     0.155 C 
BRANCH  17  18
HETATM   18  N2  UNL     1      39.104  12.175  21.816  1.00  0.00    -0.353 N 
HETATM   19  C12 UNL     1      40.406  12.740  21.699  1.00  0.00     0.277 C 
HETATM   20  O5  UNL     1      40.574  13.979  21.813  1.00  0.00    -0.265 OA
ATOM     21  H2  UNL     1      38.995  11.166  21.720  1.00  0.00     0.162 HD
BRANCH  19  22
HETATM   22  C13 UNL     1      41.572  11.906  21.446  1.00  0.00     0.162 A 
HETATM   23  C14 UNL     1      42.729  12.283  20.780  1.00  0.00     0.134 A 
HETATM   24  N3  UNL     1      43.562  11.235  20.755  1.00  0.00    -0.329 N 
HETATM   25  C15 UNL     1      42.927  10.237  21.394  1.00  0.00     0.222 A 
ATOM     26  H3  UNL     1      44.492  11.201  20.335  1.00  0.00     0.168 HD
HETATM   27  N4  UNL     1      43.470   9.069  21.546  1.00  0.00    -0.365 N 
HETATM   28  O6  UNL     1      41.756  10.658  21.792  1.00  0.00    -0.273 OA
ATOM     29  H42 UNL     1      44.384   8.740  21.236  1.00  0.00     0.159 HD
ATOM     30  H41 UNL     1      42.988   8.312  22.030  1.00  0.00     0.159 HD
ENDBRANCH  19  22
ENDBRANCH  17  18
ENDBRANCH   1  17
TORSDOF 11
ENDMDL
