MODEL 1
REMARK VINA RESULT: -8.248956725      0.000      0.000
REMARK  12 active torsions:
REMARK  status: ('A' for Active; 'I' for Inactive)
REMARK    1  A    between atoms: N1_1  and  C1_5 
REMARK    2  A    between atoms: C3_7  and  O1_8 
REMARK    3  A    between atoms: O1_8  and  C4_9 
REMARK    4  A    between atoms: C4_9  and  C5_10 
REMARK    5  A    between atoms: C5_10  and  N2_11 
REMARK    6  A    between atoms: C5_10  and  C6_15 
REMARK    7  A    between atoms: C6_15  and  O2_16 
REMARK    8  A    between atoms: C6_15  and  C7_18 
REMARK    9  A    between atoms: C7_18  and  C8_19 
REMARK   10  A    between atoms: C7_18  and  O3_26 
REMARK   11  A    between atoms: C8_19  and  C9_20 
REMARK   12  A    between atoms: O3_26  and  C15_27 
ROOT
HETATM    1  C6  UNL     1      36.960  12.925  24.155  1.00  0.00     0.180 C 
ENDROOT
BRANCH   1   2
HETATM    2  C5  UNL     1      35.769  13.570  24.793  1.00  0.00     0.238 C 
BRANCH   2   3
HETATM    3  C4  UNL     1      36.149  14.432  25.976  1.00  0.00     0.206 C 
BRANCH   3   4
HETATM    4  O1  UNL     1      35.110  15.229  26.411  1.00  0.00    -0.359 OA
BRANCH   4   5
HETATM    5  C3  UNL     1      35.335  16.565  26.379  1.00  0.00     0.266 C 
HETATM    6  C2  UNL     1      35.120  17.289  25.082  1.00  0.00     0.121 C 
HETATM    7  C1  UNL     1      33.687  17.129  25.544  1.00  0.00     0.325 C 
HETATM    8  O4  UNL     1      34.187  17.243  26.862  1.00  0.00    -0.329 OA
BRANCH   7   9
HETATM    9  N1  UNL     1      32.867  18.217  25.111  1.00  0.00    -0.053 N 
ATOM     10  H13 UNL     1      32.575  18.797  25.898  1.00  0.00     0.277 HD
ATOM     11  H12 UNL     1      33.410  18.909  24.594  1.00  0.00     0.277 HD
ATOM     12  H11 UNL     1      32.065  17.894  24.570  1.00  0.00     0.277 HD
ENDBRANCH   7   9
ENDBRANCH   4   5
ENDBRANCH   3   4
ENDBRANCH   2   3
BRANCH   2  13
HETATM   13  N2  UNL     1      34.967  12.459  25.338  1.00  0.00    -0.070 N 
ATOM     14  H23 UNL     1      35.106  11.578  24.845  1.00  0.00     0.274 HD
ATOM     15  H22 UNL     1      35.283  12.141  26.254  1.00  0.00     0.274 HD
ATOM     16  H21 UNL     1      33.998  12.781  25.331  1.00  0.00     0.274 HD
ENDBRANCH   2  13
ENDBRANCH   1   2
BRANCH   1  17
HETATM   17  O2  UNL     1      36.655  11.681  23.616  1.00  0.00    -0.391 OA
ATOM     18  H2  UNL     1      36.700  11.682  22.667  1.00  0.00     0.210 HD
ENDBRANCH   1  17
BRANCH   1  19
HETATM   19  C7  UNL     1      37.566  13.748  23.040  1.00  0.00     0.164 C 
BRANCH  19  20
HETATM   20  C8  UNL     1      36.493  14.550  22.314  1.00  0.00     0.073 C 
BRANCH  20  21
HETATM   21  C9  UNL     1      36.961  15.955  22.194  1.00  0.00    -0.056 A 
HETATM   22  C10 UNL     1      36.197  16.912  21.518  1.00  0.00     0.007 A 
HETATM   23  C11 UNL     1      36.606  18.221  21.391  1.00  0.00     0.001 A 
HETATM   24  C12 UNL     1      37.795  18.627  21.933  1.00  0.00     0.000 A 
HETATM   25  C13 UNL     1      38.585  17.707  22.615  1.00  0.00     0.001 A 
HETATM   26  C14 UNL     1      38.151  16.405  22.726  1.00  0.00     0.007 A 
ENDBRANCH  20  21
ENDBRANCH  19  20
BRANCH  19  27
HETATM   27  O3  UNL     1      38.166  12.920  22.084  1.00  0.00    -0.343 OA
BRANCH  27  28
HETATM   28  C15 UNL     1      39.517  12.737  21.863  1.00  0.00     0.069 A 
HETATM   29  C16 UNL     1      40.160  11.545  22.107  1.00  0.00     0.037 A 
HETATM   30  C17 UNL     1      41.510  11.345  21.892  1.00  0.00     0.003 A 
HETATM   31  C18 UNL     1      42.227  12.413  21.406  1.00  0.00     0.000 A 
HETATM   32  C19 UNL     1      41.603  13.615  21.155  1.00  0.00     0.003 A 
HETATM   33  C20 UNL     1      40.263  13.795  21.375  1.00  0.00     0.037 A 
ENDBRANCH  27  28
ENDBRANCH  19  27
ENDBRANCH   1  19
TORSDOF 12
ENDMDL
MODEL 2
REMARK VINA RESULT: -8.156769418      3.088      7.169
REMARK  12 active torsions:
REMARK  status: ('A' for Active; 'I' for Inactive)
REMARK    1  A    between atoms: N1_1  and  C1_5 
REMARK    2  A    between atoms: C3_7  and  O1_8 
REMARK    3  A    between atoms: O1_8  and  C4_9 
REMARK    4  A    between atoms: C4_9  and  C5_10 
REMARK    5  A    between atoms: C5_10  and  N2_11 
REMARK    6  A    between atoms: C5_10  and  C6_15 
REMARK    7  A    between atoms: C6_15  and  O2_16 
REMARK    8  A    between atoms: C6_15  and  C7_18 
REMARK    9  A    between atoms: C7_18  and  C8_19 
REMARK   10  A    between atoms: C7_18  and  O3_26 
REMARK   11  A    between atoms: C8_19  and  C9_20 
REMARK   12  A    between atoms: O3_26  and  C15_27 
ROOT
HETATM    1  C6  UNL     1      39.915  13.578  21.791  1.00  0.00     0.180 C 
ENDROOT
BRANCH   1   2
HETATM    2  C5  UNL     1      40.028  12.274  22.518  1.00  0.00     0.238 C 
BRANCH   2   3
HETATM    3  C4  UNL     1      41.240  11.480  22.088  1.00  0.00     0.206 C 
BRANCH   3   4
HETATM    4  O1  UNL     1      40.959  10.578  21.083  1.00  0.00    -0.359 OA
BRANCH   4   5
HETATM    5  C3  UNL     1      41.733  10.664  19.974  1.00  0.00     0.266 C 
HETATM    6  C2  UNL     1      43.150  11.132  20.134  1.00  0.00     0.121 C 
HETATM    7  C1  UNL     1      43.282   9.702  20.611  1.00  0.00     0.325 C 
HETATM    8  O4  UNL     1      42.268   9.384  19.677  1.00  0.00    -0.329 OA
BRANCH   7   9
HETATM    9  N1  UNL     1      44.571   9.160  20.311  1.00  0.00    -0.053 N 
ATOM     10  H13 UNL     1      44.673   8.216  20.684  1.00  0.00     0.277 HD
ATOM     11  H12 UNL     1      44.663   8.950  19.317  1.00  0.00     0.277 HD
ATOM     12  H11 UNL     1      45.322   9.771  20.633  1.00  0.00     0.277 HD
ENDBRANCH   7   9
ENDBRANCH   4   5
ENDBRANCH   3   4
ENDBRANCH   2   3
BRANCH   2  13
HETATM   13  N2  UNL     1      38.854  11.487  22.097  1.00  0.00    -0.070 N 
ATOM     14  H23 UNL     1      38.712  10.643  22.651  1.00  0.00     0.274 HD
ATOM     15  H22 UNL     1      37.965  11.934  22.320  1.00  0.00     0.274 HD
ATOM     16  H21 UNL     1      38.980  11.304  21.101  1.00  0.00     0.274 HD
ENDBRANCH   2  13
ENDBRANCH   1   2
BRANCH   1  17
HETATM   17  O2  UNL     1      39.629  13.402  20.443  1.00  0.00    -0.391 OA
ATOM     18  H2  UNL     1      39.622  14.225  19.968  1.00  0.00     0.210 HD
ENDBRANCH   1  17
BRANCH   1  19
HETATM   19  C7  UNL     1      38.843  14.488  22.349  1.00  0.00     0.164 C 
BRANCH  19  20
HETATM   20  C8  UNL     1      39.254  15.950  22.223  1.00  0.00     0.073 C 
BRANCH  20  21
HETATM   21  C9  UNL     1      38.025  16.785  22.264  1.00  0.00    -0.056 A 
HETATM   22  C10 UNL     1      37.990  17.975  22.999  1.00  0.00     0.007 A 
HETATM   23  C11 UNL     1      36.865  18.768  23.056  1.00  0.00     0.001 A 
HETATM   24  C12 UNL     1      35.731  18.405  22.382  1.00  0.00     0.000 A 
HETATM   25  C13 UNL     1      35.724  17.229  21.638  1.00  0.00     0.001 A 
HETATM   26  C14 UNL     1      36.862  16.456  21.600  1.00  0.00     0.007 A 
ENDBRANCH  20  21
ENDBRANCH  19  20
BRANCH  19  27
HETATM   27  O3  UNL     1      38.647  14.242  23.714  1.00  0.00    -0.343 OA
BRANCH  27  28
HETATM   28  C15 UNL     1      37.445  14.060  24.368  1.00  0.00     0.069 A 
HETATM   29  C16 UNL     1      36.811  12.841  24.444  1.00  0.00     0.037 A 
HETATM   30  C17 UNL     1      35.608  12.641  25.094  1.00  0.00     0.003 A 
HETATM   31  C18 UNL     1      35.036  13.740  25.692  1.00  0.00     0.000 A 
HETATM   32  C19 UNL     1      35.653  14.969  25.628  1.00  0.00     0.003 A 
HETATM   33  C20 UNL     1      36.846  15.148  24.978  1.00  0.00     0.037 A 
ENDBRANCH  27  28
ENDBRANCH  19  27
ENDBRANCH   1  19
TORSDOF 12
ENDMDL
MODEL 3
REMARK VINA RESULT: -8.126972577      3.782      7.131
REMARK  12 active torsions:
REMARK  status: ('A' for Active; 'I' for Inactive)
REMARK    1  A    between atoms: N1_1  and  C1_5 
REMARK    2  A    between atoms: C3_7  and  O1_8 
REMARK    3  A    between atoms: O1_8  and  C4_9 
REMARK    4  A    between atoms: C4_9  and  C5_10 
REMARK    5  A    between atoms: C5_10  and  N2_11 
REMARK    6  A    between atoms: C5_10  and  C6_15 
REMARK    7  A    between atoms: C6_15  and  O2_16 
REMARK    8  A    between atoms: C6_15  and  C7_18 
REMARK    9  A    between atoms: C7_18  and  C8_19 
REMARK   10  A    between atoms: C7_18  and  O3_26 
REMARK   11  A    between atoms: C8_19  and  C9_20 
REMARK   12  A    between atoms: O3_26  and  C15_27 
ROOT
HETATM    1  C6  UNL     1      40.579  15.101  20.514  1.00  0.00     0.180 C 
ENDROOT
BRANCH   1   2
HETATM    2  C5  UNL     1      40.739  13.657  20.151  1.00  0.00     0.238 C 
BRANCH   2   3
HETATM    3  C4  UNL     1      42.055  13.088  20.630  1.00  0.00     0.206 C 
BRANCH   3   4
HETATM    4  O1  UNL     1      41.895  12.018  21.486  1.00  0.00    -0.359 OA
BRANCH   4   5
HETATM    5  C3  UNL     1      41.906  10.791  20.911  1.00  0.00     0.266 C 
HETATM    6  C2  UNL     1      43.017  10.466  19.956  1.00  0.00     0.121 C 
HETATM    7  C1  UNL     1      43.739  10.303  21.276  1.00  0.00     0.325 C 
HETATM    8  O4  UNL     1      42.503   9.863  21.804  1.00  0.00    -0.329 OA
BRANCH   7   9
HETATM    9  N1  UNL     1      44.756   9.301  21.203  1.00  0.00    -0.053 N 
ATOM     10  H13 UNL     1      44.360   8.364  21.285  1.00  0.00     0.277 HD
ATOM     11  H12 UNL     1      45.141   9.230  20.261  1.00  0.00     0.277 HD
ATOM     12  H11 UNL     1      45.490   9.456  21.894  1.00  0.00     0.277 HD
ENDBRANCH   7   9
ENDBRANCH   4   5
ENDBRANCH   3   4
ENDBRANCH   2   3
BRANCH   2  13
HETATM   13  N2  UNL     1      40.793  13.627  18.678  1.00  0.00    -0.070 N 
ATOM     14  H23 UNL     1      41.078  14.514  18.264  1.00  0.00     0.274 HD
ATOM     15  H22 UNL     1      41.561  13.066  18.311  1.00  0.00     0.274 HD
ATOM     16  H21 UNL     1      39.873  13.310  18.369  1.00  0.00     0.274 HD
ENDBRANCH   2  13
ENDBRANCH   1   2
BRANCH   1  17
HETATM   17  O2  UNL     1      40.376  15.901  19.397  1.00  0.00    -0.391 OA
ATOM     18  H2  UNL     1      40.576  16.814  19.570  1.00  0.00     0.210 HD
ENDBRANCH   1  17
BRANCH   1  19
HETATM   19  C7  UNL     1      39.423  15.361  21.455  1.00  0.00     0.164 C 
BRANCH  19  20
HETATM   20  C8  UNL     1      39.440  16.801  21.950  1.00  0.00     0.073 C 
BRANCH  20  21
HETATM   21  C9  UNL     1      38.049  17.191  22.301  1.00  0.00    -0.056 A 
HETATM   22  C10 UNL     1      36.970  16.797  21.502  1.00  0.00     0.007 A 
HETATM   23  C11 UNL     1      35.672  17.144  21.803  1.00  0.00     0.001 A 
HETATM   24  C12 UNL     1      35.398  17.897  22.912  1.00  0.00     0.000 A 
HETATM   25  C13 UNL     1      36.443  18.308  23.734  1.00  0.00     0.001 A 
HETATM   26  C14 UNL     1      37.731  17.947  23.409  1.00  0.00     0.007 A 
ENDBRANCH  20  21
ENDBRANCH  19  20
BRANCH  19  27
HETATM   27  O3  UNL     1      39.514  14.544  22.588  1.00  0.00    -0.343 OA
BRANCH  27  28
HETATM   28  C15 UNL     1      38.526  13.744  23.126  1.00  0.00     0.069 A 
HETATM   29  C16 UNL     1      37.760  14.123  24.206  1.00  0.00     0.037 A 
HETATM   30  C17 UNL     1      36.768  13.336  24.756  1.00  0.00     0.003 A 
HETATM   31  C18 UNL     1      36.554  12.109  24.173  1.00  0.00     0.000 A 
HETATM   32  C19 UNL     1      37.308  11.709  23.093  1.00  0.00     0.003 A 
HETATM   33  C20 UNL     1      38.289  12.503  22.560  1.00  0.00     0.037 A 
ENDBRANCH  27  28
ENDBRANCH  19  27
ENDBRANCH   1  19
TORSDOF 12
ENDMDL
MODEL 4
REMARK VINA RESULT: -8.094501822      5.146      8.080
REMARK  12 active torsions:
REMARK  status: ('A' for Active; 'I' for Inactive)
REMARK    1  A    between atoms: N1_1  and  C1_5 
REMARK    2  A    between atoms: C3_7  and  O1_8 
REMARK    3  A    between atoms: O1_8  and  C4_9 
REMARK    4  A    between atoms: C4_9  and  C5_10 
REMARK    5  A    between atoms: C5_10  and  N2_11 
REMARK    6  A    between atoms: C5_10  and  C6_15 
REMARK    7  A    between atoms: C6_15  and  O2_16 
REMARK    8  A    between atoms: C6_15  and  C7_18 
REMARK    9  A    between atoms: C7_18  and  C8_19 
REMARK   10  A    between atoms: C7_18  and  O3_26 
REMARK   11  A    between atoms: C8_19  and  C9_20 
REMARK   12  A    between atoms: O3_26  and  C15_27 
ROOT
HETATM    1  C6  UNL     1      42.805  13.898  21.663  1.00  0.00     0.180 C 
ENDROOT
BRANCH   1   2
HETATM    2  C5  UNL     1      43.429  12.661  21.096  1.00  0.00     0.238 C 
BRANCH   2   3
HETATM    3  C4  UNL     1      44.179  11.865  22.141  1.00  0.00     0.206 C 
BRANCH   3   4
HETATM    4  O1  UNL     1      44.060  10.503  21.963  1.00  0.00    -0.359 OA
BRANCH   4   5
HETATM    5  C3  UNL     1      42.812  10.047  21.689  1.00  0.00     0.266 C 
HETATM    6  C2  UNL     1      42.305  10.175  20.283  1.00  0.00     0.121 C 
HETATM    7  C1  UNL     1      43.217   8.976  20.133  1.00  0.00     0.325 C 
HETATM    8  O4  UNL     1      42.866   8.648  21.463  1.00  0.00    -0.329 OA
BRANCH   7   9
HETATM    9  N1  UNL     1      42.738   8.067  19.140  1.00  0.00    -0.053 N 
ATOM     10  H13 UNL     1      41.733   7.917  19.227  1.00  0.00     0.277 HD
ATOM     11  H12 UNL     1      42.757   8.488  18.211  1.00  0.00     0.277 HD
ATOM     12  H11 UNL     1      43.249   7.184  19.158  1.00  0.00     0.277 HD
ENDBRANCH   7   9
ENDBRANCH   4   5
ENDBRANCH   3   4
ENDBRANCH   2   3
BRANCH   2  13
HETATM   13  N2  UNL     1      44.444  13.136  20.139  1.00  0.00    -0.070 N 
ATOM     14  H23 UNL     1      45.257  13.558  20.586  1.00  0.00     0.274 HD
ATOM     15  H22 UNL     1      44.941  12.382  19.665  1.00  0.00     0.274 HD
ATOM     16  H21 UNL     1      43.957  13.767  19.501  1.00  0.00     0.274 HD
ENDBRANCH   2  13
ENDBRANCH   1   2
BRANCH   1  17
HETATM   17  O2  UNL     1      43.619  15.013  21.505  1.00  0.00    -0.391 OA
ATOM     18  H2  UNL     1      43.166  15.820  21.720  1.00  0.00     0.210 HD
ENDBRANCH   1  17
BRANCH   1  19
HETATM   19  C7  UNL     1      41.470  14.239  21.040  1.00  0.00     0.164 C 
BRANCH  19  20
HETATM   20  C8  UNL     1      40.441  13.155  21.336  1.00  0.00     0.073 C 
BRANCH  20  21
HETATM   21  C9  UNL     1      39.428  13.715  22.269  1.00  0.00    -0.056 A 
HETATM   22  C10 UNL     1      38.815  12.908  23.232  1.00  0.00     0.007 A 
HETATM   23  C11 UNL     1      37.873  13.400  24.109  1.00  0.00     0.001 A 
HETATM   24  C12 UNL     1      37.506  14.716  24.059  1.00  0.00     0.000 A 
HETATM   25  C13 UNL     1      38.093  15.554  23.115  1.00  0.00     0.001 A 
HETATM   26  C14 UNL     1      39.031  15.036  22.252  1.00  0.00     0.007 A 
ENDBRANCH  20  21
ENDBRANCH  19  20
BRANCH  19  27
HETATM   27  O3  UNL     1      41.580  14.320  19.647  1.00  0.00    -0.343 OA
BRANCH  27  28
HETATM   28  C15 UNL     1      41.005  15.258  18.813  1.00  0.00     0.069 A 
HETATM   29  C16 UNL     1      40.555  16.480  19.259  1.00  0.00     0.037 A 
HETATM   30  C17 UNL     1      39.977  17.430  18.439  1.00  0.00     0.003 A 
HETATM   31  C18 UNL     1      39.858  17.110  17.107  1.00  0.00     0.000 A 
HETATM   32  C19 UNL     1      40.302  15.893  16.639  1.00  0.00     0.003 A 
HETATM   33  C20 UNL     1      40.872  14.963  17.467  1.00  0.00     0.037 A 
ENDBRANCH  27  28
ENDBRANCH  19  27
ENDBRANCH   1  19
TORSDOF 12
ENDMDL
MODEL 5
REMARK VINA RESULT: -8.080317151      3.758      7.393
REMARK  12 active torsions:
REMARK  status: ('A' for Active; 'I' for Inactive)
REMARK    1  A    between atoms: N1_1  and  C1_5 
REMARK    2  A    between atoms: C3_7  and  O1_8 
REMARK    3  A    between atoms: O1_8  and  C4_9 
REMARK    4  A    between atoms: C4_9  and  C5_10 
REMARK    5  A    between atoms: C5_10  and  N2_11 
REMARK    6  A    between atoms: C5_10  and  C6_15 
REMARK    7  A    between atoms: C6_15  and  O2_16 
REMARK    8  A    between atoms: C6_15  and  C7_18 
REMARK    9  A    between atoms: C7_18  and  C8_19 
REMARK   10  A    between atoms: C7_18  and  O3_26 
REMARK   11  A    between atoms: C8_19  and  C9_20 
REMARK   12  A    between atoms: O3_26  and  C15_27 
ROOT
HETATM    1  C6  UNL     1      40.699  15.062  20.601  1.00  0.00     0.180 C 
ENDROOT
BRANCH   1   2
HETATM    2  C5  UNL     1      40.902  13.612  20.288  1.00  0.00     0.238 C 
BRANCH   2   3
HETATM    3  C4  UNL     1      42.338  13.179  20.481  1.00  0.00     0.206 C 
BRANCH   3   4
HETATM    4  O1  UNL     1      42.683  12.104  19.689  1.00  0.00    -0.359 OA
BRANCH   4   5
HETATM    5  C3  UNL     1      43.457  11.159  20.276  1.00  0.00     0.266 C 
HETATM    6  C2  UNL     1      42.779   9.983  20.915  1.00  0.00     0.121 C 
HETATM    7  C1  UNL     1      42.690   9.587  19.457  1.00  0.00     0.325 C 
HETATM    8  O4  UNL     1      43.924  10.257  19.286  1.00  0.00    -0.329 OA
BRANCH   7   9
HETATM    9  N1  UNL     1      42.744   8.168  19.290  1.00  0.00    -0.053 N 
ATOM     10  H13 UNL     1      43.003   7.916  18.335  1.00  0.00     0.277 HD
ATOM     11  H12 UNL     1      43.541   7.766  19.783  1.00  0.00     0.277 HD
ATOM     12  H11 UNL     1      41.870   7.721  19.568  1.00  0.00     0.277 HD
ENDBRANCH   7   9
ENDBRANCH   4   5
ENDBRANCH   3   4
ENDBRANCH   2   3
BRANCH   2  13
HETATM   13  N2  UNL     1      40.626  13.479  18.846  1.00  0.00    -0.070 N 
ATOM     14  H23 UNL     1      40.978  14.260  18.292  1.00  0.00     0.274 HD
ATOM     15  H22 UNL     1      41.174  12.748  18.393  1.00  0.00     0.274 HD
ATOM     16  H21 UNL     1      39.618  13.343  18.764  1.00  0.00     0.274 HD
ENDBRANCH   2  13
ENDBRANCH   1   2
BRANCH   1  17
HETATM   17  O2  UNL     1      40.542  15.827  19.453  1.00  0.00    -0.391 OA
ATOM     18  H2  UNL     1      41.361  16.211  19.163  1.00  0.00     0.210 HD
ENDBRANCH   1  17
BRANCH   1  19
HETATM   19  C7  UNL     1      39.491  15.327  21.472  1.00  0.00     0.164 C 
BRANCH  19  20
HETATM   20  C8  UNL     1      39.459  16.780  21.928  1.00  0.00     0.073 C 
BRANCH  20  21
HETATM   21  C9  UNL     1      38.060  17.123  22.297  1.00  0.00    -0.056 A 
HETATM   22  C10 UNL     1      36.987  16.719  21.495  1.00  0.00     0.007 A 
HETATM   23  C11 UNL     1      35.682  17.023  21.812  1.00  0.00     0.001 A 
HETATM   24  C12 UNL     1      35.395  17.741  22.941  1.00  0.00     0.000 A 
HETATM   25  C13 UNL     1      36.434  18.161  23.766  1.00  0.00     0.001 A 
HETATM   26  C14 UNL     1      37.729  17.843  23.424  1.00  0.00     0.007 A 
ENDBRANCH  20  21
ENDBRANCH  19  20
BRANCH  19  27
HETATM   27  O3  UNL     1      39.535  14.541  22.631  1.00  0.00    -0.343 OA
BRANCH  27  28
HETATM   28  C15 UNL     1      38.550  13.702  23.112  1.00  0.00     0.069 A 
HETATM   29  C16 UNL     1      38.267  12.479  22.548  1.00  0.00     0.037 A 
HETATM   30  C17 UNL     1      37.285  11.627  23.016  1.00  0.00     0.003 A 
HETATM   31  C18 UNL     1      36.567  12.050  24.111  1.00  0.00     0.000 A 
HETATM   32  C19 UNL     1      36.834  13.270  24.691  1.00  0.00     0.003 A 
HETATM   33  C20 UNL     1      37.811  14.102  24.212  1.00  0.00     0.037 A 
ENDBRANCH  27  28
ENDBRANCH  19  27
ENDBRANCH   1  19
TORSDOF 12
ENDMDL
