MODEL 1
REMARK VINA RESULT: -7.677014575      0.000      0.000
REMARK  6 active torsions:
REMARK  status: ('A' for Active; 'I' for Inactive)
REMARK    1  A    between atoms: O1_2  and  C2_3 
REMARK    2  A    between atoms: C2_3  and  C3_5 
REMARK    3  A    between atoms: C6_8  and  C7_9 
REMARK    4  A    between atoms: C7_9  and  C8_10 
REMARK    5  A    between atoms: C8_10  and  N1_11 
REMARK       I    between atoms: N1_11  and  C9_13 
REMARK    6  A    between atoms: C9_13  and  C10_15 
ROOT
HETATM    1  C3  UNL     1       9.062  18.882  20.188  1.00  0.00     0.081 C 
HETATM    2  C4  UNL     1      10.263  19.351  19.407  1.00  0.00     0.026 C 
HETATM    3  C5  UNL     1      10.263  18.332  18.254  1.00  0.00     0.039 C 
HETATM    4  C6  UNL     1       9.297  17.264  18.652  1.00  0.00     0.065 C 
HETATM    5  C16 UNL     1       9.373  17.369  20.186  1.00  0.00     0.061 C 
HETATM    6  O4  UNL     1       8.010  17.763  18.443  1.00  0.00    -0.369 OA
HETATM    7  C17 UNL     1       7.848  18.850  19.314  1.00  0.00     0.071 C 
HETATM    8  C18 UNL     1       7.633  20.075  18.500  1.00  0.00     0.047 C 
HETATM    9  C19 UNL     1       6.600  18.574  20.119  1.00  0.00     0.047 C 
ENDROOT
BRANCH   4  10
HETATM   10  C7  UNL     1       9.523  15.913  18.151  1.00  0.00     0.057 C 
BRANCH  10  11
HETATM   11  C8  UNL     1       9.733  15.906  16.673  1.00  0.00     0.125 C 
BRANCH  11  12
HETATM   12  N1  UNL     1       8.478  16.125  15.944  1.00  0.00    -0.361 N 
HETATM   13  C9  UNL     1       8.364  17.356  15.241  1.00  0.00     0.221 C 
HETATM   14  O3  UNL     1       9.272  18.224  15.229  1.00  0.00    -0.273 OA
ATOM     15  H1  UNL     1       7.729  15.433  15.941  1.00  0.00     0.162 HD
BRANCH  13  16
HETATM   16  C10 UNL     1       7.103  17.602  14.496  1.00  0.00     0.078 C 
HETATM   17  C11 UNL     1       7.177  18.819  13.628  1.00  0.00     0.014 C 
HETATM   18  C12 UNL     1       8.120  18.700  12.475  1.00  0.00     0.001 C 
HETATM   19  C13 UNL     1       8.067  17.387  11.764  1.00  0.00     0.000 C 
HETATM   20  C14 UNL     1       8.027  16.211  12.721  1.00  0.00     0.001 C 
HETATM   21  C15 UNL     1       6.851  16.345  13.660  1.00  0.00     0.014 C 
ENDBRANCH  13  16
ENDBRANCH  11  12
ENDBRANCH  10  11
ENDBRANCH   4  10
BRANCH   1  22
HETATM   22  C2  UNL     1       8.910  19.404  21.513  1.00  0.00     0.270 C 
HETATM   23  O2  UNL     1       8.643  18.592  22.465  1.00  0.00    -0.264 OA
BRANCH  22  24
HETATM   24  O1  UNL     1       9.029  20.720  21.855  1.00  0.00    -0.326 OA
HETATM   25  C1  UNL     1      10.236  21.250  22.374  1.00  0.00     0.213 C 
ENDBRANCH  22  24
ENDBRANCH   1  22
TORSDOF 6
ENDMDL
MODEL 2
REMARK VINA RESULT: -7.610713548      0.994      1.183
REMARK  6 active torsions:
REMARK  status: ('A' for Active; 'I' for Inactive)
REMARK    1  A    between atoms: O1_2  and  C2_3 
REMARK    2  A    between atoms: C2_3  and  C3_5 
REMARK    3  A    between atoms: C6_8  and  C7_9 
REMARK    4  A    between atoms: C7_9  and  C8_10 
REMARK    5  A    between atoms: C8_10  and  N1_11 
REMARK       I    between atoms: N1_11  and  C9_13 
REMARK    6  A    between atoms: C9_13  and  C10_15 
ROOT
HETATM    1  C3  UNL     1       9.003  18.599  19.798  1.00  0.00     0.081 C 
HETATM    2  C4  UNL     1      10.269  18.941  19.056  1.00  0.00     0.026 C 
HETATM    3  C5  UNL     1      10.168  17.969  17.867  1.00  0.00     0.039 C 
HETATM    4  C6  UNL     1       9.069  17.016  18.209  1.00  0.00     0.065 C 
HETATM    5  C16 UNL     1       9.124  17.060  19.748  1.00  0.00     0.061 C 
HETATM    6  O4  UNL     1       7.858  17.678  17.995  1.00  0.00    -0.369 OA
HETATM    7  C17 UNL     1       7.814  18.747  18.902  1.00  0.00     0.071 C 
HETATM    8  C18 UNL     1       7.769  20.015  18.129  1.00  0.00     0.047 C 
HETATM    9  C19 UNL     1       6.523  18.602  19.675  1.00  0.00     0.047 C 
ENDROOT
BRANCH   4  10
HETATM   10  C7  UNL     1       9.137  15.665  17.665  1.00  0.00     0.057 C 
BRANCH  10  11
HETATM   11  C8  UNL     1       9.309  15.682  16.181  1.00  0.00     0.125 C 
BRANCH  11  12
HETATM   12  N1  UNL     1       8.272  16.485  15.522  1.00  0.00    -0.361 N 
HETATM   13  C9  UNL     1       7.710  15.939  14.335  1.00  0.00     0.221 C 
HETATM   14  O3  UNL     1       8.066  14.833  13.857  1.00  0.00    -0.273 OA
ATOM     15  H1  UNL     1       7.970  17.384  15.895  1.00  0.00     0.162 HD
BRANCH  13  16
HETATM   16  C10 UNL     1       6.659  16.733  13.650  1.00  0.00     0.078 C 
HETATM   17  C11 UNL     1       6.609  18.151  14.129  1.00  0.00     0.014 C 
HETATM   18  C12 UNL     1       7.805  18.968  13.768  1.00  0.00     0.001 C 
HETATM   19  C13 UNL     1       8.298  18.763  12.372  1.00  0.00     0.000 C 
HETATM   20  C14 UNL     1       8.347  17.297  11.985  1.00  0.00     0.001 C 
HETATM   21  C15 UNL     1       6.983  16.669  12.156  1.00  0.00     0.014 C 
ENDBRANCH  13  16
ENDBRANCH  11  12
ENDBRANCH  10  11
ENDBRANCH   4  10
BRANCH   1  22
HETATM   22  C2  UNL     1       8.888  19.092  21.138  1.00  0.00     0.270 C 
HETATM   23  O2  UNL     1       8.668  18.255  22.082  1.00  0.00    -0.264 OA
BRANCH  22  24
HETATM   24  O1  UNL     1       8.996  20.402  21.503  1.00  0.00    -0.326 OA
HETATM   25  C1  UNL     1      10.150  20.904  22.153  1.00  0.00     0.213 C 
ENDBRANCH  22  24
ENDBRANCH   1  22
TORSDOF 6
ENDMDL
MODEL 3
REMARK VINA RESULT: -7.395477588      1.236      2.016
REMARK  6 active torsions:
REMARK  status: ('A' for Active; 'I' for Inactive)
REMARK    1  A    between atoms: O1_2  and  C2_3 
REMARK    2  A    between atoms: C2_3  and  C3_5 
REMARK    3  A    between atoms: C6_8  and  C7_9 
REMARK    4  A    between atoms: C7_9  and  C8_10 
REMARK    5  A    between atoms: C8_10  and  N1_11 
REMARK       I    between atoms: N1_11  and  C9_13 
REMARK    6  A    between atoms: C9_13  and  C10_15 
ROOT
HETATM    1  C3  UNL     1       7.993  18.169  19.967  1.00  0.00     0.081 C 
HETATM    2  C4  UNL     1       8.089  17.153  21.077  1.00  0.00     0.026 C 
HETATM    3  C5  UNL     1       8.842  16.021  20.356  1.00  0.00     0.039 C 
HETATM    4  C6  UNL     1       8.822  16.374  18.905  1.00  0.00     0.065 C 
HETATM    5  C16 UNL     1       7.537  17.221  18.837  1.00  0.00     0.061 C 
HETATM    6  O4  UNL     1       9.775  17.374  18.703  1.00  0.00    -0.369 OA
HETATM    7  C17 UNL     1       9.354  18.493  19.435  1.00  0.00     0.071 C 
HETATM    8  C18 UNL     1      10.376  18.786  20.473  1.00  0.00     0.047 C 
HETATM    9  C19 UNL     1       9.301  19.648  18.463  1.00  0.00     0.047 C 
ENDROOT
BRANCH   4  10
HETATM   10  C7  UNL     1       8.852  15.288  17.933  1.00  0.00     0.057 C 
BRANCH  10  11
HETATM   11  C8  UNL     1       9.280  15.771  16.587  1.00  0.00     0.125 C 
BRANCH  11  12
HETATM   12  N1  UNL     1       8.131  16.112  15.740  1.00  0.00    -0.361 N 
HETATM   13  C9  UNL     1       8.149  17.402  15.140  1.00  0.00     0.221 C 
HETATM   14  O3  UNL     1       9.085  18.221  15.310  1.00  0.00    -0.273 OA
ATOM     15  H1  UNL     1       7.361  15.460  15.590  1.00  0.00     0.162 HD
BRANCH  13  16
HETATM   16  C10 UNL     1       6.997  17.769  14.279  1.00  0.00     0.078 C 
HETATM   17  C11 UNL     1       7.225  19.045  13.530  1.00  0.00     0.014 C 
HETATM   18  C12 UNL     1       8.291  18.968  12.487  1.00  0.00     0.001 C 
HETATM   19  C13 UNL     1       8.266  17.719  11.667  1.00  0.00     0.000 C 
HETATM   20  C14 UNL     1       8.063  16.475  12.512  1.00  0.00     0.001 C 
HETATM   21  C15 UNL     1       6.791  16.597  13.318  1.00  0.00     0.014 C 
ENDBRANCH  13  16
ENDBRANCH  11  12
ENDBRANCH  10  11
ENDBRANCH   4  10
BRANCH   1  22
HETATM   22  C2  UNL     1       7.083  19.257  20.166  1.00  0.00     0.270 C 
HETATM   23  O2  UNL     1       6.360  19.638  19.181  1.00  0.00    -0.264 OA
BRANCH  22  24
HETATM   24  O1  UNL     1       6.916  19.934  21.338  1.00  0.00    -0.326 OA
HETATM   25  C1  UNL     1       8.019  20.429  22.079  1.00  0.00     0.213 C 
ENDBRANCH  22  24
ENDBRANCH   1  22
TORSDOF 6
ENDMDL
MODEL 4
REMARK VINA RESULT: -7.002745272      1.664      2.931
REMARK  6 active torsions:
REMARK  status: ('A' for Active; 'I' for Inactive)
REMARK    1  A    between atoms: O1_2  and  C2_3 
REMARK    2  A    between atoms: C2_3  and  C3_5 
REMARK    3  A    between atoms: C6_8  and  C7_9 
REMARK    4  A    between atoms: C7_9  and  C8_10 
REMARK    5  A    between atoms: C8_10  and  N1_11 
REMARK       I    between atoms: N1_11  and  C9_13 
REMARK    6  A    between atoms: C9_13  and  C10_15 
ROOT
HETATM    1  C3  UNL     1       8.639  18.900  19.954  1.00  0.00     0.081 C 
HETATM    2  C4  UNL     1       7.611  19.198  21.015  1.00  0.00     0.026 C 
HETATM    3  C5  UNL     1       6.329  18.731  20.302  1.00  0.00     0.039 C 
HETATM    4  C6  UNL     1       6.710  18.516  18.874  1.00  0.00     0.065 C 
HETATM    5  C16 UNL     1       7.889  19.499  18.744  1.00  0.00     0.061 C 
HETATM    6  O4  UNL     1       7.402  17.305  18.801  1.00  0.00    -0.369 OA
HETATM    7  C17 UNL     1       8.575  17.460  19.551  1.00  0.00     0.071 C 
HETATM    8  C18 UNL     1       8.540  16.497  20.682  1.00  0.00     0.047 C 
HETATM    9  C19 UNL     1       9.722  17.095  18.638  1.00  0.00     0.047 C 
ENDROOT
BRANCH   4  10
HETATM   10  C7  UNL     1       5.685  18.703  17.854  1.00  0.00     0.057 C 
BRANCH  10  11
HETATM   11  C8  UNL     1       5.661  17.564  16.888  1.00  0.00     0.125 C 
BRANCH  11  12
HETATM   12  N1  UNL     1       6.878  17.520  16.069  1.00  0.00    -0.361 N 
HETATM   13  C9  UNL     1       7.166  16.281  15.432  1.00  0.00     0.221 C 
HETATM   14  O3  UNL     1       6.435  15.267  15.550  1.00  0.00    -0.273 OA
ATOM     15  H1  UNL     1       7.484  18.333  15.961  1.00  0.00     0.162 HD
BRANCH  13  16
HETATM   16  C10 UNL     1       8.392  16.212  14.598  1.00  0.00     0.078 C 
HETATM   17  C11 UNL     1       8.117  15.709  13.215  1.00  0.00     0.014 C 
HETATM   18  C12 UNL     1       7.302  16.633  12.371  1.00  0.00     0.001 C 
HETATM   19  C13 UNL     1       7.684  18.073  12.483  1.00  0.00     0.000 C 
HETATM   20  C14 UNL     1       7.910  18.502  13.921  1.00  0.00     0.001 C 
HETATM   21  C15 UNL     1       8.964  17.631  14.563  1.00  0.00     0.014 C 
ENDBRANCH  13  16
ENDBRANCH  11  12
ENDBRANCH  10  11
ENDBRANCH   4  10
BRANCH   1  22
HETATM   22  C2  UNL     1       9.936  19.481  20.132  1.00  0.00     0.270 C 
HETATM   23  O2  UNL     1      10.598  19.831  19.094  1.00  0.00    -0.264 OA
BRANCH  22  24
HETATM   24  O1  UNL     1      10.538  19.700  21.337  1.00  0.00    -0.326 OA
HETATM   25  C1  UNL     1      10.344  20.902  22.062  1.00  0.00     0.213 C 
ENDBRANCH  22  24
ENDBRANCH   1  22
TORSDOF 6
ENDMDL
MODEL 5
REMARK VINA RESULT: -6.944413241      1.917      6.832
REMARK  6 active torsions:
REMARK  status: ('A' for Active; 'I' for Inactive)
REMARK    1  A    between atoms: O1_2  and  C2_3 
REMARK    2  A    between atoms: C2_3  and  C3_5 
REMARK    3  A    between atoms: C6_8  and  C7_9 
REMARK    4  A    between atoms: C7_9  and  C8_10 
REMARK    5  A    between atoms: C8_10  and  N1_11 
REMARK       I    between atoms: N1_11  and  C9_13 
REMARK    6  A    between atoms: C9_13  and  C10_15 
ROOT
HETATM    1  C3  UNL     1       8.038  17.357  15.192  1.00  0.00     0.081 C 
HETATM    2  C4  UNL     1       9.322  18.066  15.544  1.00  0.00     0.026 C 
HETATM    3  C5  UNL     1       8.900  18.783  16.838  1.00  0.00     0.039 C 
HETATM    4  C6  UNL     1       7.413  18.657  16.911  1.00  0.00     0.065 C 
HETATM    5  C16 UNL     1       7.065  18.535  15.415  1.00  0.00     0.061 C 
HETATM    6  O4  UNL     1       7.121  17.357  17.329  1.00  0.00    -0.369 OA
HETATM    7  C17 UNL     1       7.588  16.493  16.328  1.00  0.00     0.071 C 
HETATM    8  C18 UNL     1       8.646  15.629  16.912  1.00  0.00     0.047 C 
HETATM    9  C19 UNL     1       6.418  15.626  15.927  1.00  0.00     0.047 C 
ENDROOT
BRANCH   4  10
HETATM   10  C7  UNL     1       6.667  19.707  17.595  1.00  0.00     0.057 C 
BRANCH  10  11
HETATM   11  C8  UNL     1       5.994  19.187  18.823  1.00  0.00     0.125 C 
BRANCH  11  12
HETATM   12  N1  UNL     1       6.960  18.644  19.785  1.00  0.00    -0.361 N 
HETATM   13  C9  UNL     1       7.254  19.460  20.912  1.00  0.00     0.221 C 
HETATM   14  O3  UNL     1       6.730  20.586  21.096  1.00  0.00    -0.273 OA
ATOM     15  H1  UNL     1       7.396  17.732  19.653  1.00  0.00     0.162 HD
BRANCH  13  16
HETATM   16  C10 UNL     1       8.229  18.932  21.900  1.00  0.00     0.078 C 
HETATM   17  C11 UNL     1       8.713  17.559  21.550  1.00  0.00     0.014 C 
HETATM   18  C12 UNL     1       9.556  17.494  20.320  1.00  0.00     0.001 C 
HETATM   19  C13 UNL     1      10.559  18.596  20.197  1.00  0.00     0.000 C 
HETATM   20  C14 UNL     1       9.972  19.953  20.537  1.00  0.00     0.001 C 
HETATM   21  C15 UNL     1       9.388  19.931  21.930  1.00  0.00     0.014 C 
ENDBRANCH  13  16
ENDBRANCH  11  12
ENDBRANCH  10  11
ENDBRANCH   4  10
BRANCH   1  22
HETATM   22  C2  UNL     1       7.942  16.815  13.870  1.00  0.00     0.270 C 
HETATM   23  O2  UNL     1       8.415  15.646  13.651  1.00  0.00    -0.264 OA
BRANCH  22  24
HETATM   24  O1  UNL     1       7.379  17.450  12.802  1.00  0.00    -0.326 OA
HETATM   25  C1  UNL     1       8.153  18.213  11.892  1.00  0.00     0.213 C 
ENDBRANCH  22  24
ENDBRANCH   1  22
TORSDOF 6
ENDMDL
