MODEL 1
REMARK VINA RESULT: -7.360120903      0.000      0.000
REMARK  6 active torsions:
REMARK  status: ('A' for Active; 'I' for Inactive)
REMARK    1  A    between atoms: C3_5  and  N2_6 
REMARK    2  A    between atoms: N2_6  and  C4_8 
REMARK    3  A    between atoms: C4_8  and  C5_9 
REMARK    4  A    between atoms: C5_9  and  C6_10 
REMARK    5  A    between atoms: C6_10  and  N3_11 
REMARK    6  A    between atoms: C12_19  and  C13_20 
ROOT
HETATM    1  C1  UNL     1       7.746  14.564  14.144  1.00  0.00     0.069 C 
HETATM    2  C2  UNL     1       8.030  15.650  15.178  1.00  0.00     0.021 A 
HETATM    3  N1  UNL     1       8.741  15.423  16.258  1.00  0.00    -0.340 N 
ATOM      4  H1  UNL     1       9.130  14.498  16.440  1.00  0.00     0.168 HD
HETATM    5  C3  UNL     1       8.942  16.423  17.110  1.00  0.00     0.145 A 
HETATM    6  S1  UNL     1       8.110  17.721  16.377  1.00  0.00    -0.057 SA
HETATM    7  C12 UNL     1       7.535  16.908  14.993  1.00  0.00     0.012 A 
ENDROOT
BRANCH   5   8
HETATM    8  N2  UNL     1       9.618  16.412  18.240  1.00  0.00    -0.370 N 
ATOM      9  H2  UNL     1      10.437  17.004  18.376  1.00  0.00     0.161 HD
BRANCH   8  10
HETATM   10  C4  UNL     1       9.153  15.531  19.273  1.00  0.00     0.123 C 
BRANCH  10  11
HETATM   11  C5  UNL     1       8.802  16.334  20.505  1.00  0.00     0.050 C 
BRANCH  11  12
HETATM   12  C6  UNL     1       8.043  17.586  20.183  1.00  0.00     0.274 C 
BRANCH  12  13
HETATM   13  N3  UNL     1       8.529  18.646  21.010  1.00  0.00     0.097 N 
HETATM   14  C7  UNL     1       7.613  19.763  21.126  1.00  0.00     0.299 C 
HETATM   15  C8  UNL     1       7.970  20.458  22.447  1.00  0.00     0.198 C 
HETATM   16  O1  UNL     1       9.307  20.244  22.779  1.00  0.00    -0.387 OA
HETATM   17  C9  UNL     1      10.135  20.277  21.654  1.00  0.00     0.203 C 
HETATM   18  C10 UNL     1       9.877  19.046  20.775  1.00  0.00     0.242 C 
HETATM   19  C11 UNL     1      10.125  19.492  19.349  1.00  0.00     0.045 C 
ENDBRANCH  12  13
ENDBRANCH  11  12
ENDBRANCH  10  11
ENDBRANCH   8  10
ENDBRANCH   5   8
BRANCH   7  20
HETATM   20  C13 UNL     1       6.707  17.464  13.885  1.00  0.00     0.028 C 
HETATM   21  C14 UNL     1       7.042  16.710  12.637  1.00  0.00     0.010 C 
HETATM   22  C15 UNL     1       8.332  17.098  12.003  1.00  0.00     0.001 C 
HETATM   23  C16 UNL     1       8.603  18.563  11.964  1.00  0.00     0.000 C 
HETATM   24  C17 UNL     1       8.375  19.203  13.322  1.00  0.00     0.001 C 
HETATM   25  C18 UNL     1       6.910  18.923  13.671  1.00  0.00     0.010 C 
ENDBRANCH   7  20
TORSDOF 6
ENDMDL
MODEL 2
REMARK VINA RESULT: -7.318630320      2.060      3.222
REMARK  6 active torsions:
REMARK  status: ('A' for Active; 'I' for Inactive)
REMARK    1  A    between atoms: C3_5  and  N2_6 
REMARK    2  A    between atoms: N2_6  and  C4_8 
REMARK    3  A    between atoms: C4_8  and  C5_9 
REMARK    4  A    between atoms: C5_9  and  C6_10 
REMARK    5  A    between atoms: C6_10  and  N3_11 
REMARK    6  A    between atoms: C12_19  and  C13_20 
ROOT
HETATM    1  C1  UNL     1       6.473  15.804  16.148  1.00  0.00     0.069 C 
HETATM    2  C2  UNL     1       6.751  17.230  16.615  1.00  0.00     0.021 A 
HETATM    3  N1  UNL     1       6.092  17.787  17.605  1.00  0.00    -0.340 N 
ATOM      4  H1  UNL     1       5.362  17.273  18.098  1.00  0.00     0.168 HD
HETATM    5  C3  UNL     1       6.394  19.035  17.950  1.00  0.00     0.145 A 
HETATM    6  S1  UNL     1       7.639  19.441  16.855  1.00  0.00    -0.057 SA
HETATM    7  C12 UNL     1       7.714  17.971  15.994  1.00  0.00     0.012 A 
ENDROOT
BRANCH   5   8
HETATM    8  N2  UNL     1       5.862  19.772  18.903  1.00  0.00    -0.370 N 
ATOM      9  H2  UNL     1       5.383  20.648  18.693  1.00  0.00     0.161 HD
BRANCH   8  10
HETATM   10  C4  UNL     1       5.984  19.290  20.249  1.00  0.00     0.123 C 
BRANCH  10  11
HETATM   11  C5  UNL     1       6.919  20.189  21.026  1.00  0.00     0.050 C 
BRANCH  11  12
HETATM   12  C6  UNL     1       8.043  19.436  21.673  1.00  0.00     0.274 C 
BRANCH  12  13
HETATM   13  N3  UNL     1       8.384  18.319  20.850  1.00  0.00     0.097 N 
HETATM   14  C7  UNL     1       8.757  17.135  21.598  1.00  0.00     0.299 C 
HETATM   15  C8  UNL     1       8.485  15.949  20.662  1.00  0.00     0.198 C 
HETATM   16  O1  UNL     1       8.574  16.337  19.326  1.00  0.00    -0.387 OA
HETATM   17  C9  UNL     1       9.611  17.250  19.115  1.00  0.00     0.203 C 
HETATM   18  C10 UNL     1       9.264  18.598  19.763  1.00  0.00     0.242 C 
HETATM   19  C11 UNL     1      10.582  19.201  20.202  1.00  0.00     0.045 C 
ENDBRANCH  12  13
ENDBRANCH  11  12
ENDBRANCH  10  11
ENDBRANCH   8  10
ENDBRANCH   5   8
BRANCH   7  20
HETATM   20  C13 UNL     1       8.616  17.622  14.860  1.00  0.00     0.028 C 
HETATM   21  C14 UNL     1       9.252  18.885  14.372  1.00  0.00     0.010 C 
HETATM   22  C15 UNL     1       8.368  19.744  13.537  1.00  0.00     0.001 C 
HETATM   23  C16 UNL     1       7.535  19.015  12.539  1.00  0.00     0.000 C 
HETATM   24  C17 UNL     1       6.817  17.837  13.176  1.00  0.00     0.001 C 
HETATM   25  C18 UNL     1       7.918  16.936  13.740  1.00  0.00     0.010 C 
ENDBRANCH   7  20
TORSDOF 6
ENDMDL
MODEL 3
REMARK VINA RESULT: -7.311270783      1.161      1.978
REMARK  6 active torsions:
REMARK  status: ('A' for Active; 'I' for Inactive)
REMARK    1  A    between atoms: C3_5  and  N2_6 
REMARK    2  A    between atoms: N2_6  and  C4_8 
REMARK    3  A    between atoms: C4_8  and  C5_9 
REMARK    4  A    between atoms: C5_9  and  C6_10 
REMARK    5  A    between atoms: C6_10  and  N3_11 
REMARK    6  A    between atoms: C12_19  and  C13_20 
ROOT
HETATM    1  C1  UNL     1       7.056  14.547  15.664  1.00  0.00     0.069 C 
HETATM    2  C2  UNL     1       7.958  15.750  15.927  1.00  0.00     0.021 A 
HETATM    3  N1  UNL     1       8.909  15.732  16.832  1.00  0.00    -0.340 N 
ATOM      4  H1  UNL     1       9.076  14.897  17.395  1.00  0.00     0.168 HD
HETATM    5  C3  UNL     1       9.651  16.822  16.999  1.00  0.00     0.145 A 
HETATM    6  S1  UNL     1       8.996  17.907  15.855  1.00  0.00    -0.057 SA
HETATM    7  C12 UNL     1       7.785  16.896  15.207  1.00  0.00     0.012 A 
ENDROOT
BRANCH   5   8
HETATM    8  N2  UNL     1      10.646  17.014  17.841  1.00  0.00    -0.370 N 
ATOM      9  H2  UNL     1      10.929  16.291  18.503  1.00  0.00     0.161 HD
BRANCH   8  10
HETATM   10  C4  UNL     1      11.315  18.282  17.786  1.00  0.00     0.123 C 
BRANCH  10  11
HETATM   11  C5  UNL     1      10.613  19.265  18.695  1.00  0.00     0.050 C 
BRANCH  11  12
HETATM   12  C6  UNL     1      10.318  18.693  20.049  1.00  0.00     0.274 C 
BRANCH  12  13
HETATM   13  N3  UNL     1       9.001  19.087  20.441  1.00  0.00     0.097 N 
HETATM   14  C7  UNL     1       8.865  19.337  21.862  1.00  0.00     0.299 C 
HETATM   15  C8  UNL     1       7.672  20.294  22.003  1.00  0.00     0.198 C 
HETATM   16  O1  UNL     1       6.782  20.142  20.941  1.00  0.00    -0.387 OA
HETATM   17  C9  UNL     1       6.643  18.804  20.563  1.00  0.00     0.203 C 
HETATM   18  C10 UNL     1       7.936  18.308  19.902  1.00  0.00     0.242 C 
HETATM   19  C11 UNL     1       8.042  16.836  20.245  1.00  0.00     0.045 C 
ENDBRANCH  12  13
ENDBRANCH  11  12
ENDBRANCH  10  11
ENDBRANCH   8  10
ENDBRANCH   5   8
BRANCH   7  20
HETATM   20  C13 UNL     1       6.807  17.219  14.129  1.00  0.00     0.028 C 
HETATM   21  C14 UNL     1       7.118  16.352  12.951  1.00  0.00     0.010 C 
HETATM   22  C15 UNL     1       8.296  16.788  12.152  1.00  0.00     0.001 C 
HETATM   23  C16 UNL     1       8.392  18.257  11.915  1.00  0.00     0.000 C 
HETATM   24  C17 UNL     1       8.208  19.036  13.206  1.00  0.00     0.001 C 
HETATM   25  C18 UNL     1       6.821  18.651  13.728  1.00  0.00     0.010 C 
ENDBRANCH   7  20
TORSDOF 6
ENDMDL
MODEL 4
REMARK VINA RESULT: -7.299925460      1.713      2.376
REMARK  6 active torsions:
REMARK  status: ('A' for Active; 'I' for Inactive)
REMARK    1  A    between atoms: C3_5  and  N2_6 
REMARK    2  A    between atoms: N2_6  and  C4_8 
REMARK    3  A    between atoms: C4_8  and  C5_9 
REMARK    4  A    between atoms: C5_9  and  C6_10 
REMARK    5  A    between atoms: C6_10  and  N3_11 
REMARK    6  A    between atoms: C12_19  and  C13_20 
ROOT
HETATM    1  C1  UNL     1       6.783  14.607  15.619  1.00  0.00     0.069 C 
HETATM    2  C2  UNL     1       7.832  15.702  15.797  1.00  0.00     0.021 A 
HETATM    3  N1  UNL     1       8.807  15.606  16.671  1.00  0.00    -0.340 N 
ATOM      4  H1  UNL     1       8.892  14.783  17.268  1.00  0.00     0.168 HD
HETATM    5  C3  UNL     1       9.680  16.605  16.764  1.00  0.00     0.145 A 
HETATM    6  S1  UNL     1       9.118  17.711  15.592  1.00  0.00    -0.057 SA
HETATM    7  C12 UNL     1       7.771  16.829  15.030  1.00  0.00     0.012 A 
ENDROOT
BRANCH   5   8
HETATM    8  N2  UNL     1      10.720  16.710  17.564  1.00  0.00    -0.370 N 
ATOM      9  H2  UNL     1      11.079  15.905  18.079  1.00  0.00     0.161 HD
BRANCH   8  10
HETATM   10  C4  UNL     1      11.328  18.004  17.682  1.00  0.00     0.123 C 
BRANCH  10  11
HETATM   11  C5  UNL     1      10.553  18.841  18.674  1.00  0.00     0.050 C 
BRANCH  11  12
HETATM   12  C6  UNL     1       9.729  18.011  19.613  1.00  0.00     0.274 C 
BRANCH  12  13
HETATM   13  N3  UNL     1       8.356  18.385  19.477  1.00  0.00     0.097 N 
HETATM   14  C7  UNL     1       8.137  19.471  18.543  1.00  0.00     0.299 C 
HETATM   15  C8  UNL     1       6.685  19.323  18.067  1.00  0.00     0.198 C 
HETATM   16  O1  UNL     1       5.907  18.681  19.030  1.00  0.00    -0.387 OA
HETATM   17  C9  UNL     1       6.246  19.080  20.326  1.00  0.00     0.203 C 
HETATM   18  C10 UNL     1       7.633  18.537  20.696  1.00  0.00     0.242 C 
HETATM   19  C11 UNL     1       8.246  19.561  21.629  1.00  0.00     0.045 C 
ENDBRANCH  12  13
ENDBRANCH  11  12
ENDBRANCH  10  11
ENDBRANCH   8  10
ENDBRANCH   5   8
BRANCH   7  20
HETATM   20  C13 UNL     1       6.800  17.222  13.969  1.00  0.00     0.028 C 
HETATM   21  C14 UNL     1       7.097  16.408  12.750  1.00  0.00     0.010 C 
HETATM   22  C15 UNL     1       8.283  16.862  11.973  1.00  0.00     0.001 C 
HETATM   23  C16 UNL     1       8.406  18.338  11.809  1.00  0.00     0.000 C 
HETATM   24  C17 UNL     1       8.235  19.057  13.136  1.00  0.00     0.001 C 
HETATM   25  C18 UNL     1       6.841  18.672  13.639  1.00  0.00     0.010 C 
ENDBRANCH   7  20
TORSDOF 6
ENDMDL
MODEL 5
REMARK VINA RESULT: -7.291405832      0.961      1.305
REMARK  6 active torsions:
REMARK  status: ('A' for Active; 'I' for Inactive)
REMARK    1  A    between atoms: C3_5  and  N2_6 
REMARK    2  A    between atoms: N2_6  and  C4_8 
REMARK    3  A    between atoms: C4_8  and  C5_9 
REMARK    4  A    between atoms: C5_9  and  C6_10 
REMARK    5  A    between atoms: C6_10  and  N3_11 
REMARK    6  A    between atoms: C12_19  and  C13_20 
ROOT
HETATM    1  C1  UNL     1       7.955  14.516  14.196  1.00  0.00     0.069 C 
HETATM    2  C2  UNL     1       8.286  15.701  15.100  1.00  0.00     0.021 A 
HETATM    3  N1  UNL     1       9.099  15.597  16.125  1.00  0.00    -0.340 N 
ATOM      4  H1  UNL     1       9.541  14.706  16.351  1.00  0.00     0.168 HD
HETATM    5  C3  UNL     1       9.335  16.678  16.863  1.00  0.00     0.145 A 
HETATM    6  S1  UNL     1       8.387  17.874  16.099  1.00  0.00    -0.057 SA
HETATM    7  C12 UNL     1       7.725  16.920  14.851  1.00  0.00     0.012 A 
ENDROOT
BRANCH   5   8
HETATM    8  N2  UNL     1      10.109  16.792  17.923  1.00  0.00    -0.370 N 
ATOM      9  H2  UNL     1      10.862  17.479  17.959  1.00  0.00     0.161 HD
BRANCH   8  10
HETATM   10  C4  UNL     1       9.848  15.909  19.023  1.00  0.00     0.123 C 
BRANCH  10  11
HETATM   11  C5  UNL     1       8.505  16.242  19.632  1.00  0.00     0.050 C 
BRANCH  11  12
HETATM   12  C6  UNL     1       8.618  16.784  21.025  1.00  0.00     0.274 C 
BRANCH  12  13
HETATM   13  N3  UNL     1       7.972  18.057  21.080  1.00  0.00     0.097 N 
HETATM   14  C7  UNL     1       7.487  18.521  19.795  1.00  0.00     0.299 C 
HETATM   15  C8  UNL     1       6.350  19.503  20.110  1.00  0.00     0.198 C 
HETATM   16  O1  UNL     1       6.527  20.086  21.364  1.00  0.00    -0.387 OA
HETATM   17  C9  UNL     1       7.871  20.370  21.623  1.00  0.00     0.203 C 
HETATM   18  C10 UNL     1       8.655  19.066  21.821  1.00  0.00     0.242 C 
HETATM   19  C11 UNL     1      10.054  19.338  21.309  1.00  0.00     0.045 C 
ENDBRANCH  12  13
ENDBRANCH  11  12
ENDBRANCH  10  11
ENDBRANCH   8  10
ENDBRANCH   5   8
BRANCH   7  20
HETATM   20  C13 UNL     1       6.779  17.345  13.780  1.00  0.00     0.028 C 
HETATM   21  C14 UNL     1       7.149  16.621  12.525  1.00  0.00     0.010 C 
HETATM   22  C15 UNL     1       8.345  17.163  11.824  1.00  0.00     0.001 C 
HETATM   23  C16 UNL     1       8.420  18.650  11.756  1.00  0.00     0.000 C 
HETATM   24  C17 UNL     1       8.174  19.277  13.118  1.00  0.00     0.001 C 
HETATM   25  C18 UNL     1       6.778  18.813  13.542  1.00  0.00     0.010 C 
ENDBRANCH   7  20
TORSDOF 6
ENDMDL
