MODEL 1
REMARK VINA RESULT: -6.872672405      0.000      0.000
REMARK  5 active torsions:
REMARK  status: ('A' for Active; 'I' for Inactive)
REMARK    1  A    between atoms: O1_2  and  C2_3 
REMARK       I    between atoms: C2_3  and  N1_5 
REMARK    2  A    between atoms: N1_5  and  C3_7 
REMARK    3  A    between atoms: C3_7  and  C5_9 
REMARK       I    between atoms: C5_9  and  N2_11 
REMARK    4  A    between atoms: C11_17  and  C12_18 
REMARK    5  A    between atoms: C12_18  and  C13_19 
ROOT
HETATM    1  C5  UNL     1       8.719  18.043  19.220  1.00  0.00     0.243 C 
HETATM    2  O3  UNL     1       9.887  18.110  19.730  1.00  0.00    -0.271 OA
HETATM    3  N2  UNL     1       8.563  17.379  17.999  1.00  0.00    -0.341 N 
HETATM    4  C6  UNL     1       9.673  16.816  17.245  1.00  0.00     0.083 C 
HETATM    5  C7  UNL     1      11.008  17.397  17.560  1.00  0.00     0.032 C 
HETATM    6  C8  UNL     1       9.678  15.343  17.605  1.00  0.00     0.025 C 
HETATM    7  C9  UNL     1       8.288  14.809  17.462  1.00  0.00     0.004 C 
HETATM    8  C10 UNL     1       7.403  15.731  16.694  1.00  0.00     0.025 C 
HETATM    9  C11 UNL     1       7.260  17.112  17.369  1.00  0.00     0.088 C 
ENDROOT
BRANCH   1  10
HETATM   10  C3  UNL     1       7.646  18.691  20.004  1.00  0.00     0.175 C 
HETATM   11  C4  UNL     1       6.461  18.948  19.045  1.00  0.00     0.042 C 
BRANCH  10  12
HETATM   12  N1  UNL     1       8.035  19.939  20.597  1.00  0.00    -0.324 N 
HETATM   13  C2  UNL     1       8.601  19.945  21.900  1.00  0.00     0.360 C 
HETATM   14  O2  UNL     1       8.774  18.879  22.555  1.00  0.00    -0.239 OA
ATOM     15  H1  UNL     1       7.906  20.813  20.087  1.00  0.00     0.165 HD
BRANCH  13  16
HETATM   16  O1  UNL     1       9.005  21.132  22.540  1.00  0.00    -0.309 OA
HETATM   17  C1  UNL     1      10.385  21.482  22.518  1.00  0.00     0.215 C 
ENDBRANCH  13  16
ENDBRANCH  10  12
ENDBRANCH   1  10
BRANCH   9  18
HETATM   18  C12 UNL     1       6.921  18.075  16.280  1.00  0.00     0.040 C 
BRANCH  18  19
HETATM   19  C13 UNL     1       7.201  17.424  14.934  1.00  0.00     0.051 C 
HETATM   20  C14 UNL     1       8.448  17.898  14.231  1.00  0.00     0.034 C 
HETATM   21  C15 UNL     1       7.838  17.675  12.877  1.00  0.00     0.002 C 
HETATM   22  C16 UNL     1       8.385  18.612  11.820  1.00  0.00     0.026 C 
HETATM   23  C17 UNL     1       7.833  16.255  12.364  1.00  0.00     0.026 C 
HETATM   24  S1  UNL     1       6.254  18.201  13.579  1.00  0.00    -0.155 SA
ENDBRANCH  18  19
ENDBRANCH   9  18
TORSDOF 5
ENDMDL
MODEL 2
REMARK VINA RESULT: -6.739925033      1.097      1.320
REMARK  5 active torsions:
REMARK  status: ('A' for Active; 'I' for Inactive)
REMARK    1  A    between atoms: O1_2  and  C2_3 
REMARK       I    between atoms: C2_3  and  N1_5 
REMARK    2  A    between atoms: N1_5  and  C3_7 
REMARK    3  A    between atoms: C3_7  and  C5_9 
REMARK       I    between atoms: C5_9  and  N2_11 
REMARK    4  A    between atoms: C11_17  and  C12_18 
REMARK    5  A    between atoms: C12_18  and  C13_19 
ROOT
HETATM    1  C5  UNL     1       8.338  18.481  18.584  1.00  0.00     0.243 C 
HETATM    2  O3  UNL     1       9.406  19.156  18.764  1.00  0.00    -0.271 OA
HETATM    3  N2  UNL     1       8.388  17.367  17.742  1.00  0.00    -0.341 N 
HETATM    4  C6  UNL     1       9.579  16.972  17.005  1.00  0.00     0.083 C 
HETATM    5  C7  UNL     1      10.576  18.058  16.789  1.00  0.00     0.032 C 
HETATM    6  C8  UNL     1      10.212  15.881  17.847  1.00  0.00     0.025 C 
HETATM    7  C9  UNL     1       9.157  14.886  18.216  1.00  0.00     0.004 C 
HETATM    8  C10 UNL     1       7.924  15.038  17.392  1.00  0.00     0.025 C 
HETATM    9  C11 UNL     1       7.271  16.427  17.554  1.00  0.00     0.088 C 
ENDROOT
BRANCH   1  10
HETATM   10  C3  UNL     1       7.147  18.973  19.311  1.00  0.00     0.175 C 
HETATM   11  C4  UNL     1       6.253  19.714  18.290  1.00  0.00     0.042 C 
BRANCH  10  12
HETATM   12  N1  UNL     1       7.456  19.871  20.387  1.00  0.00    -0.324 N 
HETATM   13  C2  UNL     1       8.088  19.368  21.555  1.00  0.00     0.360 C 
HETATM   14  O2  UNL     1       8.390  18.147  21.675  1.00  0.00    -0.239 OA
ATOM     15  H1  UNL     1       7.223  20.861  20.313  1.00  0.00     0.165 HD
BRANCH  13  16
HETATM   16  O1  UNL     1       8.420  20.192  22.647  1.00  0.00    -0.309 OA
HETATM   17  C1  UNL     1       9.574  21.020  22.550  1.00  0.00     0.215 C 
ENDBRANCH  13  16
ENDBRANCH  10  12
ENDBRANCH   1  10
BRANCH   9  18
HETATM   18  C12 UNL     1       6.496  16.671  16.301  1.00  0.00     0.040 C 
BRANCH  18  19
HETATM   19  C13 UNL     1       7.341  17.499  15.345  1.00  0.00     0.051 C 
HETATM   20  C14 UNL     1       6.616  18.038  14.138  1.00  0.00     0.034 C 
HETATM   21  C15 UNL     1       7.854  17.966  13.292  1.00  0.00     0.002 C 
HETATM   22  C16 UNL     1       7.553  17.744  11.824  1.00  0.00     0.026 C 
HETATM   23  C17 UNL     1       8.852  19.086  13.456  1.00  0.00     0.026 C 
HETATM   24  S1  UNL     1       8.298  16.457  14.189  1.00  0.00    -0.155 SA
ENDBRANCH  18  19
ENDBRANCH   9  18
TORSDOF 5
ENDMDL
MODEL 3
REMARK VINA RESULT: -6.485379487      2.496      5.033
REMARK  5 active torsions:
REMARK  status: ('A' for Active; 'I' for Inactive)
REMARK    1  A    between atoms: O1_2  and  C2_3 
REMARK       I    between atoms: C2_3  and  N1_5 
REMARK    2  A    between atoms: N1_5  and  C3_7 
REMARK    3  A    between atoms: C3_7  and  C5_9 
REMARK       I    between atoms: C5_9  and  N2_11 
REMARK    4  A    between atoms: C11_17  and  C12_18 
REMARK    5  A    between atoms: C12_18  and  C13_19 
ROOT
HETATM    1  C5  UNL     1       9.006  16.473  19.135  1.00  0.00     0.243 C 
HETATM    2  O3  UNL     1       9.064  15.879  20.263  1.00  0.00    -0.271 OA
HETATM    3  N2  UNL     1       8.857  17.863  19.122  1.00  0.00    -0.341 N 
HETATM    4  C6  UNL     1       8.698  18.664  20.326  1.00  0.00     0.083 C 
HETATM    5  C7  UNL     1       8.205  17.918  21.518  1.00  0.00     0.032 C 
HETATM    6  C8  UNL     1      10.085  19.202  20.620  1.00  0.00     0.025 C 
HETATM    7  C9  UNL     1      10.649  19.787  19.363  1.00  0.00     0.004 C 
HETATM    8  C10 UNL     1       9.605  19.998  18.320  1.00  0.00     0.025 C 
HETATM    9  C11 UNL     1       8.911  18.684  17.902  1.00  0.00     0.088 C 
ENDROOT
BRANCH   1  10
HETATM   10  C3  UNL     1       9.108  15.595  17.949  1.00  0.00     0.175 C 
HETATM   11  C4  UNL     1      10.408  15.974  17.202  1.00  0.00     0.042 C 
BRANCH  10  12
HETATM   12  N1  UNL     1       8.005  15.720  17.040  1.00  0.00    -0.324 N 
HETATM   13  C2  UNL     1       7.488  14.557  16.407  1.00  0.00     0.360 C 
HETATM   14  O2  UNL     1       7.973  13.411  16.623  1.00  0.00    -0.239 OA
ATOM     15  H1  UNL     1       7.595  16.634  16.850  1.00  0.00     0.165 HD
BRANCH  13  16
HETATM   16  O1  UNL     1       6.408  14.607  15.506  1.00  0.00    -0.309 OA
HETATM   17  C1  UNL     1       5.237  15.323  15.884  1.00  0.00     0.215 C 
ENDBRANCH  13  16
ENDBRANCH  10  12
ENDBRANCH   1  10
BRANCH   9  18
HETATM   18  C12 UNL     1       7.564  19.070  17.387  1.00  0.00     0.040 C 
BRANCH  18  19
HETATM   19  C13 UNL     1       7.631  19.212  15.874  1.00  0.00     0.051 C 
HETATM   20  C14 UNL     1       6.816  18.214  15.091  1.00  0.00     0.034 C 
HETATM   21  C15 UNL     1       7.790  18.229  13.948  1.00  0.00     0.002 C 
HETATM   22  C16 UNL     1       7.830  16.919  13.189  1.00  0.00     0.026 C 
HETATM   23  C17 UNL     1       7.685  19.388  12.986  1.00  0.00     0.026 C 
HETATM   24  S1  UNL     1       9.115  18.413  15.169  1.00  0.00    -0.155 SA
ENDBRANCH  18  19
ENDBRANCH   9  18
TORSDOF 5
ENDMDL
MODEL 4
REMARK VINA RESULT: -6.348593264      2.190      4.555
REMARK  5 active torsions:
REMARK  status: ('A' for Active; 'I' for Inactive)
REMARK    1  A    between atoms: O1_2  and  C2_3 
REMARK       I    between atoms: C2_3  and  N1_5 
REMARK    2  A    between atoms: N1_5  and  C3_7 
REMARK    3  A    between atoms: C3_7  and  C5_9 
REMARK       I    between atoms: C5_9  and  N2_11 
REMARK    4  A    between atoms: C11_17  and  C12_18 
REMARK    5  A    between atoms: C12_18  and  C13_19 
ROOT
HETATM    1  C5  UNL     1       9.034  16.675  18.923  1.00  0.00     0.243 C 
HETATM    2  O3  UNL     1       9.113  15.927  19.954  1.00  0.00    -0.271 OA
HETATM    3  N2  UNL     1       8.816  18.043  19.110  1.00  0.00    -0.341 N 
HETATM    4  C6  UNL     1       8.607  18.652  20.415  1.00  0.00     0.083 C 
HETATM    5  C7  UNL     1       8.143  17.717  21.478  1.00  0.00     0.032 C 
HETATM    6  C8  UNL     1       9.963  19.208  20.805  1.00  0.00     0.025 C 
HETATM    7  C9  UNL     1      10.507  19.996  19.655  1.00  0.00     0.004 C 
HETATM    8  C10 UNL     1       9.462  20.307  18.638  1.00  0.00     0.025 C 
HETATM    9  C11 UNL     1       8.839  19.036  18.023  1.00  0.00     0.088 C 
ENDROOT
BRANCH   1  10
HETATM   10  C3  UNL     1       9.191  15.986  17.624  1.00  0.00     0.175 C 
HETATM   11  C4  UNL     1       8.193  14.805  17.602  1.00  0.00     0.042 C 
BRANCH  10  12
HETATM   12  N1  UNL     1      10.512  15.474  17.396  1.00  0.00    -0.324 N 
HETATM   13  C2  UNL     1      11.590  16.381  17.216  1.00  0.00     0.360 C 
HETATM   14  O2  UNL     1      11.420  17.632  17.252  1.00  0.00    -0.239 OA
ATOM     15  H1  UNL     1      10.675  14.467  17.364  1.00  0.00     0.165 HD
BRANCH  13  16
HETATM   16  O1  UNL     1      12.911  15.948  16.990  1.00  0.00    -0.309 OA
HETATM   17  C1  UNL     1      13.977  16.860  17.227  1.00  0.00     0.215 C 
ENDBRANCH  13  16
ENDBRANCH  10  12
ENDBRANCH   1  10
BRANCH   9  18
HETATM   18  C12 UNL     1       7.478  19.427  17.549  1.00  0.00     0.040 C 
BRANCH  18  19
HETATM   19  C13 UNL     1       7.367  19.137  16.060  1.00  0.00     0.051 C 
HETATM   20  C14 UNL     1       6.780  17.796  15.701  1.00  0.00     0.034 C 
HETATM   21  C15 UNL     1       7.606  17.705  14.451  1.00  0.00     0.002 C 
HETATM   22  C16 UNL     1       7.925  16.278  14.055  1.00  0.00     0.026 C 
HETATM   23  C17 UNL     1       7.110  18.479  13.254  1.00  0.00     0.026 C 
HETATM   24  S1  UNL     1       8.940  18.534  15.353  1.00  0.00    -0.155 SA
ENDBRANCH  18  19
ENDBRANCH   9  18
TORSDOF 5
ENDMDL
MODEL 5
REMARK VINA RESULT: -6.330809479      3.382      6.674
REMARK  5 active torsions:
REMARK  status: ('A' for Active; 'I' for Inactive)
REMARK    1  A    between atoms: O1_2  and  C2_3 
REMARK       I    between atoms: C2_3  and  N1_5 
REMARK    2  A    between atoms: N1_5  and  C3_7 
REMARK    3  A    between atoms: C3_7  and  C5_9 
REMARK       I    between atoms: C5_9  and  N2_11 
REMARK    4  A    between atoms: C11_17  and  C12_18 
REMARK    5  A    between atoms: C12_18  and  C13_19 
ROOT
HETATM    1  C5  UNL     1       7.804  15.714  16.504  1.00  0.00     0.243 C 
HETATM    2  O3  UNL     1       7.984  14.491  16.821  1.00  0.00    -0.271 OA
HETATM    3  N2  UNL     1       8.606  16.684  17.113  1.00  0.00    -0.341 N 
HETATM    4  C6  UNL     1       9.591  16.381  18.139  1.00  0.00     0.083 C 
HETATM    5  C7  UNL     1       9.371  15.099  18.865  1.00  0.00     0.032 C 
HETATM    6  C8  UNL     1      10.913  16.309  17.399  1.00  0.00     0.025 C 
HETATM    7  C9  UNL     1      11.041  17.518  16.527  1.00  0.00     0.004 C 
HETATM    8  C10 UNL     1      10.060  18.581  16.886  1.00  0.00     0.025 C 
HETATM    9  C11 UNL     1       8.597  18.109  16.743  1.00  0.00     0.088 C 
ENDROOT
BRANCH   1  10
HETATM   10  C3  UNL     1       6.744  15.961  15.503  1.00  0.00     0.175 C 
HETATM   11  C4  UNL     1       5.635  14.910  15.732  1.00  0.00     0.042 C 
BRANCH  10  12
HETATM   12  N1  UNL     1       7.196  15.861  14.144  1.00  0.00    -0.324 N 
HETATM   13  C2  UNL     1       7.188  17.017  13.319  1.00  0.00     0.360 C 
HETATM   14  O2  UNL     1       6.794  18.138  13.749  1.00  0.00    -0.239 OA
ATOM     15  H1  UNL     1       7.521  14.967  13.775  1.00  0.00     0.165 HD
BRANCH  13  16
HETATM   16  O1  UNL     1       7.618  16.991  11.979  1.00  0.00    -0.309 OA
HETATM   17  C1  UNL     1       8.388  18.083  11.489  1.00  0.00     0.215 C 
ENDBRANCH  13  16
ENDBRANCH  10  12
ENDBRANCH   1  10
BRANCH   9  18
HETATM   18  C12 UNL     1       7.793  18.957  17.671  1.00  0.00     0.040 C 
BRANCH  18  19
HETATM   19  C13 UNL     1       8.067  18.528  19.104  1.00  0.00     0.051 C 
HETATM   20  C14 UNL     1       7.127  19.088  20.141  1.00  0.00     0.034 C 
HETATM   21  C15 UNL     1       8.200  19.095  21.191  1.00  0.00     0.002 C 
HETATM   22  C16 UNL     1       8.004  20.181  22.229  1.00  0.00     0.026 C 
HETATM   23  C17 UNL     1       8.497  17.777  21.865  1.00  0.00     0.026 C 
HETATM   24  S1  UNL     1       9.380  19.528  19.887  1.00  0.00    -0.155 SA
ENDBRANCH  18  19
ENDBRANCH   9  18
TORSDOF 5
ENDMDL
