MODEL 1
REMARK VINA RESULT: -6.615864597      0.000      0.000
REMARK  7 active torsions:
REMARK  status: ('A' for Active; 'I' for Inactive)
REMARK    1  A    between atoms: O1_2  and  C2_3 
REMARK    2  A    between atoms: C2_3  and  C3_4 
REMARK    3  A    between atoms: C3_4  and  O2_5 
REMARK    4  A    between atoms: O2_5  and  C4_6 
REMARK    5  A    between atoms: C9_11  and  O3_12 
REMARK    6  A    between atoms: N1_22  and  C18_23 
REMARK    7  A    between atoms: C18_23  and  C19_24 
ROOT
HETATM    1  C4  UNL     1       7.697  16.273  14.760  1.00  0.00     0.102 A 
HETATM    2  C5  UNL     1       7.835  17.261  15.766  1.00  0.00     0.048 A 
HETATM    3  C6  UNL     1       8.092  16.939  17.086  1.00  0.00    -0.040 A 
HETATM    4  C7  UNL     1       8.213  15.602  17.381  1.00  0.00    -0.048 A 
HETATM    5  C8  UNL     1       8.084  14.616  16.429  1.00  0.00     0.047 A 
HETATM    6  C9  UNL     1       7.831  14.906  15.128  1.00  0.00     0.099 A 
HETATM    7  C10 UNL     1       8.525  15.468  18.862  1.00  0.00     0.045 C 
HETATM    8  C11 UNL     1       9.246  16.713  19.041  1.00  0.00     0.005 C 
HETATM    9  C12 UNL     1       9.295  17.430  20.333  1.00  0.00     0.041 C 
HETATM   10  C13 UNL     1       9.418  18.865  19.860  1.00  0.00     0.224 C 
HETATM   11  C14 UNL     1       9.183  18.846  18.336  1.00  0.00     0.050 C 
HETATM   12  C15 UNL     1       8.276  17.668  18.316  1.00  0.00    -0.005 C 
HETATM   13  C16 UNL     1       7.042  17.926  19.058  1.00  0.00     0.045 C 
HETATM   14  C17 UNL     1       7.062  18.965  20.141  1.00  0.00     0.274 C 
HETATM   15  N1  UNL     1       8.288  19.599  20.438  1.00  0.00     0.093 N 
ENDROOT
BRANCH   1  16
HETATM   16  O2  UNL     1       7.460  16.570  13.552  1.00  0.00    -0.346 OA
BRANCH  16  17
HETATM   17  C3  UNL     1       7.312  16.955  12.320  1.00  0.00     0.201 C 
BRANCH  17  18
HETATM   18  C2  UNL     1       8.116  18.193  11.883  1.00  0.00     0.193 C 
BRANCH  18  19
HETATM   19  O1  UNL     1       7.713  19.235  12.738  1.00  0.00    -0.394 OA
HETATM   20  C1  UNL     1       8.829  19.743  13.399  1.00  0.00     0.201 C 
ENDBRANCH  18  19
ENDBRANCH  17  18
ENDBRANCH  16  17
ENDBRANCH   1  16
BRANCH   6  21
HETATM   21  O3  UNL     1       7.690  13.973  14.119  1.00  0.00    -0.358 OA
ATOM     22  H3  UNL     1       8.489  13.666  13.706  1.00  0.00     0.217 HD
ENDBRANCH   6  21
BRANCH  15  23
HETATM   23  C18 UNL     1       8.550  19.633  21.843  1.00  0.00     0.277 C 
BRANCH  23  24
HETATM   24  C19 UNL     1       9.295  20.742  22.444  1.00  0.00     0.014 A 
HETATM   25  C20 UNL     1      10.741  20.446  22.762  1.00  0.00     0.007 A 
HETATM   26  C21 UNL     1      10.328  21.606  21.909  1.00  0.00     0.007 A 
ENDBRANCH  23  24
ENDBRANCH  15  23
TORSDOF 7
ENDMDL
MODEL 2
REMARK VINA RESULT: -6.169842075      3.522      7.258
REMARK  7 active torsions:
REMARK  status: ('A' for Active; 'I' for Inactive)
REMARK    1  A    between atoms: O1_2  and  C2_3 
REMARK    2  A    between atoms: C2_3  and  C3_4 
REMARK    3  A    between atoms: C3_4  and  O2_5 
REMARK    4  A    between atoms: O2_5  and  C4_6 
REMARK    5  A    between atoms: C9_11  and  O3_12 
REMARK    6  A    between atoms: N1_22  and  C18_23 
REMARK    7  A    between atoms: C18_23  and  C19_24 
ROOT
HETATM    1  C4  UNL     1       8.606  17.739  20.652  1.00  0.00     0.102 A 
HETATM    2  C5  UNL     1       8.305  18.334  19.402  1.00  0.00     0.048 A 
HETATM    3  C6  UNL     1       8.188  17.592  18.241  1.00  0.00    -0.040 A 
HETATM    4  C7  UNL     1       8.377  16.235  18.356  1.00  0.00    -0.048 A 
HETATM    5  C8  UNL     1       8.672  15.625  19.554  1.00  0.00     0.047 A 
HETATM    6  C9  UNL     1       8.792  16.330  20.706  1.00  0.00     0.099 A 
HETATM    7  C10 UNL     1       8.174  15.609  16.987  1.00  0.00     0.045 C 
HETATM    8  C11 UNL     1       7.208  16.555  16.461  1.00  0.00     0.005 C 
HETATM    9  C12 UNL     1       7.065  16.834  15.017  1.00  0.00     0.041 C 
HETATM   10  C13 UNL     1       6.610  18.279  15.048  1.00  0.00     0.224 C 
HETATM   11  C14 UNL     1       6.769  18.758  16.505  1.00  0.00     0.050 C 
HETATM   12  C15 UNL     1       7.909  17.871  16.855  1.00  0.00    -0.005 C 
HETATM   13  C16 UNL     1       9.092  18.169  16.047  1.00  0.00     0.045 C 
HETATM   14  C17 UNL     1       8.897  18.815  14.705  1.00  0.00     0.274 C 
HETATM   15  N1  UNL     1       7.579  19.044  14.258  1.00  0.00     0.093 N 
ENDROOT
BRANCH   1  16
HETATM   16  O2  UNL     1       8.714  18.421  21.714  1.00  0.00    -0.346 OA
BRANCH  16  17
HETATM   17  C3  UNL     1       8.800  19.220  22.734  1.00  0.00     0.201 C 
BRANCH  17  18
HETATM   18  C2  UNL     1       8.119  20.594  22.592  1.00  0.00     0.193 C 
BRANCH  18  19
HETATM   19  O1  UNL     1       9.159  21.541  22.590  1.00  0.00    -0.394 OA
HETATM   20  C1  UNL     1      10.349  20.913  22.230  1.00  0.00     0.201 C 
ENDBRANCH  18  19
ENDBRANCH  17  18
ENDBRANCH  16  17
ENDBRANCH   1  16
BRANCH   6  21
HETATM   21  O3  UNL     1       9.084  15.788  21.943  1.00  0.00    -0.358 OA
ATOM     22  H3  UNL     1       9.345  14.875  21.959  1.00  0.00     0.217 HD
ENDBRANCH   6  21
BRANCH  15  23
HETATM   23  C18 UNL     1       7.384  18.608  12.911  1.00  0.00     0.277 C 
BRANCH  23  24
HETATM   24  C19 UNL     1       8.402  17.811  12.221  1.00  0.00     0.014 A 
HETATM   25  C20 UNL     1       8.041  16.362  12.002  1.00  0.00     0.007 A 
HETATM   26  C21 UNL     1       8.448  17.267  10.880  1.00  0.00     0.007 A 
ENDBRANCH  23  24
ENDBRANCH  15  23
TORSDOF 7
ENDMDL
MODEL 3
REMARK VINA RESULT: -5.046172292      3.580      7.264
REMARK  7 active torsions:
REMARK  status: ('A' for Active; 'I' for Inactive)
REMARK    1  A    between atoms: O1_2  and  C2_3 
REMARK    2  A    between atoms: C2_3  and  C3_4 
REMARK    3  A    between atoms: C3_4  and  O2_5 
REMARK    4  A    between atoms: O2_5  and  C4_6 
REMARK    5  A    between atoms: C9_11  and  O3_12 
REMARK    6  A    between atoms: N1_22  and  C18_23 
REMARK    7  A    between atoms: C18_23  and  C19_24 
ROOT
HETATM    1  C4  UNL     1       8.436  17.523  20.913  1.00  0.00     0.102 A 
HETATM    2  C5  UNL     1       8.101  17.847  19.575  1.00  0.00     0.048 A 
HETATM    3  C6  UNL     1       8.102  16.903  18.565  1.00  0.00    -0.040 A 
HETATM    4  C7  UNL     1       8.443  15.620  18.922  1.00  0.00    -0.048 A 
HETATM    5  C8  UNL     1       8.775  15.271  20.212  1.00  0.00     0.047 A 
HETATM    6  C9  UNL     1       8.782  16.178  21.220  1.00  0.00     0.099 A 
HETATM    7  C10 UNL     1       8.351  14.741  17.687  1.00  0.00     0.045 C 
HETATM    8  C11 UNL     1       7.296  15.457  16.995  1.00  0.00     0.005 C 
HETATM    9  C12 UNL     1       7.161  15.457  15.523  1.00  0.00     0.041 C 
HETATM   10  C13 UNL     1       6.540  16.819  15.292  1.00  0.00     0.224 C 
HETATM   11  C14 UNL     1       6.604  17.565  16.640  1.00  0.00     0.050 C 
HETATM   12  C15 UNL     1       7.830  16.896  17.150  1.00  0.00    -0.005 C 
HETATM   13  C16 UNL     1       8.991  17.185  16.308  1.00  0.00     0.045 C 
HETATM   14  C17 UNL     1       8.759  17.555  14.872  1.00  0.00     0.274 C 
HETATM   15  N1  UNL     1       7.435  17.543  14.383  1.00  0.00     0.093 N 
ENDROOT
BRANCH   1  16
HETATM   16  O2  UNL     1       8.436  18.390  21.837  1.00  0.00    -0.346 OA
BRANCH  16  17
HETATM   17  C3  UNL     1       8.461  19.364  22.695  1.00  0.00     0.201 C 
BRANCH  17  18
HETATM   18  C2  UNL     1       8.180  20.775  22.146  1.00  0.00     0.193 C 
BRANCH  18  19
HETATM   19  O1  UNL     1       9.210  21.594  22.643  1.00  0.00    -0.394 OA
HETATM   20  C1  UNL     1      10.428  21.162  22.123  1.00  0.00     0.201 C 
ENDBRANCH  18  19
ENDBRANCH  17  18
ENDBRANCH  16  17
ENDBRANCH   1  16
BRANCH   6  21
HETATM   21  O3  UNL     1       9.102  15.903  22.535  1.00  0.00    -0.358 OA
ATOM     22  H3  UNL     1       9.923  16.256  22.859  1.00  0.00     0.217 HD
ENDBRANCH   6  21
BRANCH  15  23
HETATM   23  C18 UNL     1       7.328  16.854  13.135  1.00  0.00     0.277 C 
BRANCH  23  24
HETATM   24  C19 UNL     1       7.573  17.548  11.867  1.00  0.00     0.014 A 
HETATM   25  C20 UNL     1       8.120  18.948  11.999  1.00  0.00     0.007 A 
HETATM   26  C21 UNL     1       8.803  17.892  11.184  1.00  0.00     0.007 A 
ENDBRANCH  23  24
ENDBRANCH  15  23
TORSDOF 7
ENDMDL
MODEL 4
REMARK VINA RESULT: -4.648952061      2.295      4.027
REMARK  7 active torsions:
REMARK  status: ('A' for Active; 'I' for Inactive)
REMARK    1  A    between atoms: O1_2  and  C2_3 
REMARK    2  A    between atoms: C2_3  and  C3_4 
REMARK    3  A    between atoms: C3_4  and  O2_5 
REMARK    4  A    between atoms: O2_5  and  C4_6 
REMARK    5  A    between atoms: C9_11  and  O3_12 
REMARK    6  A    between atoms: N1_22  and  C18_23 
REMARK    7  A    between atoms: C18_23  and  C19_24 
ROOT
HETATM    1  C4  UNL     1       7.242  16.996  12.321  1.00  0.00     0.102 A 
HETATM    2  C5  UNL     1       7.167  16.686  13.701  1.00  0.00     0.048 A 
HETATM    3  C6  UNL     1       7.887  17.382  14.654  1.00  0.00    -0.040 A 
HETATM    4  C7  UNL     1       8.688  18.402  14.196  1.00  0.00    -0.048 A 
HETATM    5  C8  UNL     1       8.786  18.729  12.862  1.00  0.00     0.047 A 
HETATM    6  C9  UNL     1       8.090  18.061  11.909  1.00  0.00     0.099 A 
HETATM    7  C10 UNL     1       9.360  19.053  15.393  1.00  0.00     0.045 C 
HETATM    8  C11 UNL     1       8.321  18.814  16.377  1.00  0.00     0.005 C 
HETATM    9  C12 UNL     1       8.602  18.680  17.821  1.00  0.00     0.041 C 
HETATM   10  C13 UNL     1       7.496  17.734  18.243  1.00  0.00     0.224 C 
HETATM   11  C14 UNL     1       6.834  17.228  16.946  1.00  0.00     0.050 C 
HETATM   12  C15 UNL     1       8.042  17.325  16.086  1.00  0.00    -0.005 C 
HETATM   13  C16 UNL     1       9.103  16.429  16.545  1.00  0.00     0.045 C 
HETATM   14  C17 UNL     1       9.118  16.019  17.989  1.00  0.00     0.274 C 
HETATM   15  N1  UNL     1       8.146  16.569  18.851  1.00  0.00     0.093 N 
ENDROOT
BRANCH   1  16
HETATM   16  O2  UNL     1       6.582  16.355  11.449  1.00  0.00    -0.346 OA
BRANCH  16  17
HETATM   17  C3  UNL     1       5.984  15.746  10.471  1.00  0.00     0.201 C 
BRANCH  17  18
HETATM   18  C2  UNL     1       4.504  16.103  10.238  1.00  0.00     0.193 C 
BRANCH  18  19
HETATM   19  O1  UNL     1       4.389  16.394   8.866  1.00  0.00    -0.394 OA
HETATM   20  C1  UNL     1       3.056  16.665   8.567  1.00  0.00     0.201 C 
ENDBRANCH  18  19
ENDBRANCH  17  18
ENDBRANCH  16  17
ENDBRANCH   1  16
BRANCH   6  21
HETATM   21  O3  UNL     1       8.136  18.331  10.555  1.00  0.00    -0.358 OA
ATOM     22  H3  UNL     1       8.407  17.621   9.986  1.00  0.00     0.217 HD
ENDBRANCH   6  21
BRANCH  15  23
HETATM   23  C18 UNL     1       8.718  17.058  20.066  1.00  0.00     0.277 C 
BRANCH  23  24
HETATM   24  C19 UNL     1       7.917  17.832  21.019  1.00  0.00     0.014 A 
HETATM   25  C20 UNL     1       8.710  18.710  21.957  1.00  0.00     0.007 A 
HETATM   26  C21 UNL     1       7.613  19.247  21.089  1.00  0.00     0.007 A 
ENDBRANCH  23  24
ENDBRANCH  15  23
TORSDOF 7
ENDMDL
MODEL 5
REMARK VINA RESULT: -4.240732415      0.829      1.359
REMARK  7 active torsions:
REMARK  status: ('A' for Active; 'I' for Inactive)
REMARK    1  A    between atoms: O1_2  and  C2_3 
REMARK    2  A    between atoms: C2_3  and  C3_4 
REMARK    3  A    between atoms: C3_4  and  O2_5 
REMARK    4  A    between atoms: O2_5  and  C4_6 
REMARK    5  A    between atoms: C9_11  and  O3_12 
REMARK    6  A    between atoms: N1_22  and  C18_23 
REMARK    7  A    between atoms: C18_23  and  C19_24 
ROOT
HETATM    1  C4  UNL     1       7.915  17.044  14.711  1.00  0.00     0.102 A 
HETATM    2  C5  UNL     1       8.073  17.908  15.822  1.00  0.00     0.048 A 
HETATM    3  C6  UNL     1       8.248  17.432  17.108  1.00  0.00    -0.040 A 
HETATM    4  C7  UNL     1       8.265  16.066  17.262  1.00  0.00    -0.048 A 
HETATM    5  C8  UNL     1       8.114  15.197  16.205  1.00  0.00     0.047 A 
HETATM    6  C9  UNL     1       7.940  15.639  14.934  1.00  0.00     0.099 A 
HETATM    7  C10 UNL     1       8.500  15.755  18.730  1.00  0.00     0.045 C 
HETATM    8  C11 UNL     1       9.294  16.920  19.070  1.00  0.00     0.005 C 
HETATM    9  C12 UNL     1       9.333  17.493  20.432  1.00  0.00     0.041 C 
HETATM   10  C13 UNL     1       9.573  18.956  20.122  1.00  0.00     0.224 C 
HETATM   11  C14 UNL     1       9.407  19.114  18.597  1.00  0.00     0.050 C 
HETATM   12  C15 UNL     1       8.425  18.013  18.415  1.00  0.00    -0.005 C 
HETATM   13  C16 UNL     1       7.178  18.280  19.134  1.00  0.00     0.045 C 
HETATM   14  C17 UNL     1       7.219  19.195  20.323  1.00  0.00     0.274 C 
HETATM   15  N1  UNL     1       8.470  19.704  20.732  1.00  0.00     0.093 N 
ENDROOT
BRANCH   1  16
HETATM   16  O2  UNL     1       7.753  17.482  13.533  1.00  0.00    -0.346 OA
BRANCH  16  17
HETATM   17  C3  UNL     1       7.613  18.044  12.371  1.00  0.00     0.201 C 
BRANCH  17  18
HETATM   18  C2  UNL     1       8.297  17.346  11.181  1.00  0.00     0.193 C 
BRANCH  18  19
HETATM   19  O1  UNL     1       7.772  16.041  11.147  1.00  0.00    -0.394 OA
HETATM   20  C1  UNL     1       6.387  16.109  11.027  1.00  0.00     0.201 C 
ENDBRANCH  18  19
ENDBRANCH  17  18
ENDBRANCH  16  17
ENDBRANCH   1  16
BRANCH   6  21
HETATM   21  O3  UNL     1       7.782  14.830  13.826  1.00  0.00    -0.358 OA
ATOM     22  H3  UNL     1       8.341  15.013  13.080  1.00  0.00     0.217 HD
ENDBRANCH   6  21
BRANCH  15  23
HETATM   23  C18 UNL     1       8.670  19.572  22.141  1.00  0.00     0.277 C 
BRANCH  23  24
HETATM   24  C19 UNL     1       9.414  20.585  22.896  1.00  0.00     0.014 A 
HETATM   25  C20 UNL     1      10.911  20.552  22.708  1.00  0.00     0.007 A 
HETATM   26  C21 UNL     1      10.099  21.788  22.470  1.00  0.00     0.007 A 
ENDBRANCH  23  24
ENDBRANCH  15  23
TORSDOF 7
ENDMDL
