MODEL 1
REMARK VINA RESULT: -7.778466860      0.000      0.000
REMARK  9 active torsions:
REMARK  status: ('A' for Active; 'I' for Inactive)
REMARK    1  A    between atoms: C4_4  and  C5_5 
REMARK    2  A    between atoms: C5_5  and  C6_6 
REMARK    3  A    between atoms: C6_6  and  C7_7 
REMARK    4  A    between atoms: C9_9  and  C10_10 
REMARK    5  A    between atoms: C10_10  and  O1_11 
REMARK    6  A    between atoms: O1_11  and  C11_12 
REMARK    7  A    between atoms: C12_13  and  N1_14 
REMARK    8  A    between atoms: N2_18  and  C15_19 
REMARK    9  A    between atoms: C15_19  and  C16_20 
ROOT
HETATM    1  C11 UNL     1      -7.450  19.220 -20.483  1.00  0.00     0.163 A 
HETATM    2  C12 UNL     1      -8.746  18.846 -20.280  1.00  0.00     0.142 A 
HETATM    3  N3  UNL     1      -9.733  19.517 -20.978  1.00  0.00    -0.344 N 
ATOM      4  H3  UNL     1     -10.706  19.248 -20.836  1.00  0.00     0.167 HD
HETATM    5  C20 UNL     1      -9.455  20.506 -21.831  1.00  0.00     0.011 A 
HETATM    6  C21 UNL     1     -10.560  21.178 -22.544  1.00  0.00     0.068 C 
HETATM    7  C22 UNL     1      -8.166  20.907 -22.058  1.00  0.00     0.082 A 
HETATM    8  C23 UNL     1      -7.164  20.260 -21.380  1.00  0.00     0.210 A 
HETATM    9  O3  UNL     1      -5.950  20.583 -21.545  1.00  0.00    -0.285 OA
ENDROOT
BRANCH   2  10
HETATM   10  N1  UNL     1      -9.082  17.816 -19.400  1.00  0.00    -0.358 N 
HETATM   11  C13 UNL     1      -8.324  16.600 -19.501  1.00  0.00     0.153 C 
HETATM   12  C14 UNL     1      -9.028  15.316 -19.270  1.00  0.00     0.221 C 
HETATM   13  O2  UNL     1      -9.270  14.872 -18.004  1.00  0.00    -0.273 OA
HETATM   14  N2  UNL     1     -10.125  15.605 -17.254  1.00  0.00    -0.246 N 
HETATM   15  C18 UNL     1     -10.370  16.913 -17.605  1.00  0.00     0.115 C 
HETATM   16  C19 UNL     1     -10.141  18.078 -18.435  1.00  0.00     0.171 C 
BRANCH  14  17
HETATM   17  C15 UNL     1     -11.118  14.951 -16.545  1.00  0.00     0.154 C 
BRANCH  17  18
HETATM   18  C16 UNL     1     -11.284  13.481 -16.720  1.00  0.00     0.209 C 
HETATM   19  C17 UNL     1     -12.395  13.052 -15.747  1.00  0.00     0.076 C 
HETATM   20  F1  UNL     1     -11.714  13.108 -17.967  1.00  0.00    -0.220 F 
HETATM   21 CL1  UNL     1      -9.814  12.651 -16.209  1.00  0.00    -0.077 Cl
ENDBRANCH  17  18
ENDBRANCH  14  17
ENDBRANCH   2  10
BRANCH   1  22
HETATM   22  O1  UNL     1      -6.397  18.615 -19.836  1.00  0.00    -0.340 OA
BRANCH  22  23
HETATM   23  C10 UNL     1      -5.998  19.181 -18.560  1.00  0.00     0.203 C 
BRANCH  23  24
HETATM   24  C9  UNL     1      -5.859  18.115 -17.607  1.00  0.00     0.002 C 
HETATM   25  C7  UNL     1      -6.417  17.872 -16.479  1.00  0.00    -0.085 C 
HETATM   26  C8  UNL     1      -5.942  16.538 -15.765  1.00  0.00     0.043 C 
BRANCH  25  27
HETATM   27  C6  UNL     1      -7.410  18.542 -15.675  1.00  0.00     0.037 C 
BRANCH  27  28
HETATM   28  C5  UNL     1      -8.406  17.712 -14.977  1.00  0.00     0.031 C 
BRANCH  28  29
HETATM   29  C4  UNL     1      -7.985  17.671 -13.506  1.00  0.00    -0.024 C 
HETATM   30  C2  UNL     1      -7.853  16.490 -12.939  1.00  0.00    -0.091 C 
HETATM   31  C1  UNL     1      -7.444  16.428 -11.508  1.00  0.00     0.042 C 
HETATM   32  C3  UNL     1      -8.096  15.238 -13.679  1.00  0.00     0.042 C 
ENDBRANCH  28  29
ENDBRANCH  27  28
ENDBRANCH  25  27
ENDBRANCH  23  24
ENDBRANCH  22  23
ENDBRANCH   1  22
TORSDOF 9
ENDMDL
MODEL 2
REMARK VINA RESULT: -7.745836276      1.232      2.097
REMARK  9 active torsions:
REMARK  status: ('A' for Active; 'I' for Inactive)
REMARK    1  A    between atoms: C4_4  and  C5_5 
REMARK    2  A    between atoms: C5_5  and  C6_6 
REMARK    3  A    between atoms: C6_6  and  C7_7 
REMARK    4  A    between atoms: C9_9  and  C10_10 
REMARK    5  A    between atoms: C10_10  and  O1_11 
REMARK    6  A    between atoms: O1_11  and  C11_12 
REMARK    7  A    between atoms: C12_13  and  N1_14 
REMARK    8  A    between atoms: N2_18  and  C15_19 
REMARK    9  A    between atoms: C15_19  and  C16_20 
ROOT
HETATM    1  C11 UNL     1      -7.277  18.591 -19.434  1.00  0.00     0.163 A 
HETATM    2  C12 UNL     1      -8.588  18.314 -19.690  1.00  0.00     0.142 A 
HETATM    3  N3  UNL     1      -9.214  19.013 -20.705  1.00  0.00    -0.344 N 
ATOM      4  H3  UNL     1     -10.194  18.816 -20.907  1.00  0.00     0.167 HD
HETATM    5  C20 UNL     1      -8.580  19.938 -21.429  1.00  0.00     0.011 A 
HETATM    6  C21 UNL     1      -9.311  20.646 -22.499  1.00  0.00     0.068 C 
HETATM    7  C22 UNL     1      -7.264  20.242 -21.199  1.00  0.00     0.082 A 
HETATM    8  C23 UNL     1      -6.615  19.565 -20.199  1.00  0.00     0.210 A 
HETATM    9  O3  UNL     1      -5.398  19.798 -19.935  1.00  0.00    -0.285 OA
ENDROOT
BRANCH   2  10
HETATM   10  N1  UNL     1      -9.289  17.353 -18.960  1.00  0.00    -0.358 N 
HETATM   11  C13 UNL     1     -10.390  17.816 -18.163  1.00  0.00     0.153 C 
HETATM   12  C14 UNL     1     -10.638  17.152 -16.860  1.00  0.00     0.221 C 
HETATM   13  O2  UNL     1     -11.301  15.963 -16.800  1.00  0.00    -0.273 OA
HETATM   14  N2  UNL     1     -10.686  14.893 -17.355  1.00  0.00    -0.246 N 
HETATM   15  C18 UNL     1      -9.687  15.101 -18.278  1.00  0.00     0.115 C 
HETATM   16  C19 UNL     1      -8.867  15.965 -19.101  1.00  0.00     0.171 C 
BRANCH  14  17
HETATM   17  C15 UNL     1     -10.645  13.705 -16.644  1.00  0.00     0.154 C 
BRANCH  17  18
HETATM   18  C16 UNL     1     -11.640  12.641 -16.955  1.00  0.00     0.209 C 
HETATM   19  C17 UNL     1     -12.549  12.525 -15.721  1.00  0.00     0.076 C 
HETATM   20  F1  UNL     1     -12.469  12.935 -18.005  1.00  0.00    -0.220 F 
HETATM   21 CL1  UNL     1     -10.818  11.089 -17.125  1.00  0.00    -0.077 Cl
ENDBRANCH  17  18
ENDBRANCH  14  17
ENDBRANCH   2  10
BRANCH   1  22
HETATM   22  O1  UNL     1      -6.565  17.951 -18.446  1.00  0.00    -0.340 OA
BRANCH  22  23
HETATM   23  C10 UNL     1      -6.207  18.739 -17.280  1.00  0.00     0.203 C 
BRANCH  23  24
HETATM   24  C9  UNL     1      -7.346  18.814 -16.408  1.00  0.00     0.002 C 
HETATM   25  C7  UNL     1      -7.493  18.644 -15.146  1.00  0.00    -0.085 C 
HETATM   26  C8  UNL     1      -8.973  18.841 -14.608  1.00  0.00     0.043 C 
BRANCH  25  27
HETATM   27  C6  UNL     1      -6.607  18.310 -14.058  1.00  0.00     0.037 C 
BRANCH  27  28
HETATM   28  C5  UNL     1      -6.659  16.939 -13.524  1.00  0.00     0.031 C 
BRANCH  28  29
HETATM   29  C4  UNL     1      -6.413  16.000 -14.708  1.00  0.00    -0.024 C 
HETATM   30  C2  UNL     1      -7.309  15.063 -14.942  1.00  0.00    -0.091 C 
HETATM   31  C1  UNL     1      -7.089  14.140 -16.090  1.00  0.00     0.042 C 
HETATM   32  C3  UNL     1      -8.513  14.908 -14.107  1.00  0.00     0.042 C 
ENDBRANCH  28  29
ENDBRANCH  27  28
ENDBRANCH  25  27
ENDBRANCH  23  24
ENDBRANCH  22  23
ENDBRANCH   1  22
TORSDOF 9
ENDMDL
MODEL 3
REMARK VINA RESULT: -7.731385001      2.629      4.882
REMARK  9 active torsions:
REMARK  status: ('A' for Active; 'I' for Inactive)
REMARK    1  A    between atoms: C4_4  and  C5_5 
REMARK    2  A    between atoms: C5_5  and  C6_6 
REMARK    3  A    between atoms: C6_6  and  C7_7 
REMARK    4  A    between atoms: C9_9  and  C10_10 
REMARK    5  A    between atoms: C10_10  and  O1_11 
REMARK    6  A    between atoms: O1_11  and  C11_12 
REMARK    7  A    between atoms: C12_13  and  N1_14 
REMARK    8  A    between atoms: N2_18  and  C15_19 
REMARK    9  A    between atoms: C15_19  and  C16_20 
ROOT
HETATM    1  C11 UNL     1      -8.275  17.082 -19.658  1.00  0.00     0.163 A 
HETATM    2  C12 UNL     1      -7.948  18.293 -19.122  1.00  0.00     0.142 A 
HETATM    3  N3  UNL     1      -7.995  19.402 -19.946  1.00  0.00    -0.344 N 
ATOM      4  H3  UNL     1      -7.753  20.314 -19.559  1.00  0.00     0.167 HD
HETATM    5  C20 UNL     1      -8.345  19.320 -21.231  1.00  0.00     0.011 A 
HETATM    6  C21 UNL     1      -8.375  20.548 -22.053  1.00  0.00     0.068 C 
HETATM    7  C22 UNL     1      -8.679  18.121 -21.802  1.00  0.00     0.082 A 
HETATM    8  C23 UNL     1      -8.642  17.002 -21.010  1.00  0.00     0.210 A 
HETATM    9  O3  UNL     1      -8.940  15.862 -21.476  1.00  0.00    -0.285 OA
ENDROOT
BRANCH   2  10
HETATM   10  N1  UNL     1      -7.579  18.425 -17.782  1.00  0.00    -0.358 N 
HETATM   11  C13 UNL     1      -6.255  17.996 -17.426  1.00  0.00     0.153 C 
HETATM   12  C14 UNL     1      -6.060  17.360 -16.102  1.00  0.00     0.221 C 
HETATM   13  O2  UNL     1      -5.945  18.118 -14.974  1.00  0.00    -0.273 OA
HETATM   14  N2  UNL     1      -7.038  18.822 -14.600  1.00  0.00    -0.246 N 
HETATM   15  C18 UNL     1      -8.019  19.080 -15.530  1.00  0.00     0.115 C 
HETATM   16  C19 UNL     1      -8.552  19.020 -16.875  1.00  0.00     0.171 C 
BRANCH  14  17
HETATM   17  C15 UNL     1      -7.428  18.791 -13.271  1.00  0.00     0.154 C 
BRANCH  17  18
HETATM   18  C16 UNL     1      -7.829  17.490 -12.665  1.00  0.00     0.209 C 
HETATM   19  C17 UNL     1      -8.617  17.832 -11.389  1.00  0.00     0.076 C 
HETATM   20  F1  UNL     1      -8.678  16.745 -13.441  1.00  0.00    -0.220 F 
HETATM   21 CL1  UNL     1      -6.392  16.606 -12.151  1.00  0.00    -0.077 Cl
ENDBRANCH  17  18
ENDBRANCH  14  17
ENDBRANCH   2  10
BRANCH   1  22
HETATM   22  O1  UNL     1      -8.259  15.920 -18.922  1.00  0.00    -0.340 OA
BRANCH  22  23
HETATM   23  C10 UNL     1      -9.348  15.724 -17.981  1.00  0.00     0.203 C 
BRANCH  23  24
HETATM   24  C9  UNL     1      -8.795  15.344 -16.711  1.00  0.00     0.002 C 
HETATM   25  C7  UNL     1      -8.737  14.228 -16.082  1.00  0.00    -0.085 C 
HETATM   26  C8  UNL     1      -8.007  14.285 -14.675  1.00  0.00     0.043 C 
BRANCH  25  27
HETATM   27  C6  UNL     1      -9.186  12.885 -16.357  1.00  0.00     0.037 C 
BRANCH  27  28
HETATM   28  C5  UNL     1     -10.574  12.538 -16.007  1.00  0.00     0.031 C 
BRANCH  28  29
HETATM   29  C4  UNL     1     -11.342  13.859 -15.911  1.00  0.00    -0.024 C 
HETATM   30  C2  UNL     1     -12.229  14.121 -16.849  1.00  0.00    -0.091 C 
HETATM   31  C1  UNL     1     -12.989  15.400 -16.774  1.00  0.00     0.042 C 
HETATM   32  C3  UNL     1     -12.488  13.188 -17.960  1.00  0.00     0.042 C 
ENDBRANCH  28  29
ENDBRANCH  27  28
ENDBRANCH  25  27
ENDBRANCH  23  24
ENDBRANCH  22  23
ENDBRANCH   1  22
TORSDOF 9
ENDMDL
MODEL 4
REMARK VINA RESULT: -7.701048986      1.175      1.765
REMARK  9 active torsions:
REMARK  status: ('A' for Active; 'I' for Inactive)
REMARK    1  A    between atoms: C4_4  and  C5_5 
REMARK    2  A    between atoms: C5_5  and  C6_6 
REMARK    3  A    between atoms: C6_6  and  C7_7 
REMARK    4  A    between atoms: C9_9  and  C10_10 
REMARK    5  A    between atoms: C10_10  and  O1_11 
REMARK    6  A    between atoms: O1_11  and  C11_12 
REMARK    7  A    between atoms: C12_13  and  N1_14 
REMARK    8  A    between atoms: N2_18  and  C15_19 
REMARK    9  A    between atoms: C15_19  and  C16_20 
ROOT
HETATM    1  C11 UNL     1      -7.496  18.693 -19.941  1.00  0.00     0.163 A 
HETATM    2  C12 UNL     1      -8.841  18.464 -19.924  1.00  0.00     0.142 A 
HETATM    3  N3  UNL     1      -9.642  19.239 -20.741  1.00  0.00    -0.344 N 
ATOM      4  H3  UNL     1     -10.650  19.079 -20.738  1.00  0.00     0.167 HD
HETATM    5  C20 UNL     1      -9.143  20.191 -21.532  1.00  0.00     0.011 A 
HETATM    6  C21 UNL     1     -10.059  20.981 -22.380  1.00  0.00     0.068 C 
HETATM    7  C22 UNL     1      -7.799  20.449 -21.574  1.00  0.00     0.082 A 
HETATM    8  C23 UNL     1      -6.977  19.696 -20.775  1.00  0.00     0.210 A 
HETATM    9  O3  UNL     1      -5.724  19.883 -20.766  1.00  0.00    -0.285 OA
ENDROOT
BRANCH   2  10
HETATM   10  N1  UNL     1      -9.405  17.477 -19.114  1.00  0.00    -0.358 N 
HETATM   11  C13 UNL     1     -10.568  17.844 -18.354  1.00  0.00     0.153 C 
HETATM   12  C14 UNL     1     -10.730  17.262 -17.001  1.00  0.00     0.221 C 
HETATM   13  O2  UNL     1     -11.219  15.999 -16.839  1.00  0.00    -0.273 OA
HETATM   14  N2  UNL     1     -10.455  14.985 -17.306  1.00  0.00    -0.246 N 
HETATM   15  C18 UNL     1      -9.488  15.255 -18.247  1.00  0.00     0.115 C 
HETATM   16  C19 UNL     1      -8.791  16.156 -19.142  1.00  0.00     0.171 C 
BRANCH  14  17
HETATM   17  C15 UNL     1     -10.252  13.877 -16.500  1.00  0.00     0.154 C 
BRANCH  17  18
HETATM   18  C16 UNL     1     -11.221  12.747 -16.566  1.00  0.00     0.209 C 
HETATM   19  C17 UNL     1     -12.092  12.996 -17.808  1.00  0.00     0.076 C 
HETATM   20  F1  UNL     1     -10.642  11.520 -16.754  1.00  0.00    -0.220 F 
HETATM   21 CL1  UNL     1     -12.299  12.807 -15.171  1.00  0.00    -0.077 Cl
ENDBRANCH  17  18
ENDBRANCH  14  17
ENDBRANCH   2  10
BRANCH   1  22
HETATM   22  O1  UNL     1      -6.615  17.976 -19.165  1.00  0.00    -0.340 OA
BRANCH  22  23
HETATM   23  C10 UNL     1      -5.970  18.688 -18.076  1.00  0.00     0.203 C 
BRANCH  23  24
HETATM   24  C9  UNL     1      -6.953  18.975 -17.068  1.00  0.00     0.002 C 
HETATM   25  C7  UNL     1      -7.437  18.290 -16.099  1.00  0.00    -0.085 C 
HETATM   26  C8  UNL     1      -8.525  19.039 -15.221  1.00  0.00     0.043 C 
BRANCH  25  27
HETATM   27  C6  UNL     1      -7.221  16.956 -15.595  1.00  0.00     0.037 C 
BRANCH  27  28
HETATM   28  C5  UNL     1      -8.203  16.412 -14.642  1.00  0.00     0.031 C 
BRANCH  28  29
HETATM   29  C4  UNL     1      -7.405  15.883 -13.448  1.00  0.00    -0.024 C 
HETATM   30  C2  UNL     1      -7.435  16.583 -12.333  1.00  0.00    -0.091 C 
HETATM   31  C1  UNL     1      -6.666  16.085 -11.158  1.00  0.00     0.042 C 
HETATM   32  C3  UNL     1      -8.204  17.835 -12.218  1.00  0.00     0.042 C 
ENDBRANCH  28  29
ENDBRANCH  27  28
ENDBRANCH  25  27
ENDBRANCH  23  24
ENDBRANCH  22  23
ENDBRANCH   1  22
TORSDOF 9
ENDMDL
MODEL 5
REMARK VINA RESULT: -7.574216992      1.066      1.435
REMARK  9 active torsions:
REMARK  status: ('A' for Active; 'I' for Inactive)
REMARK    1  A    between atoms: C4_4  and  C5_5 
REMARK    2  A    between atoms: C5_5  and  C6_6 
REMARK    3  A    between atoms: C6_6  and  C7_7 
REMARK    4  A    between atoms: C9_9  and  C10_10 
REMARK    5  A    between atoms: C10_10  and  O1_11 
REMARK    6  A    between atoms: O1_11  and  C11_12 
REMARK    7  A    between atoms: C12_13  and  N1_14 
REMARK    8  A    between atoms: N2_18  and  C15_19 
REMARK    9  A    between atoms: C15_19  and  C16_20 
ROOT
HETATM    1  C11 UNL     1      -7.572  19.063 -20.334  1.00  0.00     0.163 A 
HETATM    2  C12 UNL     1      -8.899  18.802 -20.159  1.00  0.00     0.142 A 
HETATM    3  N3  UNL     1      -9.809  19.530 -20.902  1.00  0.00    -0.344 N 
ATOM      4  H3  UNL     1     -10.805  19.345 -20.782  1.00  0.00     0.167 HD
HETATM    5  C20 UNL     1      -9.428  20.469 -21.772  1.00  0.00     0.011 A 
HETATM    6  C21 UNL     1     -10.455  21.208 -22.534  1.00  0.00     0.068 C 
HETATM    7  C22 UNL     1      -8.105  20.757 -21.972  1.00  0.00     0.082 A 
HETATM    8  C23 UNL     1      -7.178  20.051 -21.249  1.00  0.00     0.210 A 
HETATM    9  O3  UNL     1      -5.938  20.269 -21.387  1.00  0.00    -0.285 OA
ENDROOT
BRANCH   2  10
HETATM   10  N1  UNL     1      -9.342  17.827 -19.262  1.00  0.00    -0.358 N 
HETATM   11  C13 UNL     1     -10.135  18.276 -18.152  1.00  0.00     0.153 C 
HETATM   12  C14 UNL     1      -9.966  17.589 -16.850  1.00  0.00     0.221 C 
HETATM   13  O2  UNL     1     -10.584  16.398 -16.605  1.00  0.00    -0.273 OA
HETATM   14  N2  UNL     1     -10.180  15.339 -17.343  1.00  0.00    -0.246 N 
HETATM   15  C18 UNL     1      -9.520  15.563 -18.529  1.00  0.00     0.115 C 
HETATM   16  C19 UNL     1      -8.994  16.443 -19.552  1.00  0.00     0.171 C 
BRANCH  14  17
HETATM   17  C15 UNL     1      -9.925  14.138 -16.702  1.00  0.00     0.154 C 
BRANCH  17  18
HETATM   18  C16 UNL     1     -11.043  13.174 -16.499  1.00  0.00     0.209 C 
HETATM   19  C17 UNL     1     -10.460  11.775 -16.754  1.00  0.00     0.076 C 
HETATM   20  F1  UNL     1     -11.537  13.147 -15.221  1.00  0.00    -0.220 F 
HETATM   21 CL1  UNL     1     -12.284  13.437 -17.725  1.00  0.00    -0.077 Cl
ENDBRANCH  17  18
ENDBRANCH  14  17
ENDBRANCH   2  10
BRANCH   1  22
HETATM   22  O1  UNL     1      -6.590  18.393 -19.642  1.00  0.00    -0.340 OA
BRANCH  22  23
HETATM   23  C10 UNL     1      -6.295  18.865 -18.300  1.00  0.00     0.203 C 
BRANCH  23  24
HETATM   24  C9  UNL     1      -6.145  17.727 -17.436  1.00  0.00     0.002 C 
HETATM   25  C7  UNL     1      -6.307  17.559 -16.175  1.00  0.00    -0.085 C 
HETATM   26  C8  UNL     1      -6.024  16.090 -15.648  1.00  0.00     0.043 C 
BRANCH  25  27
HETATM   27  C6  UNL     1      -6.701  18.414 -15.082  1.00  0.00     0.037 C 
BRANCH  27  28
HETATM   28  C5  UNL     1      -7.974  18.121 -14.402  1.00  0.00     0.031 C 
BRANCH  28  29
HETATM   29  C4  UNL     1      -7.628  17.808 -12.944  1.00  0.00    -0.024 C 
HETATM   30  C2  UNL     1      -7.759  16.562 -12.538  1.00  0.00    -0.091 C 
HETATM   31  C1  UNL     1      -7.427  16.235 -11.123  1.00  0.00     0.042 C 
HETATM   32  C3  UNL     1      -8.220  15.491 -13.440  1.00  0.00     0.042 C 
ENDBRANCH  28  29
ENDBRANCH  27  28
ENDBRANCH  25  27
ENDBRANCH  23  24
ENDBRANCH  22  23
ENDBRANCH   1  22
TORSDOF 9
ENDMDL
