MODEL 1
REMARK VINA RESULT: -3.305545344      0.000      0.000
REMARK  1 active torsions:
REMARK  status: ('A' for Active; 'I' for Inactive)
REMARK    1  A    between atoms: O1_1  and  C1_3 
ROOT
HETATM    1  C1  UNL     1       7.346  17.006  16.313  1.00  0.00     0.122 C 
HETATM    2  C2  UNL     1       6.499  16.674  15.130  1.00  0.00     0.032 C 
HETATM    3  C3  UNL     1       7.224  16.513  13.845  1.00  0.00     0.002 C 
HETATM    4  C4  UNL     1       8.177  15.376  13.757  1.00  0.00     0.000 C 
HETATM    5  C5  UNL     1       7.717  14.101  14.415  1.00  0.00     0.000 C 
HETATM    6  C6  UNL     1       8.923  13.214  14.626  1.00  0.00     0.000 C 
HETATM    7  C7  UNL     1       9.202  13.085  16.096  1.00  0.00     0.000 C 
HETATM    8  C8  UNL     1      10.661  12.892  16.419  1.00  0.00     0.000 C 
HETATM    9  C9  UNL     1      11.549  13.976  15.952  1.00  0.00     0.002 C 
HETATM   10  C10 UNL     1      12.327  14.712  16.957  1.00  0.00     0.030 C 
HETATM   11  C11 UNL     1      11.696  14.923  18.286  1.00  0.00     0.272 C 
HETATM   12  N1  UNL     1      10.574  15.837  18.199  1.00  0.00     0.090 N 
HETATM   13  C12 UNL     1      11.004  17.174  17.871  1.00  0.00     0.272 C 
HETATM   14  C13 UNL     1      10.299  17.705  16.639  1.00  0.00     0.031 C 
HETATM   15  C14 UNL     1       9.163  18.580  17.044  1.00  0.00     0.009 C 
HETATM   16  C15 UNL     1       7.912  18.388  16.230  1.00  0.00     0.016 C 
HETATM   17  C16 UNL     1       6.924  19.452  16.576  1.00  0.00     0.033 C 
HETATM   18  C17 UNL     1       6.578  19.564  18.017  1.00  0.00     0.168 C 
HETATM   19  O2  UNL     1       6.734  20.862  18.526  1.00  0.00    -0.389 OA
HETATM   20  C18 UNL     1       6.351  20.773  19.883  1.00  0.00     0.193 C 
HETATM   21  C19 UNL     1       7.465  20.297  20.760  1.00  0.00     0.193 C 
HETATM   22  O3  UNL     1       7.280  18.969  21.154  1.00  0.00    -0.387 OA
HETATM   23  C20 UNL     1       8.071  18.627  22.224  1.00  0.00     0.193 C 
HETATM   24  C21 UNL     1       8.850  17.346  22.013  1.00  0.00     0.193 C 
HETATM   25  O4  UNL     1       9.807  17.541  21.022  1.00  0.00    -0.387 OA
HETATM   26  C22 UNL     1      10.372  16.353  20.599  1.00  0.00     0.198 C 
HETATM   27  C23 UNL     1       9.733  15.789  19.370  1.00  0.00     0.298 C 
ENDROOT
BRANCH   1  28
HETATM   28  O1  UNL     1       6.520  16.848  17.453  1.00  0.00    -0.395 OA
ATOM     29  H1  UNL     1       6.578  15.933  17.701  1.00  0.00     0.210 HD
ENDBRANCH   1  28
TORSDOF 1
ENDMDL
MODEL 2
REMARK VINA RESULT: -1.137470963      2.088      7.102
REMARK  1 active torsions:
REMARK  status: ('A' for Active; 'I' for Inactive)
REMARK    1  A    between atoms: O1_1  and  C1_3 
ROOT
HETATM    1  C1  UNL     1       9.362  16.697  19.870  1.00  0.00     0.122 C 
HETATM    2  C2  UNL     1       9.336  17.029  21.325  1.00  0.00     0.032 C 
HETATM    3  C3  UNL     1       9.626  18.444  21.667  1.00  0.00     0.002 C 
HETATM    4  C4  UNL     1       8.647  19.456  21.195  1.00  0.00     0.000 C 
HETATM    5  C5  UNL     1       7.201  19.042  21.288  1.00  0.00     0.000 C 
HETATM    6  C6  UNL     1       6.389  19.953  20.394  1.00  0.00     0.000 C 
HETATM    7  C7  UNL     1       5.846  19.167  19.235  1.00  0.00     0.000 C 
HETATM    8  C8  UNL     1       5.680  19.981  17.979  1.00  0.00     0.000 C 
HETATM    9  C9  UNL     1       6.920  20.605  17.474  1.00  0.00     0.002 C 
HETATM   10  C10 UNL     1       7.378  20.239  16.128  1.00  0.00     0.030 C 
HETATM   11  C11 UNL     1       7.129  18.844  15.679  1.00  0.00     0.272 C 
HETATM   12  N1  UNL     1       7.937  17.898  16.425  1.00  0.00     0.090 N 
HETATM   13  C12 UNL     1       9.339  18.048  16.127  1.00  0.00     0.272 C 
HETATM   14  C13 UNL     1      10.160  18.274  17.381  1.00  0.00     0.031 C 
HETATM   15  C14 UNL     1      10.781  16.992  17.817  1.00  0.00     0.009 C 
HETATM   16  C15 UNL     1      10.746  16.760  19.303  1.00  0.00     0.016 C 
HETATM   17  C16 UNL     1      11.575  15.566  19.641  1.00  0.00     0.033 C 
HETATM   18  C17 UNL     1      11.221  14.313  18.925  1.00  0.00     0.168 C 
HETATM   19  O2  UNL     1      12.314  13.715  18.279  1.00  0.00    -0.389 OA
HETATM   20  C18 UNL     1      11.791  12.549  17.676  1.00  0.00     0.193 C 
HETATM   21  C19 UNL     1      11.162  12.828  16.348  1.00  0.00     0.193 C 
HETATM   22  O3  UNL     1       9.768  12.795  16.421  1.00  0.00    -0.387 OA
HETATM   23  C20 UNL     1       9.183  12.687  15.183  1.00  0.00     0.193 C 
HETATM   24  C21 UNL     1       8.089  13.706  14.940  1.00  0.00     0.193 C 
HETATM   25  O4  UNL     1       8.648  14.979  14.865  1.00  0.00    -0.387 OA
HETATM   26  C22 UNL     1       7.690  15.974  14.907  1.00  0.00     0.198 C 
HETATM   27  C23 UNL     1       7.473  16.541  16.274  1.00  0.00     0.298 C 
ENDROOT
BRANCH   1  28
HETATM   28  O1  UNL     1       8.805  15.402  19.746  1.00  0.00    -0.395 OA
ATOM     29  H1  UNL     1       8.031  15.493  19.202  1.00  0.00     0.210 HD
ENDBRANCH   1  28
TORSDOF 1
ENDMDL
MODEL 3
REMARK VINA RESULT: 0.158667916      2.073      7.194
REMARK  1 active torsions:
REMARK  status: ('A' for Active; 'I' for Inactive)
REMARK    1  A    between atoms: O1_1  and  C1_3 
ROOT
HETATM    1  C1  UNL     1       9.899  17.332  19.551  1.00  0.00     0.122 C 
HETATM    2  C2  UNL     1      10.474  17.702  20.878  1.00  0.00     0.032 C 
HETATM    3  C3  UNL     1      10.748  19.146  21.080  1.00  0.00     0.002 C 
HETATM    4  C4  UNL     1       9.571  20.052  21.093  1.00  0.00     0.000 C 
HETATM    5  C5  UNL     1       8.353  19.510  21.797  1.00  0.00     0.000 C 
HETATM    6  C6  UNL     1       7.153  20.318  21.356  1.00  0.00     0.000 C 
HETATM    7  C7  UNL     1       6.239  19.453  20.536  1.00  0.00     0.000 C 
HETATM    8  C8  UNL     1       5.470  20.213  19.487  1.00  0.00     0.000 C 
HETATM    9  C9  UNL     1       6.305  20.932  18.504  1.00  0.00     0.002 C 
HETATM   10  C10 UNL     1       6.167  20.570  17.087  1.00  0.00     0.030 C 
HETATM   11  C11 UNL     1       5.882  19.147  16.771  1.00  0.00     0.272 C 
HETATM   12  N1  UNL     1       7.018  18.299  17.080  1.00  0.00     0.090 N 
HETATM   13  C12 UNL     1       8.133  18.569  16.207  1.00  0.00     0.272 C 
HETATM   14  C13 UNL     1       9.390  18.903  16.984  1.00  0.00     0.031 C 
HETATM   15  C14 UNL     1      10.256  17.696  17.090  1.00  0.00     0.009 C 
HETATM   16  C15 UNL     1      10.889  17.504  18.442  1.00  0.00     0.016 C 
HETATM   17  C16 UNL     1      11.892  16.400  18.371  1.00  0.00     0.033 C 
HETATM   18  C17 UNL     1      11.382  15.101  17.861  1.00  0.00     0.168 C 
HETATM   19  O2  UNL     1      12.140  14.586  16.797  1.00  0.00    -0.389 OA
HETATM   20  C18 UNL     1      11.520  13.362  16.464  1.00  0.00     0.193 C 
HETATM   21  C19 UNL     1      10.355  13.544  15.543  1.00  0.00     0.193 C 
HETATM   22  O3  UNL     1       9.139  13.386  16.213  1.00  0.00    -0.387 OA
HETATM   23  C20 UNL     1       8.090  13.191  15.349  1.00  0.00     0.193 C 
HETATM   24  C21 UNL     1       6.908  14.099  15.618  1.00  0.00     0.193 C 
HETATM   25  O4  UNL     1       7.256  15.414  15.326  1.00  0.00    -0.387 OA
HETATM   26  C22 UNL     1       6.321  16.319  15.793  1.00  0.00     0.198 C 
HETATM   27  C23 UNL     1       6.665  16.902  17.127  1.00  0.00     0.298 C 
ENDROOT
BRANCH   1  28
HETATM   28  O1  UNL     1       9.468  15.988  19.662  1.00  0.00    -0.395 OA
ATOM     29  H1  UNL     1       9.786  15.539  18.888  1.00  0.00     0.210 HD
ENDBRANCH   1  28
TORSDOF 1
ENDMDL
