MODEL 1
REMARK VINA RESULT: -5.781777744      0.000      0.000
REMARK  1 active torsions:
REMARK  status: ('A' for Active; 'I' for Inactive)
REMARK    1  A    between atoms: C20_23  and  O4_24 
ROOT
HETATM    1  C1  UNL     1       9.857  19.660  23.035  1.00  0.00     0.010 C 
HETATM    2  C2  UNL     1       9.556  20.237  21.712  1.00  0.00    -0.013 C 
HETATM    3  C3  UNL     1       8.081  20.584  21.447  1.00  0.00     0.012 C 
HETATM    4  C4  UNL     1       8.280  20.147  20.094  1.00  0.00     0.020 C 
HETATM    5  C5  UNL     1       7.342  19.204  19.381  1.00  0.00     0.127 C 
HETATM    6  C6  UNL     1       6.788  18.262  20.406  1.00  0.00     0.033 C 
HETATM    7  C7  UNL     1       7.863  17.544  21.145  1.00  0.00     0.007 C 
HETATM    8  C8  UNL     1       9.261  17.891  20.719  1.00  0.00    -0.009 C 
HETATM    9  C9  UNL     1       9.814  17.046  19.621  1.00  0.00     0.014 C 
HETATM   10  C10 UNL     1       8.856  16.357  18.761  1.00  0.00     0.048 C 
HETATM   11  C11 UNL     1       9.301  15.174  17.967  1.00  0.00     0.176 C 
HETATM   12  O1  UNL     1       8.436  15.670  16.949  1.00  0.00    -0.376 OA
HETATM   13  C12 UNL     1       8.817  16.899  17.338  1.00  0.00     0.097 C 
HETATM   14  C13 UNL     1      10.065  17.498  16.817  1.00  0.00     0.047 C 
HETATM   15  C14 UNL     1       9.874  17.483  15.304  1.00  0.00     0.072 C 
HETATM   16  C15 UNL     1       8.603  18.230  14.977  1.00  0.00     0.168 C 
HETATM   17  C16 UNL     1       7.983  18.915  16.152  1.00  0.00     0.109 C 
HETATM   18  C17 UNL     1       7.762  18.015  17.360  1.00  0.00     0.094 C 
HETATM   19  C18 UNL     1       6.382  17.469  17.336  1.00  0.00     0.049 C 
HETATM   20  O2  UNL     1       8.146  18.707  18.444  1.00  0.00    -0.372 OA
HETATM   21  O3  UNL     1       9.007  19.253  14.104  1.00  0.00    -0.352 OA
HETATM   22  C19 UNL     1       7.954  19.700  13.316  1.00  0.00     0.206 C 
HETATM   23  C20 UNL     1       7.723  18.553  12.327  1.00  0.00     0.176 C 
HETATM   24  C21 UNL     1       7.501  17.320  13.123  1.00  0.00     0.085 C 
HETATM   25  C22 UNL     1       8.363  16.208  12.506  1.00  0.00     0.048 C 
HETATM   26  C23 UNL     1       6.048  16.881  12.873  1.00  0.00     0.048 C 
HETATM   27  O5  UNL     1       7.710  17.359  14.438  1.00  0.00    -0.342 OA
HETATM   28  C24 UNL     1       9.488  19.359  20.513  1.00  0.00    -0.000 C 
ENDROOT
BRANCH  23  29
HETATM   29  O4  UNL     1       8.875  18.506  11.534  1.00  0.00    -0.390 OA
ATOM     30  H4  UNL     1       9.033  17.583  11.371  1.00  0.00     0.210 HD
ENDBRANCH  23  29
TORSDOF 1
ENDMDL
MODEL 2
REMARK VINA RESULT: -4.562329990      1.229      1.572
REMARK  1 active torsions:
REMARK  status: ('A' for Active; 'I' for Inactive)
REMARK    1  A    between atoms: C20_23  and  O4_24 
ROOT
HETATM    1  C1  UNL     1       9.936  20.777  22.787  1.00  0.00     0.010 C 
HETATM    2  C2  UNL     1       8.971  20.767  21.671  1.00  0.00    -0.013 C 
HETATM    3  C3  UNL     1       7.732  19.875  21.859  1.00  0.00     0.012 C 
HETATM    4  C4  UNL     1       7.819  19.558  20.462  1.00  0.00     0.020 C 
HETATM    5  C5  UNL     1       7.746  18.150  19.925  1.00  0.00     0.127 C 
HETATM    6  C6  UNL     1       8.372  17.248  20.946  1.00  0.00     0.033 C 
HETATM    7  C7  UNL     1       9.765  17.660  21.276  1.00  0.00     0.007 C 
HETATM    8  C8  UNL     1      10.259  18.866  20.530  1.00  0.00    -0.009 C 
HETATM    9  C9  UNL     1      10.934  18.572  19.232  1.00  0.00     0.014 C 
HETATM   10  C10 UNL     1      10.622  17.298  18.591  1.00  0.00     0.048 C 
HETATM   11  C11 UNL     1      11.562  16.740  17.574  1.00  0.00     0.176 C 
HETATM   12  O1  UNL     1      10.390  16.300  16.894  1.00  0.00    -0.376 OA
HETATM   13  C12 UNL     1       9.820  17.446  17.305  1.00  0.00     0.097 C 
HETATM   14  C13 UNL     1      10.011  18.696  16.538  1.00  0.00     0.047 C 
HETATM   15  C14 UNL     1       9.502  18.350  15.143  1.00  0.00     0.072 C 
HETATM   16  C15 UNL     1       8.077  17.866  15.261  1.00  0.00     0.168 C 
HETATM   17  C16 UNL     1       7.498  18.014  16.632  1.00  0.00     0.109 C 
HETATM   18  C17 UNL     1       8.348  17.411  17.742  1.00  0.00     0.094 C 
HETATM   19  C18 UNL     1       7.892  16.028  18.030  1.00  0.00     0.049 C 
HETATM   20  O2  UNL     1       8.362  18.292  18.754  1.00  0.00    -0.372 OA
HETATM   21  O3  UNL     1       7.338  18.730  14.437  1.00  0.00    -0.352 OA
HETATM   22  C19 UNL     1       6.147  18.149  14.022  1.00  0.00     0.206 C 
HETATM   23  C20 UNL     1       6.589  17.091  13.006  1.00  0.00     0.176 C 
HETATM   24  C21 UNL     1       7.576  16.212  13.683  1.00  0.00     0.085 C 
HETATM   25  C22 UNL     1       8.766  16.031  12.731  1.00  0.00     0.048 C 
HETATM   26  C23 UNL     1       6.935  14.817  13.788  1.00  0.00     0.048 C 
HETATM   27  O5  UNL     1       8.025  16.561  14.888  1.00  0.00    -0.342 OA
HETATM   28  C24 UNL     1       9.259  19.980  20.442  1.00  0.00    -0.000 C 
ENDROOT
BRANCH  23  29
HETATM   29  O4  UNL     1       7.126  17.807  11.931  1.00  0.00    -0.390 OA
ATOM     30  H4  UNL     1       7.577  17.163  11.397  1.00  0.00     0.210 HD
ENDBRANCH  23  29
TORSDOF 1
ENDMDL
MODEL 3
REMARK VINA RESULT: -4.069890104      1.581      3.392
REMARK  1 active torsions:
REMARK  status: ('A' for Active; 'I' for Inactive)
REMARK    1  A    between atoms: C20_23  and  O4_24 
ROOT
HETATM    1  C1  UNL     1       9.169  15.963  22.776  1.00  0.00     0.010 C 
HETATM    2  C2  UNL     1       9.227  15.393  21.417  1.00  0.00    -0.013 C 
HETATM    3  C3  UNL     1      10.589  15.477  20.707  1.00  0.00     0.012 C 
HETATM    4  C4  UNL     1       9.873  15.723  19.486  1.00  0.00     0.020 C 
HETATM    5  C5  UNL     1      10.221  16.838  18.532  1.00  0.00     0.127 C 
HETATM    6  C6  UNL     1      10.737  17.983  19.349  1.00  0.00     0.033 C 
HETATM    7  C7  UNL     1       9.763  18.410  20.392  1.00  0.00     0.007 C 
HETATM    8  C8  UNL     1       8.479  17.631  20.411  1.00  0.00    -0.009 C 
HETATM    9  C9  UNL     1       7.394  18.180  19.548  1.00  0.00     0.014 C 
HETATM   10  C10 UNL     1       7.795  19.048  18.444  1.00  0.00     0.048 C 
HETATM   11  C11 UNL     1       6.793  19.977  17.841  1.00  0.00     0.176 C 
HETATM   12  O1  UNL     1       7.426  19.677  16.601  1.00  0.00    -0.376 OA
HETATM   13  C12 UNL     1       7.574  18.426  17.071  1.00  0.00     0.097 C 
HETATM   14  C13 UNL     1       6.474  17.444  16.952  1.00  0.00     0.047 C 
HETATM   15  C14 UNL     1       6.194  17.391  15.454  1.00  0.00     0.072 C 
HETATM   16  C15 UNL     1       7.475  17.029  14.742  1.00  0.00     0.168 C 
HETATM   17  C16 UNL     1       8.595  16.657  15.660  1.00  0.00     0.109 C 
HETATM   18  C17 UNL     1       8.877  17.678  16.754  1.00  0.00     0.094 C 
HETATM   19  C18 UNL     1       9.950  18.604  16.313  1.00  0.00     0.049 C 
HETATM   20  O2  UNL     1       9.063  16.996  17.894  1.00  0.00    -0.372 OA
HETATM   21  O3  UNL     1       7.165  15.863  14.023  1.00  0.00    -0.352 OA
HETATM   22  C19 UNL     1       8.020  15.684  12.943  1.00  0.00     0.206 C 
HETATM   23  C20 UNL     1       7.584  16.762  11.946  1.00  0.00     0.176 C 
HETATM   24  C21 UNL     1       7.642  18.067  12.651  1.00  0.00     0.085 C 
HETATM   25  C22 UNL     1       6.340  18.819  12.343  1.00  0.00     0.048 C 
HETATM   26  C23 UNL     1       8.748  18.894  11.972  1.00  0.00     0.048 C 
HETATM   27  O5  UNL     1       7.856  18.077  13.966  1.00  0.00    -0.342 OA
HETATM   28  C24 UNL     1       8.664  16.150  20.266  1.00  0.00    -0.000 C 
ENDROOT
BRANCH  23  29
HETATM   29  O4  UNL     1       6.293  16.401  11.546  1.00  0.00    -0.390 OA
ATOM     30  H4  UNL     1       6.302  16.434  10.597  1.00  0.00     0.210 HD
ENDBRANCH  23  29
TORSDOF 1
ENDMDL
MODEL 4
REMARK VINA RESULT: -3.884801719      2.359      4.965
REMARK  1 active torsions:
REMARK  status: ('A' for Active; 'I' for Inactive)
REMARK    1  A    between atoms: C20_23  and  O4_24 
ROOT
HETATM    1  C1  UNL     1       4.993  20.707  20.366  1.00  0.00     0.010 C 
HETATM    2  C2  UNL     1       6.089  19.797  20.747  1.00  0.00    -0.013 C 
HETATM    3  C3  UNL     1       7.484  20.434  20.866  1.00  0.00     0.012 C 
HETATM    4  C4  UNL     1       8.021  19.225  20.310  1.00  0.00     0.020 C 
HETATM    5  C5  UNL     1       9.020  19.204  19.179  1.00  0.00     0.127 C 
HETATM    6  C6  UNL     1       8.717  20.375  18.293  1.00  0.00     0.033 C 
HETATM    7  C7  UNL     1       7.309  20.361  17.809  1.00  0.00     0.007 C 
HETATM    8  C8  UNL     1       6.490  19.196  18.286  1.00  0.00    -0.009 C 
HETATM    9  C9  UNL     1       6.528  17.994  17.404  1.00  0.00     0.014 C 
HETATM   10  C10 UNL     1       7.670  17.863  16.503  1.00  0.00     0.048 C 
HETATM   11  C11 UNL     1       7.562  16.976  15.307  1.00  0.00     0.176 C 
HETATM   12  O1  UNL     1       8.922  16.644  15.569  1.00  0.00    -0.376 OA
HETATM   13  C12 UNL     1       8.606  16.719  16.873  1.00  0.00     0.097 C 
HETATM   14  C13 UNL     1       8.003  15.561  17.568  1.00  0.00     0.047 C 
HETATM   15  C14 UNL     1       9.018  14.442  17.358  1.00  0.00     0.072 C 
HETATM   16  C15 UNL     1      10.354  14.903  17.891  1.00  0.00     0.168 C 
HETATM   17  C16 UNL     1      10.299  16.209  18.616  1.00  0.00     0.109 C 
HETATM   18  C17 UNL     1       9.632  17.334  17.837  1.00  0.00     0.094 C 
HETATM   19  C18 UNL     1      10.660  18.125  17.115  1.00  0.00     0.049 C 
HETATM   20  O2  UNL     1       8.824  17.982  18.690  1.00  0.00    -0.372 OA
HETATM   21  O3  UNL     1      10.703  13.943  18.854  1.00  0.00    -0.352 OA
HETATM   22  C19 UNL     1      12.075  13.907  19.068  1.00  0.00     0.206 C 
HETATM   23  C20 UNL     1      12.628  13.254  17.797  1.00  0.00     0.176 C 
HETATM   24  C21 UNL     1      12.140  14.049  16.642  1.00  0.00     0.085 C 
HETATM   25  C22 UNL     1      11.610  13.064  15.591  1.00  0.00     0.048 C 
HETATM   26  C23 UNL     1      13.374  14.698  15.992  1.00  0.00     0.048 C 
HETATM   27  O5  UNL     1      11.229  14.997  16.856  1.00  0.00    -0.342 OA
HETATM   28  C24 UNL     1       6.677  18.875  19.739  1.00  0.00    -0.000 C 
ENDROOT
BRANCH  23  29
HETATM   29  O4  UNL     1      12.148  11.940  17.813  1.00  0.00    -0.390 OA
ATOM     30  H4  UNL     1      11.216  12.009  17.642  1.00  0.00     0.210 HD
ENDBRANCH  23  29
TORSDOF 1
ENDMDL
MODEL 5
REMARK VINA RESULT: -3.404506762      1.949      6.833
REMARK  1 active torsions:
REMARK  status: ('A' for Active; 'I' for Inactive)
REMARK    1  A    between atoms: C20_23  and  O4_24 
ROOT
HETATM    1  C1  UNL     1       7.217  15.928  11.815  1.00  0.00     0.010 C 
HETATM    2  C2  UNL     1       8.266  16.435  12.720  1.00  0.00    -0.013 C 
HETATM    3  C3  UNL     1       9.019  15.375  13.541  1.00  0.00     0.012 C 
HETATM    4  C4  UNL     1       9.037  16.312  14.629  1.00  0.00     0.020 C 
HETATM    5  C5  UNL     1       8.645  15.953  16.040  1.00  0.00     0.127 C 
HETATM    6  C6  UNL     1       7.567  14.915  15.955  1.00  0.00     0.033 C 
HETATM    7  C7  UNL     1       6.408  15.377  15.142  1.00  0.00     0.007 C 
HETATM    8  C8  UNL     1       6.541  16.767  14.589  1.00  0.00    -0.009 C 
HETATM    9  C9  UNL     1       6.018  17.850  15.470  1.00  0.00     0.014 C 
HETATM   10  C10 UNL     1       5.911  17.557  16.897  1.00  0.00     0.048 C 
HETATM   11  C11 UNL     1       5.001  18.379  17.748  1.00  0.00     0.176 C 
HETATM   12  O1  UNL     1       6.004  18.249  18.752  1.00  0.00    -0.376 OA
HETATM   13  C12 UNL     1       6.900  18.337  17.753  1.00  0.00     0.097 C 
HETATM   14  C13 UNL     1       7.329  19.657  17.243  1.00  0.00     0.047 C 
HETATM   15  C14 UNL     1       7.877  20.364  18.478  1.00  0.00     0.072 C 
HETATM   16  C15 UNL     1       8.968  19.507  19.074  1.00  0.00     0.168 C 
HETATM   17  C16 UNL     1       9.335  18.324  18.236  1.00  0.00     0.109 C 
HETATM   18  C17 UNL     1       8.156  17.455  17.822  1.00  0.00     0.094 C 
HETATM   19  C18 UNL     1       7.992  16.338  18.786  1.00  0.00     0.049 C 
HETATM   20  O2  UNL     1       8.324  17.149  16.527  1.00  0.00    -0.372 OA
HETATM   21  O3  UNL     1      10.102  20.334  19.089  1.00  0.00    -0.352 OA
HETATM   22  C19 UNL     1      11.026  19.919  20.040  1.00  0.00     0.206 C 
HETATM   23  C20 UNL     1      10.376  20.298  21.374  1.00  0.00     0.176 C 
HETATM   24  C21 UNL     1       9.034  19.664  21.408  1.00  0.00     0.085 C 
HETATM   25  C22 UNL     1       8.031  20.726  21.881  1.00  0.00     0.048 C 
HETATM   26  C23 UNL     1       9.062  18.616  22.533  1.00  0.00     0.048 C 
HETATM   27  O5  UNL     1       8.571  19.084  20.302  1.00  0.00    -0.342 OA
HETATM   28  C24 UNL     1       7.893  17.067  14.014  1.00  0.00    -0.000 C 
ENDROOT
BRANCH  23  29
HETATM   29  O4  UNL     1      10.333  21.696  21.386  1.00  0.00    -0.390 OA
ATOM     30  H4  UNL     1      10.664  21.953  22.238  1.00  0.00     0.210 HD
ENDBRANCH  23  29
TORSDOF 1
ENDMDL
