MODEL 1
REMARK VINA RESULT: -7.884722505      0.000      0.000
REMARK  2 active torsions:
REMARK  status: ('A' for Active; 'I' for Inactive)
REMARK    1  A    between atoms: C11_14  and  O4_15 
REMARK    2  A    between atoms: C20_26  and  C21_27 
ROOT
HETATM    1  C1  UNL     1      11.422  14.300  19.874  1.00  0.00     0.018 C 
HETATM    2  C2  UNL     1      11.309  15.471  18.893  1.00  0.00     0.077 C 
HETATM    3  C3  UNL     1      12.139  15.114  17.606  1.00  0.00     0.169 C 
HETATM    4  O1  UNL     1      12.207  16.327  16.944  1.00  0.00    -0.330 OA
HETATM    5  C4  UNL     1      10.968  16.975  16.783  1.00  0.00     0.417 C 
HETATM    6  O2  UNL     1      10.146  15.869  16.829  1.00  0.00    -0.301 OA
HETATM    7  C5  UNL     1      10.037  15.480  18.187  1.00  0.00     0.180 C 
HETATM    8  O3  UNL     1      10.042  14.080  17.862  1.00  0.00    -0.341 OA
HETATM    9  C6  UNL     1      11.252  14.046  17.108  1.00  0.00     0.084 C 
HETATM   10  C7  UNL     1      11.913  12.703  17.488  1.00  0.00     0.048 C 
HETATM   11  C8  UNL     1      11.044  13.951  15.632  1.00  0.00     0.048 C 
HETATM   12  C9  UNL     1       8.773  15.976  18.650  1.00  0.00     0.060 C 
HETATM   13  C10 UNL     1       7.839  15.715  17.421  1.00  0.00     0.050 C 
HETATM   14  C11 UNL     1       7.875  16.727  16.325  1.00  0.00     0.076 C 
HETATM   15  C12 UNL     1       6.404  16.869  15.832  1.00  0.00     0.017 C 
HETATM   16  C13 UNL     1       5.805  15.565  15.490  1.00  0.00     0.013 C 
HETATM   17  C14 UNL     1       5.813  17.619  16.897  1.00  0.00     0.008 C 
HETATM   18  C15 UNL     1       6.737  18.290  17.508  1.00  0.00     0.020 C 
HETATM   19  C16 UNL     1       8.159  18.030  16.861  1.00  0.00     0.044 A 
HETATM   20  C17 UNL     1       8.456  19.307  16.506  1.00  0.00    -0.012 A 
HETATM   21  C18 UNL     1       9.327  19.430  17.425  1.00  0.00     0.009 A 
HETATM   22  C19 UNL     1       9.175  18.124  17.901  1.00  0.00     0.102 A 
HETATM   23  O5  UNL     1      10.515  17.687  17.781  1.00  0.00    -0.322 OA
HETATM   24  C20 UNL     1       8.588  17.423  19.038  1.00  0.00     0.042 C 
ENDROOT
BRANCH  24  25
HETATM   25  C21 UNL     1       8.757  17.894  20.413  1.00  0.00    -0.044 C 
HETATM   26  C22 UNL     1       7.639  18.872  20.847  1.00  0.00     0.015 C 
HETATM   27  C23 UNL     1       8.576  16.792  21.469  1.00  0.00     0.015 C 
HETATM   28  C24 UNL     1       9.968  18.698  20.787  1.00  0.00     0.015 C 
ENDBRANCH  24  25
BRANCH  14  29
HETATM   29  O4  UNL     1       8.368  16.334  15.086  1.00  0.00    -0.388 OA
ATOM     30  H4  UNL     1       7.809  15.807  14.528  1.00  0.00     0.210 HD
ENDBRANCH  14  29
TORSDOF 2
ENDMDL
MODEL 2
REMARK VINA RESULT: -7.654892312      1.749      4.629
REMARK  2 active torsions:
REMARK  status: ('A' for Active; 'I' for Inactive)
REMARK    1  A    between atoms: C11_14  and  O4_15 
REMARK    2  A    between atoms: C20_26  and  C21_27 
ROOT
HETATM    1  C1  UNL     1      10.887  18.445  20.200  1.00  0.00     0.018 C 
HETATM    2  C2  UNL     1       9.854  17.380  19.818  1.00  0.00     0.077 C 
HETATM    3  C3  UNL     1       8.523  17.687  20.597  1.00  0.00     0.169 C 
HETATM    4  O1  UNL     1       7.790  16.529  20.411  1.00  0.00    -0.330 OA
HETATM    5  C4  UNL     1       7.698  16.104  19.072  1.00  0.00     0.417 C 
HETATM    6  O2  UNL     1       7.878  17.323  18.453  1.00  0.00    -0.301 OA
HETATM    7  C5  UNL     1       9.260  17.628  18.513  1.00  0.00     0.180 C 
HETATM    8  O3  UNL     1       9.016  19.028  18.729  1.00  0.00    -0.341 OA
HETATM    9  C6  UNL     1       8.164  18.917  19.868  1.00  0.00     0.084 C 
HETATM   10  C7  UNL     1       8.561  20.104  20.771  1.00  0.00     0.048 C 
HETATM   11  C8  UNL     1       6.719  19.148  19.569  1.00  0.00     0.048 C 
HETATM   12  C9  UNL     1       9.801  17.313  17.222  1.00  0.00     0.060 C 
HETATM   13  C10 UNL     1       8.672  17.808  16.256  1.00  0.00     0.050 C 
HETATM   14  C11 UNL     1       7.522  16.883  16.039  1.00  0.00     0.076 C 
HETATM   15  C12 UNL     1       7.149  17.017  14.533  1.00  0.00     0.017 C 
HETATM   16  C13 UNL     1       6.935  18.422  14.137  1.00  0.00     0.013 C 
HETATM   17  C14 UNL     1       8.217  16.300  13.905  1.00  0.00     0.008 C 
HETATM   18  C15 UNL     1       8.707  15.447  14.747  1.00  0.00     0.020 C 
HETATM   19  C16 UNL     1       7.956  15.517  16.140  1.00  0.00     0.044 A 
HETATM   20  C17 UNL     1       7.505  14.236  16.190  1.00  0.00    -0.012 A 
HETATM   21  C18 UNL     1       8.339  13.909  17.095  1.00  0.00     0.009 A 
HETATM   22  C19 UNL     1       8.899  15.186  17.201  1.00  0.00     0.102 A 
HETATM   23  O5  UNL     1       8.690  15.406  18.583  1.00  0.00    -0.322 OA
HETATM   24  C20 UNL     1      10.120  15.891  16.827  1.00  0.00     0.042 C 
ENDROOT
BRANCH  24  25
HETATM   25  C21 UNL     1      11.446  15.305  17.017  1.00  0.00    -0.044 C 
HETATM   26  C22 UNL     1      11.651  14.749  18.447  1.00  0.00     0.015 C 
HETATM   27  C23 UNL     1      11.680  14.026  16.196  1.00  0.00     0.015 C 
HETATM   28  C24 UNL     1      12.671  16.164  16.892  1.00  0.00     0.015 C 
ENDBRANCH  24  25
BRANCH  14  29
HETATM   29  O4  UNL     1       6.270  17.277  16.497  1.00  0.00    -0.388 OA
ATOM     30  H4  UNL     1       5.770  17.886  15.967  1.00  0.00     0.210 HD
ENDBRANCH  14  29
TORSDOF 2
ENDMDL
MODEL 3
REMARK VINA RESULT: -7.433558756      1.601      4.694
REMARK  2 active torsions:
REMARK  status: ('A' for Active; 'I' for Inactive)
REMARK    1  A    between atoms: C11_14  and  O4_15 
REMARK    2  A    between atoms: C20_26  and  C21_27 
ROOT
HETATM    1  C1  UNL     1       8.121  19.535  14.507  1.00  0.00     0.018 C 
HETATM    2  C2  UNL     1       7.670  18.465  15.507  1.00  0.00     0.077 C 
HETATM    3  C3  UNL     1       6.712  17.468  14.760  1.00  0.00     0.169 C 
HETATM    4  O1  UNL     1       6.151  16.750  15.801  1.00  0.00    -0.330 OA
HETATM    5  C4  UNL     1       7.084  16.223  16.716  1.00  0.00     0.417 C 
HETATM    6  O2  UNL     1       8.177  16.147  15.879  1.00  0.00    -0.301 OA
HETATM    7  C5  UNL     1       8.694  17.458  15.739  1.00  0.00     0.180 C 
HETATM    8  O3  UNL     1       9.018  17.260  14.353  1.00  0.00    -0.341 OA
HETATM    9  C6  UNL     1       7.731  16.847  13.896  1.00  0.00     0.084 C 
HETATM   10  C7  UNL     1       7.587  17.491  12.500  1.00  0.00     0.048 C 
HETATM   11  C8  UNL     1       7.622  15.380  13.638  1.00  0.00     0.048 C 
HETATM   12  C9  UNL     1       9.833  17.539  16.607  1.00  0.00     0.060 C 
HETATM   13  C10 UNL     1      10.502  16.137  16.416  1.00  0.00     0.050 C 
HETATM   14  C11 UNL     1       9.932  15.009  17.209  1.00  0.00     0.076 C 
HETATM   15  C12 UNL     1      11.151  14.145  17.651  1.00  0.00     0.017 C 
HETATM   16  C13 UNL     1      12.006  13.767  16.510  1.00  0.00     0.013 C 
HETATM   17  C14 UNL     1      11.725  14.957  18.679  1.00  0.00     0.008 C 
HETATM   18  C15 UNL     1      10.809  15.728  19.171  1.00  0.00     0.020 C 
HETATM   19  C16 UNL     1       9.414  15.491  18.460  1.00  0.00     0.044 A 
HETATM   20  C17 UNL     1       8.692  15.122  19.549  1.00  0.00    -0.012 A 
HETATM   21  C18 UNL     1       8.051  16.222  19.579  1.00  0.00     0.009 A 
HETATM   22  C19 UNL     1       8.674  16.747  18.442  1.00  0.00     0.102 A 
HETATM   23  O5  UNL     1       7.524  17.011  17.661  1.00  0.00    -0.322 OA
HETATM   24  C20 UNL     1       9.677  17.748  18.095  1.00  0.00     0.042 C 
ENDROOT
BRANCH  24  25
HETATM   25  C21 UNL     1       9.693  19.077  18.705  1.00  0.00    -0.044 C 
HETATM   26  C22 UNL     1       9.092  19.083  20.131  1.00  0.00     0.015 C 
HETATM   27  C23 UNL     1      11.106  19.601  19.007  1.00  0.00     0.015 C 
HETATM   28  C24 UNL     1       8.907  20.196  18.085  1.00  0.00     0.015 C 
ENDBRANCH  24  25
BRANCH  14  29
HETATM   29  O4  UNL     1       9.308  13.974  16.522  1.00  0.00    -0.388 OA
ATOM     30  H4  UNL     1       9.240  14.041  15.577  1.00  0.00     0.210 HD
ENDBRANCH  14  29
TORSDOF 2
ENDMDL
MODEL 4
REMARK VINA RESULT: -6.982864229      1.811      4.372
REMARK  2 active torsions:
REMARK  status: ('A' for Active; 'I' for Inactive)
REMARK    1  A    between atoms: C11_14  and  O4_15 
REMARK    2  A    between atoms: C20_26  and  C21_27 
ROOT
HETATM    1  C1  UNL     1       8.068  15.164  14.666  1.00  0.00     0.018 C 
HETATM    2  C2  UNL     1       8.766  16.433  15.169  1.00  0.00     0.077 C 
HETATM    3  C3  UNL     1       8.493  17.584  14.133  1.00  0.00     0.169 C 
HETATM    4  O1  UNL     1       9.390  18.562  14.525  1.00  0.00    -0.330 OA
HETATM    5  C4  UNL     1       9.352  18.873  15.898  1.00  0.00     0.417 C 
HETATM    6  O2  UNL     1       8.051  18.500  16.161  1.00  0.00    -0.301 OA
HETATM    7  C5  UNL     1       8.024  17.086  16.236  1.00  0.00     0.180 C 
HETATM    8  O3  UNL     1       6.741  17.005  15.591  1.00  0.00    -0.341 OA
HETATM    9  C6  UNL     1       7.055  17.745  14.412  1.00  0.00     0.084 C 
HETATM   10  C7  UNL     1       6.297  17.016  13.281  1.00  0.00     0.048 C 
HETATM   11  C8  UNL     1       6.495  19.129  14.399  1.00  0.00     0.048 C 
HETATM   12  C9  UNL     1       8.006  16.755  17.631  1.00  0.00     0.060 C 
HETATM   13  C10 UNL     1       7.047  17.841  18.223  1.00  0.00     0.050 C 
HETATM   14  C11 UNL     1       7.645  19.178  18.511  1.00  0.00     0.076 C 
HETATM   15  C12 UNL     1       6.984  19.660  19.836  1.00  0.00     0.017 C 
HETATM   16  C13 UNL     1       5.511  19.609  19.773  1.00  0.00     0.013 C 
HETATM   17  C14 UNL     1       7.641  18.837  20.805  1.00  0.00     0.008 C 
HETATM   18  C15 UNL     1       8.786  18.458  20.332  1.00  0.00     0.020 C 
HETATM   19  C16 UNL     1       9.028  19.036  18.877  1.00  0.00     0.044 A 
HETATM   20  C17 UNL     1      10.161  19.741  19.126  1.00  0.00    -0.012 A 
HETATM   21  C18 UNL     1      10.894  18.912  18.498  1.00  0.00     0.009 A 
HETATM   22  C19 UNL     1       9.831  18.085  18.119  1.00  0.00     0.102 A 
HETATM   23  O5  UNL     1      10.022  18.105  16.718  1.00  0.00    -0.322 OA
HETATM   24  C20 UNL     1       9.266  16.785  18.464  1.00  0.00     0.042 C 
ENDROOT
BRANCH  24  25
HETATM   25  C21 UNL     1      10.102  15.602  18.663  1.00  0.00    -0.044 C 
HETATM   26  C22 UNL     1       9.448  14.313  18.111  1.00  0.00     0.015 C 
HETATM   27  C23 UNL     1      11.401  15.617  17.842  1.00  0.00     0.015 C 
HETATM   28  C24 UNL     1      10.439  15.148  20.054  1.00  0.00     0.015 C 
ENDBRANCH  24  25
BRANCH  14  29
HETATM   29  O4  UNL     1       7.205  20.266  17.767  1.00  0.00    -0.388 OA
ATOM     30  H4  UNL     1       7.049  21.086  18.221  1.00  0.00     0.210 HD
ENDBRANCH  14  29
TORSDOF 2
ENDMDL
MODEL 5
REMARK VINA RESULT: -6.942920759      1.975      4.746
REMARK  2 active torsions:
REMARK  status: ('A' for Active; 'I' for Inactive)
REMARK    1  A    between atoms: C11_14  and  O4_15 
REMARK    2  A    between atoms: C20_26  and  C21_27 
ROOT
HETATM    1  C1  UNL     1      11.109  18.299  19.200  1.00  0.00     0.018 C 
HETATM    2  C2  UNL     1       9.782  17.605  18.874  1.00  0.00     0.077 C 
HETATM    3  C3  UNL     1       8.612  18.514  19.404  1.00  0.00     0.169 C 
HETATM    4  O1  UNL     1       7.517  17.672  19.326  1.00  0.00    -0.330 OA
HETATM    5  C4  UNL     1       7.358  17.034  18.081  1.00  0.00     0.417 C 
HETATM    6  O2  UNL     1       8.011  17.955  17.289  1.00  0.00    -0.301 OA
HETATM    7  C5  UNL     1       9.402  17.764  17.479  1.00  0.00     0.180 C 
HETATM    8  O3  UNL     1       9.678  19.173  17.414  1.00  0.00    -0.341 OA
HETATM    9  C6  UNL     1       8.776  19.609  18.431  1.00  0.00     0.084 C 
HETATM   10  C7  UNL     1       9.527  20.745  19.159  1.00  0.00     0.048 C 
HETATM   11  C8  UNL     1       7.540  20.261  17.906  1.00  0.00     0.048 C 
HETATM   12  C9  UNL     1       9.867  17.017  16.346  1.00  0.00     0.060 C 
HETATM   13  C10 UNL     1       9.062  17.659  15.167  1.00  0.00     0.050 C 
HETATM   14  C11 UNL     1       7.668  17.170  14.963  1.00  0.00     0.076 C 
HETATM   15  C12 UNL     1       7.464  17.106  13.420  1.00  0.00     0.017 C 
HETATM   16  C13 UNL     1       7.806  18.380  12.761  1.00  0.00     0.013 C 
HETATM   17  C14 UNL     1       8.228  15.946  13.074  1.00  0.00     0.008 C 
HETATM   18  C15 UNL     1       8.317  15.173  14.110  1.00  0.00     0.020 C 
HETATM   19  C16 UNL     1       7.561  15.791  15.356  1.00  0.00     0.044 A 
HETATM   20  C17 UNL     1       6.668  14.790  15.568  1.00  0.00    -0.012 A 
HETATM   21  C18 UNL     1       7.265  14.390  16.618  1.00  0.00     0.009 A 
HETATM   22  C19 UNL     1       8.249  15.384  16.575  1.00  0.00     0.102 A 
HETATM   23  O5  UNL     1       8.051  15.948  17.857  1.00  0.00    -0.322 OA
HETATM   24  C20 UNL     1       9.664  15.524  16.250  1.00  0.00     0.042 C 
ENDROOT
BRANCH  24  25
HETATM   25  C21 UNL     1      10.667  14.566  16.714  1.00  0.00    -0.044 C 
HETATM   26  C22 UNL     1      12.099  15.151  16.700  1.00  0.00     0.015 C 
HETATM   27  C23 UNL     1      10.538  14.208  18.204  1.00  0.00     0.015 C 
HETATM   28  C24 UNL     1      10.897  13.293  15.952  1.00  0.00     0.015 C 
ENDBRANCH  24  25
BRANCH  14  29
HETATM   29  O4  UNL     1       6.622  18.062  15.174  1.00  0.00    -0.388 OA
ATOM     30  H4  UNL     1       6.771  18.795  15.760  1.00  0.00     0.210 HD
ENDBRANCH  14  29
TORSDOF 2
ENDMDL
