MODEL 1
REMARK VINA RESULT: -7.208866812      0.000      0.000
REMARK  2 active torsions:
REMARK  status: ('A' for Active; 'I' for Inactive)
REMARK    1  A    between atoms: C3_6  and  C4_7 
REMARK    2  A    between atoms: C8_18  and  N6_19 
ROOT
HETATM    1  N1  UNL     1      13.935  45.389  39.504  1.00  0.00    -0.188 NA
HETATM    2  C1  UNL     1      13.253  45.476  38.572  1.00  0.00     0.137 C 
HETATM    3  C2  UNL     1      12.421  45.587  37.394  1.00  0.00     0.204 A 
HETATM    4  N2  UNL     1      12.564  44.706  36.365  1.00  0.00    -0.317 N 
ATOM      5  H2  UNL     1      13.264  43.968  36.435  1.00  0.00     0.169 HD
HETATM    6  C3  UNL     1      11.803  44.789  35.261  1.00  0.00     0.151 A 
HETATM    7  N5  UNL     1      10.892  45.786  35.222  1.00  0.00    -0.174 N 
ATOM      8  H5  UNL     1      10.297  45.879  34.399  1.00  0.00     0.186 HD
HETATM    9  C8  UNL     1      10.745  46.661  36.234  1.00  0.00     0.679 A 
HETATM   10  N7  UNL     1      11.506  46.576  37.336  1.00  0.00    -0.167 N 
ATOM     11  H7  UNL     1      11.395  47.238  38.104  1.00  0.00     0.186 HD
ENDROOT
BRANCH   6  12
HETATM   12  C4  UNL     1      11.939  43.855  34.145  1.00  0.00     0.095 A 
HETATM   13  C5  UNL     1      12.586  42.665  34.291  1.00  0.00     0.121 A 
HETATM   14  N3  UNL     1      12.712  41.802  33.267  1.00  0.00    -0.368 N 
HETATM   15  C6  UNL     1      12.187  42.123  32.067  1.00  0.00     0.162 A 
ATOM     16  H3  UNL     1      13.200  40.916  33.397  1.00  0.00     0.164 HD
HETATM   17  C7  UNL     1      11.525  43.319  31.887  1.00  0.00     0.261 A 
HETATM   18  O1  UNL     1      11.037  43.604  30.752  1.00  0.00    -0.267 OA
HETATM   19  N4  UNL     1      11.425  44.146  32.937  1.00  0.00    -0.318 N 
ATOM     20  H4  UNL     1      10.937  45.034  32.814  1.00  0.00     0.169 HD
ENDBRANCH   6  12
BRANCH   9  21
HETATM   21  N6  UNL     1       9.871  47.605  36.179  1.00  0.00    -0.234 N 
ATOM     22  H62 UNL     1       9.651  47.997  35.263  1.00  0.00     0.174 HD
ATOM     23  H61 UNL     1       9.413  47.952  37.023  1.00  0.00     0.174 HD
ENDBRANCH   9  21
TORSDOF 2
ENDMDL
MODEL 2
REMARK VINA RESULT: -6.580211225      3.021      5.580
REMARK  2 active torsions:
REMARK  status: ('A' for Active; 'I' for Inactive)
REMARK    1  A    between atoms: C3_6  and  C4_7 
REMARK    2  A    between atoms: C8_18  and  N6_19 
ROOT
HETATM    1  N1  UNL     1      12.244  42.417  32.888  1.00  0.00    -0.188 NA
HETATM    2  C1  UNL     1      12.089  43.096  33.814  1.00  0.00     0.137 C 
HETATM    3  C2  UNL     1      11.914  43.931  34.981  1.00  0.00     0.204 A 
HETATM    4  N2  UNL     1      12.951  44.674  35.457  1.00  0.00    -0.317 N 
ATOM      5  H2  UNL     1      13.852  44.635  34.982  1.00  0.00     0.169 HD
HETATM    6  C3  UNL     1      12.812  45.458  36.540  1.00  0.00     0.151 A 
HETATM    7  N5  UNL     1      11.597  45.471  37.131  1.00  0.00    -0.174 N 
ATOM      8  H5  UNL     1      11.455  46.055  37.955  1.00  0.00     0.186 HD
HETATM    9  C8  UNL     1      10.567  44.740  36.667  1.00  0.00     0.679 A 
HETATM   10  N7  UNL     1      10.708  43.958  35.586  1.00  0.00    -0.167 N 
ATOM     11  H7  UNL     1       9.928  43.403  35.232  1.00  0.00     0.186 HD
ENDROOT
BRANCH   6  12
HETATM   12  C4  UNL     1      13.911  46.263  37.069  1.00  0.00     0.095 A 
HETATM   13  C5  UNL     1      13.862  46.794  38.322  1.00  0.00     0.121 A 
HETATM   14  N3  UNL     1      14.871  47.535  38.813  1.00  0.00    -0.368 N 
HETATM   15  C6  UNL     1      15.957  47.759  38.046  1.00  0.00     0.162 A 
ATOM     16  H3  UNL     1      14.815  47.923  39.755  1.00  0.00     0.164 HD
HETATM   17  C7  UNL     1      16.038  47.236  36.773  1.00  0.00     0.261 A 
HETATM   18  O1  UNL     1      17.067  47.456  36.066  1.00  0.00    -0.267 OA
HETATM   19  N4  UNL     1      15.008  46.504  36.328  1.00  0.00    -0.318 N 
ATOM     20  H4  UNL     1      15.057  46.112  35.387  1.00  0.00     0.169 HD
ENDBRANCH   6  12
BRANCH   9  21
HETATM   21  N6  UNL     1       9.416  44.766  37.243  1.00  0.00    -0.234 N 
ATOM     22  H62 UNL     1       9.382  44.584  38.246  1.00  0.00     0.174 HD
ATOM     23  H61 UNL     1       8.564  44.961  36.715  1.00  0.00     0.174 HD
ENDBRANCH   9  21
TORSDOF 2
ENDMDL
MODEL 3
REMARK VINA RESULT: -6.359984957      1.499      1.778
REMARK  2 active torsions:
REMARK  status: ('A' for Active; 'I' for Inactive)
REMARK    1  A    between atoms: C3_6  and  C4_7 
REMARK    2  A    between atoms: C8_18  and  N6_19 
ROOT
HETATM    1  N1  UNL     1      14.918  46.450  38.486  1.00  0.00    -0.188 NA
HETATM    2  C1  UNL     1      14.023  46.233  37.783  1.00  0.00     0.137 C 
HETATM    3  C2  UNL     1      12.918  45.970  36.887  1.00  0.00     0.204 A 
HETATM    4  N2  UNL     1      13.056  45.073  35.872  1.00  0.00    -0.317 N 
ATOM      5  H2  UNL     1      13.946  44.590  35.750  1.00  0.00     0.169 HD
HETATM    6  C3  UNL     1      12.045  44.811  35.026  1.00  0.00     0.151 A 
HETATM    7  N5  UNL     1      10.889  45.481  35.233  1.00  0.00    -0.174 N 
ATOM      8  H5  UNL     1      10.100  45.307  34.610  1.00  0.00     0.186 HD
HETATM    9  C8  UNL     1      10.745  46.368  36.233  1.00  0.00     0.679 A 
HETATM   10  N7  UNL     1      11.756  46.628  37.076  1.00  0.00    -0.167 N 
ATOM     11  H7  UNL     1      11.649  47.301  37.836  1.00  0.00     0.186 HD
ENDROOT
BRANCH   6  12
HETATM   12  C4  UNL     1      12.170  43.853  33.930  1.00  0.00     0.095 A 
HETATM   13  C5  UNL     1      11.413  43.963  32.802  1.00  0.00     0.121 A 
HETATM   14  N3  UNL     1      11.526  43.084  31.790  1.00  0.00    -0.368 N 
HETATM   15  C6  UNL     1      12.408  42.070  31.895  1.00  0.00     0.162 A 
ATOM     16  H3  UNL     1      10.950  43.185  30.954  1.00  0.00     0.164 HD
HETATM   17  C7  UNL     1      13.188  41.930  33.023  1.00  0.00     0.261 A 
HETATM   18  O1  UNL     1      14.013  40.971  33.103  1.00  0.00    -0.267 OA
HETATM   19  N4  UNL     1      13.041  42.831  34.004  1.00  0.00    -0.318 N 
ATOM     20  H4  UNL     1      13.614  42.737  34.843  1.00  0.00     0.169 HD
ENDBRANCH   6  12
BRANCH   9  21
HETATM   21  N6  UNL     1       9.636  46.997  36.415  1.00  0.00    -0.234 N 
ATOM     22  H62 UNL     1       8.851  46.761  35.807  1.00  0.00     0.174 HD
ATOM     23  H61 UNL     1       9.543  47.707  37.142  1.00  0.00     0.174 HD
ENDBRANCH   9  21
TORSDOF 2
ENDMDL
MODEL 4
REMARK VINA RESULT: -6.359650114      3.053      5.603
REMARK  2 active torsions:
REMARK  status: ('A' for Active; 'I' for Inactive)
REMARK    1  A    between atoms: C3_6  and  C4_7 
REMARK    2  A    between atoms: C8_18  and  N6_19 
ROOT
HETATM    1  N1  UNL     1      11.856  42.506  33.528  1.00  0.00    -0.188 NA
HETATM    2  C1  UNL     1      11.869  43.436  34.217  1.00  0.00     0.137 C 
HETATM    3  C2  UNL     1      11.893  44.585  35.097  1.00  0.00     0.204 A 
HETATM    4  N2  UNL     1      13.056  44.974  35.687  1.00  0.00    -0.317 N 
ATOM      5  H2  UNL     1      13.910  44.447  35.503  1.00  0.00     0.169 HD
HETATM    6  C3  UNL     1      13.104  46.037  36.508  1.00  0.00     0.151 A 
HETATM    7  N5  UNL     1      11.944  46.698  36.718  1.00  0.00    -0.174 N 
ATOM      8  H5  UNL     1      11.942  47.509  37.335  1.00  0.00     0.186 HD
HETATM    9  C8  UNL     1      10.790  46.319  36.138  1.00  0.00     0.679 A 
HETATM   10  N7  UNL     1      10.745  45.257  35.319  1.00  0.00    -0.167 N 
ATOM     11  H7  UNL     1       9.871  44.968  34.878  1.00  0.00     0.186 HD
ENDROOT
BRANCH   6  12
HETATM   12  C4  UNL     1      14.341  46.473  37.153  1.00  0.00     0.095 A 
HETATM   13  C5  UNL     1      14.338  47.003  38.408  1.00  0.00     0.121 A 
HETATM   14  N3  UNL     1      15.474  47.405  39.005  1.00  0.00    -0.368 N 
HETATM   15  C6  UNL     1      16.644  47.281  38.346  1.00  0.00     0.162 A 
ATOM     16  H3  UNL     1      15.450  47.798  39.946  1.00  0.00     0.164 HD
HETATM   17  C7  UNL     1      16.681  46.749  37.075  1.00  0.00     0.261 A 
HETATM   18  O1  UNL     1      17.790  46.639  36.470  1.00  0.00    -0.267 OA
HETATM   19  N4  UNL     1      15.523  46.362  36.521  1.00  0.00    -0.318 N 
ATOM     20  H4  UNL     1      15.539  45.967  35.580  1.00  0.00     0.169 HD
ENDBRANCH   6  12
BRANCH   9  21
HETATM   21  N6  UNL     1       9.694  46.961  36.349  1.00  0.00    -0.234 N 
ATOM     22  H62 UNL     1       9.294  47.486  35.571  1.00  0.00     0.174 HD
ATOM     23  H61 UNL     1       9.239  46.946  37.262  1.00  0.00     0.174 HD
ENDBRANCH   9  21
TORSDOF 2
ENDMDL
MODEL 5
REMARK VINA RESULT: -6.316633743      2.292      3.014
REMARK  2 active torsions:
REMARK  status: ('A' for Active; 'I' for Inactive)
REMARK    1  A    between atoms: C3_6  and  C4_7 
REMARK    2  A    between atoms: C8_18  and  N6_19 
ROOT
HETATM    1  N1  UNL     1      16.549  47.982  36.491  1.00  0.00    -0.188 NA
HETATM    2  C1  UNL     1      15.604  47.419  36.856  1.00  0.00     0.137 C 
HETATM    3  C2  UNL     1      14.413  46.724  37.293  1.00  0.00     0.204 A 
HETATM    4  N2  UNL     1      13.837  45.781  36.499  1.00  0.00    -0.317 N 
ATOM      5  H2  UNL     1      14.254  45.570  35.592  1.00  0.00     0.169 HD
HETATM    6  C3  UNL     1      12.730  45.122  36.882  1.00  0.00     0.151 A 
HETATM    7  N5  UNL     1      12.220  45.442  38.092  1.00  0.00    -0.174 N 
ATOM      8  H5  UNL     1      11.380  44.962  38.416  1.00  0.00     0.186 HD
HETATM    9  C8  UNL     1      12.783  46.373  38.883  1.00  0.00     0.679 A 
HETATM   10  N7  UNL     1      13.888  47.029  38.498  1.00  0.00    -0.167 N 
ATOM     11  H7  UNL     1      14.317  47.735  39.097  1.00  0.00     0.186 HD
ENDROOT
BRANCH   6  12
HETATM   12  C4  UNL     1      12.095  44.106  36.046  1.00  0.00     0.095 A 
HETATM   13  C5  UNL     1      10.986  43.435  36.465  1.00  0.00     0.121 A 
HETATM   14  N3  UNL     1      10.397  42.500  35.698  1.00  0.00    -0.368 N 
HETATM   15  C6  UNL     1      10.917  42.220  34.486  1.00  0.00     0.162 A 
ATOM     16  H3  UNL     1       9.566  42.009  36.030  1.00  0.00     0.164 HD
HETATM   17  C7  UNL     1      12.039  42.882  34.032  1.00  0.00     0.261 A 
HETATM   18  O1  UNL     1      12.514  42.606  32.890  1.00  0.00    -0.267 OA
HETATM   19  N4  UNL     1      12.590  43.805  34.832  1.00  0.00    -0.318 N 
ATOM     20  H4  UNL     1      13.420  44.301  34.506  1.00  0.00     0.169 HD
ENDBRANCH   6  12
BRANCH   9  21
HETATM   21  N6  UNL     1      12.283  46.664  40.034  1.00  0.00    -0.234 N 
ATOM     22  H62 UNL     1      11.315  46.394  40.213  1.00  0.00     0.174 HD
ATOM     23  H61 UNL     1      12.833  47.149  40.743  1.00  0.00     0.174 HD
ENDBRANCH   9  21
TORSDOF 2
ENDMDL
