MODEL 1
REMARK VINA RESULT: -7.215564688      0.000      0.000
REMARK  2 active torsions:
REMARK  status: ('A' for Active; 'I' for Inactive)
REMARK    1  A    between atoms: N1_1  and  C1_4 
REMARK    2  A    between atoms: C3_6  and  N2_7 
ROOT
HETATM    1  N2  UNL     1      12.462  44.554  35.214  1.00  0.00    -0.205 N 
HETATM    2  N3  UNL     1      13.580  45.235  35.385  1.00  0.00    -0.231 N 
ATOM      3  H3  UNL     1      14.285  45.250  34.648  1.00  0.00     0.209 HD
HETATM    4  N4  UNL     1      13.788  45.896  36.506  1.00  0.00    -0.268 N 
ATOM      5  H4  UNL     1      14.657  46.417  36.621  1.00  0.00     0.190 HD
HETATM    6  C4  UNL     1      12.895  45.903  37.491  1.00  0.00     0.153 A 
HETATM    7  N5  UNL     1      12.891  46.493  38.697  1.00  0.00    -0.284 N 
ATOM      8  H5  UNL     1      13.629  47.078  39.087  1.00  0.00     0.188 HD
HETATM    9  N6  UNL     1      11.769  46.177  39.275  1.00  0.00    -0.309 N 
ATOM     10  H6  UNL     1      11.499  46.491  40.207  1.00  0.00     0.186 HD
HETATM   11  C5  UNL     1      11.005  45.386  38.495  1.00  0.00     0.128 A 
HETATM   12  C6  UNL     1      11.711  45.196  37.339  1.00  0.00     0.097 A 
HETATM   13  C7  UNL     1      11.505  44.509  36.161  1.00  0.00     0.283 A 
HETATM   14  O1  UNL     1      10.460  43.860  35.978  1.00  0.00    -0.265 OA
ENDROOT
BRANCH   1  15
HETATM   15  C3  UNL     1      12.224  43.827  33.992  1.00  0.00     0.066 A 
HETATM   16  C2  UNL     1      11.637  44.421  32.893  1.00  0.00     0.079 A 
HETATM   17  C1  UNL     1      11.424  43.695  31.740  1.00  0.00     0.100 A 
HETATM   18  N7  UNL     1      11.770  42.399  31.623  1.00  0.00    -0.353 N 
HETATM   19  C9  UNL     1      12.343  41.805  32.684  1.00  0.00     0.092 A 
ATOM     20  H7  UNL     1      11.603  41.884  30.759  1.00  0.00     0.166 HD
HETATM   21  C8  UNL     1      12.572  42.498  33.856  1.00  0.00     0.049 A 
BRANCH  17  22
HETATM   22  N1  UNL     1      10.870  44.268  30.710  1.00  0.00    -0.385 N 
ATOM     23  H12 UNL     1      10.757  45.281  30.735  1.00  0.00     0.157 HD
ATOM     24  H11 UNL     1      10.567  43.700  29.918  1.00  0.00     0.157 HD
ENDBRANCH  17  22
ENDBRANCH   1  15
TORSDOF 2
ENDMDL
MODEL 2
REMARK VINA RESULT: -6.794165705      0.586      1.574
REMARK  2 active torsions:
REMARK  status: ('A' for Active; 'I' for Inactive)
REMARK    1  A    between atoms: N1_1  and  C1_4 
REMARK    2  A    between atoms: C3_6  and  N2_7 
ROOT
HETATM    1  N2  UNL     1      12.544  44.708  35.407  1.00  0.00    -0.205 N 
HETATM    2  N3  UNL     1      13.663  45.393  35.566  1.00  0.00    -0.231 N 
ATOM      3  H3  UNL     1      14.351  45.424  34.815  1.00  0.00     0.209 HD
HETATM    4  N4  UNL     1      13.890  46.035  36.694  1.00  0.00    -0.268 N 
ATOM      5  H4  UNL     1      14.759  46.558  36.800  1.00  0.00     0.190 HD
HETATM    6  C4  UNL     1      13.018  46.020  37.698  1.00  0.00     0.153 A 
HETATM    7  N5  UNL     1      13.037  46.589  38.913  1.00  0.00    -0.284 N 
ATOM      8  H5  UNL     1      13.779  47.172  39.298  1.00  0.00     0.188 HD
HETATM    9  N6  UNL     1      11.928  46.256  39.509  1.00  0.00    -0.309 N 
ATOM     10  H6  UNL     1      11.676  46.553  40.452  1.00  0.00     0.186 HD
HETATM   11  C5  UNL     1      11.152  45.475  38.731  1.00  0.00     0.128 A 
HETATM   12  C6  UNL     1      11.835  45.309  37.557  1.00  0.00     0.097 A 
HETATM   13  C7  UNL     1      11.608  44.641  36.373  1.00  0.00     0.283 A 
HETATM   14  O1  UNL     1      10.563  43.990  36.200  1.00  0.00    -0.265 OA
ENDROOT
BRANCH   1  15
HETATM   15  C3  UNL     1      12.285  44.001  34.177  1.00  0.00     0.066 A 
HETATM   16  C2  UNL     1      12.702  42.701  33.982  1.00  0.00     0.079 A 
HETATM   17  C1  UNL     1      12.436  42.055  32.792  1.00  0.00     0.100 A 
HETATM   18  N7  UNL     1      11.772  42.643  31.780  1.00  0.00    -0.353 N 
HETATM   19  C9  UNL     1      11.359  43.910  31.953  1.00  0.00     0.092 A 
ATOM     20  H7  UNL     1      11.588  42.144  30.910  1.00  0.00     0.166 HD
HETATM   21  C8  UNL     1      11.606  44.590  33.129  1.00  0.00     0.049 A 
BRANCH  17  22
HETATM   22  N1  UNL     1      12.835  40.827  32.622  1.00  0.00    -0.385 N 
ATOM     23  H12 UNL     1      13.835  40.666  32.500  1.00  0.00     0.157 HD
ATOM     24  H11 UNL     1      12.150  40.071  32.614  1.00  0.00     0.157 HD
ENDBRANCH  17  22
ENDBRANCH   1  15
TORSDOF 2
ENDMDL
MODEL 3
REMARK VINA RESULT: -6.389274284      1.372      1.840
REMARK  2 active torsions:
REMARK  status: ('A' for Active; 'I' for Inactive)
REMARK    1  A    between atoms: N1_1  and  C1_4 
REMARK    2  A    between atoms: C3_6  and  N2_7 
ROOT
HETATM    1  N2  UNL     1      11.449  43.973  35.408  1.00  0.00    -0.205 N 
HETATM    2  N3  UNL     1      10.402  43.603  36.123  1.00  0.00    -0.231 N 
ATOM      3  H3  UNL     1       9.736  42.933  35.741  1.00  0.00     0.209 HD
HETATM    4  N4  UNL     1      10.216  44.100  37.329  1.00  0.00    -0.268 N 
ATOM      5  H4  UNL     1       9.403  43.804  37.867  1.00  0.00     0.190 HD
HETATM    6  C4  UNL     1      11.061  44.977  37.864  1.00  0.00     0.153 A 
HETATM    7  N5  UNL     1      11.074  45.604  39.051  1.00  0.00    -0.284 N 
ATOM      8  H5  UNL     1      10.386  45.504  39.796  1.00  0.00     0.188 HD
HETATM    9  N6  UNL     1      12.131  46.363  39.071  1.00  0.00    -0.309 N 
ATOM     10  H6  UNL     1      12.392  46.957  39.859  1.00  0.00     0.186 HD
HETATM   11  C5  UNL     1      12.841  46.271  37.929  1.00  0.00     0.128 A 
HETATM   12  C6  UNL     1      12.170  45.382  37.135  1.00  0.00     0.097 A 
HETATM   13  C7  UNL     1      12.353  44.855  35.874  1.00  0.00     0.283 A 
HETATM   14  O1  UNL     1      13.331  45.188  35.182  1.00  0.00    -0.265 OA
ENDROOT
BRANCH   1  15
HETATM   15  C3  UNL     1      11.662  43.436  34.086  1.00  0.00     0.066 A 
HETATM   16  C2  UNL     1      11.234  44.096  32.953  1.00  0.00     0.079 A 
HETATM   17  C1  UNL     1      11.455  43.552  31.705  1.00  0.00     0.100 A 
HETATM   18  N7  UNL     1      12.085  42.376  31.526  1.00  0.00    -0.353 N 
HETATM   19  C9  UNL     1      12.508  41.720  32.619  1.00  0.00     0.092 A 
ATOM     20  H7  UNL     1      12.236  41.996  30.593  1.00  0.00     0.166 HD
HETATM   21  C8  UNL     1      12.306  42.231  33.886  1.00  0.00     0.049 A 
BRANCH  17  22
HETATM   22  N1  UNL     1      11.046  44.187  30.643  1.00  0.00    -0.385 N 
ATOM     23  H12 UNL     1      10.964  45.202  30.701  1.00  0.00     0.157 HD
ATOM     24  H11 UNL     1      10.821  43.663  29.797  1.00  0.00     0.157 HD
ENDBRANCH  17  22
ENDBRANCH   1  15
TORSDOF 2
ENDMDL
MODEL 4
REMARK VINA RESULT: -6.260411951      3.328      4.553
REMARK  2 active torsions:
REMARK  status: ('A' for Active; 'I' for Inactive)
REMARK    1  A    between atoms: N1_1  and  C1_4 
REMARK    2  A    between atoms: C3_6  and  N2_7 
ROOT
HETATM    1  N2  UNL     1      13.513  45.773  37.419  1.00  0.00    -0.205 N 
HETATM    2  N3  UNL     1      14.275  46.064  36.380  1.00  0.00    -0.231 N 
ATOM      3  H3  UNL     1      13.909  45.956  35.434  1.00  0.00     0.209 HD
HETATM    4  N4  UNL     1      15.507  46.493  36.562  1.00  0.00    -0.268 N 
ATOM      5  H4  UNL     1      16.081  46.713  35.749  1.00  0.00     0.190 HD
HETATM    6  C4  UNL     1      16.023  46.647  37.778  1.00  0.00     0.153 A 
HETATM    7  N5  UNL     1      17.229  47.062  38.197  1.00  0.00    -0.284 N 
ATOM      8  H5  UNL     1      18.009  47.350  37.608  1.00  0.00     0.188 HD
HETATM    9  N6  UNL     1      17.215  47.028  39.499  1.00  0.00    -0.309 N 
ATOM     10  H6  UNL     1      18.006  47.293  40.085  1.00  0.00     0.186 HD
HETATM   11  C5  UNL     1      16.030  46.600  39.979  1.00  0.00     0.128 A 
HETATM   12  C6  UNL     1      15.245  46.349  38.887  1.00  0.00     0.097 A 
HETATM   13  C7  UNL     1      13.957  45.901  38.684  1.00  0.00     0.283 A 
HETATM   14  O1  UNL     1      13.222  45.620  39.646  1.00  0.00    -0.265 OA
ENDROOT
BRANCH   1  15
HETATM   15  C3  UNL     1      12.163  45.302  37.230  1.00  0.00     0.066 A 
HETATM   16  C2  UNL     1      11.890  44.008  36.838  1.00  0.00     0.079 A 
HETATM   17  C1  UNL     1      10.586  43.592  36.668  1.00  0.00     0.100 A 
HETATM   18  N7  UNL     1       9.533  44.405  36.869  1.00  0.00    -0.353 N 
HETATM   19  C9  UNL     1       9.781  45.669  37.252  1.00  0.00     0.092 A 
ATOM     20  H7  UNL     1       8.578  44.073  36.737  1.00  0.00     0.166 HD
HETATM   21  C8  UNL     1      11.072  46.123  37.433  1.00  0.00     0.049 A 
BRANCH  17  22
HETATM   22  N1  UNL     1      10.343  42.367  36.298  1.00  0.00    -0.385 N 
ATOM     23  H12 UNL     1      10.571  42.107  35.339  1.00  0.00     0.157 HD
ATOM     24  H11 UNL     1       9.937  41.710  36.965  1.00  0.00     0.157 HD
ENDBRANCH  17  22
ENDBRANCH   1  15
TORSDOF 2
ENDMDL
MODEL 5
REMARK VINA RESULT: -6.224829346      1.492      2.434
REMARK  2 active torsions:
REMARK  status: ('A' for Active; 'I' for Inactive)
REMARK    1  A    between atoms: N1_1  and  C1_4 
REMARK    2  A    between atoms: C3_6  and  N2_7 
ROOT
HETATM    1  N2  UNL     1      11.576  44.469  35.952  1.00  0.00    -0.205 N 
HETATM    2  N3  UNL     1      10.532  44.158  36.700  1.00  0.00    -0.231 N 
ATOM      3  H3  UNL     1       9.803  43.550  36.329  1.00  0.00     0.209 HD
HETATM    4  N4  UNL     1      10.432  44.633  37.925  1.00  0.00    -0.268 N 
ATOM      5  H4  UNL     1       9.620  44.383  38.488  1.00  0.00     0.190 HD
HETATM    6  C4  UNL     1      11.360  45.429  38.447  1.00  0.00     0.153 A 
HETATM    7  N5  UNL     1      11.467  46.019  39.647  1.00  0.00    -0.284 N 
ATOM      8  H5  UNL     1      10.803  45.950  40.418  1.00  0.00     0.188 HD
HETATM    9  N6  UNL     1      12.578  46.697  39.644  1.00  0.00    -0.309 N 
ATOM     10  H6  UNL     1      12.913  47.247  40.435  1.00  0.00     0.186 HD
HETATM   11  C5  UNL     1      13.234  46.585  38.471  1.00  0.00     0.128 A 
HETATM   12  C6  UNL     1      12.467  45.771  37.683  1.00  0.00     0.097 A 
HETATM   13  C7  UNL     1      12.561  45.268  36.403  1.00  0.00     0.283 A 
HETATM   14  O1  UNL     1      13.534  45.547  35.680  1.00  0.00    -0.265 OA
ENDROOT
BRANCH   1  15
HETATM   15  C3  UNL     1      11.696  43.955  34.610  1.00  0.00     0.066 A 
HETATM   16  C2  UNL     1      12.197  42.696  34.353  1.00  0.00     0.079 A 
HETATM   17  C1  UNL     1      12.298  42.237  33.056  1.00  0.00     0.100 A 
HETATM   18  N7  UNL     1      11.922  42.973  31.994  1.00  0.00    -0.353 N 
HETATM   19  C9  UNL     1      11.431  44.202  32.226  1.00  0.00     0.092 A 
ATOM     20  H7  UNL     1      12.006  42.611  31.045  1.00  0.00     0.166 HD
HETATM   21  C8  UNL     1      11.314  44.698  33.510  1.00  0.00     0.049 A 
BRANCH  17  22
HETATM   22  N1  UNL     1      12.773  41.046  32.829  1.00  0.00    -0.385 N 
ATOM     23  H12 UNL     1      13.673  40.977  32.353  1.00  0.00     0.157 HD
ATOM     24  H11 UNL     1      12.243  40.226  33.125  1.00  0.00     0.157 HD
ENDBRANCH  17  22
ENDBRANCH   1  15
TORSDOF 2
ENDMDL
