MODEL 1
REMARK VINA RESULT: -5.916294326      0.000      0.000
REMARK  2 active torsions:
REMARK  status: ('A' for Active; 'I' for Inactive)
REMARK    1  A    between atoms: N1_1  and  N2_4 
REMARK    2  A    between atoms: N4_9  and  C2_10 
ROOT
HETATM    1  N2  UNL     1      11.683  43.834  33.001  1.00  0.00    -0.182 N 
HETATM    2  C1  UNL     1      12.387  42.812  33.509  1.00  0.00     0.216 A 
HETATM    3  S1  UNL     1      12.936  41.563  32.622  1.00  0.00    -0.037 SA
HETATM    4  N3  UNL     1      12.524  43.041  34.819  1.00  0.00    -0.263 N 
ATOM      5  H3  UNL     1      13.019  42.424  35.464  1.00  0.00     0.190 HD
HETATM    6  N4  UNL     1      11.937  44.167  35.167  1.00  0.00    -0.196 N 
HETATM    7  C7  UNL     1      11.416  44.655  34.031  1.00  0.00     0.369 A 
HETATM    8  O2  UNL     1      10.764  45.735  33.939  1.00  0.00    -0.242 OA
ENDROOT
BRANCH   6   9
HETATM    9  C2  UNL     1      11.907  44.685  36.487  1.00  0.00     0.129 A 
HETATM   10  C3  UNL     1      12.935  45.423  37.040  1.00  0.00     0.039 A 
HETATM   11  C4  UNL     1      12.864  45.908  38.327  1.00  0.00     0.020 A 
HETATM   12  C5  UNL     1      11.758  45.671  39.114  1.00  0.00     0.091 A 
HETATM   13  N5  UNL     1      10.763  44.956  38.573  1.00  0.00    -0.332 N 
HETATM   14  C6  UNL     1      10.822  44.480  37.324  1.00  0.00     0.274 A 
ATOM     15  H5  UNL     1       9.932  44.767  39.133  1.00  0.00     0.168 HD
HETATM   16  O1  UNL     1       9.871  43.798  36.813  1.00  0.00    -0.266 OA
ENDBRANCH   6   9
BRANCH   1  17
HETATM   17  N1  UNL     1      11.292  44.026  31.656  1.00  0.00    -0.332 N 
ATOM     18  H12 UNL     1      10.510  43.571  31.184  1.00  0.00     0.177 HD
ATOM     19  H11 UNL     1      11.724  44.639  30.965  1.00  0.00     0.177 HD
ENDBRANCH   1  17
TORSDOF 2
ENDMDL
MODEL 2
REMARK VINA RESULT: -5.866165504      2.170      5.137
REMARK  2 active torsions:
REMARK  status: ('A' for Active; 'I' for Inactive)
REMARK    1  A    between atoms: N1_1  and  N2_4 
REMARK    2  A    between atoms: N4_9  and  C2_10 
ROOT
HETATM    1  N2  UNL     1      11.718  44.916  37.352  1.00  0.00    -0.182 N 
HETATM    2  C1  UNL     1      12.861  45.481  36.937  1.00  0.00     0.216 A 
HETATM    3  S1  UNL     1      13.708  46.559  37.814  1.00  0.00    -0.037 SA
HETATM    4  N3  UNL     1      13.126  44.988  35.723  1.00  0.00    -0.263 N 
ATOM      5  H3  UNL     1      13.939  45.243  35.161  1.00  0.00     0.190 HD
HETATM    6  N4  UNL     1      12.198  44.133  35.346  1.00  0.00    -0.196 N 
HETATM    7  C7  UNL     1      11.326  44.092  36.364  1.00  0.00     0.369 A 
HETATM    8  O2  UNL     1      10.280  43.381  36.394  1.00  0.00    -0.242 OA
ENDROOT
BRANCH   6   9
HETATM    9  C2  UNL     1      12.196  43.441  34.108  1.00  0.00     0.129 A 
HETATM   10  C3  UNL     1      12.774  42.198  33.928  1.00  0.00     0.039 A 
HETATM   11  C4  UNL     1      12.748  41.561  32.708  1.00  0.00     0.020 A 
HETATM   12  C5  UNL     1      12.141  42.144  31.616  1.00  0.00     0.091 A 
HETATM   13  N5  UNL     1      11.583  43.348  31.796  1.00  0.00    -0.332 N 
HETATM   14  C6  UNL     1      11.602  43.976  32.976  1.00  0.00     0.274 A 
ATOM     15  H5  UNL     1      11.126  43.802  31.004  1.00  0.00     0.168 HD
HETATM   16  O1  UNL     1      11.068  45.124  33.143  1.00  0.00    -0.266 OA
ENDBRANCH   6   9
BRANCH   1  17
HETATM   17  N1  UNL     1      11.046  45.131  38.577  1.00  0.00    -0.332 N 
ATOM     18  H12 UNL     1      10.062  44.941  38.767  1.00  0.00     0.177 HD
ATOM     19  H11 UNL     1      11.436  45.503  39.442  1.00  0.00     0.177 HD
ENDBRANCH   1  17
TORSDOF 2
ENDMDL
MODEL 3
REMARK VINA RESULT: -5.577925267      1.360      1.797
REMARK  2 active torsions:
REMARK  status: ('A' for Active; 'I' for Inactive)
REMARK    1  A    between atoms: N1_1  and  N2_4 
REMARK    2  A    between atoms: N4_9  and  C2_10 
ROOT
HETATM    1  N2  UNL     1      11.767  43.880  33.328  1.00  0.00    -0.182 N 
HETATM    2  C1  UNL     1      12.607  42.978  33.857  1.00  0.00     0.216 A 
HETATM    3  S1  UNL     1      13.218  41.717  33.029  1.00  0.00    -0.037 SA
HETATM    4  N3  UNL     1      12.811  43.329  35.130  1.00  0.00    -0.263 N 
ATOM      5  H3  UNL     1      13.410  42.820  35.781  1.00  0.00     0.190 HD
HETATM    6  N4  UNL     1      12.136  44.418  35.436  1.00  0.00    -0.196 N 
HETATM    7  C7  UNL     1      11.489  44.755  34.310  1.00  0.00     0.369 A 
HETATM    8  O2  UNL     1      10.725  45.755  34.186  1.00  0.00    -0.242 OA
ENDROOT
BRANCH   6   9
HETATM    9  C2  UNL     1      12.145  45.040  36.710  1.00  0.00     0.129 A 
HETATM   10  C3  UNL     1      11.170  44.832  37.667  1.00  0.00     0.039 A 
HETATM   11  C4  UNL     1      11.218  45.457  38.893  1.00  0.00     0.020 A 
HETATM   12  C5  UNL     1      12.247  46.319  39.210  1.00  0.00     0.091 A 
HETATM   13  N5  UNL     1      13.189  46.516  38.279  1.00  0.00    -0.332 N 
HETATM   14  C6  UNL     1      13.152  45.915  37.086  1.00  0.00     0.274 A 
ATOM     15  H5  UNL     1      13.962  47.148  38.488  1.00  0.00     0.168 HD
HETATM   16  O1  UNL     1      14.053  46.107  36.201  1.00  0.00    -0.266 OA
ENDBRANCH   6   9
BRANCH   1  17
HETATM   17  N1  UNL     1      11.265  43.918  32.007  1.00  0.00    -0.332 N 
ATOM     18  H12 UNL     1      11.210  43.132  31.359  1.00  0.00     0.177 HD
ATOM     19  H11 UNL     1      10.888  44.724  31.509  1.00  0.00     0.177 HD
ENDBRANCH   1  17
TORSDOF 2
ENDMDL
MODEL 4
REMARK VINA RESULT: -5.518892896      2.916      4.880
REMARK  2 active torsions:
REMARK  status: ('A' for Active; 'I' for Inactive)
REMARK    1  A    between atoms: N1_1  and  N2_4 
REMARK    2  A    between atoms: N4_9  and  C2_10 
ROOT
HETATM    1  N2  UNL     1      12.407  46.474  38.332  1.00  0.00    -0.182 N 
HETATM    2  C1  UNL     1      13.113  45.445  38.825  1.00  0.00     0.216 A 
HETATM    3  S1  UNL     1      13.900  45.489  40.249  1.00  0.00    -0.037 SA
HETATM    4  N3  UNL     1      13.026  44.448  37.940  1.00  0.00    -0.263 N 
ATOM      5  H3  UNL     1      13.470  43.536  38.052  1.00  0.00     0.190 HD
HETATM    6  N4  UNL     1      12.295  44.797  36.902  1.00  0.00    -0.196 N 
HETATM    7  C7  UNL     1      11.912  46.059  37.153  1.00  0.00     0.369 A 
HETATM    8  O2  UNL     1      11.189  46.762  36.389  1.00  0.00    -0.242 OA
ENDROOT
BRANCH   6   9
HETATM    9  C2  UNL     1      12.016  43.958  35.793  1.00  0.00     0.129 A 
HETATM   10  C3  UNL     1      12.646  44.077  34.569  1.00  0.00     0.039 A 
HETATM   11  C4  UNL     1      12.346  43.240  33.519  1.00  0.00     0.020 A 
HETATM   12  C5  UNL     1      11.399  42.247  33.652  1.00  0.00     0.091 A 
HETATM   13  N5  UNL     1      10.792  42.135  34.840  1.00  0.00    -0.332 N 
HETATM   14  C6  UNL     1      11.076  42.943  35.867  1.00  0.00     0.274 A 
ATOM     15  H5  UNL     1      10.087  41.408  34.966  1.00  0.00     0.168 HD
HETATM   16  O1  UNL     1      10.493  42.833  36.998  1.00  0.00    -0.266 OA
ENDBRANCH   6   9
BRANCH   1  17
HETATM   17  N1  UNL     1      12.212  47.745  38.919  1.00  0.00    -0.332 N 
ATOM     18  H12 UNL     1      12.840  48.209  39.575  1.00  0.00     0.177 HD
ATOM     19  H11 UNL     1      11.426  48.380  38.779  1.00  0.00     0.177 HD
ENDBRANCH   1  17
TORSDOF 2
ENDMDL
MODEL 5
REMARK VINA RESULT: -5.389898410      2.619      4.970
REMARK  2 active torsions:
REMARK  status: ('A' for Active; 'I' for Inactive)
REMARK    1  A    between atoms: N1_1  and  N2_4 
REMARK    2  A    between atoms: N4_9  and  C2_10 
ROOT
HETATM    1  N2  UNL     1      11.992  46.244  36.864  1.00  0.00    -0.182 N 
HETATM    2  C1  UNL     1      13.305  46.038  36.680  1.00  0.00     0.216 A 
HETATM    3  S1  UNL     1      14.464  46.705  37.607  1.00  0.00    -0.037 SA
HETATM    4  N3  UNL     1      13.431  45.218  35.632  1.00  0.00    -0.263 N 
ATOM      5  H3  UNL     1      14.323  44.888  35.261  1.00  0.00     0.190 HD
HETATM    6  N4  UNL     1      12.254  44.892  35.141  1.00  0.00    -0.196 N 
HETATM    7  C7  UNL     1      11.363  45.533  35.913  1.00  0.00     0.369 A 
HETATM    8  O2  UNL     1      10.108  45.480  35.768  1.00  0.00    -0.242 OA
ENDROOT
BRANCH   6   9
HETATM    9  C2  UNL     1      12.054  44.035  34.028  1.00  0.00     0.129 A 
HETATM   10  C3  UNL     1      11.613  44.477  32.796  1.00  0.00     0.039 A 
HETATM   11  C4  UNL     1      11.433  43.611  31.741  1.00  0.00     0.020 A 
HETATM   12  C5  UNL     1      11.688  42.264  31.878  1.00  0.00     0.091 A 
HETATM   13  N5  UNL     1      12.116  41.840  33.075  1.00  0.00    -0.332 N 
HETATM   14  C6  UNL     1      12.294  42.673  34.106  1.00  0.00     0.274 A 
ATOM     15  H5  UNL     1      12.313  40.848  33.204  1.00  0.00     0.168 HD
HETATM   16  O1  UNL     1      12.702  42.264  35.245  1.00  0.00    -0.266 OA
ENDBRANCH   6   9
BRANCH   1  17
HETATM   17  N1  UNL     1      11.377  47.043  37.855  1.00  0.00    -0.332 N 
ATOM     18  H12 UNL     1      11.851  47.545  38.606  1.00  0.00     0.177 HD
ATOM     19  H11 UNL     1      10.382  47.237  37.967  1.00  0.00     0.177 HD
ENDBRANCH   1  17
TORSDOF 2
ENDMDL
