MODEL 1
REMARK VINA RESULT: -6.929101200      0.000      0.000
REMARK  1 active torsions:
REMARK  status: ('A' for Active; 'I' for Inactive)
REMARK    1  A    between atoms: N1_1  and  C1_4 
ROOT
HETATM    1  C1  UNL     1      11.470  45.847  38.038  1.00  0.00     0.679 A 
HETATM    2  N2  UNL     1      10.899  46.760  37.242  1.00  0.00    -0.154 N 
ATOM      3  H2  UNL     1      10.556  47.633  37.646  1.00  0.00     0.187 HD
HETATM    4  C2  UNL     1      10.769  46.548  35.918  1.00  0.00     0.288 A 
HETATM    5  O1  UNL     1      10.234  47.407  35.186  1.00  0.00    -0.265 OA
HETATM    6  C3  UNL     1      11.219  45.384  35.335  1.00  0.00     0.130 A 
HETATM    7  N3  UNL     1      11.098  45.147  33.997  1.00  0.00    -0.334 N 
ATOM      8  H3  UNL     1      10.661  45.850  33.402  1.00  0.00     0.168 HD
HETATM    9  C4  UNL     1      11.544  44.003  33.449  1.00  0.00     0.135 A 
HETATM   10  N4  UNL     1      11.434  43.754  32.133  1.00  0.00    -0.336 N 
ATOM     11  H4  UNL     1      10.998  44.457  31.538  1.00  0.00     0.168 HD
HETATM   12  C5  UNL     1      11.876  42.613  31.568  1.00  0.00     0.199 A 
HETATM   13  N5  UNL     1      12.456  41.668  32.331  1.00  0.00    -0.296 N 
ATOM     14  H5  UNL     1      12.795  40.798  31.920  1.00  0.00     0.187 HD
HETATM   15  N6  UNL     1      12.574  41.898  33.632  1.00  0.00    -0.296 N 
ATOM     16  H6  UNL     1      13.015  41.184  34.214  1.00  0.00     0.187 HD
HETATM   17  C6  UNL     1      12.141  43.028  34.221  1.00  0.00     0.094 A 
HETATM   18  C7  UNL     1      12.260  43.273  35.574  1.00  0.00     0.067 A 
HETATM   19  C8  UNL     1      11.806  44.446  36.156  1.00  0.00     0.084 A 
HETATM   20  N7  UNL     1      11.908  44.711  37.462  1.00  0.00    -0.190 N 
ATOM     21  H7  UNL     1      12.345  44.009  38.060  1.00  0.00     0.184 HD
ENDROOT
BRANCH   1  22
HETATM   22  N1  UNL     1      11.599  46.047  39.322  1.00  0.00    -0.234 N 
ATOM     23  H12 UNL     1      12.098  46.861  39.681  1.00  0.00     0.174 HD
ATOM     24  H11 UNL     1      11.207  45.398  40.004  1.00  0.00     0.174 HD
ENDBRANCH   1  22
TORSDOF 1
ENDMDL
MODEL 2
REMARK VINA RESULT: -6.802357609      2.125      2.617
REMARK  1 active torsions:
REMARK  status: ('A' for Active; 'I' for Inactive)
REMARK    1  A    between atoms: N1_1  and  C1_4 
ROOT
HETATM    1  C1  UNL     1      12.308  46.621  39.639  1.00  0.00     0.679 A 
HETATM    2  N2  UNL     1      13.333  47.120  38.938  1.00  0.00    -0.154 N 
ATOM      3  H2  UNL     1      13.886  47.883  39.331  1.00  0.00     0.187 HD
HETATM    4  C2  UNL     1      13.649  46.634  37.721  1.00  0.00     0.288 A 
HETATM    5  O1  UNL     1      14.608  47.108  37.076  1.00  0.00    -0.265 OA
HETATM    6  C3  UNL     1      12.929  45.604  37.156  1.00  0.00     0.130 A 
HETATM    7  N3  UNL     1      13.229  45.096  35.927  1.00  0.00    -0.334 N 
ATOM      8  H3  UNL     1      14.012  45.485  35.403  1.00  0.00     0.168 HD
HETATM    9  C4  UNL     1      12.511  44.091  35.394  1.00  0.00     0.135 A 
HETATM   10  N4  UNL     1      12.794  43.578  34.185  1.00  0.00    -0.336 N 
ATOM     11  H4  UNL     1      13.578  43.966  33.661  1.00  0.00     0.168 HD
HETATM   12  C5  UNL     1      12.086  42.571  33.637  1.00  0.00     0.199 A 
HETATM   13  N5  UNL     1      11.047  42.040  34.307  1.00  0.00    -0.296 N 
ATOM     14  H5  UNL     1      10.500  41.279  33.906  1.00  0.00     0.187 HD
HETATM   15  N6  UNL     1      10.754  42.534  35.504  1.00  0.00    -0.296 N 
ATOM     16  H6  UNL     1       9.968  42.132  36.016  1.00  0.00     0.187 HD
HETATM   17  C6  UNL     1      11.445  43.538  36.073  1.00  0.00     0.094 A 
HETATM   18  C7  UNL     1      11.146  44.057  37.316  1.00  0.00     0.067 A 
HETATM   19  C8  UNL     1      11.874  45.093  37.880  1.00  0.00     0.084 A 
HETATM   20  N7  UNL     1      11.607  45.614  39.082  1.00  0.00    -0.190 N 
ATOM     21  H7  UNL     1      10.825  45.227  39.609  1.00  0.00     0.184 HD
ENDROOT
BRANCH   1  22
HETATM   22  N1  UNL     1      11.997  47.088  40.819  1.00  0.00    -0.234 N 
ATOM     23  H12 UNL     1      11.712  48.060  40.943  1.00  0.00     0.174 HD
ATOM     24  H11 UNL     1      12.029  46.498  41.650  1.00  0.00     0.174 HD
ENDBRANCH   1  22
TORSDOF 1
ENDMDL
MODEL 3
REMARK VINA RESULT: -6.795947533      2.017      5.677
REMARK  1 active torsions:
REMARK  status: ('A' for Active; 'I' for Inactive)
REMARK    1  A    between atoms: N1_1  and  C1_4 
ROOT
HETATM    1  C1  UNL     1      12.020  42.982  34.106  1.00  0.00     0.679 A 
HETATM    2  N2  UNL     1      11.032  42.440  34.828  1.00  0.00    -0.154 N 
ATOM      3  H2  UNL     1      10.495  41.664  34.440  1.00  0.00     0.187 HD
HETATM    4  C2  UNL     1      10.735  42.900  36.060  1.00  0.00     0.288 A 
HETATM    5  O1  UNL     1       9.811  42.386  36.724  1.00  0.00    -0.265 OA
HETATM    6  C3  UNL     1      11.437  43.945  36.619  1.00  0.00     0.130 A 
HETATM    7  N3  UNL     1      11.154  44.427  37.863  1.00  0.00    -0.334 N 
ATOM      8  H3  UNL     1      10.399  44.006  38.403  1.00  0.00     0.168 HD
HETATM    9  C4  UNL     1      11.852  45.449  38.390  1.00  0.00     0.135 A 
HETATM   10  N4  UNL     1      11.588  45.936  39.614  1.00  0.00    -0.336 N 
ATOM     11  H4  UNL     1      10.833  45.514  40.155  1.00  0.00     0.168 HD
HETATM   12  C5  UNL     1      12.278  46.959  40.156  1.00  0.00     0.199 A 
HETATM   13  N5  UNL     1      13.278  47.534  39.465  1.00  0.00    -0.296 N 
ATOM     14  H5  UNL     1      13.810  48.309  39.859  1.00  0.00     0.187 HD
HETATM   15  N6  UNL     1      13.555  47.064  38.254  1.00  0.00    -0.296 N 
ATOM     16  H6  UNL     1      14.314  47.497  37.727  1.00  0.00     0.187 HD
HETATM   17  C6  UNL     1      12.881  46.045  37.690  1.00  0.00     0.094 A 
HETATM   18  C7  UNL     1      13.162  45.553  36.432  1.00  0.00     0.067 A 
HETATM   19  C8  UNL     1      12.453  44.501  35.873  1.00  0.00     0.084 A 
HETATM   20  N7  UNL     1      12.704  44.004  34.658  1.00  0.00    -0.190 N 
ATOM     21  H7  UNL     1      13.459  44.423  34.116  1.00  0.00     0.184 HD
ENDROOT
BRANCH   1  22
HETATM   22  N1  UNL     1      12.314  42.541  32.912  1.00  0.00    -0.234 N 
ATOM     23  H12 UNL     1      12.345  43.171  32.110  1.00  0.00     0.174 HD
ATOM     24  H11 UNL     1      12.520  41.557  32.744  1.00  0.00     0.174 HD
ENDBRANCH   1  22
TORSDOF 1
ENDMDL
MODEL 4
REMARK VINA RESULT: -6.372420570      3.076      4.492
REMARK  1 active torsions:
REMARK  status: ('A' for Active; 'I' for Inactive)
REMARK    1  A    between atoms: N1_1  and  C1_4 
ROOT
HETATM    1  C1  UNL     1      14.816  48.264  39.447  1.00  0.00     0.679 A 
HETATM    2  N2  UNL     1      15.611  47.961  38.413  1.00  0.00    -0.154 N 
ATOM      3  H2  UNL     1      16.528  48.403  38.340  1.00  0.00     0.187 HD
HETATM    4  C2  UNL     1      15.222  47.082  37.469  1.00  0.00     0.288 A 
HETATM    5  O1  UNL     1      15.972  46.808  36.508  1.00  0.00    -0.265 OA
HETATM    6  C3  UNL     1      13.993  46.464  37.533  1.00  0.00     0.130 A 
HETATM    7  N3  UNL     1      13.578  45.572  36.589  1.00  0.00    -0.334 N 
ATOM      8  H3  UNL     1      14.192  45.350  35.806  1.00  0.00     0.168 HD
HETATM    9  C4  UNL     1      12.372  44.980  36.671  1.00  0.00     0.135 A 
HETATM   10  N4  UNL     1      11.948  44.099  35.751  1.00  0.00    -0.336 N 
ATOM     11  H4  UNL     1      12.562  43.875  34.968  1.00  0.00     0.168 HD
HETATM   12  C5  UNL     1      10.744  43.497  35.819  1.00  0.00     0.199 A 
HETATM   13  N5  UNL     1       9.913  43.773  36.840  1.00  0.00    -0.296 N 
ATOM     14  H5  UNL     1       8.998  43.327  36.906  1.00  0.00     0.187 HD
HETATM   15  N6  UNL     1      10.317  44.640  37.760  1.00  0.00    -0.296 N 
ATOM     16  H6  UNL     1       9.690  44.851  38.537  1.00  0.00     0.187 HD
HETATM   17  C6  UNL     1      11.513  45.255  37.715  1.00  0.00     0.094 A 
HETATM   18  C7  UNL     1      11.939  46.159  38.667  1.00  0.00     0.067 A 
HETATM   19  C8  UNL     1      13.177  46.778  38.598  1.00  0.00     0.084 A 
HETATM   20  N7  UNL     1      13.615  47.656  39.505  1.00  0.00    -0.190 N 
ATOM     21  H7  UNL     1      13.003  47.880  40.290  1.00  0.00     0.184 HD
ENDROOT
BRANCH   1  22
HETATM   22  N1  UNL     1      15.188  49.115  40.366  1.00  0.00    -0.234 N 
ATOM     23  H12 UNL     1      15.866  48.854  41.083  1.00  0.00     0.174 HD
ATOM     24  H11 UNL     1      14.813  50.062  40.397  1.00  0.00     0.174 HD
ENDBRANCH   1  22
TORSDOF 1
ENDMDL
MODEL 5
REMARK VINA RESULT: -6.306234943      2.175      5.930
REMARK  1 active torsions:
REMARK  status: ('A' for Active; 'I' for Inactive)
REMARK    1  A    between atoms: N1_1  and  C1_4 
ROOT
HETATM    1  C1  UNL     1      12.140  43.918  34.629  1.00  0.00     0.679 A 
HETATM    2  N2  UNL     1      11.004  43.504  35.205  1.00  0.00    -0.154 N 
ATOM      3  H2  UNL     1      10.385  42.874  34.695  1.00  0.00     0.187 HD
HETATM    4  C2  UNL     1      10.665  43.906  36.446  1.00  0.00     0.288 A 
HETATM    5  O1  UNL     1       9.603  43.512  36.973  1.00  0.00    -0.265 OA
HETATM    6  C3  UNL     1      11.475  44.755  37.167  1.00  0.00     0.130 A 
HETATM    7  N3  UNL     1      11.152  45.175  38.424  1.00  0.00    -0.334 N 
ATOM      8  H3  UNL     1      10.285  44.852  38.852  1.00  0.00     0.168 HD
HETATM    9  C4  UNL     1      11.957  46.006  39.110  1.00  0.00     0.135 A 
HETATM   10  N4  UNL     1      11.656  46.428  40.349  1.00  0.00    -0.336 N 
ATOM     11  H4  UNL     1      10.789  46.105  40.777  1.00  0.00     0.168 HD
HETATM   12  C5  UNL     1      12.452  47.260  41.049  1.00  0.00     0.199 A 
HETATM   13  N5  UNL     1      13.602  47.701  40.508  1.00  0.00    -0.296 N 
ATOM     14  H5  UNL     1      14.215  48.332  41.024  1.00  0.00     0.187 HD
HETATM   15  N6  UNL     1      13.916  47.293  39.285  1.00  0.00    -0.296 N 
ATOM     16  H6  UNL     1      14.789  47.624  38.872  1.00  0.00     0.187 HD
HETATM   17  C6  UNL     1      13.139  46.463  38.565  1.00  0.00     0.094 A 
HETATM   18  C7  UNL     1      13.460  46.036  37.292  1.00  0.00     0.067 A 
HETATM   19  C8  UNL     1      12.643  45.180  36.572  1.00  0.00     0.084 A 
HETATM   20  N7  UNL     1      12.927  44.750  35.339  1.00  0.00    -0.190 N 
ATOM     21  H7  UNL     1      13.795  45.070  34.908  1.00  0.00     0.184 HD
ENDROOT
BRANCH   1  22
HETATM   22  N1  UNL     1      12.474  43.533  33.427  1.00  0.00    -0.234 N 
ATOM     23  H12 UNL     1      11.786  43.497  32.674  1.00  0.00     0.174 HD
ATOM     24  H11 UNL     1      13.430  43.258  33.203  1.00  0.00     0.174 HD
ENDBRANCH   1  22
TORSDOF 1
ENDMDL
