MODEL 1
REMARK VINA RESULT: -6.090175855      0.000      0.000
REMARK  10 active torsions:
REMARK  status: ('A' for Active; 'I' for Inactive)
REMARK    1  A    between atoms: C2_2  and  N1_4 
REMARK       I    between atoms: N1_4  and  C4_6 
REMARK    2  A    between atoms: C4_6  and  C5_8 
REMARK    3  A    between atoms: C9_12  and  C10_13 
REMARK    4  A    between atoms: C10_13  and  O2_14 
REMARK    5  A    between atoms: N2_16  and  C11_18 
REMARK    6  A    between atoms: C11_18  and  C12_19 
REMARK    7  A    between atoms: C11_18  and  C16_29 
REMARK       I    between atoms: C12_19  and  N3_21 
REMARK    8  A    between atoms: N3_21  and  S1_23 
REMARK    9  A    between atoms: S1_23  and  C13_26 
REMARK   10  A    between atoms: C20_33  and  C21_34 
ROOT
HETATM    1  C10 UNL     1      15.621  15.995   3.153  1.00  0.00     0.125 C 
HETATM    2  N2  UNL     1      15.859  16.377   4.400  1.00  0.00    -0.338 N 
ATOM      3  H2  UNL     1      16.463  15.776   4.962  1.00  0.00     0.167 HD
ENDROOT
BRANCH   1   4
HETATM    4  C9  UNL     1      15.940  14.889   2.254  1.00  0.00     0.037 A 
HETATM    5  C7  UNL     1      16.399  13.608   2.822  1.00  0.00     0.008 A 
HETATM    6  C6  UNL     1      15.755  12.480   2.090  1.00  0.00     0.046 C 
HETATM    7  C8  UNL     1      17.378  14.484   2.129  1.00  0.00     0.025 A 
HETATM    8  C5  UNL     1      14.643  13.218   1.331  1.00  0.00    -0.006 C 
HETATM    9  C20 UNL     1      15.062  14.570   1.031  1.00  0.00     0.040 C 
BRANCH   8  10
HETATM   10  C4  UNL     1      13.934  12.359   0.437  1.00  0.00     0.244 C 
HETATM   11  N1  UNL     1      12.754  12.612  -0.242  1.00  0.00    -0.353 N 
ATOM     12  H1  UNL     1      12.315  13.524  -0.116  1.00  0.00     0.163 HD
HETATM   13  O1  UNL     1      14.448  11.186   0.229  1.00  0.00    -0.268 OA
BRANCH  11  14
HETATM   14  C2  UNL     1      12.088  11.641  -1.141  1.00  0.00     0.076 C 
HETATM   15  C1  UNL     1      10.725  11.244  -0.655  1.00  0.00     0.032 C 
HETATM   16  C3  UNL     1      11.918  12.329  -2.494  1.00  0.00     0.032 C 
ENDBRANCH  11  14
ENDBRANCH   8  10
BRANCH   9  17
HETATM   17  C21 UNL     1      15.701  15.040  -0.185  1.00  0.00    -0.013 C 
HETATM   18  C22 UNL     1      14.788  16.021  -0.949  1.00  0.00     0.010 C 
HETATM   19  C23 UNL     1      16.339  14.173  -1.180  1.00  0.00     0.010 C 
ENDBRANCH   9  17
ENDBRANCH   1   4
BRANCH   1  20
HETATM   20  O2  UNL     1      14.826  16.879   2.466  1.00  0.00    -0.349 OA
ATOM     21  H2  UNL     1      14.050  17.040   2.990  1.00  0.00     0.219 HD
ENDBRANCH   1  20
BRANCH   2  22
HETATM   22  C11 UNL     1      15.342  17.565   5.034  1.00  0.00     0.088 C 
BRANCH  22  23
HETATM   23  C12 UNL     1      14.509  17.098   6.206  1.00  0.00     0.278 C 
HETATM   24  O3  UNL     1      14.970  16.376   7.115  1.00  0.00    -0.265 OA
HETATM   25  N3  UNL     1      13.162  17.502   6.330  1.00  0.00    -0.249 N 
ATOM     26  H3  UNL     1      12.776  18.074   5.579  1.00  0.00     0.182 HD
BRANCH  25  27
HETATM   27  S1  UNL     1      12.124  17.115   7.626  1.00  0.00     0.237 S 
HETATM   28  O4  UNL     1      12.076  15.592   7.797  1.00  0.00    -0.205 OA
HETATM   29  O5  UNL     1      12.653  17.681   8.905  1.00  0.00    -0.205 OA
BRANCH  27  30
HETATM   30  C13 UNL     1      10.464  17.607   7.322  1.00  0.00     0.130 A 
HETATM   31  C14 UNL     1       9.450  16.646   6.764  1.00  0.00     0.023 A 
HETATM   32  C15 UNL     1      10.077  17.693   5.862  1.00  0.00     0.023 A 
ENDBRANCH  27  30
ENDBRANCH  25  27
ENDBRANCH  22  23
BRANCH  22  33
HETATM   33  C16 UNL     1      16.105  18.736   5.285  1.00  0.00    -0.003 C 
HETATM   34  C17 UNL     1      15.904  19.553   6.539  1.00  0.00     0.021 C 
HETATM   35  C18 UNL     1      17.638  18.438   5.208  1.00  0.00     0.021 C 
HETATM   36  C19 UNL     1      15.862  19.708   4.099  1.00  0.00     0.021 C 
ENDBRANCH  22  33
ENDBRANCH   2  22
TORSDOF 10
ENDMDL
MODEL 2
REMARK VINA RESULT: -6.050626295      3.042      8.026
REMARK  10 active torsions:
REMARK  status: ('A' for Active; 'I' for Inactive)
REMARK    1  A    between atoms: C2_2  and  N1_4 
REMARK       I    between atoms: N1_4  and  C4_6 
REMARK    2  A    between atoms: C4_6  and  C5_8 
REMARK    3  A    between atoms: C9_12  and  C10_13 
REMARK    4  A    between atoms: C10_13  and  O2_14 
REMARK    5  A    between atoms: N2_16  and  C11_18 
REMARK    6  A    between atoms: C11_18  and  C12_19 
REMARK    7  A    between atoms: C11_18  and  C16_29 
REMARK       I    between atoms: C12_19  and  N3_21 
REMARK    8  A    between atoms: N3_21  and  S1_23 
REMARK    9  A    between atoms: S1_23  and  C13_26 
REMARK   10  A    between atoms: C20_33  and  C21_34 
ROOT
HETATM    1  C10 UNL     1      16.218  14.075   3.084  1.00  0.00     0.125 C 
HETATM    2  N2  UNL     1      16.669  13.256   2.145  1.00  0.00    -0.338 N 
ATOM      3  H2  UNL     1      16.898  13.668   1.240  1.00  0.00     0.167 HD
ENDROOT
BRANCH   1   4
HETATM    4  C9  UNL     1      15.884  15.487   3.253  1.00  0.00     0.037 A 
HETATM    5  C7  UNL     1      15.334  16.240   2.111  1.00  0.00     0.008 A 
HETATM    6  C6  UNL     1      14.231  17.126   2.582  1.00  0.00     0.046 C 
HETATM    7  C8  UNL     1      16.733  16.496   2.541  1.00  0.00     0.025 A 
HETATM    8  C5  UNL     1      13.967  16.550   3.980  1.00  0.00    -0.006 C 
HETATM    9  C20 UNL     1      15.189  16.000   4.528  1.00  0.00     0.040 C 
BRANCH   8  10
HETATM   10  C4  UNL     1      13.010  17.316   4.712  1.00  0.00     0.244 C 
HETATM   11  N1  UNL     1      12.467  17.051   5.958  1.00  0.00    -0.353 N 
ATOM     12  H1  UNL     1      12.779  16.211   6.445  1.00  0.00     0.163 HD
HETATM   13  O1  UNL     1      12.582  18.403   4.145  1.00  0.00    -0.268 OA
BRANCH  11  14
HETATM   14  C2  UNL     1      11.463  17.909   6.627  1.00  0.00     0.076 C 
HETATM   15  C1  UNL     1      10.117  17.254   6.728  1.00  0.00     0.032 C 
HETATM   16  C3  UNL     1      11.966  18.161   8.047  1.00  0.00     0.032 C 
ENDBRANCH  11  14
ENDBRANCH   8  10
BRANCH   9  17
HETATM   17  C21 UNL     1      16.146  16.674   5.387  1.00  0.00    -0.013 C 
HETATM   18  C22 UNL     1      16.310  15.929   6.728  1.00  0.00     0.010 C 
HETATM   19  C23 UNL     1      16.131  18.110   5.684  1.00  0.00     0.010 C 
ENDBRANCH   9  17
ENDBRANCH   1   4
BRANCH   1  20
HETATM   20  O2  UNL     1      15.968  13.438   4.275  1.00  0.00    -0.349 OA
ATOM     21  H2  UNL     1      16.328  12.561   4.217  1.00  0.00     0.219 HD
ENDBRANCH   1  20
BRANCH   2  22
HETATM   22  C11 UNL     1      16.866  11.833   2.288  1.00  0.00     0.088 C 
BRANCH  22  23
HETATM   23  C12 UNL     1      16.068  11.177   1.185  1.00  0.00     0.278 C 
HETATM   24  O3  UNL     1      15.603  10.022   1.284  1.00  0.00    -0.265 OA
HETATM   25  N3  UNL     1      15.787  11.880  -0.007  1.00  0.00    -0.249 N 
ATOM     26  H3  UNL     1      16.182  12.815  -0.100  1.00  0.00     0.182 HD
BRANCH  25  27
HETATM   27  S1  UNL     1      14.844  11.300  -1.303  1.00  0.00     0.237 S 
HETATM   28  O4  UNL     1      15.019  12.231  -2.510  1.00  0.00    -0.205 OA
HETATM   29  O5  UNL     1      15.314   9.946  -1.726  1.00  0.00    -0.205 OA
BRANCH  27  30
HETATM   30  C13 UNL     1      13.124  11.319  -0.940  1.00  0.00     0.130 A 
HETATM   31  C14 UNL     1      12.229  12.422  -1.435  1.00  0.00     0.023 A 
HETATM   32  C15 UNL     1      12.681  12.408   0.013  1.00  0.00     0.023 A 
ENDBRANCH  27  30
ENDBRANCH  25  27
ENDBRANCH  22  23
BRANCH  22  33
HETATM   33  C16 UNL     1      18.120  11.221   2.551  1.00  0.00    -0.003 C 
HETATM   34  C17 UNL     1      18.872  10.474   1.475  1.00  0.00     0.021 C 
HETATM   35  C18 UNL     1      19.136  12.249   3.148  1.00  0.00     0.021 C 
HETATM   36  C19 UNL     1      17.906  10.206   3.705  1.00  0.00     0.021 C 
ENDBRANCH  22  33
ENDBRANCH   2  22
TORSDOF 10
ENDMDL
MODEL 3
REMARK VINA RESULT: -5.870827599      1.171      1.355
REMARK  10 active torsions:
REMARK  status: ('A' for Active; 'I' for Inactive)
REMARK    1  A    between atoms: C2_2  and  N1_4 
REMARK       I    between atoms: N1_4  and  C4_6 
REMARK    2  A    between atoms: C4_6  and  C5_8 
REMARK    3  A    between atoms: C9_12  and  C10_13 
REMARK    4  A    between atoms: C10_13  and  O2_14 
REMARK    5  A    between atoms: N2_16  and  C11_18 
REMARK    6  A    between atoms: C11_18  and  C12_19 
REMARK    7  A    between atoms: C11_18  and  C16_29 
REMARK       I    between atoms: C12_19  and  N3_21 
REMARK    8  A    between atoms: N3_21  and  S1_23 
REMARK    9  A    between atoms: S1_23  and  C13_26 
REMARK   10  A    between atoms: C20_33  and  C21_34 
ROOT
HETATM    1  C10 UNL     1      16.380  15.570   4.126  1.00  0.00     0.125 C 
HETATM    2  N2  UNL     1      16.486  16.100   5.336  1.00  0.00    -0.338 N 
ATOM      3  H2  UNL     1      17.022  15.575   6.028  1.00  0.00     0.167 HD
ENDROOT
BRANCH   1   4
HETATM    4  C9  UNL     1      16.788  14.366   3.406  1.00  0.00     0.037 A 
HETATM    5  C7  UNL     1      16.867  13.084   4.131  1.00  0.00     0.008 A 
HETATM    6  C6  UNL     1      16.311  11.995   3.277  1.00  0.00     0.046 C 
HETATM    7  C8  UNL     1      18.123  13.772   3.738  1.00  0.00     0.025 A 
HETATM    8  C5  UNL     1      15.594  12.808   2.191  1.00  0.00    -0.006 C 
HETATM    9  C20 UNL     1      16.275  14.068   1.985  1.00  0.00     0.040 C 
BRANCH   8  10
HETATM   10  C4  UNL     1      15.065  11.981   1.154  1.00  0.00     0.244 C 
HETATM   11  N1  UNL     1      14.092  12.291   0.219  1.00  0.00    -0.353 N 
ATOM     12  H1  UNL     1      13.688  13.228   0.242  1.00  0.00     0.163 HD
HETATM   13  O1  UNL     1      15.545  10.778   1.069  1.00  0.00    -0.268 OA
BRANCH  11  14
HETATM   14  C2  UNL     1      13.599  11.350  -0.813  1.00  0.00     0.076 C 
HETATM   15  C1  UNL     1      12.123  11.473  -1.051  1.00  0.00     0.032 C 
HETATM   16  C3  UNL     1      14.313  11.702  -2.117  1.00  0.00     0.032 C 
ENDBRANCH  11  14
ENDBRANCH   8  10
BRANCH   9  17
HETATM   17  C21 UNL     1      17.307  14.358   1.006  1.00  0.00    -0.013 C 
HETATM   18  C22 UNL     1      16.869  15.493   0.057  1.00  0.00     0.010 C 
HETATM   19  C23 UNL     1      17.989  13.348   0.192  1.00  0.00     0.010 C 
ENDBRANCH   9  17
ENDBRANCH   1   4
BRANCH   1  20
HETATM   20  O2  UNL     1      15.669  16.359   3.257  1.00  0.00    -0.349 OA
ATOM     21  H2  UNL     1      14.745  16.201   3.409  1.00  0.00     0.219 HD
ENDBRANCH   1  20
BRANCH   2  22
HETATM   22  C11 UNL     1      15.910  17.352   5.764  1.00  0.00     0.088 C 
BRANCH  22  23
HETATM   23  C12 UNL     1      14.895  17.015   6.832  1.00  0.00     0.278 C 
HETATM   24  O3  UNL     1      15.191  16.383   7.868  1.00  0.00    -0.265 OA
HETATM   25  N3  UNL     1      13.556  17.444   6.704  1.00  0.00    -0.249 N 
ATOM     26  H3  UNL     1      13.306  17.942   5.850  1.00  0.00     0.182 HD
BRANCH  25  27
HETATM   27  S1  UNL     1      12.321  17.203   7.854  1.00  0.00     0.237 S 
HETATM   28  O4  UNL     1      12.199  15.704   8.156  1.00  0.00    -0.205 OA
HETATM   29  O5  UNL     1      12.667  17.879   9.142  1.00  0.00    -0.205 OA
BRANCH  27  30
HETATM   30  C13 UNL     1      10.743  17.693   7.254  1.00  0.00     0.130 A 
HETATM   31  C14 UNL     1       9.685  16.681   6.912  1.00  0.00     0.023 A 
HETATM   32  C15 UNL     1      10.474  17.353   5.804  1.00  0.00     0.023 A 
ENDBRANCH  27  30
ENDBRANCH  25  27
ENDBRANCH  22  23
BRANCH  22  33
HETATM   33  C16 UNL     1      16.658  18.533   6.015  1.00  0.00    -0.003 C 
HETATM   34  C17 UNL     1      16.768  19.115   7.404  1.00  0.00     0.021 C 
HETATM   35  C18 UNL     1      18.125  18.394   5.492  1.00  0.00     0.021 C 
HETATM   36  C19 UNL     1      16.059  19.657   5.128  1.00  0.00     0.021 C 
ENDBRANCH  22  33
ENDBRANCH   2  22
TORSDOF 10
ENDMDL
MODEL 4
REMARK VINA RESULT: -5.790789901      2.669      8.025
REMARK  10 active torsions:
REMARK  status: ('A' for Active; 'I' for Inactive)
REMARK    1  A    between atoms: C2_2  and  N1_4 
REMARK       I    between atoms: N1_4  and  C4_6 
REMARK    2  A    between atoms: C4_6  and  C5_8 
REMARK    3  A    between atoms: C9_12  and  C10_13 
REMARK    4  A    between atoms: C10_13  and  O2_14 
REMARK    5  A    between atoms: N2_16  and  C11_18 
REMARK    6  A    between atoms: C11_18  and  C12_19 
REMARK    7  A    between atoms: C11_18  and  C16_29 
REMARK       I    between atoms: C12_19  and  N3_21 
REMARK    8  A    between atoms: N3_21  and  S1_23 
REMARK    9  A    between atoms: S1_23  and  C13_26 
REMARK   10  A    between atoms: C20_33  and  C21_34 
ROOT
HETATM    1  C10 UNL     1      15.779  14.874   3.461  1.00  0.00     0.125 C 
HETATM    2  N2  UNL     1      16.129  14.338   2.301  1.00  0.00    -0.338 N 
ATOM      3  H2  UNL     1      16.040  14.926   1.472  1.00  0.00     0.167 HD
ENDROOT
BRANCH   1   4
HETATM    4  C9  UNL     1      15.233  16.125   3.982  1.00  0.00     0.037 A 
HETATM    5  C7  UNL     1      14.266  16.884   3.167  1.00  0.00     0.008 A 
HETATM    6  C6  UNL     1      13.176  17.403   4.043  1.00  0.00     0.046 C 
HETATM    7  C8  UNL     1      15.651  17.400   3.315  1.00  0.00     0.025 A 
HETATM    8  C5  UNL     1      13.407  16.582   5.319  1.00  0.00    -0.006 C 
HETATM    9  C20 UNL     1      14.813  16.265   5.456  1.00  0.00     0.040 C 
BRANCH   8  10
HETATM   10  C4  UNL     1      12.547  16.982   6.386  1.00  0.00     0.244 C 
HETATM   11  N1  UNL     1      11.683  18.063   6.435  1.00  0.00    -0.353 N 
ATOM     12  H1  UNL     1      11.623  18.665   5.612  1.00  0.00     0.163 HD
HETATM   13  O1  UNL     1      12.572  16.250   7.458  1.00  0.00    -0.268 OA
BRANCH  11  14
HETATM   14  C2  UNL     1      10.839  18.402   7.604  1.00  0.00     0.076 C 
HETATM   15  C1  UNL     1      10.928  19.852   7.981  1.00  0.00     0.032 C 
HETATM   16  C3  UNL     1       9.392  18.111   7.210  1.00  0.00     0.032 C 
ENDBRANCH  11  14
ENDBRANCH   8  10
BRANCH   9  17
HETATM   17  C21 UNL     1      15.812  17.015   6.196  1.00  0.00    -0.013 C 
HETATM   18  C22 UNL     1      16.365  16.189   7.376  1.00  0.00     0.010 C 
HETATM   19  C23 UNL     1      15.639  18.391   6.670  1.00  0.00     0.010 C 
ENDBRANCH   9  17
ENDBRANCH   1   4
BRANCH   1  20
HETATM   20  O2  UNL     1      15.960  14.021   4.521  1.00  0.00    -0.349 OA
ATOM     21  H2  UNL     1      15.422  13.253   4.372  1.00  0.00     0.219 HD
ENDBRANCH   1  20
BRANCH   2  22
HETATM   22  C11 UNL     1      16.624  12.996   2.105  1.00  0.00     0.088 C 
BRANCH  22  23
HETATM   23  C12 UNL     1      15.695  12.337   1.112  1.00  0.00     0.278 C 
HETATM   24  O3  UNL     1      15.231  11.190   1.281  1.00  0.00    -0.265 OA
HETATM   25  N3  UNL     1      15.286  13.028  -0.049  1.00  0.00    -0.249 N 
ATOM     26  H3  UNL     1      15.679  13.957  -0.201  1.00  0.00     0.182 HD
BRANCH  25  27
HETATM   27  S1  UNL     1      14.191  12.445  -1.219  1.00  0.00     0.237 S 
HETATM   28  O4  UNL     1      14.385  13.227  -2.525  1.00  0.00    -0.205 OA
HETATM   29  O5  UNL     1      14.471  11.009  -1.526  1.00  0.00    -0.205 OA
BRANCH  27  30
HETATM   30  C13 UNL     1      12.516  12.708  -0.757  1.00  0.00     0.130 A 
HETATM   31  C14 UNL     1      11.684  11.605  -0.162  1.00  0.00     0.023 A 
HETATM   32  C15 UNL     1      11.494  11.995  -1.616  1.00  0.00     0.023 A 
ENDBRANCH  27  30
ENDBRANCH  25  27
ENDBRANCH  22  23
BRANCH  22  33
HETATM   33  C16 UNL     1      17.995  12.665   1.938  1.00  0.00    -0.003 C 
HETATM   34  C17 UNL     1      18.452  11.741   0.835  1.00  0.00     0.021 C 
HETATM   35  C18 UNL     1      18.875  13.952   1.811  1.00  0.00     0.021 C 
HETATM   36  C19 UNL     1      18.480  12.020   3.264  1.00  0.00     0.021 C 
ENDBRANCH  22  33
ENDBRANCH   2  22
TORSDOF 10
ENDMDL
MODEL 5
REMARK VINA RESULT: -5.788582474      2.890      7.813
REMARK  10 active torsions:
REMARK  status: ('A' for Active; 'I' for Inactive)
REMARK    1  A    between atoms: C2_2  and  N1_4 
REMARK       I    between atoms: N1_4  and  C4_6 
REMARK    2  A    between atoms: C4_6  and  C5_8 
REMARK    3  A    between atoms: C9_12  and  C10_13 
REMARK    4  A    between atoms: C10_13  and  O2_14 
REMARK    5  A    between atoms: N2_16  and  C11_18 
REMARK    6  A    between atoms: C11_18  and  C12_19 
REMARK    7  A    between atoms: C11_18  and  C16_29 
REMARK       I    between atoms: C12_19  and  N3_21 
REMARK    8  A    between atoms: N3_21  and  S1_23 
REMARK    9  A    between atoms: S1_23  and  C13_26 
REMARK   10  A    between atoms: C20_33  and  C21_34 
ROOT
HETATM    1  C10 UNL     1      15.868  15.137   2.990  1.00  0.00     0.125 C 
HETATM    2  N2  UNL     1      16.293  14.477   1.922  1.00  0.00    -0.338 N 
ATOM      3  H2  UNL     1      16.335  14.994   1.043  1.00  0.00     0.167 HD
ENDROOT
BRANCH   1   4
HETATM    4  C9  UNL     1      15.369  16.463   3.345  1.00  0.00     0.037 A 
HETATM    5  C7  UNL     1      14.899  17.367   2.278  1.00  0.00     0.008 A 
HETATM    6  C6  UNL     1      13.658  18.062   2.725  1.00  0.00     0.046 C 
HETATM    7  C8  UNL     1      16.195  17.649   2.947  1.00  0.00     0.025 A 
HETATM    8  C5  UNL     1      13.274  17.221   3.950  1.00  0.00    -0.006 C 
HETATM    9  C20 UNL     1      14.463  16.678   4.571  1.00  0.00     0.040 C 
BRANCH   8  10
HETATM   10  C4  UNL     1      12.155  17.763   4.652  1.00  0.00     0.244 C 
HETATM   11  N1  UNL     1      11.513  17.256   5.770  1.00  0.00    -0.353 N 
ATOM     12  H1  UNL     1      11.870  16.390   6.173  1.00  0.00     0.163 HD
HETATM   13  O1  UNL     1      11.662  18.871   4.190  1.00  0.00    -0.268 OA
BRANCH  11  14
HETATM   14  C2  UNL     1      10.343  17.893   6.417  1.00  0.00     0.076 C 
HETATM   15  C1  UNL     1       9.347  16.892   6.925  1.00  0.00     0.032 C 
HETATM   16  C3  UNL     1      10.868  18.678   7.617  1.00  0.00     0.032 C 
ENDBRANCH  11  14
ENDBRANCH   8  10
BRANCH   9  17
HETATM   17  C21 UNL     1      15.224  17.257   5.664  1.00  0.00    -0.013 C 
HETATM   18  C22 UNL     1      15.085  16.410   6.946  1.00  0.00     0.010 C 
HETATM   19  C23 UNL     1      15.167  18.666   6.063  1.00  0.00     0.010 C 
ENDBRANCH   9  17
ENDBRANCH   1   4
BRANCH   1  20
HETATM   20  O2  UNL     1      15.873  14.371   4.129  1.00  0.00    -0.349 OA
ATOM     21  H2  UNL     1      16.209  13.512   3.900  1.00  0.00     0.219 HD
ENDBRANCH   1  20
BRANCH   2  22
HETATM   22  C11 UNL     1      16.701  13.093   1.890  1.00  0.00     0.088 C 
BRANCH  22  23
HETATM   23  C12 UNL     1      15.724  12.379   0.984  1.00  0.00     0.278 C 
HETATM   24  O3  UNL     1      15.223  11.271   1.272  1.00  0.00    -0.265 OA
HETATM   25  N3  UNL     1      15.312  12.972  -0.229  1.00  0.00    -0.249 N 
ATOM     26  H3  UNL     1      15.734  13.866  -0.477  1.00  0.00     0.182 HD
BRANCH  25  27
HETATM   27  S1  UNL     1      14.168  12.323  -1.314  1.00  0.00     0.237 S 
HETATM   28  O4  UNL     1      14.349  12.979  -2.689  1.00  0.00    -0.205 OA
HETATM   29  O5  UNL     1      14.396  10.857  -1.498  1.00  0.00    -0.205 OA
BRANCH  27  30
HETATM   30  C13 UNL     1      12.515  12.680  -0.836  1.00  0.00     0.130 A 
HETATM   31  C14 UNL     1      11.659  11.655  -0.145  1.00  0.00     0.023 A 
HETATM   32  C15 UNL     1      11.447  11.946  -1.619  1.00  0.00     0.023 A 
ENDBRANCH  27  30
ENDBRANCH  25  27
ENDBRANCH  22  23
BRANCH  22  33
HETATM   33  C16 UNL     1      18.046  12.658   1.764  1.00  0.00    -0.003 C 
HETATM   34  C17 UNL     1      18.442  11.604   0.757  1.00  0.00     0.021 C 
HETATM   35  C18 UNL     1      19.010  13.865   1.521  1.00  0.00     0.021 C 
HETATM   36  C19 UNL     1      18.487  12.112   3.149  1.00  0.00     0.021 C 
ENDBRANCH  22  33
ENDBRANCH   2  22
TORSDOF 10
ENDMDL
