MODEL 1
REMARK VINA RESULT: -6.852600603      0.000      0.000
REMARK  9 active torsions:
REMARK  status: ('A' for Active; 'I' for Inactive)
REMARK    1  A    between atoms: C2_2  and  C4_4 
REMARK    2  A    between atoms: C2_2  and  C25_33 
REMARK    3  A    between atoms: C4_4  and  C5_5 
REMARK    4  A    between atoms: C5_5  and  C6_6 
REMARK    5  A    between atoms: C6_6  and  N1_7 
REMARK    6  A    between atoms: C6_6  and  C18_22 
REMARK       I    between atoms: N1_7  and  C7_9 
REMARK    7  A    between atoms: C7_9  and  O2_11 
REMARK    8  A    between atoms: O2_11  and  C8_12 
REMARK       I    between atoms: C18_22  and  N2_24 
REMARK    9  A    between atoms: C21_27  and  C22_28 
ROOT
HETATM    1  C6  UNL     1      15.674  14.307   0.170  1.00  0.00     0.082 C 
ENDROOT
BRANCH   1   2
HETATM    2  C5  UNL     1      16.673  13.479   0.944  1.00  0.00     0.064 C 
BRANCH   2   3
HETATM    3  C4  UNL     1      16.003  12.948   2.203  1.00  0.00     0.026 C 
BRANCH   3   4
HETATM    4  C2  UNL     1      16.848  12.385   3.263  1.00  0.00     0.041 C 
HETATM    5  C1  UNL     1      16.360  12.613   4.649  1.00  0.00     0.026 C 
HETATM    6  C3  UNL     1      18.314  12.864   3.204  1.00  0.00     0.026 C 
BRANCH   4   7
HETATM    7  C25 UNL     1      16.948  10.889   3.093  1.00  0.00     0.181 C 
HETATM    8  O5  UNL     1      17.558  10.188   3.924  1.00  0.00    -0.647 OA
HETATM    9  O6  UNL     1      16.360  10.236   2.025  1.00  0.00    -0.647 OA
ENDBRANCH   4   7
ENDBRANCH   3   4
ENDBRANCH   2   3
ENDBRANCH   1   2
BRANCH   1  10
HETATM   10  N1  UNL     1      14.885  15.143   0.972  1.00  0.00    -0.301 N 
HETATM   11  C7  UNL     1      15.238  16.492   1.175  1.00  0.00     0.365 C 
HETATM   12  O1  UNL     1      16.199  17.017   0.671  1.00  0.00    -0.238 OA
ATOM     13  H1  UNL     1      14.046  14.770   1.415  1.00  0.00     0.171 HD
BRANCH  11  14
HETATM   14  O2  UNL     1      14.444  17.276   2.025  1.00  0.00    -0.298 OA
BRANCH  14  15
HETATM   15  C8  UNL     1      14.110  16.790   3.276  1.00  0.00     0.142 C 
HETATM   16  C9  UNL     1      13.045  17.751   3.900  1.00  0.00     0.016 C 
HETATM   17  C10 UNL     1      12.599  17.069   5.190  1.00  0.00     0.012 C 
HETATM   18  C14 UNL     1      13.590  19.079   4.206  1.00  0.00     0.012 C 
HETATM   19  C11 UNL     1      13.779  16.888   6.109  1.00  0.00    -0.013 C 
HETATM   20  C12 UNL     1      14.384  18.221   6.410  1.00  0.00     0.009 C 
HETATM   21  C17 UNL     1      14.863  16.046   5.457  1.00  0.00     0.012 C 
HETATM   22  C13 UNL     1      14.765  18.950   5.154  1.00  0.00    -0.013 C 
HETATM   23  C15 UNL     1      15.812  18.115   4.446  1.00  0.00     0.012 C 
HETATM   24  C16 UNL     1      15.269  16.732   4.186  1.00  0.00     0.016 C 
ENDBRANCH  14  15
ENDBRANCH  11  14
ENDBRANCH   1  10
BRANCH   1  25
HETATM   25  C18 UNL     1      15.034  13.632  -0.981  1.00  0.00     0.266 C 
HETATM   26  O3  UNL     1      15.354  14.027  -2.168  1.00  0.00    -0.266 OA
HETATM   27  N2  UNL     1      14.089  12.580  -0.872  1.00  0.00    -0.347 N 
HETATM   28  C19 UNL     1      13.932  11.671  -2.002  1.00  0.00     0.127 C 
HETATM   29  C24 UNL     1      13.111  12.400   0.167  1.00  0.00     0.127 C 
HETATM   30  C20 UNL     1      12.619  12.013  -2.655  1.00  0.00     0.034 C 
HETATM   31  C21 UNL     1      11.490  12.013  -1.645  1.00  0.00     0.078 C 
HETATM   32  C23 UNL     1      11.978  11.502  -0.336  1.00  0.00     0.034 C 
BRANCH  31  33
HETATM   33  C22 UNL     1      10.341  11.212  -2.168  1.00  0.00     0.235 C 
HETATM   34  N3  UNL     1       9.610  10.344  -1.350  1.00  0.00    -0.062 NA
HETATM   35  O4  UNL     1      10.035  11.328  -3.381  1.00  0.00    -0.277 OA
ENDBRANCH  31  33
ENDBRANCH   1  25
TORSDOF 9
ENDMDL
MODEL 2
REMARK VINA RESULT: -6.763105197      1.250      2.087
REMARK  9 active torsions:
REMARK  status: ('A' for Active; 'I' for Inactive)
REMARK    1  A    between atoms: C2_2  and  C4_4 
REMARK    2  A    between atoms: C2_2  and  C25_33 
REMARK    3  A    between atoms: C4_4  and  C5_5 
REMARK    4  A    between atoms: C5_5  and  C6_6 
REMARK    5  A    between atoms: C6_6  and  N1_7 
REMARK    6  A    between atoms: C6_6  and  C18_22 
REMARK       I    between atoms: N1_7  and  C7_9 
REMARK    7  A    between atoms: C7_9  and  O2_11 
REMARK    8  A    between atoms: O2_11  and  C8_12 
REMARK       I    between atoms: C18_22  and  N2_24 
REMARK    9  A    between atoms: C21_27  and  C22_28 
ROOT
HETATM    1  C6  UNL     1      15.387  14.546   0.672  1.00  0.00     0.082 C 
ENDROOT
BRANCH   1   2
HETATM    2  C5  UNL     1      16.669  13.857   1.077  1.00  0.00     0.064 C 
BRANCH   2   3
HETATM    3  C4  UNL     1      16.334  12.709   2.020  1.00  0.00     0.026 C 
BRANCH   3   4
HETATM    4  C2  UNL     1      17.058  11.442   1.866  1.00  0.00     0.041 C 
HETATM    5  C1  UNL     1      17.062  10.566   3.067  1.00  0.00     0.026 C 
HETATM    6  C3  UNL     1      18.524  11.618   1.416  1.00  0.00     0.026 C 
BRANCH   4   7
HETATM    7  C25 UNL     1      16.433  10.632   0.756  1.00  0.00     0.181 C 
HETATM    8  O5  UNL     1      15.525   9.811   0.994  1.00  0.00    -0.647 OA
HETATM    9  O6  UNL     1      16.827  10.774  -0.561  1.00  0.00    -0.647 OA
ENDBRANCH   4   7
ENDBRANCH   3   4
ENDBRANCH   2   3
ENDBRANCH   1   2
BRANCH   1  10
HETATM   10  N1  UNL     1      14.541  14.851   1.746  1.00  0.00    -0.301 N 
HETATM   11  C7  UNL     1      14.613  16.102   2.390  1.00  0.00     0.365 C 
HETATM   12  O1  UNL     1      15.368  16.984   2.060  1.00  0.00    -0.238 OA
ATOM     13  H1  UNL     1      13.863  14.159   2.066  1.00  0.00     0.171 HD
BRANCH  11  14
HETATM   14  O2  UNL     1      13.779  16.343   3.492  1.00  0.00    -0.298 OA
BRANCH  14  15
HETATM   15  C8  UNL     1      13.816  17.580   4.108  1.00  0.00     0.142 C 
HETATM   16  C9  UNL     1      14.372  17.381   5.557  1.00  0.00     0.016 C 
HETATM   17  C10 UNL     1      14.548  18.791   6.114  1.00  0.00     0.012 C 
HETATM   18  C14 UNL     1      13.459  16.621   6.417  1.00  0.00     0.012 C 
HETATM   19  C11 UNL     1      13.221  19.505   6.131  1.00  0.00    -0.013 C 
HETATM   20  C12 UNL     1      12.251  18.734   6.967  1.00  0.00     0.009 C 
HETATM   21  C17 UNL     1      12.626  19.597   4.735  1.00  0.00     0.012 C 
HETATM   22  C13 UNL     1      12.114  17.317   6.488  1.00  0.00    -0.013 C 
HETATM   23  C15 UNL     1      11.570  17.368   5.075  1.00  0.00     0.012 C 
HETATM   24  C16 UNL     1      12.481  18.201   4.208  1.00  0.00     0.016 C 
ENDBRANCH  14  15
ENDBRANCH  11  14
ENDBRANCH   1  10
BRANCH   1  25
HETATM   25  C18 UNL     1      14.776  14.075  -0.591  1.00  0.00     0.266 C 
HETATM   26  O3  UNL     1      14.949  14.790  -1.651  1.00  0.00    -0.266 OA
HETATM   27  N2  UNL     1      14.008  12.889  -0.719  1.00  0.00    -0.347 N 
HETATM   28  C19 UNL     1      13.909  12.267  -2.034  1.00  0.00     0.127 C 
HETATM   29  C24 UNL     1      13.142  12.308   0.273  1.00  0.00     0.127 C 
HETATM   30  C20 UNL     1      12.517  12.540  -2.540  1.00  0.00     0.034 C 
HETATM   31  C21 UNL     1      11.474  12.114  -1.528  1.00  0.00     0.078 C 
HETATM   32  C23 UNL     1      12.123  11.388  -0.403  1.00  0.00     0.034 C 
BRANCH  31  33
HETATM   33  C22 UNL     1      10.423  11.289  -2.198  1.00  0.00     0.235 C 
HETATM   34  N3  UNL     1       9.666  10.343  -1.498  1.00  0.00    -0.062 NA
HETATM   35  O4  UNL     1      10.226  11.455  -3.427  1.00  0.00    -0.277 OA
ENDBRANCH  31  33
ENDBRANCH   1  25
TORSDOF 9
ENDMDL
MODEL 3
REMARK VINA RESULT: -6.726070696      0.819      1.159
REMARK  9 active torsions:
REMARK  status: ('A' for Active; 'I' for Inactive)
REMARK    1  A    between atoms: C2_2  and  C4_4 
REMARK    2  A    between atoms: C2_2  and  C25_33 
REMARK    3  A    between atoms: C4_4  and  C5_5 
REMARK    4  A    between atoms: C5_5  and  C6_6 
REMARK    5  A    between atoms: C6_6  and  N1_7 
REMARK    6  A    between atoms: C6_6  and  C18_22 
REMARK       I    between atoms: N1_7  and  C7_9 
REMARK    7  A    between atoms: C7_9  and  O2_11 
REMARK    8  A    between atoms: O2_11  and  C8_12 
REMARK       I    between atoms: C18_22  and  N2_24 
REMARK    9  A    between atoms: C21_27  and  C22_28 
ROOT
HETATM    1  C6  UNL     1      15.602  14.437   0.136  1.00  0.00     0.082 C 
ENDROOT
BRANCH   1   2
HETATM    2  C5  UNL     1      16.589  13.574   0.887  1.00  0.00     0.064 C 
BRANCH   2   3
HETATM    3  C4  UNL     1      16.034  13.283   2.273  1.00  0.00     0.026 C 
BRANCH   3   4
HETATM    4  C2  UNL     1      16.751  12.331   3.130  1.00  0.00     0.041 C 
HETATM    5  C1  UNL     1      16.819  10.940   2.611  1.00  0.00     0.026 C 
HETATM    6  C3  UNL     1      16.202  12.261   4.571  1.00  0.00     0.026 C 
BRANCH   4   7
HETATM    7  C25 UNL     1      18.179  12.784   3.308  1.00  0.00     0.181 C 
HETATM    8  O5  UNL     1      18.455  13.778   4.009  1.00  0.00    -0.647 OA
HETATM    9  O6  UNL     1      19.235  12.114   2.719  1.00  0.00    -0.647 OA
ENDBRANCH   4   7
ENDBRANCH   3   4
ENDBRANCH   2   3
ENDBRANCH   1   2
BRANCH   1  10
HETATM   10  N1  UNL     1      14.827  15.264   0.960  1.00  0.00    -0.301 N 
HETATM   11  C7  UNL     1      15.153  16.623   1.132  1.00  0.00     0.365 C 
HETATM   12  O1  UNL     1      16.080  17.165   0.582  1.00  0.00    -0.238 OA
ATOM     13  H1  UNL     1      14.016  14.875   1.442  1.00  0.00     0.171 HD
BRANCH  11  14
HETATM   14  O2  UNL     1      14.376  17.398   2.006  1.00  0.00    -0.298 OA
BRANCH  14  15
HETATM   15  C8  UNL     1      14.047  16.889   3.249  1.00  0.00     0.142 C 
HETATM   16  C9  UNL     1      12.975  17.832   3.889  1.00  0.00     0.016 C 
HETATM   17  C10 UNL     1      12.535  17.125   5.168  1.00  0.00     0.012 C 
HETATM   18  C14 UNL     1      13.509  19.159   4.217  1.00  0.00     0.012 C 
HETATM   19  C11 UNL     1      13.717  16.939   6.083  1.00  0.00    -0.013 C 
HETATM   20  C12 UNL     1      14.312  18.271   6.406  1.00  0.00     0.009 C 
HETATM   21  C17 UNL     1      14.807  16.116   5.417  1.00  0.00     0.012 C 
HETATM   22  C13 UNL     1      14.687  19.024   5.161  1.00  0.00    -0.013 C 
HETATM   23  C15 UNL     1      15.740  18.208   4.439  1.00  0.00     0.012 C 
HETATM   24  C16 UNL     1      15.207  16.825   4.157  1.00  0.00     0.016 C 
ENDBRANCH  14  15
ENDBRANCH  11  14
ENDBRANCH   1  10
BRANCH   1  25
HETATM   25  C18 UNL     1      14.952  13.803  -1.032  1.00  0.00     0.266 C 
HETATM   26  O3  UNL     1      15.202  14.287  -2.202  1.00  0.00    -0.266 OA
HETATM   27  N2  UNL     1      14.067  12.696  -0.957  1.00  0.00    -0.347 N 
HETATM   28  C19 UNL     1      13.911  11.852  -2.136  1.00  0.00     0.127 C 
HETATM   29  C24 UNL     1      13.142  12.399   0.105  1.00  0.00     0.127 C 
HETATM   30  C20 UNL     1      12.557  12.164  -2.716  1.00  0.00     0.034 C 
HETATM   31  C21 UNL     1      11.471  12.040  -1.667  1.00  0.00     0.078 C 
HETATM   32  C23 UNL     1      12.038  11.475  -0.413  1.00  0.00     0.034 C 
BRANCH  31  33
HETATM   33  C22 UNL     1      10.344  11.213  -2.198  1.00  0.00     0.235 C 
HETATM   34  N3  UNL     1       9.626  10.331  -1.384  1.00  0.00    -0.062 NA
HETATM   35  O4  UNL     1      10.045  11.319  -3.413  1.00  0.00    -0.277 OA
ENDBRANCH  31  33
ENDBRANCH   1  25
TORSDOF 9
ENDMDL
MODEL 4
REMARK VINA RESULT: -6.710638216      1.520      2.346
REMARK  9 active torsions:
REMARK  status: ('A' for Active; 'I' for Inactive)
REMARK    1  A    between atoms: C2_2  and  C4_4 
REMARK    2  A    between atoms: C2_2  and  C25_33 
REMARK    3  A    between atoms: C4_4  and  C5_5 
REMARK    4  A    between atoms: C5_5  and  C6_6 
REMARK    5  A    between atoms: C6_6  and  N1_7 
REMARK    6  A    between atoms: C6_6  and  C18_22 
REMARK       I    between atoms: N1_7  and  C7_9 
REMARK    7  A    between atoms: C7_9  and  O2_11 
REMARK    8  A    between atoms: O2_11  and  C8_12 
REMARK       I    between atoms: C18_22  and  N2_24 
REMARK    9  A    between atoms: C21_27  and  C22_28 
ROOT
HETATM    1  C6  UNL     1      15.278  14.545   0.621  1.00  0.00     0.082 C 
ENDROOT
BRANCH   1   2
HETATM    2  C5  UNL     1      16.571  13.835   0.951  1.00  0.00     0.064 C 
BRANCH   2   3
HETATM    3  C4  UNL     1      16.280  12.717   1.941  1.00  0.00     0.026 C 
BRANCH   3   4
HETATM    4  C2  UNL     1      17.175  12.551   3.093  1.00  0.00     0.041 C 
HETATM    5  C1  UNL     1      18.618  12.422   2.760  1.00  0.00     0.026 C 
HETATM    6  C3  UNL     1      16.800  11.360   4.000  1.00  0.00     0.026 C 
BRANCH   4   7
HETATM    7  C25 UNL     1      17.059  13.750   4.003  1.00  0.00     0.181 C 
HETATM    8  O5  UNL     1      15.974  14.042   4.545  1.00  0.00    -0.647 OA
HETATM    9  O6  UNL     1      18.143  14.559   4.284  1.00  0.00    -0.647 OA
ENDBRANCH   4   7
ENDBRANCH   3   4
ENDBRANCH   2   3
ENDBRANCH   1   2
BRANCH   1  10
HETATM   10  N1  UNL     1      14.488  14.837   1.741  1.00  0.00    -0.301 N 
HETATM   11  C7  UNL     1      14.507  16.119   2.323  1.00  0.00     0.365 C 
HETATM   12  O1  UNL     1      15.164  17.038   1.902  1.00  0.00    -0.238 OA
ATOM     13  H1  UNL     1      13.892  14.111   2.139  1.00  0.00     0.171 HD
BRANCH  11  14
HETATM   14  O2  UNL     1      13.735  16.349   3.473  1.00  0.00    -0.298 OA
BRANCH  14  15
HETATM   15  C8  UNL     1      13.779  17.591   4.077  1.00  0.00     0.142 C 
HETATM   16  C9  UNL     1      14.341  17.405   5.525  1.00  0.00     0.016 C 
HETATM   17  C10 UNL     1      14.524  18.820   6.068  1.00  0.00     0.012 C 
HETATM   18  C14 UNL     1      13.429  16.656   6.397  1.00  0.00     0.012 C 
HETATM   19  C11 UNL     1      13.200  19.538   6.083  1.00  0.00    -0.013 C 
HETATM   20  C12 UNL     1      12.231  18.778   6.932  1.00  0.00     0.009 C 
HETATM   21  C17 UNL     1      12.599  19.619   4.690  1.00  0.00     0.012 C 
HETATM   22  C13 UNL     1      12.087  17.357   6.467  1.00  0.00    -0.013 C 
HETATM   23  C15 UNL     1      11.537  17.397   5.056  1.00  0.00     0.012 C 
HETATM   24  C16 UNL     1      12.447  18.217   4.176  1.00  0.00     0.016 C 
ENDBRANCH  14  15
ENDBRANCH  11  14
ENDBRANCH   1  10
BRANCH   1  25
HETATM   25  C18 UNL     1      14.602  14.105  -0.619  1.00  0.00     0.266 C 
HETATM   26  O3  UNL     1      14.661  14.881  -1.649  1.00  0.00    -0.266 OA
HETATM   27  N2  UNL     1      13.888  12.886  -0.757  1.00  0.00    -0.347 N 
HETATM   28  C19 UNL     1      13.726  12.326  -2.094  1.00  0.00     0.127 C 
HETATM   29  C24 UNL     1      13.128  12.210   0.260  1.00  0.00     0.127 C 
HETATM   30  C20 UNL     1      12.289  12.548  -2.486  1.00  0.00     0.034 C 
HETATM   31  C21 UNL     1      11.345  12.015  -1.427  1.00  0.00     0.078 C 
HETATM   32  C23 UNL     1      12.111  11.270  -0.392  1.00  0.00     0.034 C 
BRANCH  31  33
HETATM   33  C22 UNL     1      10.292  11.168  -2.067  1.00  0.00     0.235 C 
HETATM   34  N3  UNL     1      10.020  11.234  -3.437  1.00  0.00    -0.062 NA
HETATM   35  O4  UNL     1       9.637  10.380  -1.341  1.00  0.00    -0.277 OA
ENDBRANCH  31  33
ENDBRANCH   1  25
TORSDOF 9
ENDMDL
MODEL 5
REMARK VINA RESULT: -6.588094775      1.264      1.557
REMARK  9 active torsions:
REMARK  status: ('A' for Active; 'I' for Inactive)
REMARK    1  A    between atoms: C2_2  and  C4_4 
REMARK    2  A    between atoms: C2_2  and  C25_33 
REMARK    3  A    between atoms: C4_4  and  C5_5 
REMARK    4  A    between atoms: C5_5  and  C6_6 
REMARK    5  A    between atoms: C6_6  and  N1_7 
REMARK    6  A    between atoms: C6_6  and  C18_22 
REMARK       I    between atoms: N1_7  and  C7_9 
REMARK    7  A    between atoms: C7_9  and  O2_11 
REMARK    8  A    between atoms: O2_11  and  C8_12 
REMARK       I    between atoms: C18_22  and  N2_24 
REMARK    9  A    between atoms: C21_27  and  C22_28 
ROOT
HETATM    1  C6  UNL     1      15.372  14.223   1.290  1.00  0.00     0.082 C 
ENDROOT
BRANCH   1   2
HETATM    2  C5  UNL     1      15.859  13.186   2.276  1.00  0.00     0.064 C 
BRANCH   2   3
HETATM    3  C4  UNL     1      17.218  12.673   1.821  1.00  0.00     0.026 C 
BRANCH   3   4
HETATM    4  C2  UNL     1      17.482  11.231   1.890  1.00  0.00     0.041 C 
HETATM    5  C1  UNL     1      17.033  10.565   3.141  1.00  0.00     0.026 C 
HETATM    6  C3  UNL     1      18.966  10.864   1.678  1.00  0.00     0.026 C 
BRANCH   4   7
HETATM    7  C25 UNL     1      16.770  10.529   0.760  1.00  0.00     0.181 C 
HETATM    8  O5  UNL     1      17.214  10.572  -0.404  1.00  0.00    -0.647 OA
HETATM    9  O6  UNL     1      15.613   9.802   0.968  1.00  0.00    -0.647 OA
ENDBRANCH   4   7
ENDBRANCH   3   4
ENDBRANCH   2   3
ENDBRANCH   1   2
BRANCH   1  10
HETATM   10  N1  UNL     1      14.514  15.180   1.849  1.00  0.00    -0.301 N 
HETATM   11  C7  UNL     1      15.006  16.429   2.275  1.00  0.00     0.365 C 
HETATM   12  O1  UNL     1      16.159  16.767   2.172  1.00  0.00    -0.238 OA
ATOM     13  H1  UNL     1      13.521  14.969   1.948  1.00  0.00     0.171 HD
BRANCH  11  14
HETATM   14  O2  UNL     1      14.117  17.336   2.872  1.00  0.00    -0.298 OA
BRANCH  14  15
HETATM   15  C8  UNL     1      13.477  16.979   4.044  1.00  0.00     0.142 C 
HETATM   16  C9  UNL     1      12.218  17.894   4.205  1.00  0.00     0.016 C 
HETATM   17  C10 UNL     1      11.471  17.338   5.413  1.00  0.00     0.012 C 
HETATM   18  C14 UNL     1      12.564  19.300   4.442  1.00  0.00     0.012 C 
HETATM   19  C11 UNL     1      12.352  17.401   6.634  1.00  0.00    -0.013 C 
HETATM   20  C12 UNL     1      12.758  18.819   6.882  1.00  0.00     0.009 C 
HETATM   21  C17 UNL     1      13.630  16.603   6.435  1.00  0.00     0.012 C 
HETATM   22  C13 UNL     1      13.429  19.418   5.680  1.00  0.00    -0.013 C 
HETATM   23  C15 UNL     1      14.687  18.615   5.417  1.00  0.00     0.012 C 
HETATM   24  C16 UNL     1      14.333  17.161   5.232  1.00  0.00     0.016 C 
ENDBRANCH  14  15
ENDBRANCH  11  14
ENDBRANCH   1  10
BRANCH   1  25
HETATM   25  C18 UNL     1      15.077  13.726  -0.072  1.00  0.00     0.266 C 
HETATM   26  O3  UNL     1      15.717  14.253  -1.061  1.00  0.00    -0.266 OA
HETATM   27  N2  UNL     1      14.134  12.708  -0.370  1.00  0.00    -0.347 N 
HETATM   28  C19 UNL     1      14.294  11.956  -1.609  1.00  0.00     0.127 C 
HETATM   29  C24 UNL     1      12.902  12.440   0.325  1.00  0.00     0.127 C 
HETATM   30  C20 UNL     1      13.218  12.433  -2.548  1.00  0.00     0.034 C 
HETATM   31  C21 UNL     1      11.851  12.353  -1.899  1.00  0.00     0.078 C 
HETATM   32  C23 UNL     1      11.952  11.661  -0.586  1.00  0.00     0.034 C 
BRANCH  31  33
HETATM   33  C22 UNL     1      10.891  11.673  -2.822  1.00  0.00     0.235 C 
HETATM   34  N3  UNL     1       9.820  10.909  -2.344  1.00  0.00    -0.062 NA
HETATM   35  O4  UNL     1      11.062  11.796  -4.060  1.00  0.00    -0.277 OA
ENDBRANCH  31  33
ENDBRANCH   1  25
TORSDOF 9
ENDMDL
