MODEL 1
REMARK VINA RESULT: -6.097396551      0.000      0.000
REMARK  9 active torsions:
REMARK  status: ('A' for Active; 'I' for Inactive)
REMARK    1  A    between atoms: C2_2  and  N1_3 
REMARK    2  A    between atoms: N1_3  and  S1_5 
REMARK    3  A    between atoms: S1_5  and  N2_8 
REMARK       I    between atoms: N2_8  and  C3_10 
REMARK    4  A    between atoms: C3_10  and  C4_12 
REMARK    5  A    between atoms: C4_12  and  C5_13 
REMARK    6  A    between atoms: C4_12  and  N3_20 
REMARK    7  A    between atoms: C5_13  and  C6_14 
REMARK    8  A    between atoms: C16_25  and  C17_26 
REMARK       I    between atoms: C17_26  and  N4_28 
REMARK    9  A    between atoms: N4_28  and  C18_30 
ROOT
HETATM    1  C4  UNL     1      13.731  17.740   6.147  1.00  0.00     0.173 C 
ENDROOT
BRANCH   1   2
HETATM    2  C3  UNL     1      14.839  17.202   5.342  1.00  0.00     0.254 C 
HETATM    3  N2  UNL     1      15.617  16.089   5.744  1.00  0.00    -0.236 N 
ATOM      4  H2  UNL     1      15.413  15.627   6.631  1.00  0.00     0.183 HD
HETATM    5  O3  UNL     1      15.133  17.726   4.243  1.00  0.00    -0.270 OA
BRANCH   3   6
HETATM    6  S1  UNL     1      16.907  15.502   4.752  1.00  0.00     0.321 S 
HETATM    7  O1  UNL     1      17.155  14.053   5.115  1.00  0.00    -0.182 OA
HETATM    8  O2  UNL     1      18.179  16.246   4.988  1.00  0.00    -0.182 OA
BRANCH   6   9
HETATM    9  N1  UNL     1      16.518  15.582   3.088  1.00  0.00    -0.303 N 
ATOM     10  H1  UNL     1      16.711  16.389   2.494  1.00  0.00     0.173 HD
BRANCH   9  11
HETATM   11  C2  UNL     1      15.882  14.364   2.622  1.00  0.00     0.129 C 
HETATM   12  C1  UNL     1      14.799  14.653   1.618  1.00  0.00     0.027 C 
ENDBRANCH   9  11
ENDBRANCH   6   9
ENDBRANCH   3   6
ENDBRANCH   1   2
BRANCH   1  13
HETATM   13  C5  UNL     1      12.516  16.897   6.188  1.00  0.00     0.039 C 
BRANCH  13  14
HETATM   14  C6  UNL     1      11.307  17.442   5.427  1.00  0.00    -0.012 C 
HETATM   15  C7  UNL     1      11.589  18.703   4.717  1.00  0.00     0.005 C 
HETATM   16  C8  UNL     1      10.388  19.575   4.463  1.00  0.00     0.000 C 
HETATM   17  C9  UNL     1       9.662  19.791   5.759  1.00  0.00     0.000 C 
HETATM   18  C10 UNL     1       9.093  18.418   6.133  1.00  0.00     0.000 C 
HETATM   19  C11 UNL     1      10.233  17.551   6.491  1.00  0.00     0.005 C 
ENDBRANCH  13  14
ENDBRANCH   1  13
BRANCH   1  20
HETATM   20  N3  UNL     1      14.214  18.211   7.398  1.00  0.00    -0.387 N 
HETATM   21  C12 UNL     1      14.864  19.489   7.338  1.00  0.00     0.118 C 
HETATM   22  C13 UNL     1      13.780  20.539   7.189  1.00  0.00     0.020 C 
HETATM   23  C14 UNL     1      12.557  20.080   7.898  1.00  0.00     0.004 C 
HETATM   24  C15 UNL     1      12.787  19.157   9.061  1.00  0.00     0.035 C 
HETATM   25  C16 UNL     1      13.547  17.919   8.583  1.00  0.00     0.172 C 
BRANCH  25  26
HETATM   26  C17 UNL     1      14.383  17.526   9.754  1.00  0.00     0.240 C 
HETATM   27  O4  UNL     1      15.234  16.570   9.574  1.00  0.00    -0.271 OA
HETATM   28  N4  UNL     1      14.345  18.083  11.022  1.00  0.00    -0.355 N 
ATOM     29  H4  UNL     1      13.685  18.840  11.196  1.00  0.00     0.162 HD
BRANCH  28  30
HETATM   30  C18 UNL     1      15.196  17.648  12.120  1.00  0.00     0.088 C 
HETATM   31  C19 UNL     1      16.404  18.566  12.264  1.00  0.00     0.051 C 
HETATM   32  C20 UNL     1      17.326  17.876  13.269  1.00  0.00     0.169 C 
HETATM   33  O5  UNL     1      16.680  16.857  13.956  1.00  0.00    -0.391 OA
HETATM   34  C21 UNL     1      15.475  17.237  14.500  1.00  0.00     0.169 C 
HETATM   35  C22 UNL     1      14.471  17.693  13.444  1.00  0.00     0.051 C 
ENDBRANCH  28  30
ENDBRANCH  25  26
ENDBRANCH   1  20
TORSDOF 9
ENDMDL
MODEL 2
REMARK VINA RESULT: -6.076836072      4.943     11.242
REMARK  9 active torsions:
REMARK  status: ('A' for Active; 'I' for Inactive)
REMARK    1  A    between atoms: C2_2  and  N1_3 
REMARK    2  A    between atoms: N1_3  and  S1_5 
REMARK    3  A    between atoms: S1_5  and  N2_8 
REMARK       I    between atoms: N2_8  and  C3_10 
REMARK    4  A    between atoms: C3_10  and  C4_12 
REMARK    5  A    between atoms: C4_12  and  C5_13 
REMARK    6  A    between atoms: C4_12  and  N3_20 
REMARK    7  A    between atoms: C5_13  and  C6_14 
REMARK    8  A    between atoms: C16_25  and  C17_26 
REMARK       I    between atoms: C17_26  and  N4_28 
REMARK    9  A    between atoms: N4_28  and  C18_30 
ROOT
HETATM    1  C4  UNL     1      16.312  13.198   2.098  1.00  0.00     0.173 C 
ENDROOT
BRANCH   1   2
HETATM    2  C3  UNL     1      15.692  14.517   2.301  1.00  0.00     0.254 C 
HETATM    3  N2  UNL     1      16.289  15.539   3.078  1.00  0.00    -0.236 N 
ATOM      4  H2  UNL     1      17.190  15.371   3.526  1.00  0.00     0.183 HD
HETATM    5  O3  UNL     1      14.588  14.783   1.774  1.00  0.00    -0.270 OA
BRANCH   3   6
HETATM    6  S1  UNL     1      15.511  17.072   3.279  1.00  0.00     0.321 S 
HETATM    7  O1  UNL     1      15.794  17.906   2.047  1.00  0.00    -0.182 OA
HETATM    8  O2  UNL     1      16.040  17.820   4.457  1.00  0.00    -0.182 OA
BRANCH   6   9
HETATM    9  N1  UNL     1      13.816  16.909   3.442  1.00  0.00    -0.303 N 
ATOM     10  H1  UNL     1      13.204  16.542   2.713  1.00  0.00     0.173 HD
BRANCH   9  11
HETATM   11  C2  UNL     1      13.352  17.355   4.743  1.00  0.00     0.129 C 
HETATM   12  C1  UNL     1      11.850  17.415   4.805  1.00  0.00     0.027 C 
ENDBRANCH   9  11
ENDBRANCH   6   9
ENDBRANCH   3   6
ENDBRANCH   1   2
BRANCH   1  13
HETATM   13  C5  UNL     1      16.131  12.239   3.210  1.00  0.00     0.039 C 
BRANCH  13  14
HETATM   14  C6  UNL     1      17.394  11.901   4.002  1.00  0.00    -0.012 C 
HETATM   15  C7  UNL     1      18.577  12.667   3.566  1.00  0.00     0.005 C 
HETATM   16  C8  UNL     1      19.902  12.012   3.848  1.00  0.00     0.000 C 
HETATM   17  C9  UNL     1      19.881  10.616   3.296  1.00  0.00     0.000 C 
HETATM   18  C10 UNL     1      18.865   9.860   4.158  1.00  0.00     0.000 C 
HETATM   19  C11 UNL     1      17.529  10.400   3.840  1.00  0.00     0.005 C 
ENDBRANCH  13  14
ENDBRANCH   1  13
BRANCH   1  20
HETATM   20  N3  UNL     1      16.021  12.712   0.794  1.00  0.00    -0.387 N 
HETATM   21  C12 UNL     1      16.810  13.304  -0.248  1.00  0.00     0.118 C 
HETATM   22  C13 UNL     1      18.196  12.695  -0.164  1.00  0.00     0.020 C 
HETATM   23  C14 UNL     1      18.083  11.294   0.320  1.00  0.00     0.004 C 
HETATM   24  C15 UNL     1      16.792  10.597   0.001  1.00  0.00     0.035 C 
HETATM   25  C16 UNL     1      15.626  11.395   0.589  1.00  0.00     0.172 C 
BRANCH  25  26
HETATM   26  C17 UNL     1      14.504  11.164  -0.366  1.00  0.00     0.240 C 
HETATM   27  O4  UNL     1      14.748  10.412  -1.389  1.00  0.00    -0.271 OA
HETATM   28  N4  UNL     1      13.218  11.673  -0.272  1.00  0.00    -0.355 N 
ATOM     29  H4  UNL     1      12.994  12.270   0.524  1.00  0.00     0.162 HD
BRANCH  28  30
HETATM   30  C18 UNL     1      12.170  11.403  -1.246  1.00  0.00     0.088 C 
HETATM   31  C19 UNL     1      10.793  11.529  -0.606  1.00  0.00     0.051 C 
HETATM   32  C20 UNL     1       9.808  10.993  -1.645  1.00  0.00     0.169 C 
HETATM   33  O5  UNL     1      10.388  10.874  -2.901  1.00  0.00    -0.391 OA
HETATM   34  C21 UNL     1      11.045  12.009  -3.314  1.00  0.00     0.169 C 
HETATM   35  C22 UNL     1      12.197  12.391  -2.388  1.00  0.00     0.051 C 
ENDBRANCH  28  30
ENDBRANCH  25  26
ENDBRANCH   1  20
TORSDOF 9
ENDMDL
MODEL 3
REMARK VINA RESULT: -5.857155895      5.418     11.241
REMARK  9 active torsions:
REMARK  status: ('A' for Active; 'I' for Inactive)
REMARK    1  A    between atoms: C2_2  and  N1_3 
REMARK    2  A    between atoms: N1_3  and  S1_5 
REMARK    3  A    between atoms: S1_5  and  N2_8 
REMARK       I    between atoms: N2_8  and  C3_10 
REMARK    4  A    between atoms: C3_10  and  C4_12 
REMARK    5  A    between atoms: C4_12  and  C5_13 
REMARK    6  A    between atoms: C4_12  and  N3_20 
REMARK    7  A    between atoms: C5_13  and  C6_14 
REMARK    8  A    between atoms: C16_25  and  C17_26 
REMARK       I    between atoms: C17_26  and  N4_28 
REMARK    9  A    between atoms: N4_28  and  C18_30 
ROOT
HETATM    1  C4  UNL     1      16.718  13.178   2.086  1.00  0.00     0.173 C 
ENDROOT
BRANCH   1   2
HETATM    2  C3  UNL     1      16.368  14.598   2.253  1.00  0.00     0.254 C 
HETATM    3  N2  UNL     1      15.055  15.040   2.544  1.00  0.00    -0.236 N 
ATOM      4  H2  UNL     1      14.304  14.357   2.644  1.00  0.00     0.183 HD
HETATM    5  O3  UNL     1      17.249  15.482   2.145  1.00  0.00    -0.270 OA
BRANCH   3   6
HETATM    6  S1  UNL     1      14.706  16.724   2.732  1.00  0.00     0.321 S 
HETATM    7  O1  UNL     1      13.422  16.852   3.525  1.00  0.00    -0.182 OA
HETATM    8  O2  UNL     1      14.490  17.402   1.419  1.00  0.00    -0.182 OA
BRANCH   6   9
HETATM    9  N1  UNL     1      15.947  17.541   3.580  1.00  0.00    -0.303 N 
ATOM     10  H1  UNL     1      16.697  18.066   3.129  1.00  0.00     0.173 HD
BRANCH   9  11
HETATM   11  C2  UNL     1      15.805  17.399   5.016  1.00  0.00     0.129 C 
HETATM   12  C1  UNL     1      16.680  16.300   5.555  1.00  0.00     0.027 C 
ENDBRANCH   9  11
ENDBRANCH   6   9
ENDBRANCH   3   6
ENDBRANCH   1   2
BRANCH   1  13
HETATM   13  C5  UNL     1      16.359  12.303   3.222  1.00  0.00     0.039 C 
BRANCH  13  14
HETATM   14  C6  UNL     1      17.536  11.697   3.988  1.00  0.00    -0.012 C 
HETATM   15  C7  UNL     1      18.834  12.297   3.627  1.00  0.00     0.005 C 
HETATM   16  C8  UNL     1      20.031  11.414   3.856  1.00  0.00     0.000 C 
HETATM   17  C9  UNL     1      19.798  10.094   3.181  1.00  0.00     0.000 C 
HETATM   18  C10 UNL     1      18.657   9.439   3.967  1.00  0.00     0.000 C 
HETATM   19  C11 UNL     1      17.431  10.214   3.692  1.00  0.00     0.005 C 
ENDBRANCH  13  14
ENDBRANCH   1  13
BRANCH   1  20
HETATM   20  N3  UNL     1      16.333  12.725   0.794  1.00  0.00    -0.387 N 
HETATM   21  C12 UNL     1      17.004  13.384  -0.289  1.00  0.00     0.118 C 
HETATM   22  C13 UNL     1      18.415  12.829  -0.348  1.00  0.00     0.020 C 
HETATM   23  C14 UNL     1      18.399  11.410   0.093  1.00  0.00     0.004 C 
HETATM   24  C15 UNL     1      17.111  10.671  -0.139  1.00  0.00     0.035 C 
HETATM   25  C16 UNL     1      15.972  11.400   0.576  1.00  0.00     0.172 C 
BRANCH  25  26
HETATM   26  C17 UNL     1      14.780  11.154  -0.287  1.00  0.00     0.240 C 
HETATM   27  O4  UNL     1      14.893  10.248  -1.201  1.00  0.00    -0.271 OA
HETATM   28  N4  UNL     1      13.556  11.800  -0.211  1.00  0.00    -0.355 N 
ATOM     29  H4  UNL     1      13.435  12.522   0.500  1.00  0.00     0.162 HD
BRANCH  28  30
HETATM   30  C18 UNL     1      12.433  11.506  -1.089  1.00  0.00     0.088 C 
HETATM   31  C19 UNL     1      11.112  11.660  -0.346  1.00  0.00     0.051 C 
HETATM   32  C20 UNL     1      10.045  11.099  -1.287  1.00  0.00     0.169 C 
HETATM   33  O5  UNL     1      10.523  10.938  -2.580  1.00  0.00    -0.391 OA
HETATM   34  C21 UNL     1      11.149  12.055  -3.080  1.00  0.00     0.169 C 
HETATM   35  C22 UNL     1      12.372  12.459  -2.260  1.00  0.00     0.051 C 
ENDBRANCH  28  30
ENDBRANCH  25  26
ENDBRANCH   1  20
TORSDOF 9
ENDMDL
MODEL 4
REMARK VINA RESULT: -5.810137549      7.232     11.157
REMARK  9 active torsions:
REMARK  status: ('A' for Active; 'I' for Inactive)
REMARK    1  A    between atoms: C2_2  and  N1_3 
REMARK    2  A    between atoms: N1_3  and  S1_5 
REMARK    3  A    between atoms: S1_5  and  N2_8 
REMARK       I    between atoms: N2_8  and  C3_10 
REMARK    4  A    between atoms: C3_10  and  C4_12 
REMARK    5  A    between atoms: C4_12  and  C5_13 
REMARK    6  A    between atoms: C4_12  and  N3_20 
REMARK    7  A    between atoms: C5_13  and  C6_14 
REMARK    8  A    between atoms: C16_25  and  C17_26 
REMARK       I    between atoms: C17_26  and  N4_28 
REMARK    9  A    between atoms: N4_28  and  C18_30 
ROOT
HETATM    1  C4  UNL     1      16.294  13.385   2.071  1.00  0.00     0.173 C 
ENDROOT
BRANCH   1   2
HETATM    2  C3  UNL     1      15.748  14.743   2.231  1.00  0.00     0.254 C 
HETATM    3  N2  UNL     1      16.562  15.880   2.455  1.00  0.00    -0.236 N 
ATOM      4  H2  UNL     1      17.575  15.771   2.512  1.00  0.00     0.183 HD
HETATM    5  O3  UNL     1      14.513  14.938   2.167  1.00  0.00    -0.270 OA
BRANCH   3   6
HETATM    6  S1  UNL     1      15.861  17.452   2.633  1.00  0.00     0.321 S 
HETATM    7  O1  UNL     1      16.958  18.479   2.447  1.00  0.00    -0.182 OA
HETATM    8  O2  UNL     1      15.282  17.657   3.993  1.00  0.00    -0.182 OA
BRANCH   6   9
HETATM    9  N1  UNL     1      14.646  17.744   1.464  1.00  0.00    -0.303 N 
ATOM     10  H1  UNL     1      13.659  17.876   1.686  1.00  0.00     0.173 HD
BRANCH   9  11
HETATM   11  C2  UNL     1      15.187  17.780   0.118  1.00  0.00     0.129 C 
HETATM   12  C1  UNL     1      14.453  16.842  -0.801  1.00  0.00     0.027 C 
ENDBRANCH   9  11
ENDBRANCH   6   9
ENDBRANCH   3   6
ENDBRANCH   1   2
BRANCH   1  13
HETATM   13  C5  UNL     1      16.052  12.471   3.208  1.00  0.00     0.039 C 
BRANCH  13  14
HETATM   14  C6  UNL     1      17.296  12.038   3.985  1.00  0.00    -0.012 C 
HETATM   15  C7  UNL     1      18.522  12.735   3.552  1.00  0.00     0.005 C 
HETATM   16  C8  UNL     1      19.804  11.991   3.812  1.00  0.00     0.000 C 
HETATM   17  C9  UNL     1      19.690  10.610   3.235  1.00  0.00     0.000 C 
HETATM   18  C10 UNL     1      18.634   9.905   4.091  1.00  0.00     0.000 C 
HETATM   19  C11 UNL     1      17.333  10.535   3.794  1.00  0.00     0.005 C 
ENDBRANCH  13  14
ENDBRANCH   1  13
BRANCH   1  20
HETATM   20  N3  UNL     1      15.984  12.878   0.779  1.00  0.00    -0.387 N 
HETATM   21  C12 UNL     1      16.699  13.512  -0.292  1.00  0.00     0.118 C 
HETATM   22  C13 UNL     1      18.120  12.984  -0.258  1.00  0.00     0.020 C 
HETATM   23  C14 UNL     1      18.107  11.581   0.233  1.00  0.00     0.004 C 
HETATM   24  C15 UNL     1      16.848  10.809  -0.038  1.00  0.00     0.035 C 
HETATM   25  C16 UNL     1      15.659  11.539   0.590  1.00  0.00     0.172 C 
BRANCH  25  26
HETATM   26  C17 UNL     1      14.519  11.240  -0.322  1.00  0.00     0.240 C 
HETATM   27  O4  UNL     1      14.709  10.332  -1.222  1.00  0.00    -0.271 OA
HETATM   28  N4  UNL     1      13.268  11.836  -0.307  1.00  0.00    -0.355 N 
ATOM     29  H4  UNL     1      13.086  12.556   0.391  1.00  0.00     0.162 HD
BRANCH  28  30
HETATM   30  C18 UNL     1      12.199  11.490  -1.233  1.00  0.00     0.088 C 
HETATM   31  C19 UNL     1      10.837  11.638  -0.564  1.00  0.00     0.051 C 
HETATM   32  C20 UNL     1       9.832  11.024  -1.540  1.00  0.00     0.169 C 
HETATM   33  O5  UNL     1      10.380  10.834  -2.801  1.00  0.00    -0.391 OA
HETATM   34  C21 UNL     1      11.009  11.949  -3.303  1.00  0.00     0.169 C 
HETATM   35  C22 UNL     1      12.180  12.404  -2.435  1.00  0.00     0.051 C 
ENDBRANCH  28  30
ENDBRANCH  25  26
ENDBRANCH   1  20
TORSDOF 9
ENDMDL
MODEL 5
REMARK VINA RESULT: -5.652143417      4.744     11.308
REMARK  9 active torsions:
REMARK  status: ('A' for Active; 'I' for Inactive)
REMARK    1  A    between atoms: C2_2  and  N1_3 
REMARK    2  A    between atoms: N1_3  and  S1_5 
REMARK    3  A    between atoms: S1_5  and  N2_8 
REMARK       I    between atoms: N2_8  and  C3_10 
REMARK    4  A    between atoms: C3_10  and  C4_12 
REMARK    5  A    between atoms: C4_12  and  C5_13 
REMARK    6  A    between atoms: C4_12  and  N3_20 
REMARK    7  A    between atoms: C5_13  and  C6_14 
REMARK    8  A    between atoms: C16_25  and  C17_26 
REMARK       I    between atoms: C17_26  and  N4_28 
REMARK    9  A    between atoms: N4_28  and  C18_30 
ROOT
HETATM    1  C4  UNL     1      17.190  12.520   2.558  1.00  0.00     0.173 C 
ENDROOT
BRANCH   1   2
HETATM    2  C3  UNL     1      16.683  13.784   3.115  1.00  0.00     0.254 C 
HETATM    3  N2  UNL     1      17.418  14.573   4.033  1.00  0.00    -0.236 N 
ATOM      4  H2  UNL     1      18.344  14.266   4.334  1.00  0.00     0.183 HD
HETATM    5  O3  UNL     1      15.555  14.214   2.781  1.00  0.00    -0.270 OA
BRANCH   3   6
HETATM    6  S1  UNL     1      16.768  16.052   4.652  1.00  0.00     0.321 S 
HETATM    7  O1  UNL     1      16.859  17.098   3.561  1.00  0.00    -0.182 OA
HETATM    8  O2  UNL     1      17.542  16.559   5.824  1.00  0.00    -0.182 OA
BRANCH   6   9
HETATM    9  N1  UNL     1      15.126  15.887   5.104  1.00  0.00    -0.303 N 
ATOM     10  H1  UNL     1      14.699  15.007   5.395  1.00  0.00     0.173 HD
BRANCH   9  11
HETATM   11  C2  UNL     1      14.412  17.148   5.023  1.00  0.00     0.129 C 
HETATM   12  C1  UNL     1      13.394  17.139   3.916  1.00  0.00     0.027 C 
ENDBRANCH   9  11
ENDBRANCH   6   9
ENDBRANCH   3   6
ENDBRANCH   1   2
BRANCH   1  13
HETATM   13  C5  UNL     1      17.037  11.339   3.434  1.00  0.00     0.039 C 
BRANCH  13  14
HETATM   14  C6  UNL     1      18.334  10.774   4.015  1.00  0.00    -0.012 C 
HETATM   15  C7  UNL     1      19.516  11.601   3.710  1.00  0.00     0.005 C 
HETATM   16  C8  UNL     1      20.828  10.865   3.711  1.00  0.00     0.000 C 
HETATM   17  C9  UNL     1      20.714   9.667   2.813  1.00  0.00     0.000 C 
HETATM   18  C10 UNL     1      19.726   8.732   3.518  1.00  0.00     0.000 C 
HETATM   19  C11 UNL     1      18.395   9.367   3.453  1.00  0.00     0.005 C 
ENDBRANCH  13  14
ENDBRANCH   1  13
BRANCH   1  20
HETATM   20  N3  UNL     1      16.758  12.367   1.212  1.00  0.00    -0.387 N 
HETATM   21  C12 UNL     1      17.328  13.313   0.296  1.00  0.00     0.118 C 
HETATM   22  C13 UNL     1      18.762  12.889   0.045  1.00  0.00     0.020 C 
HETATM   23  C14 UNL     1      18.853  11.408   0.125  1.00  0.00     0.004 C 
HETATM   24  C15 UNL     1      17.600  10.659  -0.228  1.00  0.00     0.035 C 
HETATM   25  C16 UNL     1      16.463  11.112   0.690  1.00  0.00     0.172 C 
BRANCH  25  26
HETATM   26  C17 UNL     1      15.240  11.000  -0.156  1.00  0.00     0.240 C 
HETATM   27  O4  UNL     1      15.282  10.164  -1.141  1.00  0.00    -0.271 OA
HETATM   28  N4  UNL     1      14.055  11.701   0.004  1.00  0.00    -0.355 N 
ATOM     29  H4  UNL     1      13.990  12.368   0.773  1.00  0.00     0.162 HD
BRANCH  28  30
HETATM   30  C18 UNL     1      12.898  11.538  -0.864  1.00  0.00     0.088 C 
HETATM   31  C19 UNL     1      11.605  11.722  -0.079  1.00  0.00     0.051 C 
HETATM   32  C20 UNL     1      10.485  11.293  -1.028  1.00  0.00     0.169 C 
HETATM   33  O5  UNL     1      10.925  11.192  -2.341  1.00  0.00    -0.391 OA
HETATM   34  C21 UNL     1      11.610  12.301  -2.780  1.00  0.00     0.169 C 
HETATM   35  C22 UNL     1      12.873  12.570  -1.966  1.00  0.00     0.051 C 
ENDBRANCH  28  30
ENDBRANCH  25  26
ENDBRANCH   1  20
TORSDOF 9
ENDMDL
