MODEL 1
REMARK VINA RESULT: -5.873038563      0.000      0.000
REMARK  10 active torsions:
REMARK  status: ('A' for Active; 'I' for Inactive)
REMARK    1  A    between atoms: C2_2  and  C4_4 
REMARK    2  A    between atoms: C4_4  and  O1_5 
REMARK    3  A    between atoms: C4_4  and  C21_32 
REMARK    4  A    between atoms: O1_5  and  C5_6 
REMARK       I    between atoms: C5_6  and  N1_8 
REMARK    5  A    between atoms: C8_11  and  N2_12 
REMARK       I    between atoms: N2_12  and  C9_14 
REMARK    6  A    between atoms: C9_14  and  C10_16 
REMARK    7  A    between atoms: C10_16  and  C11_17 
REMARK    8  A    between atoms: C10_16  and  N3_24 
REMARK    9  A    between atoms: C11_17  and  C12_18 
REMARK       I    between atoms: N3_24  and  C18_26 
REMARK   10  A    between atoms: C18_26  and  C19_28 
ROOT
HETATM    1  N2  UNL     1      15.692  12.153   1.554  1.00  0.00    -0.353 N 
ATOM      2  H2  UNL     1      14.780  11.930   1.955  1.00  0.00     0.163 HD
HETATM    3  C9  UNL     1      15.765  12.791   0.318  1.00  0.00     0.240 C 
HETATM    4  O3  UNL     1      16.891  13.059  -0.176  1.00  0.00    -0.271 OA
ENDROOT
BRANCH   1   5
HETATM    5  C8  UNL     1      16.889  11.804   2.273  1.00  0.00     0.104 C 
HETATM    6  C7  UNL     1      16.608  11.456   3.716  1.00  0.00     0.047 C 
HETATM    7  C6  UNL     1      17.560  10.296   4.037  1.00  0.00     0.130 C 
HETATM    8  N1  UNL     1      18.354  10.124   2.842  1.00  0.00    -0.326 N 
HETATM    9  C5  UNL     1      19.687   9.691   2.704  1.00  0.00     0.363 C 
HETATM   10  C20 UNL     1      17.480  10.490   1.752  1.00  0.00     0.153 C 
HETATM   11  O2  UNL     1      20.236   9.614   1.564  1.00  0.00    -0.238 OA
BRANCH   9  12
HETATM   12  O1  UNL     1      20.414   9.346   3.800  1.00  0.00    -0.297 OA
BRANCH  12  13
HETATM   13  C4  UNL     1      20.918   7.997   4.034  1.00  0.00     0.144 C 
BRANCH  13  14
HETATM   14  C2  UNL     1      22.379   8.130   4.015  1.00  0.00     0.008 C 
HETATM   15  C1  UNL     1      23.126   7.712   2.803  1.00  0.00     0.012 C 
HETATM   16  C3  UNL     1      22.698   9.622   4.227  1.00  0.00     0.012 C 
ENDBRANCH  13  14
BRANCH  13  17
HETATM   17  C21 UNL     1      20.238   7.550   5.270  1.00  0.00    -0.024 C 
HETATM   18  C22 UNL     1      20.040   8.672   6.245  1.00  0.00     0.017 C 
HETATM   19  C23 UNL     1      21.096   6.503   6.002  1.00  0.00     0.017 C 
HETATM   20  C24 UNL     1      18.908   6.879   5.028  1.00  0.00     0.017 C 
ENDBRANCH  13  17
ENDBRANCH  12  13
ENDBRANCH   9  12
ENDBRANCH   1   5
BRANCH   3  21
HETATM   21  C10 UNL     1      14.556  13.163  -0.441  1.00  0.00     0.177 C 
BRANCH  21  22
HETATM   22  C11 UNL     1      13.360  12.372   0.116  1.00  0.00     0.039 C 
BRANCH  22  23
HETATM   23  C12 UNL     1      12.120  12.521  -0.716  1.00  0.00    -0.012 C 
HETATM   24  C13 UNL     1      12.570  12.336  -2.167  1.00  0.00     0.005 C 
HETATM   25  C14 UNL     1      11.379  12.178  -3.082  1.00  0.00     0.000 C 
HETATM   26  C15 UNL     1      10.527  10.991  -2.664  1.00  0.00     0.000 C 
HETATM   27  C16 UNL     1       9.996  11.319  -1.263  1.00  0.00     0.000 C 
HETATM   28  C17 UNL     1      11.174  11.386  -0.348  1.00  0.00     0.005 C 
ENDBRANCH  22  23
ENDBRANCH  21  22
BRANCH  21  29
HETATM   29  N3  UNL     1      14.321  14.583  -0.145  1.00  0.00    -0.339 N 
HETATM   30  C18 UNL     1      14.604  15.510  -1.185  1.00  0.00     0.319 C 
HETATM   31  O4  UNL     1      15.030  15.148  -2.297  1.00  0.00    -0.261 OA
ATOM     32  H3  UNL     1      13.971  14.888   0.764  1.00  0.00     0.163 HD
BRANCH  30  33
HETATM   33  C19 UNL     1      14.381  16.921  -0.922  1.00  0.00     0.270 C 
HETATM   34  O5  UNL     1      14.314  17.359   0.249  1.00  0.00    -0.640 OA
HETATM   35  O6  UNL     1      14.244  17.788  -1.986  1.00  0.00    -0.640 OA
ENDBRANCH  30  33
ENDBRANCH  21  29
ENDBRANCH   3  21
TORSDOF 10
ENDMDL
MODEL 2
REMARK VINA RESULT: -5.853217100      2.646     10.070
REMARK  10 active torsions:
REMARK  status: ('A' for Active; 'I' for Inactive)
REMARK    1  A    between atoms: C2_2  and  C4_4 
REMARK    2  A    between atoms: C4_4  and  O1_5 
REMARK    3  A    between atoms: C4_4  and  C21_32 
REMARK    4  A    between atoms: O1_5  and  C5_6 
REMARK       I    between atoms: C5_6  and  N1_8 
REMARK    5  A    between atoms: C8_11  and  N2_12 
REMARK       I    between atoms: N2_12  and  C9_14 
REMARK    6  A    between atoms: C9_14  and  C10_16 
REMARK    7  A    between atoms: C10_16  and  C11_17 
REMARK    8  A    between atoms: C10_16  and  N3_24 
REMARK    9  A    between atoms: C11_17  and  C12_18 
REMARK       I    between atoms: N3_24  and  C18_26 
REMARK   10  A    between atoms: C18_26  and  C19_28 
ROOT
HETATM    1  N2  UNL     1      15.623  12.067   1.132  1.00  0.00    -0.353 N 
ATOM      2  H2  UNL     1      15.967  12.970   1.459  1.00  0.00     0.163 HD
HETATM    3  C9  UNL     1      16.191  10.893   1.624  1.00  0.00     0.240 C 
HETATM    4  O3  UNL     1      15.768   9.781   1.215  1.00  0.00    -0.271 OA
ENDROOT
BRANCH   1   5
HETATM    5  C8  UNL     1      14.557  12.018   0.166  1.00  0.00     0.104 C 
HETATM    6  C7  UNL     1      13.471  13.025   0.462  1.00  0.00     0.047 C 
HETATM    7  C6  UNL     1      13.026  13.545  -0.911  1.00  0.00     0.130 C 
HETATM    8  N1  UNL     1      13.785  12.770  -1.866  1.00  0.00    -0.326 N 
HETATM    9  C5  UNL     1      13.437  12.358  -3.167  1.00  0.00     0.363 C 
HETATM   10  C20 UNL     1      15.041  12.486  -1.210  1.00  0.00     0.153 C 
HETATM   11  O2  UNL     1      14.230  11.659  -3.867  1.00  0.00    -0.238 OA
BRANCH   9  12
HETATM   12  O1  UNL     1      12.234  12.704  -3.698  1.00  0.00    -0.297 OA
BRANCH  12  13
HETATM   13  C4  UNL     1      11.576  11.945  -4.756  1.00  0.00     0.144 C 
BRANCH  13  14
HETATM   14  C2  UNL     1      10.296  11.519  -4.177  1.00  0.00     0.008 C 
HETATM   15  C1  UNL     1       9.703  10.229  -4.608  1.00  0.00     0.012 C 
HETATM   16  C3  UNL     1      10.505  11.411  -2.654  1.00  0.00     0.012 C 
ENDBRANCH  13  14
BRANCH  13  17
HETATM   17  C21 UNL     1      11.587  12.846  -5.929  1.00  0.00    -0.024 C 
HETATM   18  C22 UNL     1      10.203  13.189  -6.393  1.00  0.00     0.017 C 
HETATM   19  C23 UNL     1      12.273  12.158  -7.122  1.00  0.00     0.017 C 
HETATM   20  C24 UNL     1      12.355  14.127  -5.711  1.00  0.00     0.017 C 
ENDBRANCH  13  17
ENDBRANCH  12  13
ENDBRANCH   9  12
ENDBRANCH   1   5
BRANCH   3  21
HETATM   21  C10 UNL     1      17.282  10.911   2.617  1.00  0.00     0.177 C 
BRANCH  21  22
HETATM   22  C11 UNL     1      18.584  10.473   1.927  1.00  0.00     0.039 C 
BRANCH  22  23
HETATM   23  C12 UNL     1      19.394   9.518   2.754  1.00  0.00    -0.012 C 
HETATM   24  C13 UNL     1      20.700  10.249   3.071  1.00  0.00     0.005 C 
HETATM   25  C14 UNL     1      21.483   9.512   4.132  1.00  0.00     0.000 C 
HETATM   26  C15 UNL     1      20.666   9.367   5.405  1.00  0.00     0.000 C 
HETATM   27  C16 UNL     1      19.454   8.501   5.039  1.00  0.00     0.000 C 
HETATM   28  C17 UNL     1      18.640   9.275   4.054  1.00  0.00     0.005 C 
ENDBRANCH  22  23
ENDBRANCH  21  22
BRANCH  21  29
HETATM   29  N3  UNL     1      17.441  12.317   3.009  1.00  0.00    -0.339 N 
HETATM   30  C18 UNL     1      16.752  12.740   4.178  1.00  0.00     0.319 C 
HETATM   31  O4  UNL     1      16.044  11.964   4.846  1.00  0.00    -0.261 OA
ATOM     32  H3  UNL     1      18.020  12.961   2.467  1.00  0.00     0.163 HD
BRANCH  30  33
HETATM   33  C19 UNL     1      16.891  14.125   4.592  1.00  0.00     0.270 C 
HETATM   34  O5  UNL     1      16.980  14.433   5.802  1.00  0.00    -0.640 OA
HETATM   35  O6  UNL     1      16.926  15.112   3.630  1.00  0.00    -0.640 OA
ENDBRANCH  30  33
ENDBRANCH  21  29
ENDBRANCH   3  21
TORSDOF 10
ENDMDL
MODEL 3
REMARK VINA RESULT: -5.852773248      7.303      9.375
REMARK  10 active torsions:
REMARK  status: ('A' for Active; 'I' for Inactive)
REMARK    1  A    between atoms: C2_2  and  C4_4 
REMARK    2  A    between atoms: C4_4  and  O1_5 
REMARK    3  A    between atoms: C4_4  and  C21_32 
REMARK    4  A    between atoms: O1_5  and  C5_6 
REMARK       I    between atoms: C5_6  and  N1_8 
REMARK    5  A    between atoms: C8_11  and  N2_12 
REMARK       I    between atoms: N2_12  and  C9_14 
REMARK    6  A    between atoms: C9_14  and  C10_16 
REMARK    7  A    between atoms: C10_16  and  C11_17 
REMARK    8  A    between atoms: C10_16  and  N3_24 
REMARK    9  A    between atoms: C11_17  and  C12_18 
REMARK       I    between atoms: N3_24  and  C18_26 
REMARK   10  A    between atoms: C18_26  and  C19_28 
ROOT
HETATM    1  N2  UNL     1      13.751  17.627   6.137  1.00  0.00    -0.353 N 
ATOM      2  H2  UNL     1      14.153  18.558   6.022  1.00  0.00     0.163 HD
HETATM    3  C9  UNL     1      12.807  17.402   7.136  1.00  0.00     0.240 C 
HETATM    4  O3  UNL     1      12.317  16.252   7.279  1.00  0.00    -0.271 OA
ENDROOT
BRANCH   1   5
HETATM    5  C8  UNL     1      14.165  16.560   5.264  1.00  0.00     0.104 C 
HETATM    6  C7  UNL     1      13.920  16.884   3.809  1.00  0.00     0.047 C 
HETATM    7  C6  UNL     1      15.126  16.299   3.063  1.00  0.00     0.130 C 
HETATM    8  N1  UNL     1      15.902  15.627   4.080  1.00  0.00    -0.326 N 
HETATM    9  C5  UNL     1      16.715  14.481   3.978  1.00  0.00     0.363 C 
HETATM   10  C20 UNL     1      15.688  16.392   5.287  1.00  0.00     0.153 C 
HETATM   11  O2  UNL     1      17.318  14.014   4.990  1.00  0.00    -0.238 OA
BRANCH   9  12
HETATM   12  O1  UNL     1      16.868  13.852   2.782  1.00  0.00    -0.297 OA
BRANCH  12  13
HETATM   13  C4  UNL     1      16.048  12.721   2.361  1.00  0.00     0.144 C 
BRANCH  13  14
HETATM   14  C2  UNL     1      15.585  13.070   1.013  1.00  0.00     0.008 C 
HETATM   15  C1  UNL     1      14.202  13.576   0.833  1.00  0.00     0.012 C 
HETATM   16  C3  UNL     1      16.522  14.175   0.487  1.00  0.00     0.012 C 
ENDBRANCH  13  14
BRANCH  13  17
HETATM   17  C21 UNL     1      16.912  11.536   2.558  1.00  0.00    -0.024 C 
HETATM   18  C22 UNL     1      18.358  11.842   2.309  1.00  0.00     0.017 C 
HETATM   19  C23 UNL     1      16.536  10.431   1.554  1.00  0.00     0.017 C 
HETATM   20  C24 UNL     1      16.779  10.900   3.920  1.00  0.00     0.017 C 
ENDBRANCH  13  17
ENDBRANCH  12  13
ENDBRANCH   9  12
ENDBRANCH   1   5
BRANCH   3  21
HETATM   21  C10 UNL     1      12.360  18.476   8.044  1.00  0.00     0.177 C 
BRANCH  21  22
HETATM   22  C11 UNL     1      10.825  18.444   8.129  1.00  0.00     0.039 C 
BRANCH  22  23
HETATM   23  C12 UNL     1      10.165  19.421   7.200  1.00  0.00    -0.012 C 
HETATM   24  C13 UNL     1       9.332  18.576   6.235  1.00  0.00     0.005 C 
HETATM   25  C14 UNL     1       8.396  19.447   5.430  1.00  0.00     0.000 C 
HETATM   26  C15 UNL     1       7.467  20.231   6.343  1.00  0.00     0.000 C 
HETATM   27  C16 UNL     1       8.365  21.158   7.172  1.00  0.00     0.000 C 
HETATM   28  C17 UNL     1       9.227  20.288   8.028  1.00  0.00     0.005 C 
ENDBRANCH  22  23
ENDBRANCH  21  22
BRANCH  21  29
HETATM   29  N3  UNL     1      12.883  18.122   9.369  1.00  0.00    -0.339 N 
HETATM   30  C18 UNL     1      14.214  18.527   9.663  1.00  0.00     0.319 C 
HETATM   31  O4  UNL     1      14.912  19.152   8.844  1.00  0.00    -0.261 OA
ATOM     32  H3  UNL     1      12.318  17.609  10.047  1.00  0.00     0.163 HD
BRANCH  30  33
HETATM   33  C19 UNL     1      14.759  18.191  10.967  1.00  0.00     0.270 C 
HETATM   34  O5  UNL     1      14.009  17.999  11.952  1.00  0.00    -0.640 OA
HETATM   35  O6  UNL     1      16.125  18.083  11.116  1.00  0.00    -0.640 OA
ENDBRANCH  30  33
ENDBRANCH  21  29
ENDBRANCH   3  21
TORSDOF 10
ENDMDL
MODEL 4
REMARK VINA RESULT: -5.790988965      4.227      7.072
REMARK  10 active torsions:
REMARK  status: ('A' for Active; 'I' for Inactive)
REMARK    1  A    between atoms: C2_2  and  C4_4 
REMARK    2  A    between atoms: C4_4  and  O1_5 
REMARK    3  A    between atoms: C4_4  and  C21_32 
REMARK    4  A    between atoms: O1_5  and  C5_6 
REMARK       I    between atoms: C5_6  and  N1_8 
REMARK    5  A    between atoms: C8_11  and  N2_12 
REMARK       I    between atoms: N2_12  and  C9_14 
REMARK    6  A    between atoms: C9_14  and  C10_16 
REMARK    7  A    between atoms: C10_16  and  C11_17 
REMARK    8  A    between atoms: C10_16  and  N3_24 
REMARK    9  A    between atoms: C11_17  and  C12_18 
REMARK       I    between atoms: N3_24  and  C18_26 
REMARK   10  A    between atoms: C18_26  and  C19_28 
ROOT
HETATM    1  N2  UNL     1      11.649  12.365  -3.584  1.00  0.00    -0.353 N 
ATOM      2  H2  UNL     1      10.986  11.590  -3.609  1.00  0.00     0.163 HD
HETATM    3  C9  UNL     1      11.857  13.132  -4.728  1.00  0.00     0.240 C 
HETATM    4  O3  UNL     1      12.680  14.084  -4.695  1.00  0.00    -0.271 OA
ENDROOT
BRANCH   1   5
HETATM    5  C8  UNL     1      12.360  12.653  -2.366  1.00  0.00     0.104 C 
HETATM    6  C7  UNL     1      11.527  12.373  -1.138  1.00  0.00     0.047 C 
HETATM    7  C6  UNL     1      12.510  11.788  -0.116  1.00  0.00     0.130 C 
HETATM    8  N1  UNL     1      13.801  11.855  -0.762  1.00  0.00    -0.326 N 
HETATM    9  C5  UNL     1      15.079  12.037  -0.197  1.00  0.00     0.363 C 
HETATM   10  C20 UNL     1      13.529  11.683  -2.170  1.00  0.00     0.153 C 
HETATM   11  O2  UNL     1      16.115  12.088  -0.925  1.00  0.00    -0.238 OA
BRANCH   9  12
HETATM   12  O1  UNL     1      15.223  12.163   1.149  1.00  0.00    -0.297 OA
BRANCH  12  13
HETATM   13  C4  UNL     1      16.334  12.874   1.773  1.00  0.00     0.144 C 
BRANCH  13  14
HETATM   14  C2  UNL     1      15.731  14.077   2.360  1.00  0.00     0.008 C 
HETATM   15  C1  UNL     1      16.591  15.255   2.633  1.00  0.00     0.012 C 
HETATM   16  C3  UNL     1      14.639  14.556   1.384  1.00  0.00     0.012 C 
ENDBRANCH  13  14
BRANCH  13  17
HETATM   17  C21 UNL     1      16.977  11.872   2.651  1.00  0.00    -0.024 C 
HETATM   18  C22 UNL     1      16.485  11.960   4.065  1.00  0.00     0.017 C 
HETATM   19  C23 UNL     1      18.494  12.118   2.717  1.00  0.00     0.017 C 
HETATM   20  C24 UNL     1      16.822  10.449   2.173  1.00  0.00     0.017 C 
ENDBRANCH  13  17
ENDBRANCH  12  13
ENDBRANCH   9  12
ENDBRANCH   1   5
BRANCH   3  21
HETATM   21  C10 UNL     1      11.141  12.863  -5.989  1.00  0.00     0.177 C 
BRANCH  21  22
HETATM   22  C11 UNL     1      10.643  11.408  -5.973  1.00  0.00     0.039 C 
BRANCH  22  23
HETATM   23  C12 UNL     1      10.545  10.806  -7.345  1.00  0.00    -0.012 C 
HETATM   24  C13 UNL     1      11.939  10.949  -7.959  1.00  0.00     0.005 C 
HETATM   25  C14 UNL     1      12.053  10.131  -9.225  1.00  0.00     0.000 C 
HETATM   26  C15 UNL     1      11.773   8.663  -8.948  1.00  0.00     0.000 C 
HETATM   27  C16 UNL     1      10.315   8.588  -8.478  1.00  0.00     0.000 C 
HETATM   28  C17 UNL     1      10.230   9.325  -7.182  1.00  0.00     0.005 C 
ENDBRANCH  22  23
ENDBRANCH  21  22
BRANCH  21  29
HETATM   29  N3  UNL     1       9.959  13.734  -5.971  1.00  0.00    -0.339 N 
HETATM   30  C18 UNL     1       9.969  14.848  -6.855  1.00  0.00     0.319 C 
HETATM   31  O4  UNL     1      10.929  15.084  -7.612  1.00  0.00    -0.261 OA
ATOM     32  H3  UNL     1       9.168  13.548  -5.354  1.00  0.00     0.163 HD
BRANCH  30  33
HETATM   33  C19 UNL     1       8.814  15.727  -6.860  1.00  0.00     0.270 C 
HETATM   34  O5  UNL     1       8.786  16.764  -6.157  1.00  0.00    -0.640 OA
HETATM   35  O6  UNL     1       7.733  15.411  -7.655  1.00  0.00    -0.640 OA
ENDBRANCH  30  33
ENDBRANCH  21  29
ENDBRANCH   3  21
TORSDOF 10
ENDMDL
MODEL 5
REMARK VINA RESULT: -5.765256378      1.390      2.376
REMARK  10 active torsions:
REMARK  status: ('A' for Active; 'I' for Inactive)
REMARK    1  A    between atoms: C2_2  and  C4_4 
REMARK    2  A    between atoms: C4_4  and  O1_5 
REMARK    3  A    between atoms: C4_4  and  C21_32 
REMARK    4  A    between atoms: O1_5  and  C5_6 
REMARK       I    between atoms: C5_6  and  N1_8 
REMARK    5  A    between atoms: C8_11  and  N2_12 
REMARK       I    between atoms: N2_12  and  C9_14 
REMARK    6  A    between atoms: C9_14  and  C10_16 
REMARK    7  A    between atoms: C10_16  and  C11_17 
REMARK    8  A    between atoms: C10_16  and  N3_24 
REMARK    9  A    between atoms: C11_17  and  C12_18 
REMARK       I    between atoms: N3_24  and  C18_26 
REMARK   10  A    between atoms: C18_26  and  C19_28 
ROOT
HETATM    1  N2  UNL     1      15.847  11.498   1.158  1.00  0.00    -0.353 N 
ATOM      2  H2  UNL     1      15.778  12.370   1.683  1.00  0.00     0.163 HD
HETATM    3  C9  UNL     1      14.998  11.276   0.075  1.00  0.00     0.240 C 
HETATM    4  O3  UNL     1      15.082  10.197  -0.567  1.00  0.00    -0.271 OA
ENDROOT
BRANCH   1   5
HETATM    5  C8  UNL     1      16.820  10.510   1.544  1.00  0.00     0.104 C 
HETATM    6  C7  UNL     1      18.101  10.631   0.752  1.00  0.00     0.047 C 
HETATM    7  C6  UNL     1      19.219  10.328   1.759  1.00  0.00     0.130 C 
HETATM    8  N1  UNL     1      18.534   9.978   2.982  1.00  0.00    -0.326 N 
HETATM    9  C5  UNL     1      18.919   9.086   4.003  1.00  0.00     0.363 C 
HETATM   10  C20 UNL     1      17.318  10.757   2.971  1.00  0.00     0.153 C 
HETATM   11  O2  UNL     1      18.177   8.886   5.011  1.00  0.00    -0.238 OA
BRANCH   9  12
HETATM   12  O1  UNL     1      20.102   8.421   3.923  1.00  0.00    -0.297 OA
BRANCH  12  13
HETATM   13  C4  UNL     1      20.856   7.985   5.093  1.00  0.00     0.144 C 
BRANCH  13  14
HETATM   14  C2  UNL     1      20.896   6.522   4.995  1.00  0.00     0.008 C 
HETATM   15  C1  UNL     1      19.888   5.721   5.734  1.00  0.00     0.012 C 
HETATM   16  C3  UNL     1      20.723   6.165   3.506  1.00  0.00     0.012 C 
ENDBRANCH  13  14
BRANCH  13  17
HETATM   17  C21 UNL     1      22.116   8.759   5.039  1.00  0.00    -0.024 C 
HETATM   18  C22 UNL     1      23.280   7.984   5.581  1.00  0.00     0.017 C 
HETATM   19  C23 UNL     1      22.005  10.020   5.914  1.00  0.00     0.017 C 
HETATM   20  C24 UNL     1      22.468   9.260   3.659  1.00  0.00     0.017 C 
ENDBRANCH  13  17
ENDBRANCH  12  13
ENDBRANCH   9  12
ENDBRANCH   1   5
BRANCH   3  21
HETATM   21  C10 UNL     1      13.994  12.271  -0.346  1.00  0.00     0.177 C 
BRANCH  21  22
HETATM   22  C11 UNL     1      12.601  11.777   0.082  1.00  0.00     0.039 C 
BRANCH  22  23
HETATM   23  C12 UNL     1      11.532  12.097  -0.922  1.00  0.00    -0.012 C 
HETATM   24  C13 UNL     1      12.233  12.107  -2.283  1.00  0.00     0.005 C 
HETATM   25  C14 UNL     1      11.222  12.134  -3.406  1.00  0.00     0.000 C 
HETATM   26  C15 UNL     1      10.293  10.934  -3.327  1.00  0.00     0.000 C 
HETATM   27  C16 UNL     1       9.523  11.076  -2.008  1.00  0.00     0.000 C 
HETATM   28  C17 UNL     1      10.519  10.960  -0.901  1.00  0.00     0.005 C 
ENDBRANCH  22  23
ENDBRANCH  21  22
BRANCH  21  29
HETATM   29  N3  UNL     1      14.287  13.485   0.426  1.00  0.00    -0.339 N 
HETATM   30  C18 UNL     1      14.596  14.658  -0.317  1.00  0.00     0.319 C 
HETATM   31  O4  UNL     1      14.620  14.666  -1.561  1.00  0.00    -0.261 OA
ATOM     32  H3  UNL     1      14.270  13.487   1.446  1.00  0.00     0.163 HD
BRANCH  30  33
HETATM   33  C19 UNL     1      14.891  15.875   0.418  1.00  0.00     0.270 C 
HETATM   34  O5  UNL     1      14.525  16.994  -0.009  1.00  0.00    -0.640 OA
HETATM   35  O6  UNL     1      15.584  15.790   1.607  1.00  0.00    -0.640 OA
ENDBRANCH  30  33
ENDBRANCH  21  29
ENDBRANCH   3  21
TORSDOF 10
ENDMDL
