MODEL 1
REMARK VINA RESULT: -5.807763768      0.000      0.000
REMARK  10 active torsions:
REMARK  status: ('A' for Active; 'I' for Inactive)
REMARK    1  A    between atoms: C2_2  and  C4_4 
REMARK    2  A    between atoms: C5_5  and  C6_6 
REMARK    3  A    between atoms: C6_6  and  C9_9 
REMARK    4  A    between atoms: C9_9  and  N1_10 
REMARK    5  A    between atoms: C9_9  and  C25_36 
REMARK       I    between atoms: N1_10  and  C10_12 
REMARK    6  A    between atoms: C10_12  and  C11_14 
REMARK       I    between atoms: N2_18  and  C15_19 
REMARK    7  A    between atoms: C15_19  and  C16_21 
REMARK    8  A    between atoms: C16_21  and  N3_22 
REMARK    9  A    between atoms: C16_21  and  C22_33 
REMARK       I    between atoms: N3_22  and  C17_24 
REMARK   10  A    between atoms: C17_24  and  C18_26 
ROOT
HETATM    1  C11 UNL     1      18.371  16.169   3.633  1.00  0.00     0.179 C 
HETATM    2  C12 UNL     1      19.655  16.971   4.006  1.00  0.00     0.037 C 
HETATM    3  C13 UNL     1      19.032  18.301   4.373  1.00  0.00     0.022 C 
HETATM    4  C14 UNL     1      17.552  18.087   4.419  1.00  0.00     0.127 C 
HETATM    5  N2  UNL     1      17.519  16.620   4.650  1.00  0.00    -0.337 N 
HETATM    6  C15 UNL     1      16.736  16.054   5.648  1.00  0.00     0.243 C 
HETATM    7  O2  UNL     1      16.560  14.805   5.853  1.00  0.00    -0.271 OA
ENDROOT
BRANCH   1   8
HETATM    8  C10 UNL     1      18.669  14.782   3.422  1.00  0.00     0.241 C 
HETATM    9  N1  UNL     1      17.821  14.069   2.487  1.00  0.00    -0.353 N 
ATOM     10  H1  UNL     1      17.061  14.570   2.027  1.00  0.00     0.163 HD
HETATM   11  O1  UNL     1      19.565  14.078   3.930  1.00  0.00    -0.271 OA
BRANCH   9  12
HETATM   12  C9  UNL     1      18.023  12.655   2.186  1.00  0.00     0.107 C 
BRANCH  12  13
HETATM   13  C6  UNL     1      16.823  11.830   2.544  1.00  0.00     0.037 C 
HETATM   14  C7  UNL     1      17.063  10.366   2.134  1.00  0.00     0.031 C 
HETATM   15  C8  UNL     1      16.441  11.851   3.986  1.00  0.00     0.031 C 
BRANCH  13  16
HETATM   16  C5  UNL     1      15.676  12.264   1.745  1.00  0.00    -0.095 C 
HETATM   17  C4  UNL     1      14.735  12.628   1.059  1.00  0.00    -0.102 C 
BRANCH  17  18
HETATM   18  C2  UNL     1      13.607  13.085   0.236  1.00  0.00     0.057 C 
HETATM   19  C1  UNL     1      12.694  11.931  -0.142  1.00  0.00     0.023 C 
HETATM   20  C3  UNL     1      14.081  13.712  -1.059  1.00  0.00     0.023 C 
ENDBRANCH  17  18
ENDBRANCH  13  16
ENDBRANCH  12  13
BRANCH  12  21
HETATM   21  C25 UNL     1      18.594  12.400   0.835  1.00  0.00     0.002 C 
HETATM   22  C26 UNL     1      20.088  12.099   1.027  1.00  0.00     0.011 C 
HETATM   23  C27 UNL     1      18.398  13.472  -0.177  1.00  0.00     0.011 C 
ENDBRANCH  12  21
ENDBRANCH   9  12
ENDBRANCH   1   8
BRANCH   6  24
HETATM   24  C16 UNL     1      15.976  16.903   6.639  1.00  0.00     0.180 C 
BRANCH  24  25
HETATM   25  N3  UNL     1      14.529  16.657   6.521  1.00  0.00    -0.346 N 
HETATM   26  C17 UNL     1      13.697  17.505   5.765  1.00  0.00     0.249 C 
HETATM   27  O3  UNL     1      14.218  18.492   5.187  1.00  0.00    -0.271 OA
ATOM     28  H3  UNL     1      14.119  15.853   6.998  1.00  0.00     0.163 HD
BRANCH  26  29
HETATM   29  C18 UNL     1      12.236  17.298   5.616  1.00  0.00     0.277 C 
HETATM   30  C19 UNL     1      11.545  16.933   6.894  1.00  0.00     0.044 C 
HETATM   31  C20 UNL     1      11.060  18.237   7.463  1.00  0.00     0.030 C 
HETATM   32  C21 UNL     1      10.974  19.145   6.275  1.00  0.00     0.233 C 
HETATM   33  N4  UNL     1      11.584  18.495   5.158  1.00  0.00    -0.062 N 
ATOM     34  H42 UNL     1      12.216  19.111   4.647  1.00  0.00     0.278 HD
ATOM     35  H41 UNL     1      10.922  18.313   4.404  1.00  0.00     0.278 HD
ENDBRANCH  26  29
ENDBRANCH  24  25
BRANCH  24  36
HETATM   36  C22 UNL     1      16.330  16.518   8.073  1.00  0.00     0.009 C 
HETATM   37  C23 UNL     1      17.152  17.675   8.615  1.00  0.00     0.012 C 
HETATM   38  C24 UNL     1      15.040  16.467   8.915  1.00  0.00     0.012 C 
ENDBRANCH  24  36
ENDBRANCH   6  24
TORSDOF 10
ENDMDL
MODEL 2
REMARK VINA RESULT: -5.802525159      3.356      8.218
REMARK  10 active torsions:
REMARK  status: ('A' for Active; 'I' for Inactive)
REMARK    1  A    between atoms: C2_2  and  C4_4 
REMARK    2  A    between atoms: C5_5  and  C6_6 
REMARK    3  A    between atoms: C6_6  and  C9_9 
REMARK    4  A    between atoms: C9_9  and  N1_10 
REMARK    5  A    between atoms: C9_9  and  C25_36 
REMARK       I    between atoms: N1_10  and  C10_12 
REMARK    6  A    between atoms: C10_12  and  C11_14 
REMARK       I    between atoms: N2_18  and  C15_19 
REMARK    7  A    between atoms: C15_19  and  C16_21 
REMARK    8  A    between atoms: C16_21  and  N3_22 
REMARK    9  A    between atoms: C16_21  and  C22_33 
REMARK       I    between atoms: N3_22  and  C17_24 
REMARK   10  A    between atoms: C17_24  and  C18_26 
ROOT
HETATM    1  C11 UNL     1      16.551  12.704   2.253  1.00  0.00     0.179 C 
HETATM    2  C12 UNL     1      17.817  11.807   2.407  1.00  0.00     0.037 C 
HETATM    3  C13 UNL     1      17.242  10.473   1.977  1.00  0.00     0.022 C 
HETATM    4  C14 UNL     1      15.882  10.748   1.419  1.00  0.00     0.127 C 
HETATM    5  N2  UNL     1      16.046  12.179   1.056  1.00  0.00    -0.337 N 
HETATM    6  C15 UNL     1      15.682  12.663  -0.195  1.00  0.00     0.243 C 
HETATM    7  O2  UNL     1      15.685  13.887  -0.561  1.00  0.00    -0.271 OA
ENDROOT
BRANCH   1   8
HETATM    8  C10 UNL     1      16.875  14.091   2.422  1.00  0.00     0.241 C 
HETATM    9  N1  UNL     1      15.868  14.922   3.053  1.00  0.00    -0.353 N 
ATOM     10  H1  UNL     1      14.988  14.497   3.344  1.00  0.00     0.163 HD
HETATM   11  O1  UNL     1      17.912  14.707   2.104  1.00  0.00    -0.271 OA
BRANCH   9  12
HETATM   12  C9  UNL     1      16.079  16.348   3.282  1.00  0.00     0.107 C 
BRANCH  12  13
HETATM   13  C6  UNL     1      15.031  17.184   2.611  1.00  0.00     0.037 C 
HETATM   14  C7  UNL     1      15.511  18.644   2.526  1.00  0.00     0.031 C 
HETATM   15  C8  UNL     1      14.644  16.741   1.240  1.00  0.00     0.031 C 
BRANCH  13  16
HETATM   16  C5  UNL     1      13.831  17.229   3.450  1.00  0.00    -0.095 C 
HETATM   17  C4  UNL     1      12.830  17.289   4.144  1.00  0.00    -0.102 C 
BRANCH  17  18
HETATM   18  C2  UNL     1      11.636  17.370   4.995  1.00  0.00     0.057 C 
HETATM   19  C1  UNL     1      10.968  18.731   4.883  1.00  0.00     0.023 C 
HETATM   20  C3  UNL     1      11.978  17.169   6.457  1.00  0.00     0.023 C 
ENDBRANCH  17  18
ENDBRANCH  13  16
ENDBRANCH  12  13
BRANCH  12  21
HETATM   21  C25 UNL     1      16.361  16.696   4.703  1.00  0.00     0.002 C 
HETATM   22  C26 UNL     1      17.854  17.047   4.791  1.00  0.00     0.011 C 
HETATM   23  C27 UNL     1      15.998  15.672   5.718  1.00  0.00     0.011 C 
ENDBRANCH  12  21
ENDBRANCH   9  12
ENDBRANCH   1   8
BRANCH   6  24
HETATM   24  C16 UNL     1      15.223  11.741  -1.300  1.00  0.00     0.180 C 
BRANCH  24  25
HETATM   25  N3  UNL     1      13.949  12.216  -1.866  1.00  0.00    -0.346 N 
HETATM   26  C17 UNL     1      12.717  11.930  -1.248  1.00  0.00     0.249 C 
HETATM   27  O3  UNL     1      12.723  11.251  -0.191  1.00  0.00    -0.271 OA
ATOM     28  H3  UNL     1      13.959  12.765  -2.727  1.00  0.00     0.163 HD
BRANCH  26  29
HETATM   29  C18 UNL     1      11.409  12.386  -1.779  1.00  0.00     0.277 C 
HETATM   30  C19 UNL     1      11.177  12.015  -3.212  1.00  0.00     0.044 C 
HETATM   31  C20 UNL     1      10.431  10.711  -3.162  1.00  0.00     0.030 C 
HETATM   32  C21 UNL     1       9.792  10.707  -1.807  1.00  0.00     0.233 C 
HETATM   33  N4  UNL     1      10.318  11.799  -1.051  1.00  0.00    -0.062 N 
ATOM     34  H42 UNL     1      10.583  11.526  -0.105  1.00  0.00     0.278 HD
ATOM     35  H41 UNL     1       9.601  12.483  -0.806  1.00  0.00     0.278 HD
ENDBRANCH  26  29
ENDBRANCH  24  25
BRANCH  24  36
HETATM   36  C22 UNL     1      16.207  11.755  -2.467  1.00  0.00     0.009 C 
HETATM   37  C23 UNL     1      17.293  10.759  -2.096  1.00  0.00     0.012 C 
HETATM   38  C24 UNL     1      15.510  11.194  -3.722  1.00  0.00     0.012 C 
ENDBRANCH  24  36
ENDBRANCH   6  24
TORSDOF 10
ENDMDL
MODEL 3
REMARK VINA RESULT: -5.735432255      5.204      8.227
REMARK  10 active torsions:
REMARK  status: ('A' for Active; 'I' for Inactive)
REMARK    1  A    between atoms: C2_2  and  C4_4 
REMARK    2  A    between atoms: C5_5  and  C6_6 
REMARK    3  A    between atoms: C6_6  and  C9_9 
REMARK    4  A    between atoms: C9_9  and  N1_10 
REMARK    5  A    between atoms: C9_9  and  C25_36 
REMARK       I    between atoms: N1_10  and  C10_12 
REMARK    6  A    between atoms: C10_12  and  C11_14 
REMARK       I    between atoms: N2_18  and  C15_19 
REMARK    7  A    between atoms: C15_19  and  C16_21 
REMARK    8  A    between atoms: C16_21  and  N3_22 
REMARK    9  A    between atoms: C16_21  and  C22_33 
REMARK       I    between atoms: N3_22  and  C17_24 
REMARK   10  A    between atoms: C17_24  and  C18_26 
ROOT
HETATM    1  C11 UNL     1      15.300  11.841   0.590  1.00  0.00     0.179 C 
HETATM    2  C12 UNL     1      15.117  13.389   0.602  1.00  0.00     0.037 C 
HETATM    3  C13 UNL     1      15.577  13.692   2.013  1.00  0.00     0.022 C 
HETATM    4  C14 UNL     1      16.172  12.432   2.554  1.00  0.00     0.127 C 
HETATM    5  N2  UNL     1      16.516  11.750   1.279  1.00  0.00    -0.337 N 
HETATM    6  C15 UNL     1      17.773  11.198   1.061  1.00  0.00     0.243 C 
HETATM    7  O2  UNL     1      18.126  10.504   0.048  1.00  0.00    -0.271 OA
ENDROOT
BRANCH   1   8
HETATM    8  C10 UNL     1      15.108  11.306  -0.728  1.00  0.00     0.241 C 
HETATM    9  N1  UNL     1      15.166  12.250  -1.826  1.00  0.00    -0.353 N 
ATOM     10  H1  UNL     1      15.336  13.235  -1.624  1.00  0.00     0.163 HD
HETATM   11  O1  UNL     1      14.895  10.130  -1.083  1.00  0.00    -0.271 OA
BRANCH   9  12
HETATM   12  C9  UNL     1      14.987  11.831  -3.214  1.00  0.00     0.107 C 
BRANCH  12  13
HETATM   13  C6  UNL     1      13.759  12.433  -3.826  1.00  0.00     0.037 C 
HETATM   14  C7  UNL     1      13.905  13.965  -3.876  1.00  0.00     0.031 C 
HETATM   15  C8  UNL     1      13.430  11.954  -5.200  1.00  0.00     0.031 C 
BRANCH  13  16
HETATM   16  C5  UNL     1      12.609  12.191  -2.953  1.00  0.00    -0.095 C 
HETATM   17  C4  UNL     1      11.664  11.991  -2.207  1.00  0.00    -0.102 C 
BRANCH  17  18
HETATM   18  C2  UNL     1      10.534  11.731  -1.305  1.00  0.00     0.057 C 
HETATM   19  C1  UNL     1      11.012  11.364   0.090  1.00  0.00     0.023 C 
HETATM   20  C3  UNL     1       9.683  10.578  -1.796  1.00  0.00     0.023 C 
ENDBRANCH  17  18
ENDBRANCH  13  16
ENDBRANCH  12  13
BRANCH  12  21
HETATM   21  C25 UNL     1      16.225  11.925  -4.037  1.00  0.00     0.002 C 
HETATM   22  C26 UNL     1      16.667  10.488  -4.349  1.00  0.00     0.011 C 
HETATM   23  C27 UNL     1      17.347  12.708  -3.454  1.00  0.00     0.011 C 
ENDBRANCH  12  21
ENDBRANCH   9  12
ENDBRANCH   1   8
BRANCH   6  24
HETATM   24  C16 UNL     1      18.899  11.371   2.051  1.00  0.00     0.180 C 
BRANCH  24  25
HETATM   25  N3  UNL     1      19.359  10.060   2.540  1.00  0.00    -0.346 N 
HETATM   26  C17 UNL     1      18.803   9.467   3.689  1.00  0.00     0.249 C 
HETATM   27  O3  UNL     1      17.897  10.086   4.302  1.00  0.00    -0.271 OA
ATOM     28  H3  UNL     1      20.096   9.569   2.033  1.00  0.00     0.163 HD
BRANCH  26  29
HETATM   29  C18 UNL     1      19.231   8.149   4.219  1.00  0.00     0.277 C 
HETATM   30  C19 UNL     1      20.715   8.010   4.364  1.00  0.00     0.044 C 
HETATM   31  C20 UNL     1      21.008   8.408   5.783  1.00  0.00     0.030 C 
HETATM   32  C21 UNL     1      19.712   8.188   6.500  1.00  0.00     0.233 C 
HETATM   33  N4  UNL     1      18.696   7.917   5.532  1.00  0.00    -0.062 N 
ATOM     34  H42 UNL     1      17.843   8.449   5.705  1.00  0.00     0.278 HD
ATOM     35  H41 UNL     1      18.303   6.981   5.632  1.00  0.00     0.278 HD
ENDBRANCH  26  29
ENDBRANCH  24  25
BRANCH  24  36
HETATM   36  C22 UNL     1      20.121  11.997   1.384  1.00  0.00     0.009 C 
HETATM   37  C23 UNL     1      19.797  13.476   1.246  1.00  0.00     0.012 C 
HETATM   38  C24 UNL     1      21.324  11.902   2.343  1.00  0.00     0.012 C 
ENDBRANCH  24  36
ENDBRANCH   6  24
TORSDOF 10
ENDMDL
MODEL 4
REMARK VINA RESULT: -5.679509186      2.557      9.065
REMARK  10 active torsions:
REMARK  status: ('A' for Active; 'I' for Inactive)
REMARK    1  A    between atoms: C2_2  and  C4_4 
REMARK    2  A    between atoms: C5_5  and  C6_6 
REMARK    3  A    between atoms: C6_6  and  C9_9 
REMARK    4  A    between atoms: C9_9  and  N1_10 
REMARK    5  A    between atoms: C9_9  and  C25_36 
REMARK       I    between atoms: N1_10  and  C10_12 
REMARK    6  A    between atoms: C10_12  and  C11_14 
REMARK       I    between atoms: N2_18  and  C15_19 
REMARK    7  A    between atoms: C15_19  and  C16_21 
REMARK    8  A    between atoms: C16_21  and  N3_22 
REMARK    9  A    between atoms: C16_21  and  C22_33 
REMARK       I    between atoms: N3_22  and  C17_24 
REMARK   10  A    between atoms: C17_24  and  C18_26 
ROOT
HETATM    1  C11 UNL     1      14.835  17.380   7.806  1.00  0.00     0.179 C 
HETATM    2  C12 UNL     1      15.395  18.834   7.850  1.00  0.00     0.037 C 
HETATM    3  C13 UNL     1      16.794  18.588   7.326  1.00  0.00     0.022 C 
HETATM    4  C14 UNL     1      16.828  17.177   6.830  1.00  0.00     0.127 C 
HETATM    5  N2  UNL     1      15.378  16.964   6.584  1.00  0.00    -0.337 N 
HETATM    6  C15 UNL     1      14.910  16.433   5.388  1.00  0.00     0.243 C 
HETATM    7  O2  UNL     1      13.700  16.116   5.126  1.00  0.00    -0.271 OA
ENDROOT
BRANCH   1   8
HETATM    8  C10 UNL     1      13.426  17.359   8.081  1.00  0.00     0.241 C 
HETATM    9  N1  UNL     1      12.622  18.377   7.434  1.00  0.00    -0.353 N 
ATOM     10  H1  UNL     1      13.079  19.054   6.823  1.00  0.00     0.163 HD
HETATM   11  O1  UNL     1      12.772  16.584   8.807  1.00  0.00    -0.271 OA
BRANCH   9  12
HETATM   12  C9  UNL     1      11.178  18.460   7.633  1.00  0.00     0.107 C 
BRANCH  12  13
HETATM   13  C6  UNL     1      10.778  19.746   8.291  1.00  0.00     0.037 C 
HETATM   14  C7  UNL     1      11.497  20.922   7.606  1.00  0.00     0.031 C 
HETATM   15  C8  UNL     1       9.314  20.034   8.292  1.00  0.00     0.031 C 
BRANCH  13  16
HETATM   16  C5  UNL     1      11.262  19.759   9.672  1.00  0.00    -0.095 C 
HETATM   17  C4  UNL     1      11.686  19.757  10.817  1.00  0.00    -0.102 C 
BRANCH  17  18
HETATM   18  C2  UNL     1      12.190  19.736  12.197  1.00  0.00     0.057 C 
HETATM   19  C1  UNL     1      13.537  19.037  12.283  1.00  0.00     0.023 C 
HETATM   20  C3  UNL     1      11.249  18.993  13.123  1.00  0.00     0.023 C 
ENDBRANCH  17  18
ENDBRANCH  13  16
ENDBRANCH  12  13
BRANCH  12  21
HETATM   21  C25 UNL     1      10.380  18.080   6.433  1.00  0.00     0.002 C 
HETATM   22  C26 UNL     1       9.797  16.686   6.706  1.00  0.00     0.011 C 
HETATM   23  C27 UNL     1      11.095  18.108   5.129  1.00  0.00     0.011 C 
ENDBRANCH  12  21
ENDBRANCH   9  12
ENDBRANCH   1   8
BRANCH   6  24
HETATM   24  C16 UNL     1      15.832  16.164   4.223  1.00  0.00     0.180 C 
BRANCH  24  25
HETATM   25  N3  UNL     1      15.751  14.749   3.822  1.00  0.00    -0.346 N 
HETATM   26  C17 UNL     1      16.529  13.759   4.452  1.00  0.00     0.249 C 
HETATM   27  O3  UNL     1      17.308  14.110   5.374  1.00  0.00    -0.271 OA
ATOM     28  H3  UNL     1      15.116  14.480   3.070  1.00  0.00     0.163 HD
BRANCH  26  29
HETATM   29  C18 UNL     1      16.482  12.324   4.084  1.00  0.00     0.277 C 
HETATM   30  C19 UNL     1      16.070  12.078   2.664  1.00  0.00     0.044 C 
HETATM   31  C20 UNL     1      17.358  11.986   1.894  1.00  0.00     0.030 C 
HETATM   32  C21 UNL     1      18.375  11.609   2.926  1.00  0.00     0.233 C 
HETATM   33  N4  UNL     1      17.774  11.708   4.218  1.00  0.00    -0.062 N 
ATOM     34  H42 UNL     1      18.369  12.195   4.888  1.00  0.00     0.278 HD
ATOM     35  H41 UNL     1      17.728  10.808   4.697  1.00  0.00     0.278 HD
ENDBRANCH  26  29
ENDBRANCH  24  25
BRANCH  24  36
HETATM   36  C22 UNL     1      15.400  16.953   2.990  1.00  0.00     0.009 C 
HETATM   37  C23 UNL     1      16.645  17.685   2.517  1.00  0.00     0.012 C 
HETATM   38  C24 UNL     1      15.019  15.968   1.868  1.00  0.00     0.012 C 
ENDBRANCH  24  36
ENDBRANCH   6  24
TORSDOF 10
ENDMDL
MODEL 5
REMARK VINA RESULT: -5.528943194      2.474      8.687
REMARK  10 active torsions:
REMARK  status: ('A' for Active; 'I' for Inactive)
REMARK    1  A    between atoms: C2_2  and  C4_4 
REMARK    2  A    between atoms: C5_5  and  C6_6 
REMARK    3  A    between atoms: C6_6  and  C9_9 
REMARK    4  A    between atoms: C9_9  and  N1_10 
REMARK    5  A    between atoms: C9_9  and  C25_36 
REMARK       I    between atoms: N1_10  and  C10_12 
REMARK    6  A    between atoms: C10_12  and  C11_14 
REMARK       I    between atoms: N2_18  and  C15_19 
REMARK    7  A    between atoms: C15_19  and  C16_21 
REMARK    8  A    between atoms: C16_21  and  N3_22 
REMARK    9  A    between atoms: C16_21  and  C22_33 
REMARK       I    between atoms: N3_22  and  C17_24 
REMARK   10  A    between atoms: C17_24  and  C18_26 
ROOT
HETATM    1  C11 UNL     1      14.674  17.697   7.843  1.00  0.00     0.179 C 
HETATM    2  C12 UNL     1      15.150  19.181   7.867  1.00  0.00     0.037 C 
HETATM    3  C13 UNL     1      16.589  18.997   7.431  1.00  0.00     0.022 C 
HETATM    4  C14 UNL     1      16.728  17.576   6.988  1.00  0.00     0.127 C 
HETATM    5  N2  UNL     1      15.309  17.274   6.668  1.00  0.00    -0.337 N 
HETATM    6  C15 UNL     1      14.940  16.679   5.468  1.00  0.00     0.243 C 
HETATM    7  O2  UNL     1      13.766  16.286   5.150  1.00  0.00    -0.271 OA
ENDROOT
BRANCH   1   8
HETATM    8  C10 UNL     1      13.255  17.605   8.040  1.00  0.00     0.241 C 
HETATM    9  N1  UNL     1      12.434  18.544   7.301  1.00  0.00    -0.353 N 
ATOM     10  H1  UNL     1      12.887  19.219   6.685  1.00  0.00     0.163 HD
HETATM   11  O1  UNL     1      12.604  16.825   8.763  1.00  0.00    -0.271 OA
BRANCH   9  12
HETATM   12  C9  UNL     1      10.979  18.551   7.415  1.00  0.00     0.107 C 
BRANCH  12  13
HETATM   13  C6  UNL     1      10.456  19.898   7.817  1.00  0.00     0.037 C 
HETATM   14  C7  UNL     1      10.242  19.933   9.341  1.00  0.00     0.031 C 
HETATM   15  C8  UNL     1      11.317  21.055   7.441  1.00  0.00     0.031 C 
BRANCH  13  16
HETATM   16  C5  UNL     1       9.123  20.094   7.243  1.00  0.00    -0.095 C 
HETATM   17  C4  UNL     1       8.012  20.235   6.759  1.00  0.00    -0.102 C 
BRANCH  17  18
HETATM   18  C2  UNL     1       6.682  20.405   6.158  1.00  0.00     0.057 C 
HETATM   19  C1  UNL     1       6.681  19.998   4.694  1.00  0.00     0.023 C 
HETATM   20  C3  UNL     1       6.225  21.848   6.213  1.00  0.00     0.023 C 
ENDBRANCH  17  18
ENDBRANCH  13  16
ENDBRANCH  12  13
BRANCH  12  21
HETATM   21  C25 UNL     1      10.280  17.910   6.266  1.00  0.00     0.002 C 
HETATM   22  C26 UNL     1       9.703  16.582   6.776  1.00  0.00     0.011 C 
HETATM   23  C27 UNL     1      11.090  17.698   5.036  1.00  0.00     0.011 C 
ENDBRANCH  12  21
ENDBRANCH   9  12
ENDBRANCH   1   8
BRANCH   6  24
HETATM   24  C16 UNL     1      15.941  16.426   4.366  1.00  0.00     0.180 C 
BRANCH  24  25
HETATM   25  N3  UNL     1      15.869  15.023   3.921  1.00  0.00    -0.346 N 
HETATM   26  C17 UNL     1      16.511  13.992   4.632  1.00  0.00     0.249 C 
HETATM   27  O3  UNL     1      17.158  14.293   5.667  1.00  0.00    -0.271 OA
ATOM     28  H3  UNL     1      15.342  14.794   3.078  1.00  0.00     0.163 HD
BRANCH  26  29
HETATM   29  C18 UNL     1      16.467  12.566   4.225  1.00  0.00     0.277 C 
HETATM   30  C19 UNL     1      16.036  12.358   2.806  1.00  0.00     0.044 C 
HETATM   31  C20 UNL     1      17.312  12.296   2.014  1.00  0.00     0.030 C 
HETATM   32  C21 UNL     1      18.348  11.897   3.020  1.00  0.00     0.233 C 
HETATM   33  N4  UNL     1      17.765  11.956   4.323  1.00  0.00    -0.062 N 
ATOM     34  H42 UNL     1      18.367  12.428   4.998  1.00  0.00     0.278 HD
ATOM     35  H41 UNL     1      17.731  11.043   4.777  1.00  0.00     0.278 HD
ENDBRANCH  26  29
ENDBRANCH  24  25
BRANCH  24  36
HETATM   36  C22 UNL     1      15.612  17.254   3.127  1.00  0.00     0.009 C 
HETATM   37  C23 UNL     1      16.916  17.921   2.724  1.00  0.00     0.012 C 
HETATM   38  C24 UNL     1      15.231  16.306   1.973  1.00  0.00     0.012 C 
ENDBRANCH  24  36
ENDBRANCH   6  24
TORSDOF 10
ENDMDL
