MODEL 1
REMARK VINA RESULT: -11.121067602      0.000      0.000
REMARK  7 active torsions:
REMARK  status: ('A' for Active; 'I' for Inactive)
REMARK       I    between atoms: C1_2  and  N1_3 
REMARK    1  A    between atoms: C1_2  and  C22_30 
REMARK    2  A    between atoms: N1_3  and  C2_5 
REMARK    3  A    between atoms: C5_8  and  C6_9 
REMARK    4  A    between atoms: C6_9  and  C7_10 
REMARK    5  A    between atoms: C7_10  and  N2_11 
REMARK    6  A    between atoms: C10_14  and  N3_15 
REMARK    7  A    between atoms: C24_32  and  C25_33 
ROOT
HETATM    1  C2  UNL     1      27.897  13.210  -2.600  1.00  0.00     0.084 C 
HETATM    2  C3  UNL     1      28.403  12.696  -1.290  1.00  0.00     0.025 C 
HETATM    3  C4  UNL     1      27.331  11.820  -0.672  1.00  0.00     0.007 C 
HETATM    4  C5  UNL     1      26.972  10.660  -1.551  1.00  0.00    -0.013 C 
HETATM    5  C20 UNL     1      26.539  11.123  -2.931  1.00  0.00     0.007 C 
HETATM    6  C21 UNL     1      27.554  12.069  -3.534  1.00  0.00     0.025 C 
ENDROOT
BRANCH   4   7
HETATM    7  C6  UNL     1      28.053   9.625  -1.637  1.00  0.00     0.034 C 
BRANCH   7   8
HETATM    8  C7  UNL     1      27.552   8.210  -1.641  1.00  0.00     0.272 C 
BRANCH   8   9
HETATM    9  N2  UNL     1      28.127   7.402  -2.706  1.00  0.00     0.088 N 
HETATM   10  C8  UNL     1      27.165   6.461  -3.232  1.00  0.00     0.274 C 
HETATM   11  C9  UNL     1      26.223   7.127  -4.220  1.00  0.00     0.066 C 
HETATM   12  C10 UNL     1      26.941   7.654  -5.420  1.00  0.00     0.226 C 
HETATM   13  C18 UNL     1      28.420   7.780  -5.121  1.00  0.00     0.066 C 
HETATM   14  C19 UNL     1      28.562   8.349  -3.724  1.00  0.00     0.274 C 
BRANCH  12  15
HETATM   15  N3  UNL     1      26.676   6.924  -6.630  1.00  0.00     0.093 N 
HETATM   16  C11 UNL     1      25.922   7.699  -7.588  1.00  0.00     0.273 C 
HETATM   17  C12 UNL     1      25.433   6.759  -8.667  1.00  0.00     0.037 C 
HETATM   18  C13 UNL     1      26.641   6.263  -9.409  1.00  0.00     0.020 C 
HETATM   19  C14 UNL     1      26.195   5.099 -10.283  1.00  0.00     0.237 C 
HETATM   20  C16 UNL     1      27.591   5.609  -8.468  1.00  0.00     0.045 C 
HETATM   21  N4  UNL     1      26.587   3.895  -9.618  1.00  0.00    -0.074 N 
HETATM   22  C15 UNL     1      26.986   4.242  -8.267  1.00  0.00     0.239 C 
ATOM     23  H42 UNL     1      25.865   3.175  -9.644  1.00  0.00     0.277 HD
ATOM     24  H41 UNL     1      27.308   3.380 -10.124  1.00  0.00     0.277 HD
HETATM   25  C17 UNL     1      27.865   6.344  -7.205  1.00  0.00     0.279 C 
ENDBRANCH  12  15
ENDBRANCH   8   9
ENDBRANCH   7   8
ENDBRANCH   4   7
BRANCH   1  26
HETATM   26  N1  UNL     1      28.915  14.008  -3.215  1.00  0.00    -0.356 N 
HETATM   27  C1  UNL     1      28.996  15.413  -3.037  1.00  0.00     0.222 C 
HETATM   28  O1  UNL     1      28.168  16.050  -2.320  1.00  0.00    -0.273 OA
ATOM     29  H1  UNL     1      29.609  13.547  -3.804  1.00  0.00     0.162 HD
BRANCH  27  30
HETATM   30  C22 UNL     1      30.068  16.201  -3.694  1.00  0.00     0.087 A 
HETATM   31  C23 UNL     1      31.050  15.418  -4.504  1.00  0.00     0.025 A 
HETATM   32  C24 UNL     1      30.064  16.353  -5.177  1.00  0.00     0.034 A 
BRANCH  32  33
HETATM   33  C25 UNL     1      30.613  17.638  -5.694  1.00  0.00    -0.038 A 
HETATM   34  C26 UNL     1      29.797  18.713  -5.963  1.00  0.00     0.010 A 
HETATM   35  C27 UNL     1      30.391  19.859  -6.437  1.00  0.00     0.018 A 
HETATM   36  C28 UNL     1      31.740  19.992  -6.658  1.00  0.00     0.087 A 
HETATM   37  N5  UNL     1      32.521  18.922  -6.386  1.00  0.00    -0.375 N 
HETATM   38  C29 UNL     1      31.967  17.776  -5.916  1.00  0.00     0.095 A 
ATOM     39  H5  UNL     1      33.528  18.977  -6.535  1.00  0.00     0.164 HD
ENDBRANCH  32  33
ENDBRANCH  27  30
ENDBRANCH   1  26
TORSDOF 7
ENDMDL
MODEL 2
REMARK VINA RESULT: -11.064758120      0.602      1.067
REMARK  7 active torsions:
REMARK  status: ('A' for Active; 'I' for Inactive)
REMARK       I    between atoms: C1_2  and  N1_3 
REMARK    1  A    between atoms: C1_2  and  C22_30 
REMARK    2  A    between atoms: N1_3  and  C2_5 
REMARK    3  A    between atoms: C5_8  and  C6_9 
REMARK    4  A    between atoms: C6_9  and  C7_10 
REMARK    5  A    between atoms: C7_10  and  N2_11 
REMARK    6  A    between atoms: C10_14  and  N3_15 
REMARK    7  A    between atoms: C24_32  and  C25_33 
ROOT
HETATM    1  C2  UNL     1      27.900  13.197  -2.504  1.00  0.00     0.084 C 
HETATM    2  C3  UNL     1      28.418  12.673  -1.203  1.00  0.00     0.025 C 
HETATM    3  C4  UNL     1      27.351  11.795  -0.580  1.00  0.00     0.007 C 
HETATM    4  C5  UNL     1      26.981  10.642  -1.463  1.00  0.00    -0.013 C 
HETATM    5  C20 UNL     1      26.534  11.115  -2.836  1.00  0.00     0.007 C 
HETATM    6  C21 UNL     1      27.546  12.062  -3.443  1.00  0.00     0.025 C 
ENDROOT
BRANCH   4   7
HETATM    7  C6  UNL     1      28.058   9.605  -1.566  1.00  0.00     0.034 C 
BRANCH   7   8
HETATM    8  C7  UNL     1      27.550   8.199  -1.693  1.00  0.00     0.272 C 
BRANCH   8   9
HETATM    9  N2  UNL     1      28.216   7.440  -2.740  1.00  0.00     0.088 N 
HETATM   10  C8  UNL     1      27.344   6.432  -3.298  1.00  0.00     0.274 C 
HETATM   11  C9  UNL     1      26.386   7.030  -4.313  1.00  0.00     0.066 C 
HETATM   12  C10 UNL     1      27.099   7.614  -5.490  1.00  0.00     0.226 C 
HETATM   13  C18 UNL     1      28.554   7.849  -5.144  1.00  0.00     0.066 C 
HETATM   14  C19 UNL     1      28.610   8.421  -3.743  1.00  0.00     0.274 C 
BRANCH  12  15
HETATM   15  N3  UNL     1      26.927   6.871  -6.709  1.00  0.00     0.093 N 
HETATM   16  C11 UNL     1      28.128   6.167  -7.098  1.00  0.00     0.273 C 
HETATM   17  C12 UNL     1      27.946   5.689  -8.521  1.00  0.00     0.037 C 
HETATM   18  C13 UNL     1      26.855   4.656  -8.510  1.00  0.00     0.020 C 
HETATM   19  C14 UNL     1      26.458   4.394  -9.956  1.00  0.00     0.237 C 
HETATM   20  C16 UNL     1      25.608   5.230  -7.936  1.00  0.00     0.045 C 
HETATM   21  N4  UNL     1      25.245   5.112 -10.200  1.00  0.00    -0.074 N 
HETATM   22  C15 UNL     1      25.034   6.018  -9.087  1.00  0.00     0.239 C 
ATOM     23  H42 UNL     1      25.242   5.587 -11.103  1.00  0.00     0.277 HD
ATOM     24  H41 UNL     1      24.449   4.498 -10.367  1.00  0.00     0.277 HD
HETATM   25  C17 UNL     1      25.768   6.013  -6.683  1.00  0.00     0.279 C 
ENDBRANCH  12  15
ENDBRANCH   8   9
ENDBRANCH   7   8
ENDBRANCH   4   7
BRANCH   1  26
HETATM   26  N1  UNL     1      28.915  13.996  -3.125  1.00  0.00    -0.356 N 
HETATM   27  C1  UNL     1      28.999  15.400  -2.941  1.00  0.00     0.222 C 
HETATM   28  O1  UNL     1      28.177  16.035  -2.214  1.00  0.00    -0.273 OA
ATOM     29  H1  UNL     1      29.603  13.538  -3.721  1.00  0.00     0.162 HD
BRANCH  27  30
HETATM   30  C22 UNL     1      30.065  16.190  -3.603  1.00  0.00     0.087 A 
HETATM   31  C23 UNL     1      31.081  15.403  -4.365  1.00  0.00     0.025 A 
HETATM   32  C24 UNL     1      30.089  16.292  -5.090  1.00  0.00     0.034 A 
BRANCH  32  33
HETATM   33  C25 UNL     1      30.620  17.570  -5.640  1.00  0.00    -0.038 A 
HETATM   34  C26 UNL     1      29.784  18.614  -5.968  1.00  0.00     0.010 A 
HETATM   35  C27 UNL     1      30.363  19.757  -6.470  1.00  0.00     0.018 A 
HETATM   36  C28 UNL     1      31.712  19.916  -6.661  1.00  0.00     0.087 A 
HETATM   37  N5  UNL     1      32.512  18.877  -6.332  1.00  0.00    -0.375 N 
HETATM   38  C29 UNL     1      31.975  17.735  -5.834  1.00  0.00     0.095 A 
ATOM     39  H5  UNL     1      33.521  18.952  -6.458  1.00  0.00     0.164 HD
ENDBRANCH  32  33
ENDBRANCH  27  30
ENDBRANCH   1  26
TORSDOF 7
ENDMDL
MODEL 3
REMARK VINA RESULT: -10.990163548      1.004      1.055
REMARK  7 active torsions:
REMARK  status: ('A' for Active; 'I' for Inactive)
REMARK       I    between atoms: C1_2  and  N1_3 
REMARK    1  A    between atoms: C1_2  and  C22_30 
REMARK    2  A    between atoms: N1_3  and  C2_5 
REMARK    3  A    between atoms: C5_8  and  C6_9 
REMARK    4  A    between atoms: C6_9  and  C7_10 
REMARK    5  A    between atoms: C7_10  and  N2_11 
REMARK    6  A    between atoms: C10_14  and  N3_15 
REMARK    7  A    between atoms: C24_32  and  C25_33 
ROOT
HETATM    1  C2  UNL     1      28.042  13.316  -2.580  1.00  0.00     0.084 C 
HETATM    2  C3  UNL     1      28.442  12.740  -1.259  1.00  0.00     0.025 C 
HETATM    3  C4  UNL     1      27.307  11.876  -0.749  1.00  0.00     0.007 C 
HETATM    4  C5  UNL     1      26.977  10.759  -1.692  1.00  0.00    -0.013 C 
HETATM    5  C20 UNL     1      26.652  11.284  -3.081  1.00  0.00     0.007 C 
HETATM    6  C21 UNL     1      27.732  12.219  -3.578  1.00  0.00     0.025 C 
ENDROOT
BRANCH   4   7
HETATM    7  C6  UNL     1      28.031   9.695  -1.745  1.00  0.00     0.034 C 
BRANCH   7   8
HETATM    8  C7  UNL     1      27.495   8.294  -1.722  1.00  0.00     0.272 C 
BRANCH   8   9
HETATM    9  N2  UNL     1      28.056   7.448  -2.763  1.00  0.00     0.088 N 
HETATM   10  C8  UNL     1      27.072   6.527  -3.283  1.00  0.00     0.274 C 
HETATM   11  C9  UNL     1      26.162   7.201  -4.294  1.00  0.00     0.066 C 
HETATM   12  C10 UNL     1      26.909   7.683  -5.496  1.00  0.00     0.226 C 
HETATM   13  C18 UNL     1      28.388   7.769  -5.181  1.00  0.00     0.066 C 
HETATM   14  C19 UNL     1      28.532   8.361  -3.795  1.00  0.00     0.274 C 
BRANCH  12  15
HETATM   15  N3  UNL     1      26.636   6.937  -6.695  1.00  0.00     0.093 N 
HETATM   16  C11 UNL     1      25.847   7.689  -7.644  1.00  0.00     0.273 C 
HETATM   17  C12 UNL     1      25.357   6.730  -8.705  1.00  0.00     0.037 C 
HETATM   18  C13 UNL     1      26.560   6.252  -9.467  1.00  0.00     0.020 C 
HETATM   19  C14 UNL     1      26.121   5.072 -10.323  1.00  0.00     0.237 C 
HETATM   20  C16 UNL     1      27.541   5.626  -8.540  1.00  0.00     0.045 C 
HETATM   21  N4  UNL     1      26.550   3.882  -9.656  1.00  0.00    -0.074 N 
HETATM   22  C15 UNL     1      26.968   4.249  -8.316  1.00  0.00     0.239 C 
ATOM     23  H42 UNL     1      25.842   3.147  -9.662  1.00  0.00     0.277 HD
ATOM     24  H41 UNL     1      27.272   3.378 -10.172  1.00  0.00     0.277 HD
HETATM   25  C17 UNL     1      27.825   6.376  -7.288  1.00  0.00     0.279 C 
ENDBRANCH  12  15
ENDBRANCH   8   9
ENDBRANCH   7   8
ENDBRANCH   4   7
BRANCH   1  26
HETATM   26  N1  UNL     1      29.122  14.104  -3.095  1.00  0.00    -0.356 N 
HETATM   27  C1  UNL     1      29.187  15.511  -2.929  1.00  0.00     0.222 C 
HETATM   28  O1  UNL     1      28.288  16.159  -2.313  1.00  0.00    -0.273 OA
ATOM     29  H1  UNL     1      29.873  13.634  -3.600  1.00  0.00     0.162 HD
BRANCH  27  30
HETATM   30  C22 UNL     1      30.324  16.289  -3.479  1.00  0.00     0.087 A 
HETATM   31  C23 UNL     1      30.664  16.022  -4.910  1.00  0.00     0.025 A 
HETATM   32  C24 UNL     1      30.066  17.351  -4.493  1.00  0.00     0.034 A 
BRANCH  32  33
HETATM   33  C25 UNL     1      30.993  18.516  -4.455  1.00  0.00    -0.038 A 
HETATM   34  C26 UNL     1      31.430  19.050  -3.264  1.00  0.00     0.010 A 
HETATM   35  C27 UNL     1      32.286  20.126  -3.326  1.00  0.00     0.018 A 
HETATM   36  C28 UNL     1      32.724  20.694  -4.496  1.00  0.00     0.087 A 
HETATM   37  N5  UNL     1      32.280  20.152  -5.652  1.00  0.00    -0.375 N 
HETATM   38  C29 UNL     1      31.436  19.090  -5.628  1.00  0.00     0.095 A 
ATOM     39  H5  UNL     1      32.581  20.543  -6.545  1.00  0.00     0.164 HD
ENDBRANCH  32  33
ENDBRANCH  27  30
ENDBRANCH   1  26
TORSDOF 7
ENDMDL
MODEL 4
REMARK VINA RESULT: -10.881174076      1.154      1.545
REMARK  7 active torsions:
REMARK  status: ('A' for Active; 'I' for Inactive)
REMARK       I    between atoms: C1_2  and  N1_3 
REMARK    1  A    between atoms: C1_2  and  C22_30 
REMARK    2  A    between atoms: N1_3  and  C2_5 
REMARK    3  A    between atoms: C5_8  and  C6_9 
REMARK    4  A    between atoms: C6_9  and  C7_10 
REMARK    5  A    between atoms: C7_10  and  N2_11 
REMARK    6  A    between atoms: C10_14  and  N3_15 
REMARK    7  A    between atoms: C24_32  and  C25_33 
ROOT
HETATM    1  C2  UNL     1      28.040  13.321  -2.546  1.00  0.00     0.084 C 
HETATM    2  C3  UNL     1      28.473  12.768  -1.226  1.00  0.00     0.025 C 
HETATM    3  C4  UNL     1      27.352  11.911  -0.674  1.00  0.00     0.007 C 
HETATM    4  C5  UNL     1      27.001  10.778  -1.590  1.00  0.00    -0.013 C 
HETATM    5  C20 UNL     1      26.641  11.280  -2.979  1.00  0.00     0.007 C 
HETATM    6  C21 UNL     1      27.708  12.207  -3.517  1.00  0.00     0.025 C 
ENDROOT
BRANCH   4   7
HETATM    7  C6  UNL     1      28.055   9.715  -1.650  1.00  0.00     0.034 C 
BRANCH   7   8
HETATM    8  C7  UNL     1      27.518   8.323  -1.802  1.00  0.00     0.272 C 
BRANCH   8   9
HETATM    9  N2  UNL     1      28.229   7.540  -2.801  1.00  0.00     0.088 N 
HETATM   10  C8  UNL     1      27.359   6.578  -3.437  1.00  0.00     0.274 C 
HETATM   11  C9  UNL     1      26.514   7.228  -4.519  1.00  0.00     0.066 C 
HETATM   12  C10 UNL     1      27.345   7.785  -5.629  1.00  0.00     0.226 C 
HETATM   13  C18 UNL     1      28.778   7.948  -5.166  1.00  0.00     0.066 C 
HETATM   14  C19 UNL     1      28.748   8.507  -3.759  1.00  0.00     0.274 C 
BRANCH  12  15
HETATM   15  N3  UNL     1      27.237   7.059  -6.866  1.00  0.00     0.093 N 
HETATM   16  C11 UNL     1      28.161   5.951  -6.937  1.00  0.00     0.273 C 
HETATM   17  C12 UNL     1      28.191   5.460  -8.366  1.00  0.00     0.037 C 
HETATM   18  C13 UNL     1      26.838   4.880  -8.668  1.00  0.00     0.020 C 
HETATM   19  C14 UNL     1      26.758   4.665 -10.173  1.00  0.00     0.237 C 
HETATM   20  C16 UNL     1      25.778   5.897  -8.435  1.00  0.00     0.045 C 
HETATM   21  N4  UNL     1      25.989   5.742 -10.715  1.00  0.00    -0.074 N 
HETATM   22  C15 UNL     1      25.840   6.747  -9.679  1.00  0.00     0.239 C 
ATOM     23  H42 UNL     1      26.387   6.118 -11.576  1.00  0.00     0.277 HD
ATOM     24  H41 UNL     1      25.096   5.436 -11.102  1.00  0.00     0.277 HD
HETATM   25  C17 UNL     1      25.882   6.667  -7.167  1.00  0.00     0.279 C 
ENDBRANCH  12  15
ENDBRANCH   8   9
ENDBRANCH   7   8
ENDBRANCH   4   7
BRANCH   1  26
HETATM   26  N1  UNL     1      29.106  14.101  -3.100  1.00  0.00    -0.356 N 
HETATM   27  C1  UNL     1      29.191  15.507  -2.931  1.00  0.00     0.222 C 
HETATM   28  O1  UNL     1      28.324  16.160  -2.277  1.00  0.00    -0.273 OA
ATOM     29  H1  UNL     1      29.832  13.627  -3.637  1.00  0.00     0.162 HD
BRANCH  27  30
HETATM   30  C22 UNL     1      30.313  16.277  -3.522  1.00  0.00     0.087 A 
HETATM   31  C23 UNL     1      30.536  16.082  -4.987  1.00  0.00     0.025 A 
HETATM   32  C24 UNL     1      30.020  17.404  -4.453  1.00  0.00     0.034 A 
BRANCH  32  33
HETATM   33  C25 UNL     1      30.991  18.533  -4.423  1.00  0.00    -0.038 A 
HETATM   34  C26 UNL     1      31.405  19.094  -3.235  1.00  0.00     0.010 A 
HETATM   35  C27 UNL     1      32.304  20.133  -3.304  1.00  0.00     0.018 A 
HETATM   36  C28 UNL     1      32.807  20.640  -4.476  1.00  0.00     0.087 A 
HETATM   37  N5  UNL     1      32.385  20.073  -5.628  1.00  0.00    -0.375 N 
HETATM   38  C29 UNL     1      31.499  19.046  -5.598  1.00  0.00     0.095 A 
ATOM     39  H5  UNL     1      32.732  20.418  -6.522  1.00  0.00     0.164 HD
ENDBRANCH  32  33
ENDBRANCH  27  30
ENDBRANCH   1  26
TORSDOF 7
ENDMDL
MODEL 5
REMARK VINA RESULT: -10.700759603      2.236     10.866
REMARK  7 active torsions:
REMARK  status: ('A' for Active; 'I' for Inactive)
REMARK       I    between atoms: C1_2  and  N1_3 
REMARK    1  A    between atoms: C1_2  and  C22_30 
REMARK    2  A    between atoms: N1_3  and  C2_5 
REMARK    3  A    between atoms: C5_8  and  C6_9 
REMARK    4  A    between atoms: C6_9  and  C7_10 
REMARK    5  A    between atoms: C7_10  and  N2_11 
REMARK    6  A    between atoms: C10_14  and  N3_15 
REMARK    7  A    between atoms: C24_32  and  C25_33 
ROOT
HETATM    1  C2  UNL     1      27.564   8.409  -1.883  1.00  0.00     0.084 C 
HETATM    2  C3  UNL     1      26.394   8.979  -1.147  1.00  0.00     0.025 C 
HETATM    3  C4  UNL     1      26.913   9.814   0.006  1.00  0.00     0.007 C 
HETATM    4  C5  UNL     1      27.795  10.933  -0.457  1.00  0.00    -0.013 C 
HETATM    5  C20 UNL     1      28.954  10.416  -1.292  1.00  0.00     0.007 C 
HETATM    6  C21 UNL     1      28.467   9.509  -2.400  1.00  0.00     0.025 C 
ENDROOT
BRANCH   4   7
HETATM    7  C6  UNL     1      27.050  12.019  -1.171  1.00  0.00     0.034 C 
BRANCH   7   8
HETATM    8  C7  UNL     1      27.774  13.333  -1.222  1.00  0.00     0.272 C 
BRANCH   8   9
HETATM    9  N2  UNL     1      27.740  13.956  -2.536  1.00  0.00     0.088 N 
HETATM   10  C8  UNL     1      27.818  15.396  -2.440  1.00  0.00     0.274 C 
HETATM   11  C9  UNL     1      29.249  15.860  -2.235  1.00  0.00     0.066 C 
HETATM   12  C10 UNL     1      30.131  15.504  -3.388  1.00  0.00     0.226 C 
HETATM   13  C18 UNL     1      29.480  14.415  -4.215  1.00  0.00     0.066 C 
HETATM   14  C19 UNL     1      28.879  13.406  -3.259  1.00  0.00     0.274 C 
BRANCH  12  15
HETATM   15  N3  UNL     1      30.547  16.631  -4.178  1.00  0.00     0.093 N 
HETATM   16  C11 UNL     1      29.981  16.611  -5.508  1.00  0.00     0.273 C 
HETATM   17  C12 UNL     1      30.714  17.638  -6.341  1.00  0.00     0.037 C 
HETATM   18  C13 UNL     1      30.381  18.991  -5.779  1.00  0.00     0.020 C 
HETATM   19  C14 UNL     1      31.338  19.995  -6.405  1.00  0.00     0.237 C 
HETATM   20  C16 UNL     1      30.750  19.055  -4.338  1.00  0.00     0.045 C 
HETATM   21  N4  UNL     1      32.356  20.271  -5.439  1.00  0.00    -0.074 N 
HETATM   22  C15 UNL     1      32.240  19.288  -4.377  1.00  0.00     0.239 C 
ATOM     23  H42 UNL     1      33.290  20.304  -5.847  1.00  0.00     0.277 HD
ATOM     24  H41 UNL     1      32.326  21.231  -5.095  1.00  0.00     0.277 HD
HETATM   25  C17 UNL     1      30.339  17.891  -3.509  1.00  0.00     0.279 C 
ENDBRANCH  12  15
ENDBRANCH   8   9
ENDBRANCH   7   8
ENDBRANCH   4   7
BRANCH   1  26
HETATM   26  N1  UNL     1      27.089   7.650  -3.002  1.00  0.00    -0.356 N 
HETATM   27  C1  UNL     1      27.472   6.303  -3.227  1.00  0.00     0.222 C 
HETATM   28  O1  UNL     1      28.261   5.687  -2.450  1.00  0.00    -0.273 OA
ATOM     29  H1  UNL     1      26.451   8.095  -3.661  1.00  0.00     0.162 HD
BRANCH  27  30
HETATM   30  C22 UNL     1      26.957   5.553  -4.399  1.00  0.00     0.087 A 
HETATM   31  C23 UNL     1      25.484   5.647  -4.637  1.00  0.00     0.025 A 
HETATM   32  C24 UNL     1      26.464   6.301  -5.592  1.00  0.00     0.034 A 
BRANCH  32  33
HETATM   33  C25 UNL     1      26.666   5.626  -6.904  1.00  0.00    -0.038 A 
HETATM   34  C26 UNL     1      26.407   6.271  -8.092  1.00  0.00     0.010 A 
HETATM   35  C27 UNL     1      26.622   5.569  -9.256  1.00  0.00     0.018 A 
HETATM   36  C28 UNL     1      27.075   4.275  -9.301  1.00  0.00     0.087 A 
HETATM   37  N5  UNL     1      27.323   3.663  -8.121  1.00  0.00    -0.375 N 
HETATM   38  C29 UNL     1      27.122   4.326  -6.954  1.00  0.00     0.095 A 
ATOM     39  H5  UNL     1      27.661   2.701  -8.107  1.00  0.00     0.164 HD
ENDBRANCH  32  33
ENDBRANCH  27  30
ENDBRANCH   1  26
TORSDOF 7
ENDMDL
