MODEL 1
REMARK VINA RESULT: -10.328438888      0.000      0.000
REMARK  6 active torsions:
REMARK  status: ('A' for Active; 'I' for Inactive)
REMARK    1  A    between atoms: C2_2  and  O1_3 
REMARK    2  A    between atoms: O1_3  and  C3_4 
REMARK    3  A    between atoms: C9_10  and  C10_11 
REMARK    4  A    between atoms: N1_14  and  S1_15 
REMARK    5  A    between atoms: S1_15  and  C13_18 
REMARK    6  A    between atoms: C13_18  and  C14_19 
ROOT
HETATM    1  S1  UNL     1      28.724  16.205  -2.936  1.00  0.00     0.214 S 
HETATM    2  O2  UNL     1      28.074  17.317  -2.227  1.00  0.00    -0.211 OA
HETATM    3  O3  UNL     1      29.999  15.750  -2.287  1.00  0.00    -0.211 OA
ENDROOT
BRANCH   1   4
HETATM    4  N1  UNL     1      27.633  14.836  -2.812  1.00  0.00    -0.211 NA
HETATM    5  C12 UNL     1      27.786  14.209  -1.537  1.00  0.00     0.107 C 
HETATM    6  C11 UNL     1      27.261  12.774  -1.681  1.00  0.00     0.020 C 
HETATM    7  C10 UNL     1      28.327  12.017  -2.432  1.00  0.00    -0.006 C 
HETATM    8  C24 UNL     1      28.707  12.808  -3.645  1.00  0.00     0.020 C 
HETATM    9  C23 UNL     1      27.753  13.959  -3.929  1.00  0.00     0.107 C 
BRANCH   7  10
HETATM   10  C9  UNL     1      27.931  10.597  -2.754  1.00  0.00     0.019 C 
HETATM   11  C3  UNL     1      27.005  10.095  -1.698  1.00  0.00     0.125 C 
HETATM   12  C4  UNL     1      26.359   8.767  -2.085  1.00  0.00     0.032 C 
HETATM   13  C5  UNL     1      25.328   8.897  -3.156  1.00  0.00     0.002 C 
HETATM   14  C6  UNL     1      25.895   8.484  -4.497  1.00  0.00     0.000 C 
HETATM   15  C7  UNL     1      27.324   9.026  -4.570  1.00  0.00     0.000 C 
HETATM   16  C8  UNL     1      27.337  10.476  -4.137  1.00  0.00     0.007 C 
BRANCH  11  17
HETATM   17  O1  UNL     1      27.727   9.798  -0.521  1.00  0.00    -0.386 OA
BRANCH  17  18
HETATM   18  C2  UNL     1      26.887   9.549   0.542  1.00  0.00     0.163 C 
HETATM   19  C1  UNL     1      26.498  10.775   1.298  1.00  0.00     0.033 C 
ENDBRANCH  17  18
ENDBRANCH  11  17
ENDBRANCH   7  10
ENDBRANCH   1   4
BRANCH   1  20
HETATM   20  C13 UNL     1      28.922  16.494  -4.671  1.00  0.00     0.199 C 
BRANCH  20  21
HETATM   21  C14 UNL     1      29.193  17.920  -5.044  1.00  0.00     0.175 C 
HETATM   22  C15 UNL     1      27.838  18.589  -5.102  1.00  0.00     0.050 C 
HETATM   23  C16 UNL     1      30.011  18.655  -3.985  1.00  0.00     0.077 C 
HETATM   24  C17 UNL     1      30.938  19.585  -4.701  1.00  0.00     0.085 C 
HETATM   25  C18 UNL     1      32.384  19.176  -4.712  1.00  0.00     0.037 C 
HETATM   26  C21 UNL     1      30.497  19.482  -6.144  1.00  0.00     0.355 C 
HETATM   27  N4  UNL     1      30.719  20.974  -4.404  1.00  0.00    -0.330 N 
HETATM   28  C19 UNL     1      32.519  18.134  -5.820  1.00  0.00     0.033 C 
HETATM   29  C20 UNL     1      31.253  17.317  -5.915  1.00  0.00     0.276 C 
HETATM   30  N2  UNL     1      30.045  18.124  -6.165  1.00  0.00     0.124 N 
HETATM   31  N3  UNL     1      29.626  20.544  -6.348  1.00  0.00    -0.311 N 
HETATM   32  C22 UNL     1      29.655  21.428  -5.250  1.00  0.00     0.318 C 
ATOM     33  H3  UNL     1      29.046  20.669  -7.177  1.00  0.00     0.166 HD
HETATM   34  O4  UNL     1      28.900  22.438  -5.028  1.00  0.00    -0.247 OA
ATOM     35  H4  UNL     1      31.227  21.533  -3.718  1.00  0.00     0.165 HD
ENDBRANCH  20  21
ENDBRANCH   1  20
TORSDOF 6
ENDMDL
MODEL 2
REMARK VINA RESULT: -10.294559751      5.647     10.101
REMARK  6 active torsions:
REMARK  status: ('A' for Active; 'I' for Inactive)
REMARK    1  A    between atoms: C2_2  and  O1_3 
REMARK    2  A    between atoms: O1_3  and  C3_4 
REMARK    3  A    between atoms: C9_10  and  C10_11 
REMARK    4  A    between atoms: N1_14  and  S1_15 
REMARK    5  A    between atoms: S1_15  and  C13_18 
REMARK    6  A    between atoms: C13_18  and  C14_19 
ROOT
HETATM    1  S1  UNL     1      26.669   6.768  -3.925  1.00  0.00     0.214 S 
HETATM    2  O2  UNL     1      28.039   6.246  -4.039  1.00  0.00    -0.211 OA
HETATM    3  O3  UNL     1      25.663   5.720  -3.547  1.00  0.00    -0.211 OA
ENDROOT
BRANCH   1   4
HETATM    4  N1  UNL     1      26.680   7.897  -2.583  1.00  0.00    -0.211 NA
HETATM    5  C12 UNL     1      25.839   9.012  -2.881  1.00  0.00     0.107 C 
HETATM    6  C11 UNL     1      26.296  10.170  -1.982  1.00  0.00     0.020 C 
HETATM    7  C10 UNL     1      27.575  10.685  -2.591  1.00  0.00    -0.006 C 
HETATM    8  C24 UNL     1      28.483   9.522  -2.847  1.00  0.00     0.020 C 
HETATM    9  C23 UNL     1      28.007   8.238  -2.187  1.00  0.00     0.107 C 
BRANCH   7  10
HETATM   10  C9  UNL     1      28.226  11.772  -1.771  1.00  0.00     0.019 C 
HETATM   11  C3  UNL     1      27.306  12.943  -1.689  1.00  0.00     0.125 C 
HETATM   12  C4  UNL     1      27.779  13.975  -0.669  1.00  0.00     0.032 C 
HETATM   13  C5  UNL     1      27.605  13.534   0.747  1.00  0.00     0.002 C 
HETATM   14  C6  UNL     1      28.918  13.047   1.319  1.00  0.00     0.000 C 
HETATM   15  C7  UNL     1      29.622  12.246   0.220  1.00  0.00     0.000 C 
HETATM   16  C8  UNL     1      28.641  11.278  -0.406  1.00  0.00     0.007 C 
BRANCH  11  17
HETATM   17  O1  UNL     1      27.305  13.644  -2.915  1.00  0.00    -0.386 OA
BRANCH  17  18
HETATM   18  C2  UNL     1      28.237  14.660  -2.921  1.00  0.00     0.163 C 
HETATM   19  C1  UNL     1      29.347  14.447  -3.896  1.00  0.00     0.033 C 
ENDBRANCH  17  18
ENDBRANCH  11  17
ENDBRANCH   7  10
ENDBRANCH   1   4
BRANCH   1  20
HETATM   20  C13 UNL     1      26.155   7.712  -5.331  1.00  0.00     0.199 C 
BRANCH  20  21
HETATM   21  C14 UNL     1      26.250   6.992  -6.642  1.00  0.00     0.175 C 
HETATM   22  C15 UNL     1      25.625   5.635  -6.406  1.00  0.00     0.050 C 
HETATM   23  C16 UNL     1      25.441   7.673  -7.743  1.00  0.00     0.077 C 
HETATM   24  C17 UNL     1      26.210   7.532  -9.017  1.00  0.00     0.085 C 
HETATM   25  C18 UNL     1      26.869   8.788  -9.516  1.00  0.00     0.037 C 
HETATM   26  C21 UNL     1      27.355   6.619  -8.639  1.00  0.00     0.355 C 
HETATM   27  N4  UNL     1      25.528   6.779 -10.033  1.00  0.00    -0.330 N 
HETATM   28  C19 UNL     1      28.159   8.934  -8.714  1.00  0.00     0.033 C 
HETATM   29  C20 UNL     1      27.958   8.406  -7.313  1.00  0.00     0.276 C 
HETATM   30  N2  UNL     1      27.527   6.997  -7.270  1.00  0.00     0.124 N 
HETATM   31  N3  UNL     1      26.951   5.341  -9.000  1.00  0.00    -0.311 N 
HETATM   32  C22 UNL     1      25.770   5.391  -9.768  1.00  0.00     0.318 C 
ATOM     33  H3  UNL     1      27.440   4.483  -8.744  1.00  0.00     0.166 HD
HETATM   34  O4  UNL     1      25.042   4.415 -10.163  1.00  0.00    -0.247 OA
ATOM     35  H4  UNL     1      24.976   7.161 -10.801  1.00  0.00     0.165 HD
ENDBRANCH  20  21
ENDBRANCH   1  20
TORSDOF 6
ENDMDL
MODEL 3
REMARK VINA RESULT: -10.284575457      5.657     10.886
REMARK  6 active torsions:
REMARK  status: ('A' for Active; 'I' for Inactive)
REMARK    1  A    between atoms: C2_2  and  O1_3 
REMARK    2  A    between atoms: O1_3  and  C3_4 
REMARK    3  A    between atoms: C9_10  and  C10_11 
REMARK    4  A    between atoms: N1_14  and  S1_15 
REMARK    5  A    between atoms: S1_15  and  C13_18 
REMARK    6  A    between atoms: C13_18  and  C14_19 
ROOT
HETATM    1  S1  UNL     1      26.096   6.928  -3.405  1.00  0.00     0.214 S 
HETATM    2  O2  UNL     1      27.369   6.267  -3.081  1.00  0.00    -0.211 OA
HETATM    3  O3  UNL     1      25.059   6.779  -2.330  1.00  0.00    -0.211 OA
ENDROOT
BRANCH   1   4
HETATM    4  N1  UNL     1      26.437   8.647  -3.478  1.00  0.00    -0.211 NA
HETATM    5  C12 UNL     1      27.798   8.856  -3.858  1.00  0.00     0.107 C 
HETATM    6  C11 UNL     1      28.182  10.265  -3.386  1.00  0.00     0.020 C 
HETATM    7  C10 UNL     1      28.379  10.162  -1.895  1.00  0.00    -0.006 C 
HETATM    8  C24 UNL     1      27.192   9.463  -1.306  1.00  0.00     0.020 C 
HETATM    9  C23 UNL     1      26.038   9.319  -2.285  1.00  0.00     0.107 C 
BRANCH   7  10
HETATM   10  C9  UNL     1      28.666  11.491  -1.241  1.00  0.00     0.019 C 
HETATM   11  C3  UNL     1      27.408  12.289  -1.182  1.00  0.00     0.125 C 
HETATM   12  C4  UNL     1      27.556  13.532  -0.308  1.00  0.00     0.032 C 
HETATM   13  C5  UNL     1      27.622  13.228   1.152  1.00  0.00     0.002 C 
HETATM   14  C6  UNL     1      29.053  13.275   1.643  1.00  0.00     0.000 C 
HETATM   15  C7  UNL     1      29.924  12.632   0.562  1.00  0.00     0.000 C 
HETATM   16  C8  UNL     1      29.299  11.326   0.119  1.00  0.00     0.007 C 
BRANCH  11  17
HETATM   17  O1  UNL     1      27.099  12.803  -2.462  1.00  0.00    -0.386 OA
BRANCH  17  18
HETATM   18  C2  UNL     1      27.678  14.036  -2.669  1.00  0.00     0.163 C 
HETATM   19  C1  UNL     1      28.678  14.049  -3.777  1.00  0.00     0.033 C 
ENDBRANCH  17  18
ENDBRANCH  11  17
ENDBRANCH   7  10
ENDBRANCH   1   4
BRANCH   1  20
HETATM   20  C13 UNL     1      25.468   6.503  -5.004  1.00  0.00     0.199 C 
BRANCH  20  21
HETATM   21  C14 UNL     1      26.368   5.627  -5.821  1.00  0.00     0.175 C 
HETATM   22  C15 UNL     1      26.698   4.445  -4.938  1.00  0.00     0.050 C 
HETATM   23  C16 UNL     1      25.676   5.077  -7.066  1.00  0.00     0.077 C 
HETATM   24  C17 UNL     1      26.691   5.040  -8.164  1.00  0.00     0.085 C 
HETATM   25  C18 UNL     1      26.526   6.083  -9.233  1.00  0.00     0.037 C 
HETATM   26  C21 UNL     1      27.981   5.404  -7.465  1.00  0.00     0.355 C 
HETATM   27  N4  UNL     1      26.965   3.720  -8.663  1.00  0.00    -0.330 N 
HETATM   28  C19 UNL     1      27.135   7.364  -8.669  1.00  0.00     0.033 C 
HETATM   29  C20 UNL     1      26.914   7.426  -7.177  1.00  0.00     0.276 C 
HETATM   30  N2  UNL     1      27.472   6.272  -6.448  1.00  0.00     0.124 N 
HETATM   31  N3  UNL     1      28.594   4.197  -7.155  1.00  0.00    -0.311 N 
HETATM   32  C22 UNL     1      27.931   3.126  -7.788  1.00  0.00     0.318 C 
ATOM     33  H3  UNL     1      29.411   4.098  -6.552  1.00  0.00     0.166 HD
HETATM   34  O4  UNL     1      28.131   1.871  -7.633  1.00  0.00    -0.247 OA
ATOM     35  H4  UNL     1      26.548   3.287  -9.488  1.00  0.00     0.165 HD
ENDBRANCH  20  21
ENDBRANCH   1  20
TORSDOF 6
ENDMDL
MODEL 4
REMARK VINA RESULT: -10.083933287      5.830     10.181
REMARK  6 active torsions:
REMARK  status: ('A' for Active; 'I' for Inactive)
REMARK    1  A    between atoms: C2_2  and  O1_3 
REMARK    2  A    between atoms: O1_3  and  C3_4 
REMARK    3  A    between atoms: C9_10  and  C10_11 
REMARK    4  A    between atoms: N1_14  and  S1_15 
REMARK    5  A    between atoms: S1_15  and  C13_18 
REMARK    6  A    between atoms: C13_18  and  C14_19 
ROOT
HETATM    1  S1  UNL     1      27.275   6.599  -4.360  1.00  0.00     0.214 S 
HETATM    2  O2  UNL     1      27.538   5.170  -4.135  1.00  0.00    -0.211 OA
HETATM    3  O3  UNL     1      25.824   6.964  -4.228  1.00  0.00    -0.211 OA
ENDROOT
BRANCH   1   4
HETATM    4  N1  UNL     1      28.084   7.460  -3.064  1.00  0.00    -0.211 NA
HETATM    5  C12 UNL     1      27.140   7.807  -2.050  1.00  0.00     0.107 C 
HETATM    6  C11 UNL     1      27.743   8.978  -1.261  1.00  0.00     0.020 C 
HETATM    7  C10 UNL     1      27.584  10.193  -2.139  1.00  0.00    -0.006 C 
HETATM    8  C24 UNL     1      28.094   9.861  -3.508  1.00  0.00     0.020 C 
HETATM    9  C23 UNL     1      28.862   8.550  -3.555  1.00  0.00     0.107 C 
BRANCH   7  10
HETATM   10  C9  UNL     1      28.220  11.433  -1.558  1.00  0.00     0.019 C 
HETATM   11  C3  UNL     1      27.219  12.538  -1.549  1.00  0.00     0.125 C 
HETATM   12  C4  UNL     1      27.701  13.742  -0.743  1.00  0.00     0.032 C 
HETATM   13  C5  UNL     1      27.700  13.510   0.731  1.00  0.00     0.002 C 
HETATM   14  C6  UNL     1      29.097  13.203   1.225  1.00  0.00     0.000 C 
HETATM   15  C7  UNL     1      29.755  12.295   0.184  1.00  0.00     0.000 C 
HETATM   16  C8  UNL     1      28.802  11.179  -0.189  1.00  0.00     0.007 C 
BRANCH  11  17
HETATM   17  O1  UNL     1      27.043  13.044  -2.855  1.00  0.00    -0.386 OA
BRANCH  17  18
HETATM   18  C2  UNL     1      27.710  14.237  -3.033  1.00  0.00     0.163 C 
HETATM   19  C1  UNL     1      28.923  14.123  -3.895  1.00  0.00     0.033 C 
ENDBRANCH  17  18
ENDBRANCH  11  17
ENDBRANCH   7  10
ENDBRANCH   1   4
BRANCH   1  20
HETATM   20  C13 UNL     1      27.987   7.221  -5.856  1.00  0.00     0.199 C 
BRANCH  20  21
HETATM   21  C14 UNL     1      27.343   6.722  -7.114  1.00  0.00     0.175 C 
HETATM   22  C15 UNL     1      27.367   5.214  -7.014  1.00  0.00     0.050 C 
HETATM   23  C16 UNL     1      25.878   7.141  -7.226  1.00  0.00     0.077 C 
HETATM   24  C17 UNL     1      25.604   7.432  -8.667  1.00  0.00     0.085 C 
HETATM   25  C18 UNL     1      25.451   8.886  -9.015  1.00  0.00     0.037 C 
HETATM   26  C21 UNL     1      26.876   7.000  -9.363  1.00  0.00     0.355 C 
HETATM   27  N4  UNL     1      24.614   6.575  -9.259  1.00  0.00    -0.330 N 
HETATM   28  C19 UNL     1      26.868   9.441  -9.138  1.00  0.00     0.033 C 
HETATM   29  C20 UNL     1      27.781   8.744  -8.158  1.00  0.00     0.276 C 
HETATM   30  N2  UNL     1      27.826   7.281  -8.331  1.00  0.00     0.124 N 
HETATM   31  N3  UNL     1      26.640   5.705  -9.807  1.00  0.00    -0.311 N 
HETATM   32  C22 UNL     1      25.279   5.369  -9.659  1.00  0.00     0.318 C 
ATOM     33  H3  UNL     1      27.353   5.083 -10.187  1.00  0.00     0.166 HD
HETATM   34  O4  UNL     1      24.722   4.231  -9.838  1.00  0.00    -0.247 OA
ATOM     35  H4  UNL     1      23.623   6.785  -9.374  1.00  0.00     0.165 HD
ENDBRANCH  20  21
ENDBRANCH   1  20
TORSDOF 6
ENDMDL
MODEL 5
REMARK VINA RESULT: -10.074794083      5.417     10.751
REMARK  6 active torsions:
REMARK  status: ('A' for Active; 'I' for Inactive)
REMARK    1  A    between atoms: C2_2  and  O1_3 
REMARK    2  A    between atoms: O1_3  and  C3_4 
REMARK    3  A    between atoms: C9_10  and  C10_11 
REMARK    4  A    between atoms: N1_14  and  S1_15 
REMARK    5  A    between atoms: S1_15  and  C13_18 
REMARK    6  A    between atoms: C13_18  and  C14_19 
ROOT
HETATM    1  S1  UNL     1      26.856   6.919  -3.206  1.00  0.00     0.214 S 
HETATM    2  O2  UNL     1      27.943   5.989  -2.867  1.00  0.00    -0.211 OA
HETATM    3  O3  UNL     1      25.944   7.214  -2.051  1.00  0.00    -0.211 OA
ENDROOT
BRANCH   1   4
HETATM    4  N1  UNL     1      27.619   8.451  -3.591  1.00  0.00    -0.211 NA
HETATM    5  C12 UNL     1      28.276   8.969  -2.433  1.00  0.00     0.107 C 
HETATM    6  C11 UNL     1      28.433  10.481  -2.649  1.00  0.00     0.020 C 
HETATM    7  C10 UNL     1      27.068  11.076  -2.416  1.00  0.00    -0.006 C 
HETATM    8  C24 UNL     1      26.068  10.298  -3.215  1.00  0.00     0.020 C 
HETATM    9  C23 UNL     1      26.710   9.354  -4.218  1.00  0.00     0.107 C 
BRANCH   7  10
HETATM   10  C9  UNL     1      27.013  12.560  -2.687  1.00  0.00     0.019 C 
HETATM   11  C3  UNL     1      27.927  13.264  -1.743  1.00  0.00     0.125 C 
HETATM   12  C4  UNL     1      28.124  14.730  -2.120  1.00  0.00     0.032 C 
HETATM   13  C5  UNL     1      28.968  14.923  -3.336  1.00  0.00     0.002 C 
HETATM   14  C6  UNL     1      28.104  15.205  -4.546  1.00  0.00     0.000 C 
HETATM   15  C7  UNL     1      26.880  14.293  -4.452  1.00  0.00     0.000 C 
HETATM   16  C8  UNL     1      27.324  12.882  -4.128  1.00  0.00     0.007 C 
BRANCH  11  17
HETATM   17  O1  UNL     1      27.349  13.314  -0.455  1.00  0.00    -0.386 OA
BRANCH  17  18
HETATM   18  C2  UNL     1      28.305  13.454   0.527  1.00  0.00     0.163 C 
HETATM   19  C1  UNL     1      29.358  12.396   0.494  1.00  0.00     0.033 C 
ENDBRANCH  17  18
ENDBRANCH  11  17
ENDBRANCH   7  10
ENDBRANCH   1   4
BRANCH   1  20
HETATM   20  C13 UNL     1      25.962   6.458  -4.663  1.00  0.00     0.199 C 
BRANCH  20  21
HETATM   21  C14 UNL     1      26.715   5.572  -5.608  1.00  0.00     0.175 C 
HETATM   22  C15 UNL     1      27.155   4.382  -4.787  1.00  0.00     0.050 C 
HETATM   23  C16 UNL     1      25.833   5.038  -6.735  1.00  0.00     0.077 C 
HETATM   24  C17 UNL     1      26.670   4.989  -7.973  1.00  0.00     0.085 C 
HETATM   25  C18 UNL     1      26.361   6.040  -9.004  1.00  0.00     0.037 C 
HETATM   26  C21 UNL     1      28.057   5.330  -7.477  1.00  0.00     0.355 C 
HETATM   27  N4  UNL     1      26.844   3.667  -8.511  1.00  0.00    -0.330 N 
HETATM   28  C19 UNL     1      27.069   7.309  -8.536  1.00  0.00     0.033 C 
HETATM   29  C20 UNL     1      27.077   7.368  -7.027  1.00  0.00     0.276 C 
HETATM   30  N2  UNL     1      27.720   6.203  -6.394  1.00  0.00     0.124 N 
HETATM   31  N3  UNL     1      28.690   4.113  -7.266  1.00  0.00    -0.311 N 
HETATM   32  C22 UNL     1      27.922   3.055  -7.793  1.00  0.00     0.318 C 
ATOM     33  H3  UNL     1      29.587   4.000  -6.794  1.00  0.00     0.166 HD
HETATM   34  O4  UNL     1      28.122   1.796  -7.672  1.00  0.00    -0.247 OA
ATOM     35  H4  UNL     1      26.301   3.244  -9.263  1.00  0.00     0.165 HD
ENDBRANCH  20  21
ENDBRANCH   1  20
TORSDOF 6
ENDMDL
