MODEL 1
REMARK VINA RESULT: -8.989962208      0.000      0.000
REMARK  8 active torsions:
REMARK  status: ('A' for Active; 'I' for Inactive)
REMARK    1  A    between atoms: C1_2  and  C2_3 
REMARK       I    between atoms: C1_2  and  N3_19 
REMARK    2  A    between atoms: C2_3  and  N1_4 
REMARK       I    between atoms: N1_4  and  C3_5 
REMARK    3  A    between atoms: N1_4  and  C9_13 
REMARK    4  A    between atoms: C3_5  and  C4_7 
REMARK    5  A    between atoms: C4_7  and  N2_8 
REMARK    6  A    between atoms: N3_19  and  C15_21 
REMARK    7  A    between atoms: C17_25  and  C18_26 
REMARK       I    between atoms: C18_26  and  N5_28 
REMARK    8  A    between atoms: N5_28  and  C19_30 
ROOT
HETATM    1  O1  UNL     1      26.346   9.471  -1.181  1.00  0.00    -0.271 OA
HETATM    2  C1  UNL     1      27.503   9.026  -1.370  1.00  0.00     0.241 C 
HETATM    3  N3  UNL     1      27.678   7.631  -1.146  1.00  0.00    -0.306 N 
ATOM      4  H3  UNL     1      27.927   7.264  -0.227  1.00  0.00     0.171 HD
ENDROOT
BRANCH   2   5
HETATM    5  C2  UNL     1      28.654   9.858  -1.798  1.00  0.00     0.229 C 
BRANCH   5   6
HETATM    6  N1  UNL     1      28.277  11.248  -1.941  1.00  0.00    -0.337 N 
HETATM    7  C3  UNL     1      27.689  11.738  -3.135  1.00  0.00     0.238 C 
HETATM    8  O2  UNL     1      27.385  12.941  -3.204  1.00  0.00    -0.272 OA
BRANCH   7   9
HETATM    9  C4  UNL     1      27.471  10.771  -4.242  1.00  0.00     0.219 C 
BRANCH   9  10
HETATM   10  N2  UNL     1      26.270  10.974  -4.970  1.00  0.00    -0.404 N 
HETATM   11  C5  UNL     1      26.260  10.579  -6.331  1.00  0.00     0.117 C 
HETATM   12  C6  UNL     1      24.834  10.271  -6.718  1.00  0.00     0.021 C 
HETATM   13  C7  UNL     1      24.044  10.305  -5.430  1.00  0.00     0.021 C 
HETATM   14  C8  UNL     1      25.058  10.582  -4.345  1.00  0.00     0.117 C 
ENDBRANCH   9  10
ENDBRANCH   7   9
BRANCH   6  15
HETATM   15  C9  UNL     1      28.508  12.118  -0.823  1.00  0.00     0.087 C 
HETATM   16  C10 UNL     1      29.572  11.537   0.120  1.00  0.00     0.025 C 
HETATM   17  C11 UNL     1      29.998  12.709   1.013  1.00  0.00     0.002 C 
HETATM   18  C12 UNL     1      28.820  13.221   1.770  1.00  0.00     0.000 C 
HETATM   19  C13 UNL     1      27.677  13.624   0.880  1.00  0.00     0.002 C 
HETATM   20  C14 UNL     1      27.313  12.398   0.025  1.00  0.00     0.025 C 
ENDBRANCH   6  15
ENDBRANCH   5   6
ENDBRANCH   2   5
BRANCH   3  21
HETATM   21  C15 UNL     1      27.502   6.835  -2.184  1.00  0.00     0.151 A 
HETATM   22  N4  UNL     1      27.953   5.588  -2.327  1.00  0.00    -0.345 N 
HETATM   23  C16 UNL     1      27.683   4.946  -3.425  1.00  0.00     0.115 A 
ATOM     24  H4  UNL     1      28.499   5.146  -1.588  1.00  0.00     0.167 HD
HETATM   25  C17 UNL     1      26.947   5.591  -4.380  1.00  0.00     0.091 A 
HETATM   26  S1  UNL     1      26.671   7.114  -3.645  1.00  0.00    -0.047 SA
BRANCH  25  27
HETATM   27  C18 UNL     1      26.506   5.097  -5.703  1.00  0.00     0.260 C 
HETATM   28  O3  UNL     1      26.258   3.868  -5.863  1.00  0.00    -0.267 OA
HETATM   29  N5  UNL     1      26.376   6.024  -6.751  1.00  0.00    -0.352 N 
ATOM     30  H5  UNL     1      26.582   7.012  -6.598  1.00  0.00     0.163 HD
BRANCH  29  31
HETATM   31  C19 UNL     1      25.946   5.553  -8.052  1.00  0.00     0.084 C 
HETATM   32  C20 UNL     1      27.162   5.120  -8.846  1.00  0.00     0.025 C 
HETATM   33  C21 UNL     1      26.781   4.662 -10.227  1.00  0.00     0.002 C 
HETATM   34  C22 UNL     1      25.538   5.357 -10.735  1.00  0.00     0.000 C 
HETATM   35  C23 UNL     1      25.552   6.766 -10.147  1.00  0.00     0.002 C 
HETATM   36  C24 UNL     1      25.162   6.646  -8.700  1.00  0.00     0.025 C 
ENDBRANCH  29  31
ENDBRANCH  25  27
ENDBRANCH   3  21
TORSDOF 8
ENDMDL
MODEL 2
REMARK VINA RESULT: -8.739958691      2.465      7.712
REMARK  8 active torsions:
REMARK  status: ('A' for Active; 'I' for Inactive)
REMARK    1  A    between atoms: C1_2  and  C2_3 
REMARK       I    between atoms: C1_2  and  N3_19 
REMARK    2  A    between atoms: C2_3  and  N1_4 
REMARK       I    between atoms: N1_4  and  C3_5 
REMARK    3  A    between atoms: N1_4  and  C9_13 
REMARK    4  A    between atoms: C3_5  and  C4_7 
REMARK    5  A    between atoms: C4_7  and  N2_8 
REMARK    6  A    between atoms: N3_19  and  C15_21 
REMARK    7  A    between atoms: C17_25  and  C18_26 
REMARK       I    between atoms: C18_26  and  N5_28 
REMARK    8  A    between atoms: N5_28  and  C19_30 
ROOT
HETATM    1  O1  UNL     1      28.427   6.375  -3.558  1.00  0.00    -0.271 OA
HETATM    2  C1  UNL     1      27.272   6.642  -3.149  1.00  0.00     0.241 C 
HETATM    3  N3  UNL     1      27.174   7.047  -1.787  1.00  0.00    -0.306 N 
ATOM      4  H3  UNL     1      27.043   6.370  -1.036  1.00  0.00     0.171 HD
ENDROOT
BRANCH   2   5
HETATM    5  C2  UNL     1      26.051   6.556  -3.986  1.00  0.00     0.229 C 
BRANCH   5   6
HETATM    6  N1  UNL     1      26.183   7.343  -5.193  1.00  0.00    -0.337 N 
HETATM    7  C3  UNL     1      26.661   6.774  -6.402  1.00  0.00     0.238 C 
HETATM    8  O2  UNL     1      26.754   7.496  -7.409  1.00  0.00    -0.272 OA
BRANCH   7   9
HETATM    9  C4  UNL     1      27.024   5.334  -6.387  1.00  0.00     0.219 C 
BRANCH   9  10
HETATM   10  N2  UNL     1      26.581   4.606  -7.521  1.00  0.00    -0.404 N 
HETATM   11  C5  UNL     1      25.265   4.859  -7.983  1.00  0.00     0.117 C 
HETATM   12  C6  UNL     1      25.215   4.530  -9.455  1.00  0.00     0.021 C 
HETATM   13  C7  UNL     1      26.646   4.274  -9.866  1.00  0.00     0.021 C 
HETATM   14  C8  UNL     1      27.470   4.516  -8.624  1.00  0.00     0.117 C 
ENDBRANCH   9  10
ENDBRANCH   7   9
BRANCH   6  15
HETATM   15  C9  UNL     1      25.800   8.726  -5.132  1.00  0.00     0.087 C 
HETATM   16  C10 UNL     1      27.031   9.636  -5.020  1.00  0.00     0.025 C 
HETATM   17  C11 UNL     1      26.521  11.042  -5.362  1.00  0.00     0.002 C 
HETATM   18  C12 UNL     1      25.458  11.442  -4.397  1.00  0.00     0.000 C 
HETATM   19  C13 UNL     1      24.316  10.466  -4.340  1.00  0.00     0.002 C 
HETATM   20  C14 UNL     1      24.910   9.090  -3.991  1.00  0.00     0.025 C 
ENDBRANCH   6  15
ENDBRANCH   5   6
ENDBRANCH   2   5
BRANCH   3  21
HETATM   21  C15 UNL     1      27.259   8.342  -1.544  1.00  0.00     0.151 A 
HETATM   22  N4  UNL     1      26.455   9.069  -0.768  1.00  0.00    -0.345 N 
HETATM   23  C16 UNL     1      26.689  10.342  -0.641  1.00  0.00     0.115 A 
ATOM     24  H4  UNL     1      25.671   8.634  -0.281  1.00  0.00     0.167 HD
HETATM   25  C17 UNL     1      27.755  10.868  -1.318  1.00  0.00     0.091 A 
HETATM   26  S1  UNL     1      28.382   9.488  -2.116  1.00  0.00    -0.047 SA
BRANCH  25  27
HETATM   27  C18 UNL     1      28.236  12.267  -1.348  1.00  0.00     0.260 C 
HETATM   28  O3  UNL     1      28.619  12.822  -0.279  1.00  0.00    -0.267 OA
HETATM   29  N5  UNL     1      28.251  12.939  -2.582  1.00  0.00    -0.352 N 
ATOM     30  H5  UNL     1      27.938  12.471  -3.432  1.00  0.00     0.163 HD
BRANCH  29  31
HETATM   31  C19 UNL     1      28.719  14.310  -2.625  1.00  0.00     0.084 C 
HETATM   32  C20 UNL     1      27.522  15.238  -2.660  1.00  0.00     0.025 C 
HETATM   33  C21 UNL     1      27.947  16.678  -2.751  1.00  0.00     0.002 C 
HETATM   34  C22 UNL     1      29.268  16.838  -3.469  1.00  0.00     0.000 C 
HETATM   35  C23 UNL     1      29.330  15.736  -4.525  1.00  0.00     0.002 C 
HETATM   36  C24 UNL     1      29.623  14.449  -3.805  1.00  0.00     0.025 C 
ENDBRANCH  29  31
ENDBRANCH  25  27
ENDBRANCH   3  21
TORSDOF 8
ENDMDL
MODEL 3
REMARK VINA RESULT: -8.643436943      2.499      5.478
REMARK  8 active torsions:
REMARK  status: ('A' for Active; 'I' for Inactive)
REMARK    1  A    between atoms: C1_2  and  C2_3 
REMARK       I    between atoms: C1_2  and  N3_19 
REMARK    2  A    between atoms: C2_3  and  N1_4 
REMARK       I    between atoms: N1_4  and  C3_5 
REMARK    3  A    between atoms: N1_4  and  C9_13 
REMARK    4  A    between atoms: C3_5  and  C4_7 
REMARK    5  A    between atoms: C4_7  and  N2_8 
REMARK    6  A    between atoms: N3_19  and  C15_21 
REMARK    7  A    between atoms: C17_25  and  C18_26 
REMARK       I    between atoms: C18_26  and  N5_28 
REMARK    8  A    between atoms: N5_28  and  C19_30 
ROOT
HETATM    1  O1  UNL     1      25.263   6.372  -3.693  1.00  0.00    -0.271 OA
HETATM    2  C1  UNL     1      26.443   5.966  -3.816  1.00  0.00     0.241 C 
HETATM    3  N3  UNL     1      26.601   4.691  -4.430  1.00  0.00    -0.306 N 
ATOM      4  H3  UNL     1      26.597   3.830  -3.884  1.00  0.00     0.171 HD
ENDROOT
BRANCH   2   5
HETATM    5  C2  UNL     1      27.636   6.724  -3.364  1.00  0.00     0.229 C 
BRANCH   5   6
HETATM    6  N1  UNL     1      27.715   8.016  -4.011  1.00  0.00    -0.337 N 
HETATM    7  C3  UNL     1      27.941   9.204  -3.268  1.00  0.00     0.238 C 
HETATM    8  O2  UNL     1      28.000  10.287  -3.874  1.00  0.00    -0.272 OA
BRANCH   7   9
HETATM    9  C4  UNL     1      28.094   9.076  -1.796  1.00  0.00     0.219 C 
BRANCH   9  10
HETATM   10  N2  UNL     1      27.516  10.137  -1.052  1.00  0.00    -0.404 N 
HETATM   11  C5  UNL     1      26.637   9.787   0.003  1.00  0.00     0.117 C 
HETATM   12  C6  UNL     1      26.652  10.907   1.015  1.00  0.00     0.021 C 
HETATM   13  C7  UNL     1      27.764  11.834   0.582  1.00  0.00     0.021 C 
HETATM   14  C8  UNL     1      28.378  11.184  -0.635  1.00  0.00     0.117 C 
ENDBRANCH   9  10
ENDBRANCH   7   9
BRANCH   6  15
HETATM   15  C9  UNL     1      27.569   8.057  -5.438  1.00  0.00     0.087 C 
HETATM   16  C10 UNL     1      28.939   8.079  -6.134  1.00  0.00     0.025 C 
HETATM   17  C11 UNL     1      28.649   7.723  -7.598  1.00  0.00     0.002 C 
HETATM   18  C12 UNL     1      27.722   8.729  -8.188  1.00  0.00     0.000 C 
HETATM   19  C13 UNL     1      26.439   8.873  -7.417  1.00  0.00     0.002 C 
HETATM   20  C14 UNL     1      26.817   9.231  -5.969  1.00  0.00     0.025 C 
ENDBRANCH   6  15
ENDBRANCH   5   6
ENDBRANCH   2   5
BRANCH   3  21
HETATM   21  C15 UNL     1      26.754   4.678  -5.742  1.00  0.00     0.151 A 
HETATM   22  N4  UNL     1      27.789   4.188  -6.425  1.00  0.00    -0.345 N 
HETATM   23  C16 UNL     1      27.773   4.260  -7.723  1.00  0.00     0.115 A 
ATOM     24  H4  UNL     1      28.579   3.765  -5.939  1.00  0.00     0.167 HD
HETATM   25  C17 UNL     1      26.686   4.839  -8.320  1.00  0.00     0.091 A 
HETATM   26  S1  UNL     1      25.723   5.259  -6.967  1.00  0.00    -0.047 SA
BRANCH  25  27
HETATM   27  C18 UNL     1      26.419   5.045  -9.760  1.00  0.00     0.260 C 
HETATM   28  O3  UNL     1      26.924   4.260 -10.611  1.00  0.00    -0.267 OA
HETATM   29  N5  UNL     1      25.599   6.123 -10.137  1.00  0.00    -0.352 N 
ATOM     30  H5  UNL     1      25.201   6.743  -9.432  1.00  0.00     0.163 HD
BRANCH  29  31
HETATM   31  C19 UNL     1      25.329   6.336 -11.545  1.00  0.00     0.084 C 
HETATM   32  C20 UNL     1      25.496   7.809 -11.860  1.00  0.00     0.025 C 
HETATM   33  C21 UNL     1      25.184   8.100 -13.302  1.00  0.00     0.002 C 
HETATM   34  C22 UNL     1      24.165   7.137 -13.871  1.00  0.00     0.000 C 
HETATM   35  C23 UNL     1      23.223   6.769 -12.726  1.00  0.00     0.002 C 
HETATM   36  C24 UNL     1      23.962   5.810 -11.836  1.00  0.00     0.025 C 
ENDBRANCH  29  31
ENDBRANCH  25  27
ENDBRANCH   3  21
TORSDOF 8
ENDMDL
MODEL 4
REMARK VINA RESULT: -8.444948247      9.008     13.195
REMARK  8 active torsions:
REMARK  status: ('A' for Active; 'I' for Inactive)
REMARK    1  A    between atoms: C1_2  and  C2_3 
REMARK       I    between atoms: C1_2  and  N3_19 
REMARK    2  A    between atoms: C2_3  and  N1_4 
REMARK       I    between atoms: N1_4  and  C3_5 
REMARK    3  A    between atoms: N1_4  and  C9_13 
REMARK    4  A    between atoms: C3_5  and  C4_7 
REMARK    5  A    between atoms: C4_7  and  N2_8 
REMARK    6  A    between atoms: N3_19  and  C15_21 
REMARK    7  A    between atoms: C17_25  and  C18_26 
REMARK       I    between atoms: C18_26  and  N5_28 
REMARK    8  A    between atoms: N5_28  and  C19_30 
ROOT
HETATM    1  O1  UNL     1      25.941  15.793  -4.506  1.00  0.00    -0.271 OA
HETATM    2  C1  UNL     1      26.798  16.647  -4.174  1.00  0.00     0.241 C 
HETATM    3  N3  UNL     1      27.133  17.610  -5.168  1.00  0.00    -0.306 N 
ATOM      4  H3  UNL     1      27.882  17.446  -5.840  1.00  0.00     0.171 HD
ENDROOT
BRANCH   2   5
HETATM    5  C2  UNL     1      27.453  16.695  -2.844  1.00  0.00     0.229 C 
BRANCH   5   6
HETATM    6  N1  UNL     1      28.680  15.927  -2.833  1.00  0.00    -0.337 N 
HETATM    7  C3  UNL     1      29.937  16.533  -3.089  1.00  0.00     0.238 C 
HETATM    8  O2  UNL     1      30.959  15.827  -3.067  1.00  0.00    -0.272 OA
BRANCH   7   9
HETATM    9  C4  UNL     1      29.952  17.992  -3.372  1.00  0.00     0.219 C 
BRANCH   9  10
HETATM   10  N2  UNL     1      31.051  18.425  -4.158  1.00  0.00    -0.404 N 
HETATM   11  C5  UNL     1      30.856  18.506  -5.559  1.00  0.00     0.117 C 
HETATM   12  C6  UNL     1      31.818  19.533  -6.107  1.00  0.00     0.021 C 
HETATM   13  C7  UNL     1      32.435  20.199  -4.899  1.00  0.00     0.021 C 
HETATM   14  C8  UNL     1      31.766  19.563  -3.703  1.00  0.00     0.117 C 
ENDBRANCH   9  10
ENDBRANCH   7   9
BRANCH   6  15
HETATM   15  C9  UNL     1      28.585  14.525  -2.539  1.00  0.00     0.087 C 
HETATM   16  C10 UNL     1      28.238  13.718  -3.799  1.00  0.00     0.025 C 
HETATM   17  C11 UNL     1      28.558  12.261  -3.442  1.00  0.00     0.002 C 
HETATM   18  C12 UNL     1      27.733  11.834  -2.277  1.00  0.00     0.000 C 
HETATM   19  C13 UNL     1      27.905  12.722  -1.075  1.00  0.00     0.002 C 
HETATM   20  C14 UNL     1      27.563  14.155  -1.517  1.00  0.00     0.025 C 
ENDBRANCH   6  15
ENDBRANCH   5   6
ENDBRANCH   2   5
BRANCH   3  21
HETATM   21  C15 UNL     1      26.429  18.726  -5.176  1.00  0.00     0.151 A 
HETATM   22  N4  UNL     1      25.245  18.934  -4.597  1.00  0.00    -0.345 N 
HETATM   23  C16 UNL     1      24.691  20.104  -4.706  1.00  0.00     0.115 A 
ATOM     24  H4  UNL     1      24.784  18.187  -4.076  1.00  0.00     0.167 HD
HETATM   25  C17 UNL     1      25.357  21.066  -5.416  1.00  0.00     0.091 A 
HETATM   26  S1  UNL     1      26.772  20.230  -5.899  1.00  0.00    -0.047 SA
BRANCH  25  27
HETATM   27  C18 UNL     1      24.955  22.463  -5.690  1.00  0.00     0.260 C 
HETATM   28  O3  UNL     1      24.619  22.800  -6.860  1.00  0.00    -0.267 OA
HETATM   29  N5  UNL     1      24.960  23.379  -4.624  1.00  0.00    -0.352 N 
ATOM     30  H5  UNL     1      25.235  23.083  -3.687  1.00  0.00     0.163 HD
BRANCH  29  31
HETATM   31  C19 UNL     1      24.569  24.750  -4.879  1.00  0.00     0.084 C 
HETATM   32  C20 UNL     1      25.800  25.553  -5.247  1.00  0.00     0.025 C 
HETATM   33  C21 UNL     1      25.462  27.000  -5.480  1.00  0.00     0.002 C 
HETATM   34  C22 UNL     1      24.272  27.446  -4.661  1.00  0.00     0.000 C 
HETATM   35  C23 UNL     1      24.316  26.656  -3.355  1.00  0.00     0.002 C 
HETATM   36  C24 UNL     1      23.859  25.258  -3.668  1.00  0.00     0.025 C 
ENDBRANCH  29  31
ENDBRANCH  25  27
ENDBRANCH   3  21
TORSDOF 8
ENDMDL
MODEL 5
REMARK VINA RESULT: -8.402080504      9.286     13.138
REMARK  8 active torsions:
REMARK  status: ('A' for Active; 'I' for Inactive)
REMARK    1  A    between atoms: C1_2  and  C2_3 
REMARK       I    between atoms: C1_2  and  N3_19 
REMARK    2  A    between atoms: C2_3  and  N1_4 
REMARK       I    between atoms: N1_4  and  C3_5 
REMARK    3  A    between atoms: N1_4  and  C9_13 
REMARK    4  A    between atoms: C3_5  and  C4_7 
REMARK    5  A    between atoms: C4_7  and  N2_8 
REMARK    6  A    between atoms: N3_19  and  C15_21 
REMARK    7  A    between atoms: C17_25  and  C18_26 
REMARK       I    between atoms: C18_26  and  N5_28 
REMARK    8  A    between atoms: N5_28  and  C19_30 
ROOT
HETATM    1  O1  UNL     1      25.692  16.214  -4.230  1.00  0.00    -0.271 OA
HETATM    2  C1  UNL     1      26.749  16.859  -4.032  1.00  0.00     0.241 C 
HETATM    3  N3  UNL     1      27.233  17.615  -5.138  1.00  0.00    -0.306 N 
ATOM      4  H3  UNL     1      27.871  17.210  -5.823  1.00  0.00     0.171 HD
ENDROOT
BRANCH   2   5
HETATM    5  C2  UNL     1      27.490  16.868  -2.747  1.00  0.00     0.229 C 
BRANCH   5   6
HETATM    6  N1  UNL     1      28.679  16.045  -2.818  1.00  0.00    -0.337 N 
HETATM    7  C3  UNL     1      29.952  16.603  -3.105  1.00  0.00     0.238 C 
HETATM    8  O2  UNL     1      30.939  15.850  -3.154  1.00  0.00    -0.272 OA
BRANCH   7   9
HETATM    9  C4  UNL     1      30.024  18.069  -3.332  1.00  0.00     0.219 C 
BRANCH   9  10
HETATM   10  N2  UNL     1      31.121  18.486  -4.129  1.00  0.00    -0.404 N 
HETATM   11  C5  UNL     1      30.933  18.510  -5.533  1.00  0.00     0.117 C 
HETATM   12  C6  UNL     1      31.884  19.526  -6.116  1.00  0.00     0.021 C 
HETATM   13  C7  UNL     1      32.487  20.247  -4.933  1.00  0.00     0.021 C 
HETATM   14  C8  UNL     1      31.820  19.650  -3.716  1.00  0.00     0.117 C 
ENDBRANCH   9  10
ENDBRANCH   7   9
BRANCH   6  15
HETATM   15  C9  UNL     1      28.530  14.638  -2.575  1.00  0.00     0.087 C 
HETATM   16  C10 UNL     1      28.165  13.889  -3.865  1.00  0.00     0.025 C 
HETATM   17  C11 UNL     1      28.428  12.410  -3.557  1.00  0.00     0.002 C 
HETATM   18  C12 UNL     1      27.577  11.973  -2.414  1.00  0.00     0.000 C 
HETATM   19  C13 UNL     1      27.771  12.811  -1.181  1.00  0.00     0.002 C 
HETATM   20  C14 UNL     1      27.486  14.271  -1.574  1.00  0.00     0.025 C 
ENDBRANCH   6  15
ENDBRANCH   5   6
ENDBRANCH   2   5
BRANCH   3  21
HETATM   21  C15 UNL     1      26.817  18.864  -5.232  1.00  0.00     0.151 A 
HETATM   22  N4  UNL     1      25.663  19.362  -4.787  1.00  0.00    -0.345 N 
HETATM   23  C16 UNL     1      25.415  20.625  -4.967  1.00  0.00     0.115 A 
ATOM     24  H4  UNL     1      24.986  18.762  -4.314  1.00  0.00     0.167 HD
HETATM   25  C17 UNL     1      26.359  21.379  -5.608  1.00  0.00     0.091 A 
HETATM   26  S1  UNL     1      27.579  20.219  -5.928  1.00  0.00    -0.047 SA
BRANCH  25  27
HETATM   27  C18 UNL     1      26.329  22.821  -5.937  1.00  0.00     0.260 C 
HETATM   28  O3  UNL     1      25.290  23.498  -5.696  1.00  0.00    -0.267 OA
HETATM   29  N5  UNL     1      27.474  23.396  -6.514  1.00  0.00    -0.352 N 
ATOM     30  H5  UNL     1      28.302  22.830  -6.699  1.00  0.00     0.163 HD
BRANCH  29  31
HETATM   31  C19 UNL     1      27.457  24.808  -6.842  1.00  0.00     0.084 C 
HETATM   32  C20 UNL     1      27.921  24.986  -8.273  1.00  0.00     0.025 C 
HETATM   33  C21 UNL     1      27.968  26.439  -8.658  1.00  0.00     0.002 C 
HETATM   34  C22 UNL     1      28.250  27.334  -7.471  1.00  0.00     0.000 C 
HETATM   35  C23 UNL     1      29.161  26.545  -6.534  1.00  0.00     0.002 C 
HETATM   36  C24 UNL     1      28.305  25.521  -5.841  1.00  0.00     0.025 C 
ENDBRANCH  29  31
ENDBRANCH  25  27
ENDBRANCH   3  21
TORSDOF 8
ENDMDL
