MODEL 1
REMARK VINA RESULT: -4.523722732      0.000      0.000
REMARK  1 active torsions:
REMARK  status: ('A' for Active; 'I' for Inactive)
REMARK    1  A    between atoms: O1_1  and  C1_3 
ROOT
HETATM    1  C1  UNL     1      52.974  -9.943  57.739  1.00  0.00     0.059 C 
HETATM    2  C2  UNL     1      52.291 -11.138  57.127  1.00  0.00     0.042 C 
HETATM    3  C3  UNL     1      53.010 -12.375  57.583  1.00  0.00    -0.011 C 
HETATM    4  C4  UNL     1      53.025 -12.425  59.107  1.00  0.00     0.009 C 
HETATM    5  C5  UNL     1      53.745 -11.247  59.658  1.00  0.00    -0.011 C 
HETATM    6  C6  UNL     1      55.154 -11.093  59.191  1.00  0.00     0.009 C 
HETATM    7  C7  UNL     1      55.141 -11.123  57.664  1.00  0.00    -0.011 C 
HETATM    8  C8  UNL     1      54.457 -12.355  57.144  1.00  0.00     0.009 C 
HETATM    9  C9  UNL     1      54.401  -9.880  57.243  1.00  0.00     0.042 C 
HETATM   10  C10 UNL     1      52.993  -9.978  59.232  1.00  0.00     0.042 C 
ENDROOT
BRANCH   1  11
HETATM   11  O1  UNL     1      52.310  -8.804  57.289  1.00  0.00    -0.390 OA
ATOM     12  H1  UNL     1      52.968  -8.187  56.991  1.00  0.00     0.210 HD
ENDBRANCH   1  11
TORSDOF 1
ENDMDL
MODEL 2
REMARK VINA RESULT: -4.476677801      0.083      2.248
REMARK  1 active torsions:
REMARK  status: ('A' for Active; 'I' for Inactive)
REMARK    1  A    between atoms: O1_1  and  C1_3 
ROOT
HETATM    1  C1  UNL     1      52.988  -9.924  57.706  1.00  0.00     0.059 C 
HETATM    2  C2  UNL     1      52.955  -9.976  59.211  1.00  0.00     0.042 C 
HETATM    3  C3  UNL     1      53.697 -11.204  59.655  1.00  0.00    -0.011 C 
HETATM    4  C4  UNL     1      55.117 -11.171  59.101  1.00  0.00     0.009 C 
HETATM    5  C5  UNL     1      55.094 -11.162  57.614  1.00  0.00    -0.011 C 
HETATM    6  C6  UNL     1      54.383 -12.315  56.986  1.00  0.00     0.009 C 
HETATM    7  C7  UNL     1      52.989 -12.390  57.604  1.00  0.00    -0.011 C 
HETATM    8  C8  UNL     1      53.054 -12.457  59.103  1.00  0.00     0.009 C 
HETATM    9  C9  UNL     1      52.280 -11.139  57.153  1.00  0.00     0.042 C 
HETATM   10  C10 UNL     1      54.374  -9.888  57.149  1.00  0.00     0.042 C 
ENDROOT
BRANCH   1  11
HETATM   11  O1  UNL     1      52.278  -8.793  57.310  1.00  0.00    -0.390 OA
ATOM     12  H1  UNL     1      52.587  -8.062  57.833  1.00  0.00     0.210 HD
ENDBRANCH   1  11
TORSDOF 1
ENDMDL
MODEL 3
REMARK VINA RESULT: -4.471404788      6.338      7.784
REMARK  1 active torsions:
REMARK  status: ('A' for Active; 'I' for Inactive)
REMARK    1  A    between atoms: O1_1  and  C1_3 
ROOT
HETATM    1  C1  UNL     1      59.927  -6.247  56.799  1.00  0.00     0.059 C 
HETATM    2  C2  UNL     1      58.758  -6.903  57.484  1.00  0.00     0.042 C 
HETATM    3  C3  UNL     1      57.918  -7.579  56.439  1.00  0.00    -0.011 C 
HETATM    4  C4  UNL     1      58.773  -8.572  55.660  1.00  0.00     0.009 C 
HETATM    5  C5  UNL     1      59.887  -7.869  54.970  1.00  0.00    -0.011 C 
HETATM    6  C6  UNL     1      59.464  -6.790  54.028  1.00  0.00     0.009 C 
HETATM    7  C7  UNL     1      58.544  -5.842  54.794  1.00  0.00    -0.011 C 
HETATM    8  C8  UNL     1      57.400  -6.579  55.429  1.00  0.00     0.009 C 
HETATM    9  C9  UNL     1      59.413  -5.196  55.841  1.00  0.00     0.042 C 
HETATM   10  C10 UNL     1      60.776  -7.209  56.033  1.00  0.00     0.042 C 
ENDROOT
BRANCH   1  11
HETATM   11  O1  UNL     1      60.683  -5.607  57.778  1.00  0.00    -0.390 OA
ATOM     12  H1  UNL     1      61.573  -5.533  57.450  1.00  0.00     0.210 HD
ENDBRANCH   1  11
TORSDOF 1
ENDMDL
MODEL 4
REMARK VINA RESULT: -4.459415043      0.434      2.275
REMARK  1 active torsions:
REMARK  status: ('A' for Active; 'I' for Inactive)
REMARK    1  A    between atoms: O1_1  and  C1_3 
ROOT
HETATM    1  C1  UNL     1      52.940 -10.221  57.288  1.00  0.00     0.059 C 
HETATM    2  C2  UNL     1      54.381  -9.990  56.917  1.00  0.00     0.042 C 
HETATM    3  C3  UNL     1      55.222 -11.000  57.643  1.00  0.00    -0.011 C 
HETATM    4  C4  UNL     1      54.746 -12.406  57.295  1.00  0.00     0.009 C 
HETATM    5  C5  UNL     1      53.333 -12.595  57.719  1.00  0.00    -0.011 C 
HETATM    6  C6  UNL     1      53.074 -12.370  59.172  1.00  0.00     0.009 C 
HETATM    7  C7  UNL     1      53.625 -10.992  59.531  1.00  0.00    -0.011 C 
HETATM    8  C8  UNL     1      55.070 -10.857  59.141  1.00  0.00     0.009 C 
HETATM    9  C9  UNL     1      52.771 -10.007  58.775  1.00  0.00     0.042 C 
HETATM   10  C10 UNL     1      52.459 -11.594  56.950  1.00  0.00     0.042 C 
ENDROOT
BRANCH   1  11
HETATM   11  O1  UNL     1      52.176  -9.263  56.624  1.00  0.00    -0.390 OA
ATOM     12  H1  UNL     1      51.351  -9.183  57.089  1.00  0.00     0.210 HD
ENDBRANCH   1  11
TORSDOF 1
ENDMDL
MODEL 5
REMARK VINA RESULT: -4.451198036      1.480      2.951
REMARK  1 active torsions:
REMARK  status: ('A' for Active; 'I' for Inactive)
REMARK    1  A    between atoms: O1_1  and  C1_3 
ROOT
HETATM    1  C1  UNL     1      53.045 -11.819  58.432  1.00  0.00     0.059 C 
HETATM    2  C2  UNL     1      54.145 -11.095  59.162  1.00  0.00     0.042 C 
HETATM    3  C3  UNL     1      55.262 -10.835  58.192  1.00  0.00    -0.011 C 
HETATM    4  C4  UNL     1      54.731 -10.045  57.002  1.00  0.00     0.009 C 
HETATM    5  C5  UNL     1      53.679 -10.819  56.292  1.00  0.00    -0.011 C 
HETATM    6  C6  UNL     1      54.108 -12.161  55.797  1.00  0.00     0.009 C 
HETATM    7  C7  UNL     1      54.711 -12.917  56.979  1.00  0.00    -0.011 C 
HETATM    8  C8  UNL     1      55.809 -12.130  57.635  1.00  0.00     0.009 C 
HETATM    9  C9  UNL     1      53.570 -13.147  57.936  1.00  0.00     0.042 C 
HETATM   10  C10 UNL     1      52.513 -11.055  57.263  1.00  0.00     0.042 C 
ENDROOT
BRANCH   1  11
HETATM   11  O1  UNL     1      52.027 -12.072  59.348  1.00  0.00    -0.390 OA
ATOM     12  H1  UNL     1      52.393 -12.607  60.043  1.00  0.00     0.210 HD
ENDBRANCH   1  11
TORSDOF 1
ENDMDL
