MODEL 1
REMARK VINA RESULT: -5.475360836      0.000      0.000
REMARK  1 active torsions:
REMARK  status: ('A' for Active; 'I' for Inactive)
REMARK    1  A    between atoms: O1_1  and  C1_3 
ROOT
HETATM    1  C1  UNL     1      57.515  -6.874  56.053  1.00  0.00     0.122 C 
HETATM    2  C2  UNL     1      57.975  -7.272  54.654  1.00  0.00     0.032 C 
HETATM    3  C3  UNL     1      59.182  -6.465  54.283  1.00  0.00     0.003 C 
HETATM    4  C4  UNL     1      60.287  -6.575  55.274  1.00  0.00     0.005 C 
HETATM    5  C5  UNL     1      59.878  -6.593  56.692  1.00  0.00    -0.008 C 
HETATM    6  C6  UNL     1      59.724  -5.190  57.204  1.00  0.00     0.005 C 
HETATM    7  C7  UNL     1      59.599  -5.235  58.684  1.00  0.00     0.000 C 
HETATM    8  C8  UNL     1      58.588  -6.185  59.215  1.00  0.00     0.000 C 
HETATM    9  C9  UNL     1      58.253  -7.357  58.401  1.00  0.00     0.007 C 
HETATM   10  C10 UNL     1      58.637  -7.360  56.980  1.00  0.00     0.018 C 
ENDROOT
BRANCH   1  11
HETATM   11  O1  UNL     1      56.343  -7.562  56.303  1.00  0.00    -0.395 OA
ATOM     12  H1  UNL     1      55.707  -6.926  56.607  1.00  0.00     0.210 HD
ENDBRANCH   1  11
TORSDOF 1
ENDMDL
MODEL 2
REMARK VINA RESULT: -5.432479795      1.666      3.983
REMARK  1 active torsions:
REMARK  status: ('A' for Active; 'I' for Inactive)
REMARK    1  A    between atoms: O1_1  and  C1_3 
ROOT
HETATM    1  C1  UNL     1      59.426  -5.266  57.549  1.00  0.00     0.122 C 
HETATM    2  C2  UNL     1      59.305  -5.731  58.997  1.00  0.00     0.032 C 
HETATM    3  C3  UNL     1      58.162  -6.692  59.113  1.00  0.00     0.003 C 
HETATM    4  C4  UNL     1      58.268  -7.844  58.176  1.00  0.00     0.005 C 
HETATM    5  C5  UNL     1      58.769  -7.528  56.824  1.00  0.00    -0.008 C 
HETATM    6  C6  UNL     1      57.639  -7.076  55.946  1.00  0.00     0.005 C 
HETATM    7  C7  UNL     1      58.114  -7.044  54.538  1.00  0.00     0.000 C 
HETATM    8  C8  UNL     1      59.387  -6.315  54.306  1.00  0.00     0.000 C 
HETATM    9  C9  UNL     1      60.338  -6.222  55.417  1.00  0.00     0.007 C 
HETATM   10  C10 UNL     1      59.861  -6.519  56.777  1.00  0.00     0.018 C 
ENDROOT
BRANCH   1  11
HETATM   11  O1  UNL     1      60.418  -4.304  57.516  1.00  0.00    -0.395 OA
ATOM     12  H1  UNL     1      59.999  -3.482  57.291  1.00  0.00     0.210 HD
ENDBRANCH   1  11
TORSDOF 1
ENDMDL
MODEL 3
REMARK VINA RESULT: -5.410320950      1.749      3.280
REMARK  1 active torsions:
REMARK  status: ('A' for Active; 'I' for Inactive)
REMARK    1  A    between atoms: O1_1  and  C1_3 
ROOT
HETATM    1  C1  UNL     1      57.929  -7.333  58.191  1.00  0.00     0.122 C 
HETATM    2  C2  UNL     1      57.492  -8.774  58.429  1.00  0.00     0.032 C 
HETATM    3  C3  UNL     1      56.947  -9.342  57.155  1.00  0.00     0.003 C 
HETATM    4  C4  UNL     1      57.899  -9.242  56.015  1.00  0.00     0.005 C 
HETATM    5  C5  UNL     1      58.675  -7.989  55.935  1.00  0.00    -0.008 C 
HETATM    6  C6  UNL     1      57.887  -6.937  55.210  1.00  0.00     0.005 C 
HETATM    7  C7  UNL     1      58.790  -5.800  54.896  1.00  0.00     0.000 C 
HETATM    8  C8  UNL     1      59.587  -5.278  56.034  1.00  0.00     0.000 C 
HETATM    9  C9  UNL     1      59.899  -6.196  57.133  1.00  0.00     0.007 C 
HETATM   10  C10 UNL     1      59.131  -7.447  57.243  1.00  0.00     0.018 C 
ENDROOT
BRANCH   1  11
HETATM   11  O1  UNL     1      58.320  -6.822  59.414  1.00  0.00    -0.395 OA
ATOM     12  H1  UNL     1      58.607  -7.556  59.943  1.00  0.00     0.210 HD
ENDBRANCH   1  11
TORSDOF 1
ENDMDL
MODEL 4
REMARK VINA RESULT: -5.334144290      1.775      2.922
REMARK  1 active torsions:
REMARK  status: ('A' for Active; 'I' for Inactive)
REMARK    1  A    between atoms: O1_1  and  C1_3 
ROOT
HETATM    1  C1  UNL     1      60.018  -6.696  56.678  1.00  0.00     0.122 C 
HETATM    2  C2  UNL     1      60.086  -5.960  55.344  1.00  0.00     0.032 C 
HETATM    3  C3  UNL     1      59.326  -6.736  54.313  1.00  0.00     0.003 C 
HETATM    4  C4  UNL     1      57.920  -7.017  54.710  1.00  0.00     0.005 C 
HETATM    5  C5  UNL     1      57.711  -7.367  56.129  1.00  0.00    -0.008 C 
HETATM    6  C6  UNL     1      57.934  -8.837  56.337  1.00  0.00     0.005 C 
HETATM    7  C7  UNL     1      57.443  -9.205  57.690  1.00  0.00     0.000 C 
HETATM    8  C8  UNL     1      57.934  -8.356  58.805  1.00  0.00     0.000 C 
HETATM    9  C9  UNL     1      58.317  -6.975  58.501  1.00  0.00     0.007 C 
HETATM   10  C10 UNL     1      58.543  -6.602  57.095  1.00  0.00     0.018 C 
ENDROOT
BRANCH   1  11
HETATM   11  O1  UNL     1      60.820  -6.002  57.564  1.00  0.00    -0.395 OA
ATOM     12  H1  UNL     1      60.866  -6.518  58.359  1.00  0.00     0.210 HD
ENDBRANCH   1  11
TORSDOF 1
ENDMDL
MODEL 5
REMARK VINA RESULT: -5.183794585      1.479      3.350
REMARK  1 active torsions:
REMARK  status: ('A' for Active; 'I' for Inactive)
REMARK    1  A    between atoms: O1_1  and  C1_3 
ROOT
HETATM    1  C1  UNL     1      58.396  -7.413  57.981  1.00  0.00     0.122 C 
HETATM    2  C2  UNL     1      58.929  -6.068  58.464  1.00  0.00     0.032 C 
HETATM    3  C3  UNL     1      59.986  -5.587  57.518  1.00  0.00     0.003 C 
HETATM    4  C4  UNL     1      59.520  -5.515  56.107  1.00  0.00     0.005 C 
HETATM    5  C5  UNL     1      58.646  -6.618  55.662  1.00  0.00    -0.008 C 
HETATM    6  C6  UNL     1      59.476  -7.781  55.199  1.00  0.00     0.005 C 
HETATM    7  C7  UNL     1      58.591  -8.747  54.498  1.00  0.00     0.000 C 
HETATM    8  C8  UNL     1      57.359  -9.138  55.230  1.00  0.00     0.000 C 
HETATM    9  C9  UNL     1      56.808  -8.191  56.203  1.00  0.00     0.007 C 
HETATM   10  C10 UNL     1      57.662  -7.089  56.673  1.00  0.00     0.018 C 
ENDROOT
BRANCH   1  11
HETATM   11  O1  UNL     1      57.508  -7.863  58.939  1.00  0.00    -0.395 OA
ATOM     12  H1  UNL     1      56.823  -8.335  58.483  1.00  0.00     0.210 HD
ENDBRANCH   1  11
TORSDOF 1
ENDMDL
