MODEL 1
REMARK VINA RESULT: -5.805884351      0.000      0.000
REMARK  1 active torsions:
REMARK  status: ('A' for Active; 'I' for Inactive)
REMARK    1  A    between atoms: O1_1  and  C1_3 
ROOT
HETATM    1  C1  UNL     1      60.195  -5.104  58.097  1.00  0.00     0.118 C 
HETATM    2  C2  UNL     1      59.093  -5.345  59.085  1.00  0.00     0.032 C 
HETATM    3  C3  UNL     1      58.556  -6.742  58.842  1.00  0.00     0.003 C 
HETATM    4  C4  UNL     1      58.173  -7.003  57.435  1.00  0.00     0.010 C 
HETATM    5  C5  UNL     1      59.056  -6.416  56.398  1.00  0.00    -0.038 C 
HETATM    6  C6  UNL     1      58.266  -6.390  55.082  1.00  0.00     0.010 C 
HETATM    7  C7  UNL     1      59.307  -6.650  54.005  1.00  0.00     0.001 C 
HETATM    8  C8  UNL     1      60.156  -7.718  54.675  1.00  0.00     0.001 C 
HETATM    9  C9  UNL     1      60.294  -7.218  56.104  1.00  0.00     0.010 C 
HETATM   10  C10 UNL     1      59.497  -5.007  56.730  1.00  0.00     0.041 C 
ENDROOT
BRANCH   1  11
HETATM   11  O1  UNL     1      60.949  -3.984  58.352  1.00  0.00    -0.396 OA
ATOM     12  H1  UNL     1      61.405  -3.638  57.594  1.00  0.00     0.210 HD
ENDBRANCH   1  11
TORSDOF 1
ENDMDL
MODEL 2
REMARK VINA RESULT: -5.217978928      1.592      2.352
REMARK  1 active torsions:
REMARK  status: ('A' for Active; 'I' for Inactive)
REMARK    1  A    between atoms: O1_1  and  C1_3 
ROOT
HETATM    1  C1  UNL     1      60.065  -6.765  56.482  1.00  0.00     0.118 C 
HETATM    2  C2  UNL     1      58.709  -6.697  57.118  1.00  0.00     0.032 C 
HETATM    3  C3  UNL     1      57.805  -7.666  56.380  1.00  0.00     0.003 C 
HETATM    4  C4  UNL     1      57.793  -7.477  54.911  1.00  0.00     0.010 C 
HETATM    5  C5  UNL     1      59.094  -7.137  54.285  1.00  0.00    -0.038 C 
HETATM    6  C6  UNL     1      58.796  -6.538  52.904  1.00  0.00     0.010 C 
HETATM    7  C7  UNL     1      59.945  -7.009  52.026  1.00  0.00     0.001 C 
HETATM    8  C8  UNL     1      60.114  -8.440  52.514  1.00  0.00     0.001 C 
HETATM    9  C9  UNL     1      59.989  -8.317  54.024  1.00  0.00     0.010 C 
HETATM   10  C10 UNL     1      59.890  -6.133  55.091  1.00  0.00     0.041 C 
ENDROOT
BRANCH   1  11
HETATM   11  O1  UNL     1      61.057  -6.136  57.193  1.00  0.00    -0.396 OA
ATOM     12  H1  UNL     1      61.084  -6.365  58.115  1.00  0.00     0.210 HD
ENDBRANCH   1  11
TORSDOF 1
ENDMDL
MODEL 3
REMARK VINA RESULT: -5.103023501      1.687      2.527
REMARK  1 active torsions:
REMARK  status: ('A' for Active; 'I' for Inactive)
REMARK    1  A    between atoms: O1_1  and  C1_3 
ROOT
HETATM    1  C1  UNL     1      58.174  -6.792  58.270  1.00  0.00     0.118 C 
HETATM    2  C2  UNL     1      59.162  -5.912  58.975  1.00  0.00     0.032 C 
HETATM    3  C3  UNL     1      59.688  -4.910  57.965  1.00  0.00     0.003 C 
HETATM    4  C4  UNL     1      60.208  -5.526  56.722  1.00  0.00     0.010 C 
HETATM    5  C5  UNL     1      59.451  -6.692  56.205  1.00  0.00    -0.038 C 
HETATM    6  C6  UNL     1      60.373  -7.446  55.237  1.00  0.00     0.010 C 
HETATM    7  C7  UNL     1      59.444  -7.979  54.159  1.00  0.00     0.001 C 
HETATM    8  C8  UNL     1      58.504  -6.798  53.976  1.00  0.00     0.001 C 
HETATM    9  C9  UNL     1      58.231  -6.337  55.399  1.00  0.00     0.010 C 
HETATM   10  C10 UNL     1      59.012  -7.641  57.299  1.00  0.00     0.041 C 
ENDROOT
BRANCH   1  11
HETATM   11  O1  UNL     1      57.425  -7.585  59.105  1.00  0.00    -0.396 OA
ATOM     12  H1  UNL     1      57.934  -8.073  59.742  1.00  0.00     0.210 HD
ENDBRANCH   1  11
TORSDOF 1
ENDMDL
MODEL 4
REMARK VINA RESULT: -5.028340297      3.032      4.269
REMARK  1 active torsions:
REMARK  status: ('A' for Active; 'I' for Inactive)
REMARK    1  A    between atoms: O1_1  and  C1_3 
ROOT
HETATM    1  C1  UNL     1      56.681  -8.978  56.264  1.00  0.00     0.118 C 
HETATM    2  C2  UNL     1      56.665  -9.941  55.115  1.00  0.00     0.032 C 
HETATM    3  C3  UNL     1      58.086 -10.065  54.600  1.00  0.00     0.003 C 
HETATM    4  C4  UNL     1      58.730  -8.767  54.292  1.00  0.00     0.010 C 
HETATM    5  C5  UNL     1      58.431  -7.652  55.223  1.00  0.00    -0.038 C 
HETATM    6  C6  UNL     1      58.782  -6.344  54.501  1.00  0.00     0.010 C 
HETATM    7  C7  UNL     1      59.306  -5.430  55.597  1.00  0.00     0.001 C 
HETATM    8  C8  UNL     1      60.133  -6.407  56.418  1.00  0.00     0.001 C 
HETATM    9  C9  UNL     1      59.258  -7.649  56.479  1.00  0.00     0.010 C 
HETATM   10  C10 UNL     1      56.976  -7.606  55.637  1.00  0.00     0.041 C 
ENDROOT
BRANCH   1  11
HETATM   11  O1  UNL     1      55.519  -8.951  56.997  1.00  0.00    -0.396 OA
ATOM     12  H1  UNL     1      55.591  -8.499  57.829  1.00  0.00     0.210 HD
ENDBRANCH   1  11
TORSDOF 1
ENDMDL
MODEL 5
REMARK VINA RESULT: -5.007265783      2.227      3.158
REMARK  1 active torsions:
REMARK  status: ('A' for Active; 'I' for Inactive)
REMARK    1  A    between atoms: O1_1  and  C1_3 
ROOT
HETATM    1  C1  UNL     1      58.477  -6.486  58.186  1.00  0.00     0.118 C 
HETATM    2  C2  UNL     1      59.718  -5.899  57.584  1.00  0.00     0.032 C 
HETATM    3  C3  UNL     1      59.460  -5.695  56.104  1.00  0.00     0.003 C 
HETATM    4  C4  UNL     1      58.966  -6.906  55.408  1.00  0.00     0.010 C 
HETATM    5  C5  UNL     1      58.009  -7.749  56.163  1.00  0.00    -0.038 C 
HETATM    6  C6  UNL     1      57.990  -9.132  55.498  1.00  0.00     0.010 C 
HETATM    7  C7  UNL     1      56.553  -9.607  55.639  1.00  0.00     0.001 C 
HETATM    8  C8  UNL     1      55.795  -8.319  55.359  1.00  0.00     0.001 C 
HETATM    9  C9  UNL     1      56.584  -7.268  56.122  1.00  0.00     0.010 C 
HETATM   10  C10 UNL     1      58.390  -7.913  57.618  1.00  0.00     0.041 C 
ENDROOT
BRANCH   1  11
HETATM   11  O1  UNL     1      58.463  -6.495  59.559  1.00  0.00    -0.396 OA
ATOM     12  H1  UNL     1      57.821  -7.082  59.941  1.00  0.00     0.210 HD
ENDBRANCH   1  11
TORSDOF 1
ENDMDL
