MODEL 1
REMARK VINA RESULT: -8.992282903      0.000      0.000
REMARK  13 active torsions:
REMARK  status: ('A' for Active; 'I' for Inactive)
REMARK    1  A    between atoms: C3_3  and  C4_4 
REMARK    2  A    between atoms: C4_4  and  C5_5 
REMARK    3  A    between atoms: C4_4  and  C11_11 
REMARK    4  A    between atoms: C5_5  and  C6_6 
REMARK    5  A    between atoms: C6_6  and  C7_7 
REMARK    6  A    between atoms: C7_7  and  C8_8 
REMARK    7  A    between atoms: C12_12  and  C13_13 
REMARK    8  A    between atoms: C13_13  and  C14_14 
REMARK    9  A    between atoms: C15_15  and  O1_16 
REMARK   10  A    between atoms: N2_29  and  C24_30 
REMARK   11  A    between atoms: C24_30  and  C25_31 
REMARK   12  A    between atoms: N5_38  and  C27_39 
REMARK   13  A    between atoms: C27_39  and  C28_40 
ROOT
HETATM    1  C1  UNL     1      40.525  28.694  24.994  1.00  0.00     0.112 C 
HETATM    2  C2  UNL     1      39.577  29.531  25.717  1.00  0.00    -0.106 C 
HETATM    3  C3  UNL     1      38.758  30.228  26.315  1.00  0.00    -0.069 C 
ENDROOT
BRANCH   3   4
HETATM    4  C4  UNL     1      37.836  31.135  27.002  1.00  0.00     0.023 C 
BRANCH   4   5
HETATM    5  C5  UNL     1      38.650  31.965  27.969  1.00  0.00     0.050 C 
BRANCH   5   6
HETATM    6  C6  UNL     1      38.931  31.103  29.254  1.00  0.00     0.006 C 
BRANCH   6   7
HETATM    7  C7  UNL     1      40.356  31.308  29.678  1.00  0.00     0.004 C 
BRANCH   7   8
HETATM    8  C8  UNL     1      41.349  30.517  28.894  1.00  0.00    -0.023 C 
HETATM    9  C9  UNL     1      41.278  29.037  29.172  1.00  0.00     0.009 C 
HETATM   10  C10 UNL     1      42.772  30.958  29.169  1.00  0.00     0.009 C 
ENDBRANCH   7   8
ENDBRANCH   6   7
ENDBRANCH   5   6
ENDBRANCH   4   5
BRANCH   4  11
HETATM   11  C11 UNL     1      36.529  31.156  26.921  1.00  0.00     0.060 A 
HETATM   12  C12 UNL     1      35.566  30.506  27.695  1.00  0.00     0.000 A 
HETATM   13  C21 UNL     1      34.363  30.429  26.928  1.00  0.00    -0.034 A 
HETATM   14  C22 UNL     1      33.061  29.822  27.303  1.00  0.00     0.050 C 
HETATM   15  C23 UNL     1      34.620  31.022  25.764  1.00  0.00     0.099 A 
HETATM   16  N2  UNL     1      35.931  31.479  25.728  1.00  0.00    -0.348 N 
BRANCH  12  17
HETATM   17  C13 UNL     1      35.515  30.228  28.946  1.00  0.00     0.030 C 
BRANCH  17  18
HETATM   18  C14 UNL     1      35.136  29.219  29.870  1.00  0.00     0.022 A 
HETATM   19  C15 UNL     1      34.143  29.474  30.831  1.00  0.00     0.153 A 
HETATM   20  N1  UNL     1      33.793  28.573  31.760  1.00  0.00    -0.303 N 
HETATM   21  C16 UNL     1      34.382  27.369  31.817  1.00  0.00     0.253 A 
ATOM     22  H1  UNL     1      33.066  28.807  32.436  1.00  0.00     0.171 HD
HETATM   23  O2  UNL     1      34.077  26.505  32.673  1.00  0.00    -0.268 OA
HETATM   24  C17 UNL     1      35.364  27.029  30.920  1.00  0.00     0.013 A 
HETATM   25  C18 UNL     1      36.052  25.714  30.932  1.00  0.00     0.054 C 
HETATM   26  C19 UNL     1      35.726  27.954  29.964  1.00  0.00    -0.036 A 
HETATM   27  C20 UNL     1      36.793  27.602  29.014  1.00  0.00     0.050 C 
BRANCH  19  28
HETATM   28  O1  UNL     1      33.481  30.712  30.835  1.00  0.00    -0.345 OA
ATOM     29  H1  UNL     1      33.414  31.206  31.644  1.00  0.00     0.219 HD
ENDBRANCH  19  28
ENDBRANCH  17  18
ENDBRANCH  12  17
BRANCH  16  30
HETATM   30  C24 UNL     1      36.317  32.149  24.530  1.00  0.00     0.206 C 
BRANCH  30  31
HETATM   31  C25 UNL     1      36.272  33.637  24.650  1.00  0.00     0.121 A 
HETATM   32  N3  UNL     1      35.400  34.268  25.481  1.00  0.00    -0.283 N 
HETATM   33  N4  UNL     1      35.540  35.553  25.401  1.00  0.00    -0.250 N 
ATOM     34  H3  UNL     1      34.728  33.794  26.083  1.00  0.00     0.188 HD
HETATM   35  C26 UNL     1      36.523  35.798  24.500  1.00  0.00     0.342 A 
ATOM     36  H4  UNL     1      35.009  36.252  25.920  1.00  0.00     0.192 HD
HETATM   37  O3  UNL     1      36.904  36.946  24.195  1.00  0.00    -0.245 OA
HETATM   38  N5  UNL     1      36.965  34.591  24.043  1.00  0.00    -0.281 N 
BRANCH  38  39
HETATM   39  C27 UNL     1      37.978  34.457  23.052  1.00  0.00     0.173 C 
BRANCH  39  40
HETATM   40  C28 UNL     1      39.188  33.795  23.616  1.00  0.00    -0.039 A 
HETATM   41  C29 UNL     1      39.732  34.144  24.826  1.00  0.00     0.015 A 
HETATM   42  C30 UNL     1      40.846  33.505  25.312  1.00  0.00    -0.061 A 
HETATM   43  C31 UNL     1      41.440  33.888  26.633  1.00  0.00     0.048 C 
HETATM   44  C32 UNL     1      41.431  32.483  24.558  1.00  0.00     0.013 A 
HETATM   45  C33 UNL     1      40.900  32.120  23.346  1.00  0.00    -0.061 A 
HETATM   46  C34 UNL     1      41.532  31.043  22.570  1.00  0.00     0.048 C 
HETATM   47  C35 UNL     1      39.780  32.784  22.890  1.00  0.00     0.015 A 
ENDBRANCH  39  40
ENDBRANCH  38  39
ENDBRANCH  30  31
ENDBRANCH  16  30
ENDBRANCH   4  11
ENDBRANCH   3   4
TORSDOF 13
ENDMDL
MODEL 2
REMARK VINA RESULT: -8.839972912      0.080      1.296
REMARK  13 active torsions:
REMARK  status: ('A' for Active; 'I' for Inactive)
REMARK    1  A    between atoms: C3_3  and  C4_4 
REMARK    2  A    between atoms: C4_4  and  C5_5 
REMARK    3  A    between atoms: C4_4  and  C11_11 
REMARK    4  A    between atoms: C5_5  and  C6_6 
REMARK    5  A    between atoms: C6_6  and  C7_7 
REMARK    6  A    between atoms: C7_7  and  C8_8 
REMARK    7  A    between atoms: C12_12  and  C13_13 
REMARK    8  A    between atoms: C13_13  and  C14_14 
REMARK    9  A    between atoms: C15_15  and  O1_16 
REMARK   10  A    between atoms: N2_29  and  C24_30 
REMARK   11  A    between atoms: C24_30  and  C25_31 
REMARK   12  A    between atoms: N5_38  and  C27_39 
REMARK   13  A    between atoms: C27_39  and  C28_40 
ROOT
HETATM    1  C1  UNL     1      40.437  28.688  24.995  1.00  0.00     0.112 C 
HETATM    2  C2  UNL     1      39.553  29.581  25.732  1.00  0.00    -0.106 C 
HETATM    3  C3  UNL     1      38.810  30.321  26.375  1.00  0.00    -0.069 C 
ENDROOT
BRANCH   3   4
HETATM    4  C4  UNL     1      37.857  31.187  27.075  1.00  0.00     0.023 C 
BRANCH   4   5
HETATM    5  C5  UNL     1      38.636  31.995  28.088  1.00  0.00     0.050 C 
BRANCH   5   6
HETATM    6  C6  UNL     1      38.945  31.078  29.327  1.00  0.00     0.006 C 
BRANCH   6   7
HETATM    7  C7  UNL     1      40.372  31.284  29.744  1.00  0.00     0.004 C 
BRANCH   7   8
HETATM    8  C8  UNL     1      41.364  30.519  28.934  1.00  0.00    -0.023 C 
HETATM    9  C9  UNL     1      41.333  29.037  29.206  1.00  0.00     0.009 C 
HETATM   10  C10 UNL     1      42.783  30.990  29.180  1.00  0.00     0.009 C 
ENDBRANCH   7   8
ENDBRANCH   6   7
ENDBRANCH   5   6
ENDBRANCH   4   5
BRANCH   4  11
HETATM   11  C11 UNL     1      36.552  31.190  26.966  1.00  0.00     0.060 A 
HETATM   12  C12 UNL     1      35.582  30.531  27.723  1.00  0.00     0.000 A 
HETATM   13  C21 UNL     1      34.397  30.433  26.932  1.00  0.00    -0.034 A 
HETATM   14  C22 UNL     1      33.096  29.810  27.283  1.00  0.00     0.050 C 
HETATM   15  C23 UNL     1      34.670  31.022  25.770  1.00  0.00     0.099 A 
HETATM   16  N2  UNL     1      35.975  31.497  25.758  1.00  0.00    -0.348 N 
BRANCH  12  17
HETATM   17  C13 UNL     1      35.509  30.260  28.975  1.00  0.00     0.030 C 
BRANCH  17  18
HETATM   18  C14 UNL     1      35.098  29.263  29.898  1.00  0.00     0.022 A 
HETATM   19  C15 UNL     1      34.088  29.536  30.836  1.00  0.00     0.153 A 
HETATM   20  N1  UNL     1      33.708  28.647  31.763  1.00  0.00    -0.303 N 
HETATM   21  C16 UNL     1      34.281  27.436  31.842  1.00  0.00     0.253 A 
ATOM     22  H1  UNL     1      32.969  28.894  32.422  1.00  0.00     0.171 HD
HETATM   23  O2  UNL     1      33.947  26.582  32.698  1.00  0.00    -0.268 OA
HETATM   24  C17 UNL     1      35.278  27.078  30.968  1.00  0.00     0.013 A 
HETATM   25  C18 UNL     1      35.950  25.755  31.005  1.00  0.00     0.054 C 
HETATM   26  C19 UNL     1      35.671  27.991  30.014  1.00  0.00    -0.036 A 
HETATM   27  C20 UNL     1      36.753  27.620  29.089  1.00  0.00     0.050 C 
BRANCH  19  28
HETATM   28  O1  UNL     1      33.441  30.782  30.817  1.00  0.00    -0.345 OA
ATOM     29  H1  UNL     1      32.492  30.819  30.836  1.00  0.00     0.219 HD
ENDBRANCH  19  28
ENDBRANCH  17  18
ENDBRANCH  12  17
BRANCH  16  30
HETATM   30  C24 UNL     1      36.378  32.165  24.564  1.00  0.00     0.206 C 
BRANCH  30  31
HETATM   31  C25 UNL     1      36.314  33.653  24.676  1.00  0.00     0.121 A 
HETATM   32  N3  UNL     1      35.452  34.277  25.521  1.00  0.00    -0.283 N 
HETATM   33  N4  UNL     1      35.572  35.564  25.430  1.00  0.00    -0.250 N 
ATOM     34  H3  UNL     1      34.800  33.798  26.142  1.00  0.00     0.188 HD
HETATM   35  C26 UNL     1      36.531  35.816  24.506  1.00  0.00     0.342 A 
ATOM     36  H4  UNL     1      35.043  36.259  25.956  1.00  0.00     0.192 HD
HETATM   37  O3  UNL     1      36.889  36.968  24.185  1.00  0.00    -0.245 OA
HETATM   38  N5  UNL     1      36.980  34.612  24.047  1.00  0.00    -0.281 N 
BRANCH  38  39
HETATM   39  C27 UNL     1      37.973  34.486  23.035  1.00  0.00     0.173 C 
BRANCH  39  40
HETATM   40  C28 UNL     1      39.178  33.783  23.559  1.00  0.00    -0.039 A 
HETATM   41  C29 UNL     1      39.800  32.767  22.879  1.00  0.00     0.015 A 
HETATM   42  C30 UNL     1      40.912  32.147  23.395  1.00  0.00    -0.061 A 
HETATM   43  C31 UNL     1      41.591  31.038  22.652  1.00  0.00     0.048 C 
HETATM   44  C32 UNL     1      41.413  32.562  24.633  1.00  0.00     0.013 A 
HETATM   45  C33 UNL     1      40.803  33.577  25.328  1.00  0.00    -0.061 A 
HETATM   46  C34 UNL     1      41.346  33.996  26.627  1.00  0.00     0.048 C 
HETATM   47  C35 UNL     1      39.688  34.176  24.777  1.00  0.00     0.015 A 
ENDBRANCH  39  40
ENDBRANCH  38  39
ENDBRANCH  30  31
ENDBRANCH  16  30
ENDBRANCH   4  11
ENDBRANCH   3   4
TORSDOF 13
ENDMDL
MODEL 3
REMARK VINA RESULT: -8.746297400      2.141      8.262
REMARK  13 active torsions:
REMARK  status: ('A' for Active; 'I' for Inactive)
REMARK    1  A    between atoms: C3_3  and  C4_4 
REMARK    2  A    between atoms: C4_4  and  C5_5 
REMARK    3  A    between atoms: C4_4  and  C11_11 
REMARK    4  A    between atoms: C5_5  and  C6_6 
REMARK    5  A    between atoms: C6_6  and  C7_7 
REMARK    6  A    between atoms: C7_7  and  C8_8 
REMARK    7  A    between atoms: C12_12  and  C13_13 
REMARK    8  A    between atoms: C13_13  and  C14_14 
REMARK    9  A    between atoms: C15_15  and  O1_16 
REMARK   10  A    between atoms: N2_29  and  C24_30 
REMARK   11  A    between atoms: C24_30  and  C25_31 
REMARK   12  A    between atoms: N5_38  and  C27_39 
REMARK   13  A    between atoms: C27_39  and  C28_40 
ROOT
HETATM    1  C1  UNL     1      38.330  31.357  29.469  1.00  0.00     0.112 C 
HETATM    2  C2  UNL     1      38.137  31.303  28.025  1.00  0.00    -0.106 C 
HETATM    3  C3  UNL     1      37.984  31.280  26.805  1.00  0.00    -0.069 C 
ENDROOT
BRANCH   3   4
HETATM    4  C4  UNL     1      37.709  31.231  25.367  1.00  0.00     0.023 C 
BRANCH   4   5
HETATM    5  C5  UNL     1      38.468  30.053  24.799  1.00  0.00     0.050 C 
BRANCH   5   6
HETATM    6  C6  UNL     1      40.008  30.353  24.906  1.00  0.00     0.006 C 
BRANCH   6   7
HETATM    7  C7  UNL     1      40.566  30.544  23.526  1.00  0.00     0.004 C 
BRANCH   7   8
HETATM    8  C8  UNL     1      42.047  30.716  23.482  1.00  0.00    -0.023 C 
HETATM    9  C9  UNL     1      42.639  31.091  24.817  1.00  0.00     0.009 C 
HETATM   10  C10 UNL     1      42.467  31.782  22.490  1.00  0.00     0.009 C 
ENDBRANCH   7   8
ENDBRANCH   6   7
ENDBRANCH   5   6
ENDBRANCH   4   5
BRANCH   4  11
HETATM   11  C11 UNL     1      37.046  32.104  24.650  1.00  0.00     0.060 A 
HETATM   12  C12 UNL     1      37.497  33.227  23.954  1.00  0.00     0.000 A 
HETATM   13  C21 UNL     1      36.388  34.109  23.776  1.00  0.00    -0.034 A 
HETATM   14  C22 UNL     1      36.355  35.435  23.109  1.00  0.00     0.050 C 
HETATM   15  C23 UNL     1      35.339  33.513  24.338  1.00  0.00     0.099 A 
HETATM   16  N2  UNL     1      35.705  32.287  24.878  1.00  0.00    -0.348 N 
BRANCH  12  17
HETATM   17  C13 UNL     1      38.572  33.452  23.292  1.00  0.00     0.030 C 
BRANCH  17  18
HETATM   18  C14 UNL     1      39.722  34.283  23.241  1.00  0.00     0.022 A 
HETATM   19  C15 UNL     1      40.055  34.962  22.057  1.00  0.00     0.153 A 
HETATM   20  N1  UNL     1      41.161  35.712  21.944  1.00  0.00    -0.303 N 
HETATM   21  C16 UNL     1      42.013  35.852  22.971  1.00  0.00     0.253 A 
ATOM     22  H1  UNL     1      41.358  36.184  21.062  1.00  0.00     0.171 HD
HETATM   23  O2  UNL     1      43.055  36.546  22.897  1.00  0.00    -0.268 OA
HETATM   24  C17 UNL     1      41.771  35.226  24.169  1.00  0.00     0.013 A 
HETATM   25  C18 UNL     1      42.676  35.342  25.340  1.00  0.00     0.054 C 
HETATM   26  C19 UNL     1      40.636  34.454  24.287  1.00  0.00    -0.036 A 
HETATM   27  C20 UNL     1      40.383  33.765  25.562  1.00  0.00     0.050 C 
BRANCH  19  28
HETATM   28  O1  UNL     1      39.213  34.864  20.939  1.00  0.00    -0.345 OA
ATOM     29  H1  UNL     1      39.123  34.031  20.489  1.00  0.00     0.219 HD
ENDBRANCH  19  28
ENDBRANCH  17  18
ENDBRANCH  12  17
BRANCH  16  30
HETATM   30  C24 UNL     1      34.654  31.546  25.495  1.00  0.00     0.206 C 
BRANCH  30  31
HETATM   31  C25 UNL     1      34.429  31.926  26.922  1.00  0.00     0.121 A 
HETATM   32  N3  UNL     1      34.820  33.129  27.419  1.00  0.00    -0.283 N 
HETATM   33  N4  UNL     1      34.530  33.220  28.678  1.00  0.00    -0.250 N 
ATOM     34  H3  UNL     1      35.279  33.859  26.875  1.00  0.00     0.188 HD
HETATM   35  C26 UNL     1      33.934  32.058  29.041  1.00  0.00     0.342 A 
ATOM     36  H4  UNL     1      34.717  34.018  29.285  1.00  0.00     0.192 HD
HETATM   37  O3  UNL     1      33.529  31.826  30.199  1.00  0.00    -0.245 OA
HETATM   38  N5  UNL     1      33.881  31.264  27.932  1.00  0.00    -0.281 N 
BRANCH  38  39
HETATM   39  C27 UNL     1      33.347  29.946  27.944  1.00  0.00     0.173 C 
BRANCH  39  40
HETATM   40  C28 UNL     1      34.221  29.025  28.724  1.00  0.00    -0.039 A 
HETATM   41  C29 UNL     1      35.533  28.789  28.397  1.00  0.00     0.015 A 
HETATM   42  C30 UNL     1      36.306  27.936  29.145  1.00  0.00    -0.061 A 
HETATM   43  C31 UNL     1      37.737  27.679  28.787  1.00  0.00     0.048 C 
HETATM   44  C32 UNL     1      35.743  27.299  30.256  1.00  0.00     0.013 A 
HETATM   45  C33 UNL     1      34.432  27.523  30.598  1.00  0.00    -0.061 A 
HETATM   46  C34 UNL     1      33.861  26.844  31.769  1.00  0.00     0.048 C 
HETATM   47  C35 UNL     1      33.687  28.387  29.822  1.00  0.00     0.015 A 
ENDBRANCH  39  40
ENDBRANCH  38  39
ENDBRANCH  30  31
ENDBRANCH  16  30
ENDBRANCH   4  11
ENDBRANCH   3   4
TORSDOF 13
ENDMDL
MODEL 4
REMARK VINA RESULT: -8.697285955      2.122      8.201
REMARK  13 active torsions:
REMARK  status: ('A' for Active; 'I' for Inactive)
REMARK    1  A    between atoms: C3_3  and  C4_4 
REMARK    2  A    between atoms: C4_4  and  C5_5 
REMARK    3  A    between atoms: C4_4  and  C11_11 
REMARK    4  A    between atoms: C5_5  and  C6_6 
REMARK    5  A    between atoms: C6_6  and  C7_7 
REMARK    6  A    between atoms: C7_7  and  C8_8 
REMARK    7  A    between atoms: C12_12  and  C13_13 
REMARK    8  A    between atoms: C13_13  and  C14_14 
REMARK    9  A    between atoms: C15_15  and  O1_16 
REMARK   10  A    between atoms: N2_29  and  C24_30 
REMARK   11  A    between atoms: C24_30  and  C25_31 
REMARK   12  A    between atoms: N5_38  and  C27_39 
REMARK   13  A    between atoms: C27_39  and  C28_40 
ROOT
HETATM    1  C1  UNL     1      38.486  31.331  29.455  1.00  0.00     0.112 C 
HETATM    2  C2  UNL     1      38.201  31.338  28.026  1.00  0.00    -0.106 C 
HETATM    3  C3  UNL     1      37.938  31.350  26.824  1.00  0.00    -0.069 C 
ENDROOT
BRANCH   3   4
HETATM    4  C4  UNL     1      37.657  31.275  25.388  1.00  0.00     0.023 C 
BRANCH   4   5
HETATM    5  C5  UNL     1      38.403  30.079  24.841  1.00  0.00     0.050 C 
BRANCH   5   6
HETATM    6  C6  UNL     1      39.945  30.369  24.928  1.00  0.00     0.006 C 
BRANCH   6   7
HETATM    7  C7  UNL     1      40.488  30.548  23.540  1.00  0.00     0.004 C 
BRANCH   7   8
HETATM    8  C8  UNL     1      41.967  30.740  23.480  1.00  0.00    -0.023 C 
HETATM    9  C9  UNL     1      42.559  31.187  24.793  1.00  0.00     0.009 C 
HETATM   10  C10 UNL     1      42.366  31.763  22.437  1.00  0.00     0.009 C 
ENDBRANCH   7   8
ENDBRANCH   6   7
ENDBRANCH   5   6
ENDBRANCH   4   5
BRANCH   4  11
HETATM   11  C11 UNL     1      37.000  32.140  24.657  1.00  0.00     0.060 A 
HETATM   12  C12 UNL     1      37.456  33.256  23.954  1.00  0.00     0.000 A 
HETATM   13  C21 UNL     1      36.347  34.136  23.757  1.00  0.00    -0.034 A 
HETATM   14  C22 UNL     1      36.319  35.455  23.077  1.00  0.00     0.050 C 
HETATM   15  C23 UNL     1      35.294  33.544  24.315  1.00  0.00     0.099 A 
HETATM   16  N2  UNL     1      35.656  32.324  24.871  1.00  0.00    -0.348 N 
BRANCH  12  17
HETATM   17  C13 UNL     1      38.537  33.476  23.299  1.00  0.00     0.030 C 
BRANCH  17  18
HETATM   18  C14 UNL     1      39.697  34.294  23.264  1.00  0.00     0.022 A 
HETATM   19  C15 UNL     1      40.058  34.962  22.082  1.00  0.00     0.153 A 
HETATM   20  N1  UNL     1      41.174  35.698  21.984  1.00  0.00    -0.303 N 
HETATM   21  C16 UNL     1      42.010  35.834  23.024  1.00  0.00     0.253 A 
ATOM     22  H1  UNL     1      41.392  36.164  21.103  1.00  0.00     0.171 HD
HETATM   23  O2  UNL     1      43.061  36.515  22.965  1.00  0.00    -0.268 OA
HETATM   24  C17 UNL     1      41.741  35.218  24.221  1.00  0.00     0.013 A 
HETATM   25  C18 UNL     1      42.627  35.329  25.407  1.00  0.00     0.054 C 
HETATM   26  C19 UNL     1      40.595  34.460  24.324  1.00  0.00    -0.036 A 
HETATM   27  C20 UNL     1      40.313  33.780  25.598  1.00  0.00     0.050 C 
BRANCH  19  28
HETATM   28  O1  UNL     1      39.233  34.868  20.950  1.00  0.00    -0.345 OA
ATOM     29  H1  UNL     1      39.619  34.906  20.082  1.00  0.00     0.219 HD
ENDBRANCH  19  28
ENDBRANCH  17  18
ENDBRANCH  12  17
BRANCH  16  30
HETATM   30  C24 UNL     1      34.601  31.588  25.485  1.00  0.00     0.206 C 
BRANCH  30  31
HETATM   31  C25 UNL     1      34.394  31.947  26.921  1.00  0.00     0.121 A 
HETATM   32  N3  UNL     1      34.797  33.141  27.431  1.00  0.00    -0.283 N 
HETATM   33  N4  UNL     1      34.523  33.214  28.695  1.00  0.00    -0.250 N 
ATOM     34  H3  UNL     1      35.253  33.877  26.893  1.00  0.00     0.188 HD
HETATM   35  C26 UNL     1      33.926  32.050  29.048  1.00  0.00     0.342 A 
ATOM     36  H4  UNL     1      34.721  34.003  29.311  1.00  0.00     0.192 HD
HETATM   37  O3  UNL     1      33.533  31.803  30.206  1.00  0.00    -0.245 OA
HETATM   38  N5  UNL     1      33.856  31.273  27.928  1.00  0.00    -0.281 N 
BRANCH  38  39
HETATM   39  C27 UNL     1      33.315  29.957  27.926  1.00  0.00     0.173 C 
BRANCH  39  40
HETATM   40  C28 UNL     1      34.152  29.038  28.747  1.00  0.00    -0.039 A 
HETATM   41  C29 UNL     1      33.672  28.381  29.852  1.00  0.00     0.015 A 
HETATM   42  C30 UNL     1      34.476  27.539  30.580  1.00  0.00    -0.061 A 
HETATM   43  C31 UNL     1      33.950  26.822  31.785  1.00  0.00     0.048 C 
HETATM   44  C32 UNL     1      35.805  27.352  30.186  1.00  0.00     0.013 A 
HETATM   45  C33 UNL     1      36.303  28.001  29.083  1.00  0.00    -0.061 A 
HETATM   46  C34 UNL     1      37.702  27.791  28.688  1.00  0.00     0.048 C 
HETATM   47  C35 UNL     1      35.465  28.839  28.377  1.00  0.00     0.015 A 
ENDBRANCH  39  40
ENDBRANCH  38  39
ENDBRANCH  30  31
ENDBRANCH  16  30
ENDBRANCH   4  11
ENDBRANCH   3   4
TORSDOF 13
ENDMDL
MODEL 5
REMARK VINA RESULT: -8.685453073      2.044      4.074
REMARK  13 active torsions:
REMARK  status: ('A' for Active; 'I' for Inactive)
REMARK    1  A    between atoms: C3_3  and  C4_4 
REMARK    2  A    between atoms: C4_4  and  C5_5 
REMARK    3  A    between atoms: C4_4  and  C11_11 
REMARK    4  A    between atoms: C5_5  and  C6_6 
REMARK    5  A    between atoms: C6_6  and  C7_7 
REMARK    6  A    between atoms: C7_7  and  C8_8 
REMARK    7  A    between atoms: C12_12  and  C13_13 
REMARK    8  A    between atoms: C13_13  and  C14_14 
REMARK    9  A    between atoms: C15_15  and  O1_16 
REMARK   10  A    between atoms: N2_29  and  C24_30 
REMARK   11  A    between atoms: C24_30  and  C25_31 
REMARK   12  A    between atoms: N5_38  and  C27_39 
REMARK   13  A    between atoms: C27_39  and  C28_40 
ROOT
HETATM    1  C1  UNL     1      40.674  28.846  25.016  1.00  0.00     0.112 C 
HETATM    2  C2  UNL     1      39.669  29.648  25.702  1.00  0.00    -0.106 C 
HETATM    3  C3  UNL     1      38.831  30.345  26.273  1.00  0.00    -0.069 C 
ENDROOT
BRANCH   3   4
HETATM    4  C4  UNL     1      37.857  31.131  27.034  1.00  0.00     0.023 C 
BRANCH   4   5
HETATM    5  C5  UNL     1      38.625  31.962  28.036  1.00  0.00     0.050 C 
BRANCH   5   6
HETATM    6  C6  UNL     1      38.839  31.105  29.337  1.00  0.00     0.006 C 
BRANCH   6   7
HETATM    7  C7  UNL     1      40.264  31.243  29.785  1.00  0.00     0.004 C 
BRANCH   7   8
HETATM    8  C8  UNL     1      41.236  30.429  28.998  1.00  0.00    -0.023 C 
HETATM    9  C9  UNL     1      41.141  28.952  29.288  1.00  0.00     0.009 C 
HETATM   10  C10 UNL     1      42.669  30.846  29.258  1.00  0.00     0.009 C 
ENDBRANCH   7   8
ENDBRANCH   6   7
ENDBRANCH   5   6
ENDBRANCH   4   5
BRANCH   4  11
HETATM   11  C11 UNL     1      36.550  31.052  26.979  1.00  0.00     0.060 A 
HETATM   12  C12 UNL     1      35.670  30.191  27.637  1.00  0.00     0.000 A 
HETATM   13  C21 UNL     1      34.454  30.148  26.888  1.00  0.00    -0.034 A 
HETATM   14  C22 UNL     1      33.220  29.372  27.167  1.00  0.00     0.050 C 
HETATM   15  C23 UNL     1      34.624  30.961  25.848  1.00  0.00     0.099 A 
HETATM   16  N2  UNL     1      35.891  31.530  25.874  1.00  0.00    -0.348 N 
BRANCH  12  17
HETATM   17  C13 UNL     1      35.682  29.689  28.817  1.00  0.00     0.030 C 
BRANCH  17  18
HETATM   18  C14 UNL     1      35.569  28.468  29.532  1.00  0.00     0.022 A 
HETATM   19  C15 UNL     1      34.478  28.247  30.391  1.00  0.00     0.153 A 
HETATM   20  N1  UNL     1      34.358  27.136  31.130  1.00  0.00    -0.303 N 
HETATM   21  C16 UNL     1      35.286  26.168  31.085  1.00  0.00     0.253 A 
ATOM     22  H1  UNL     1      33.547  27.023  31.738  1.00  0.00     0.171 HD
HETATM   23  O2  UNL     1      35.203  25.116  31.764  1.00  0.00    -0.268 OA
HETATM   24  C17 UNL     1      36.388  26.294  30.276  1.00  0.00     0.013 A 
HETATM   25  C18 UNL     1      37.448  25.259  30.184  1.00  0.00     0.054 C 
HETATM   26  C19 UNL     1      36.514  27.436  29.515  1.00  0.00    -0.036 A 
HETATM   27  C20 UNL     1      37.704  27.586  28.662  1.00  0.00     0.050 C 
BRANCH  19  28
HETATM   28  O1  UNL     1      33.466  29.215  30.492  1.00  0.00    -0.345 OA
ATOM     29  H1  UNL     1      32.934  29.420  29.731  1.00  0.00     0.219 HD
ENDBRANCH  19  28
ENDBRANCH  17  18
ENDBRANCH  12  17
BRANCH  16  30
HETATM   30  C24 UNL     1      36.182  32.436  24.812  1.00  0.00     0.206 C 
BRANCH  30  31
HETATM   31  C25 UNL     1      35.013  33.282  24.426  1.00  0.00     0.121 A 
HETATM   32  N3  UNL     1      34.356  33.112  23.248  1.00  0.00    -0.283 N 
HETATM   33  N4  UNL     1      33.392  33.969  23.134  1.00  0.00    -0.250 N 
ATOM     34  H3  UNL     1      34.592  32.407  22.550  1.00  0.00     0.188 HD
HETATM   35  C26 UNL     1      33.395  34.734  24.252  1.00  0.00     0.342 A 
ATOM     36  H4  UNL     1      32.749  34.053  22.346  1.00  0.00     0.192 HD
HETATM   37  O3  UNL     1      32.581  35.658  24.455  1.00  0.00    -0.245 OA
HETATM   38  N5  UNL     1      34.414  34.290  25.045  1.00  0.00    -0.281 N 
BRANCH  38  39
HETATM   39  C27 UNL     1      34.741  34.883  26.296  1.00  0.00     0.173 C 
BRANCH  39  40
HETATM   40  C28 UNL     1      34.229  34.058  27.426  1.00  0.00    -0.039 A 
HETATM   41  C29 UNL     1      32.934  33.608  27.492  1.00  0.00     0.015 A 
HETATM   42  C30 UNL     1      32.503  32.846  28.549  1.00  0.00    -0.061 A 
HETATM   43  C31 UNL     1      31.089  32.356  28.620  1.00  0.00     0.048 C 
HETATM   44  C32 UNL     1      33.400  32.525  29.572  1.00  0.00     0.013 A 
HETATM   45  C33 UNL     1      34.700  32.966  29.523  1.00  0.00    -0.061 A 
HETATM   46  C34 UNL     1      35.626  32.618  30.610  1.00  0.00     0.048 C 
HETATM   47  C35 UNL     1      35.097  33.730  28.445  1.00  0.00     0.015 A 
ENDBRANCH  39  40
ENDBRANCH  38  39
ENDBRANCH  30  31
ENDBRANCH  16  30
ENDBRANCH   4  11
ENDBRANCH   3   4
TORSDOF 13
ENDMDL
