MODEL 1
REMARK VINA RESULT: -7.106299375      0.000      0.000
REMARK  12 active torsions:
REMARK  status: ('A' for Active; 'I' for Inactive)
REMARK    1  A    between atoms: C2_2  and  C3_3 
REMARK    2  A    between atoms: C3_3  and  C4_4 
REMARK    3  A    between atoms: C4_4  and  C5_5 
REMARK    4  A    between atoms: C5_5  and  N1_6 
REMARK    5  A    between atoms: C5_5  and  C7_10 
REMARK       I    between atoms: C7_10  and  N2_12 
REMARK    6  A    between atoms: C12_17  and  O2_18 
REMARK    7  A    between atoms: O2_18  and  C13_19 
REMARK       I    between atoms: C13_19  and  N3_21 
REMARK    8  A    between atoms: C19_27  and  C20_28 
REMARK       I    between atoms: C20_28  and  N4_30 
REMARK    9  A    between atoms: N4_30  and  C21_32 
REMARK   10  A    between atoms: C27_38  and  O5_39 
REMARK   11  A    between atoms: C28_41  and  C29_42 
REMARK   12  A    between atoms: C29_42  and  C30_43 
ROOT
HETATM    1  C7  UNL     1      34.603  31.765  26.676  1.00  0.00     0.251 C 
HETATM    2  O1  UNL     1      33.455  31.999  27.207  1.00  0.00    -0.271 OA
HETATM    3  N2  UNL     1      35.541  30.956  27.337  1.00  0.00    -0.342 N 
HETATM    4  C8  UNL     1      36.887  30.555  27.036  1.00  0.00     0.138 C 
HETATM    5  C9  UNL     1      37.653  30.633  28.365  1.00  0.00     0.004 C 
HETATM    6  C10 UNL     1      38.374  31.911  28.516  1.00  0.00     0.016 C 
HETATM    7  C11 UNL     1      39.855  31.933  28.327  1.00  0.00     0.033 C 
HETATM    8  C12 UNL     1      40.377  30.630  27.743  1.00  0.00     0.133 C 
HETATM    9  C25 UNL     1      39.924  29.570  28.688  1.00  0.00     0.033 C 
HETATM   10  C26 UNL     1      38.444  29.404  28.593  1.00  0.00     0.016 C 
HETATM   11  C27 UNL     1      36.503  30.618  29.401  1.00  0.00     0.151 C 
HETATM   12  C28 UNL     1      35.245  30.258  28.598  1.00  0.00     0.117 C 
ENDROOT
BRANCH  11  13
HETATM   13  O5  UNL     1      36.349  31.854  30.005  1.00  0.00    -0.393 OA
ATOM     14  H5  UNL     1      35.547  31.895  30.514  1.00  0.00     0.210 HD
ENDBRANCH  11  13
BRANCH  12  15
HETATM   15  C29 UNL     1      35.104  28.789  28.476  1.00  0.00     0.032 C 
BRANCH  15  16
HETATM   16  C30 UNL     1      35.253  28.062  29.761  1.00  0.00    -0.021 C 
HETATM   17  C31 UNL     1      33.854  27.641  30.253  1.00  0.00     0.009 C 
HETATM   18  C32 UNL     1      35.996  26.724  29.572  1.00  0.00     0.009 C 
ENDBRANCH  15  16
ENDBRANCH  12  15
BRANCH   1  19
HETATM   19  C5  UNL     1      34.762  32.432  25.345  1.00  0.00     0.276 C 
BRANCH  19  20
HETATM   20  C4  UNL     1      33.645  33.402  25.087  1.00  0.00     0.043 C 
BRANCH  20  21
HETATM   21  C3  UNL     1      33.792  34.333  23.950  1.00  0.00     0.002 C 
BRANCH  21  22
HETATM   22  C2  UNL     1      34.935  35.311  24.074  1.00  0.00    -0.004 C 
HETATM   23  C1  UNL     1      35.636  35.495  22.739  1.00  0.00     0.005 C 
ENDBRANCH  21  22
ENDBRANCH  20  21
ENDBRANCH  19  20
BRANCH  19  24
HETATM   24  N1  UNL     1      34.473  31.333  24.356  1.00  0.00    -0.066 N 
HETATM   25  C6  UNL     1      35.668  31.044  23.587  1.00  0.00     0.267 C 
ATOM     26  H12 UNL     1      34.095  30.499  24.807  1.00  0.00     0.277 HD
ATOM     27  H11 UNL     1      33.674  31.551  23.760  1.00  0.00     0.277 HD
ENDBRANCH  19  24
ENDBRANCH   1  19
BRANCH   8  28
HETATM   28  O2  UNL     1      41.750  30.676  27.496  1.00  0.00    -0.298 OA
BRANCH  28  29
HETATM   29  C13 UNL     1      42.379  30.092  26.398  1.00  0.00     0.363 C 
HETATM   30  O3  UNL     1      42.641  28.883  26.450  1.00  0.00    -0.238 OA
HETATM   31  N3  UNL     1      42.717  30.842  25.244  1.00  0.00    -0.315 N 
HETATM   32  C14 UNL     1      43.342  30.167  24.145  1.00  0.00     0.129 C 
HETATM   33  C19 UNL     1      42.434  32.232  25.197  1.00  0.00     0.181 C 
HETATM   34  C15 UNL     1      44.234  31.005  23.292  1.00  0.00     0.024 C 
HETATM   35  C16 UNL     1      43.694  32.399  23.080  1.00  0.00    -0.015 C 
HETATM   36  C17 UNL     1      44.548  33.238  22.198  1.00  0.00     0.010 C 
HETATM   37  C18 UNL     1      43.533  32.983  24.489  1.00  0.00     0.039 C 
BRANCH  33  38
HETATM   38  C20 UNL     1      41.091  32.596  24.679  1.00  0.00     0.241 C 
HETATM   39  O4  UNL     1      40.313  31.704  24.249  1.00  0.00    -0.271 OA
HETATM   40  N4  UNL     1      40.595  33.937  24.628  1.00  0.00    -0.351 N 
ATOM     41  H4  UNL     1      41.192  34.691  24.969  1.00  0.00     0.163 HD
BRANCH  40  42
HETATM   42  C21 UNL     1      39.299  34.269  24.122  1.00  0.00     0.022 C 
HETATM   43  C22 UNL     1      39.158  33.934  22.644  1.00  0.00     0.037 C 
HETATM   44  C23 UNL     1      38.161  33.576  24.833  1.00  0.00     0.037 C 
HETATM   45  C24 UNL     1      39.042  35.759  24.229  1.00  0.00     0.037 C 
ENDBRANCH  40  42
ENDBRANCH  33  38
ENDBRANCH  28  29
ENDBRANCH   8  28
TORSDOF 12
ENDMDL
MODEL 2
REMARK VINA RESULT: -7.039237639      2.166      5.827
REMARK  12 active torsions:
REMARK  status: ('A' for Active; 'I' for Inactive)
REMARK    1  A    between atoms: C2_2  and  C3_3 
REMARK    2  A    between atoms: C3_3  and  C4_4 
REMARK    3  A    between atoms: C4_4  and  C5_5 
REMARK    4  A    between atoms: C5_5  and  N1_6 
REMARK    5  A    between atoms: C5_5  and  C7_10 
REMARK       I    between atoms: C7_10  and  N2_12 
REMARK    6  A    between atoms: C12_17  and  O2_18 
REMARK    7  A    between atoms: O2_18  and  C13_19 
REMARK       I    between atoms: C13_19  and  N3_21 
REMARK    8  A    between atoms: C19_27  and  C20_28 
REMARK       I    between atoms: C20_28  and  N4_30 
REMARK    9  A    between atoms: N4_30  and  C21_32 
REMARK   10  A    between atoms: C27_38  and  O5_39 
REMARK   11  A    between atoms: C28_41  and  C29_42 
REMARK   12  A    between atoms: C29_42  and  C30_43 
ROOT
HETATM    1  C7  UNL     1      34.926  30.356  27.367  1.00  0.00     0.251 C 
HETATM    2  O1  UNL     1      33.764  29.815  27.260  1.00  0.00    -0.271 OA
HETATM    3  N2  UNL     1      35.290  31.427  26.534  1.00  0.00    -0.342 N 
HETATM    4  C8  UNL     1      36.494  32.195  26.381  1.00  0.00     0.138 C 
HETATM    5  C9  UNL     1      36.675  32.391  24.868  1.00  0.00     0.004 C 
HETATM    6  C10 UNL     1      37.584  31.386  24.284  1.00  0.00     0.016 C 
HETATM    7  C11 UNL     1      38.973  31.793  23.918  1.00  0.00     0.033 C 
HETATM    8  C12 UNL     1      39.326  33.171  24.454  1.00  0.00     0.133 C 
HETATM    9  C25 UNL     1      38.284  34.083  23.900  1.00  0.00     0.033 C 
HETATM   10  C26 UNL     1      36.969  33.804  24.548  1.00  0.00     0.016 C 
HETATM   11  C27 UNL     1      35.252  32.102  24.334  1.00  0.00     0.151 C 
HETATM   12  C28 UNL     1      34.358  32.050  25.581  1.00  0.00     0.117 C 
ENDROOT
BRANCH  11  13
HETATM   13  O5  UNL     1      35.199  30.897  23.655  1.00  0.00    -0.393 OA
ATOM     14  H5  UNL     1      34.510  30.336  23.995  1.00  0.00     0.210 HD
ENDBRANCH  11  13
BRANCH  12  15
HETATM   15  C29 UNL     1      33.902  33.408  25.956  1.00  0.00     0.032 C 
BRANCH  15  16
HETATM   16  C30 UNL     1      33.224  33.472  27.275  1.00  0.00    -0.021 C 
HETATM   17  C31 UNL     1      34.103  34.292  28.240  1.00  0.00     0.009 C 
HETATM   18  C32 UNL     1      31.911  34.276  27.198  1.00  0.00     0.009 C 
ENDBRANCH  15  16
ENDBRANCH  12  15
BRANCH   1  19
HETATM   19  C5  UNL     1      35.756  29.721  28.439  1.00  0.00     0.276 C 
BRANCH  19  20
HETATM   20  C4  UNL     1      35.240  28.355  28.787  1.00  0.00     0.043 C 
BRANCH  20  21
HETATM   21  C3  UNL     1      36.220  27.342  29.231  1.00  0.00     0.002 C 
BRANCH  21  22
HETATM   22  C2  UNL     1      35.969  26.777  30.608  1.00  0.00    -0.004 C 
HETATM   23  C1  UNL     1      34.645  27.274  31.163  1.00  0.00     0.005 C 
ENDBRANCH  21  22
ENDBRANCH  20  21
ENDBRANCH  19  20
BRANCH  19  24
HETATM   24  N1  UNL     1      35.421  30.520  29.672  1.00  0.00    -0.066 N 
HETATM   25  C6  UNL     1      36.515  31.420  29.980  1.00  0.00     0.267 C 
ATOM     26  H12 UNL     1      34.531  31.011  29.582  1.00  0.00     0.277 HD
ATOM     27  H11 UNL     1      35.180  29.923  30.463  1.00  0.00     0.277 HD
ENDBRANCH  19  24
ENDBRANCH   1  19
BRANCH   8  28
HETATM   28  O2  UNL     1      40.648  33.522  24.176  1.00  0.00    -0.298 OA
BRANCH  28  29
HETATM   29  C13 UNL     1      41.408  34.412  24.932  1.00  0.00     0.363 C 
HETATM   30  O3  UNL     1      41.286  35.624  24.704  1.00  0.00    -0.238 OA
HETATM   31  N3  UNL     1      42.299  33.967  25.939  1.00  0.00    -0.315 N 
HETATM   32  C14 UNL     1      43.031  34.944  26.690  1.00  0.00     0.129 C 
HETATM   33  C19 UNL     1      42.451  32.577  26.183  1.00  0.00     0.181 C 
HETATM   34  C15 UNL     1      44.350  34.497  27.225  1.00  0.00     0.024 C 
HETATM   35  C16 UNL     1      44.325  33.069  27.715  1.00  0.00    -0.015 C 
HETATM   36  C17 UNL     1      45.619  32.616  28.291  1.00  0.00     0.010 C 
HETATM   37  C18 UNL     1      43.885  32.239  26.503  1.00  0.00     0.039 C 
BRANCH  33  38
HETATM   38  C20 UNL     1      41.511  31.993  27.172  1.00  0.00     0.241 C 
HETATM   39  O4  UNL     1      40.553  32.678  27.619  1.00  0.00    -0.271 OA
HETATM   40  N4  UNL     1      41.614  30.658  27.676  1.00  0.00    -0.351 N 
ATOM     41  H4  UNL     1      42.374  30.067  27.338  1.00  0.00     0.163 HD
BRANCH  40  42
HETATM   42  C21 UNL     1      40.700  30.113  28.631  1.00  0.00     0.022 C 
HETATM   43  C22 UNL     1      40.425  31.078  29.776  1.00  0.00     0.037 C 
HETATM   44  C23 UNL     1      39.357  29.731  28.055  1.00  0.00     0.037 C 
HETATM   45  C24 UNL     1      41.271  28.866  29.278  1.00  0.00     0.037 C 
ENDBRANCH  40  42
ENDBRANCH  33  38
ENDBRANCH  28  29
ENDBRANCH   8  28
TORSDOF 12
ENDMDL
MODEL 3
REMARK VINA RESULT: -7.013020247      1.972      5.723
REMARK  12 active torsions:
REMARK  status: ('A' for Active; 'I' for Inactive)
REMARK    1  A    between atoms: C2_2  and  C3_3 
REMARK    2  A    between atoms: C3_3  and  C4_4 
REMARK    3  A    between atoms: C4_4  and  C5_5 
REMARK    4  A    between atoms: C5_5  and  N1_6 
REMARK    5  A    between atoms: C5_5  and  C7_10 
REMARK       I    between atoms: C7_10  and  N2_12 
REMARK    6  A    between atoms: C12_17  and  O2_18 
REMARK    7  A    between atoms: O2_18  and  C13_19 
REMARK       I    between atoms: C13_19  and  N3_21 
REMARK    8  A    between atoms: C19_27  and  C20_28 
REMARK       I    between atoms: C20_28  and  N4_30 
REMARK    9  A    between atoms: N4_30  and  C21_32 
REMARK   10  A    between atoms: C27_38  and  O5_39 
REMARK   11  A    between atoms: C28_41  and  C29_42 
REMARK   12  A    between atoms: C29_42  and  C30_43 
ROOT
HETATM    1  C7  UNL     1      34.334  30.990  27.131  1.00  0.00     0.251 C 
HETATM    2  O1  UNL     1      33.176  30.456  26.966  1.00  0.00    -0.271 OA
HETATM    3  N2  UNL     1      34.859  31.862  26.163  1.00  0.00    -0.342 N 
HETATM    4  C8  UNL     1      36.106  32.564  26.037  1.00  0.00     0.138 C 
HETATM    5  C9  UNL     1      36.506  32.442  24.559  1.00  0.00     0.004 C 
HETATM    6  C10 UNL     1      37.442  31.326  24.328  1.00  0.00     0.016 C 
HETATM    7  C11 UNL     1      38.886  31.629  24.095  1.00  0.00     0.033 C 
HETATM    8  C12 UNL     1      39.220  33.082  24.389  1.00  0.00     0.133 C 
HETATM    9  C25 UNL     1      38.308  33.876  23.517  1.00  0.00     0.033 C 
HETATM   10  C26 UNL     1      36.904  33.756  24.008  1.00  0.00     0.016 C 
HETATM   11  C27 UNL     1      35.160  32.072  23.890  1.00  0.00     0.151 C 
HETATM   12  C28 UNL     1      34.099  32.290  24.978  1.00  0.00     0.117 C 
ENDROOT
BRANCH  11  13
HETATM   13  O5  UNL     1      35.150  30.753  23.468  1.00  0.00    -0.393 OA
ATOM     14  H5  UNL     1      34.425  30.271  23.850  1.00  0.00     0.210 HD
ENDBRANCH  11  13
BRANCH  12  15
HETATM   15  C29 UNL     1      33.655  33.702  25.001  1.00  0.00     0.032 C 
BRANCH  15  16
HETATM   16  C30 UNL     1      33.697  34.323  26.349  1.00  0.00    -0.021 C 
HETATM   17  C31 UNL     1      33.980  35.830  26.187  1.00  0.00     0.009 C 
HETATM   18  C32 UNL     1      32.317  34.278  27.036  1.00  0.00     0.009 C 
ENDBRANCH  15  16
ENDBRANCH  12  15
BRANCH   1  19
HETATM   19  C5  UNL     1      34.976  30.577  28.418  1.00  0.00     0.276 C 
BRANCH  19  20
HETATM   20  C4  UNL     1      35.136  29.086  28.491  1.00  0.00     0.043 C 
BRANCH  20  21
HETATM   21  C3  UNL     1      35.634  28.508  29.757  1.00  0.00     0.002 C 
BRANCH  21  22
HETATM   22  C2  UNL     1      36.449  27.248  29.601  1.00  0.00    -0.004 C 
HETATM   23  C1  UNL     1      36.115  26.249  30.696  1.00  0.00     0.005 C 
ENDBRANCH  21  22
ENDBRANCH  20  21
ENDBRANCH  19  20
BRANCH  19  24
HETATM   24  N1  UNL     1      33.911  30.840  29.451  1.00  0.00    -0.066 N 
HETATM   25  C6  UNL     1      33.916  32.247  29.806  1.00  0.00     0.267 C 
ATOM     26  H12 UNL     1      32.991  30.524  29.145  1.00  0.00     0.277 HD
ATOM     27  H11 UNL     1      34.010  30.237  30.268  1.00  0.00     0.277 HD
ENDBRANCH  19  24
ENDBRANCH   1  19
BRANCH   8  28
HETATM   28  O2  UNL     1      40.583  33.349  24.244  1.00  0.00    -0.298 OA
BRANCH  28  29
HETATM   29  C13 UNL     1      41.384  33.940  25.219  1.00  0.00     0.363 C 
HETATM   30  O3  UNL     1      41.295  35.165  25.384  1.00  0.00    -0.238 OA
HETATM   31  N3  UNL     1      42.281  33.182  26.011  1.00  0.00    -0.315 N 
HETATM   32  C14 UNL     1      43.056  33.857  27.009  1.00  0.00     0.129 C 
HETATM   33  C19 UNL     1      42.395  31.782  25.804  1.00  0.00     0.181 C 
HETATM   34  C15 UNL     1      44.371  33.235  27.340  1.00  0.00     0.024 C 
HETATM   35  C16 UNL     1      44.312  31.726  27.360  1.00  0.00    -0.015 C 
HETATM   36  C17 UNL     1      45.603  31.087  27.729  1.00  0.00     0.010 C 
HETATM   37  C18 UNL     1      43.824  31.328  25.961  1.00  0.00     0.039 C 
BRANCH  33  38
HETATM   38  C20 UNL     1      41.457  30.939  26.586  1.00  0.00     0.241 C 
HETATM   39  O4  UNL     1      41.507  29.684  26.499  1.00  0.00    -0.271 OA
HETATM   40  N4  UNL     1      40.461  31.466  27.467  1.00  0.00    -0.351 N 
ATOM     41  H4  UNL     1      40.387  32.479  27.570  1.00  0.00     0.163 HD
BRANCH  40  42
HETATM   42  C21 UNL     1      39.562  30.638  28.211  1.00  0.00     0.022 C 
HETATM   43  C22 UNL     1      38.604  31.456  29.065  1.00  0.00     0.037 C 
HETATM   44  C23 UNL     1      38.713  29.726  27.359  1.00  0.00     0.037 C 
HETATM   45  C24 UNL     1      40.320  29.753  29.181  1.00  0.00     0.037 C 
ENDBRANCH  40  42
ENDBRANCH  33  38
ENDBRANCH  28  29
ENDBRANCH   8  28
TORSDOF 12
ENDMDL
MODEL 4
REMARK VINA RESULT: -6.963969049      1.548      1.908
REMARK  12 active torsions:
REMARK  status: ('A' for Active; 'I' for Inactive)
REMARK    1  A    between atoms: C2_2  and  C3_3 
REMARK    2  A    between atoms: C3_3  and  C4_4 
REMARK    3  A    between atoms: C4_4  and  C5_5 
REMARK    4  A    between atoms: C5_5  and  N1_6 
REMARK    5  A    between atoms: C5_5  and  C7_10 
REMARK       I    between atoms: C7_10  and  N2_12 
REMARK    6  A    between atoms: C12_17  and  O2_18 
REMARK    7  A    between atoms: O2_18  and  C13_19 
REMARK       I    between atoms: C13_19  and  N3_21 
REMARK    8  A    between atoms: C19_27  and  C20_28 
REMARK       I    between atoms: C20_28  and  N4_30 
REMARK    9  A    between atoms: N4_30  and  C21_32 
REMARK   10  A    between atoms: C27_38  and  O5_39 
REMARK   11  A    between atoms: C28_41  and  C29_42 
REMARK   12  A    between atoms: C29_42  and  C30_43 
ROOT
HETATM    1  C7  UNL     1      34.049  32.283  27.245  1.00  0.00     0.251 C 
HETATM    2  O1  UNL     1      33.115  32.495  28.103  1.00  0.00    -0.271 OA
HETATM    3  N2  UNL     1      35.059  31.344  27.511  1.00  0.00    -0.342 N 
HETATM    4  C8  UNL     1      36.231  30.924  26.795  1.00  0.00     0.138 C 
HETATM    5  C9  UNL     1      37.336  30.777  27.853  1.00  0.00     0.004 C 
HETATM    6  C10 UNL     1      38.178  31.985  27.946  1.00  0.00     0.016 C 
HETATM    7  C11 UNL     1      39.547  31.960  27.350  1.00  0.00     0.033 C 
HETATM    8  C12 UNL     1      39.774  30.729  26.489  1.00  0.00     0.133 C 
HETATM    9  C25 UNL     1      39.508  29.570  27.389  1.00  0.00     0.033 C 
HETATM   10  C26 UNL     1      38.050  29.491  27.698  1.00  0.00     0.016 C 
HETATM   11  C27 UNL     1      36.517  30.674  29.161  1.00  0.00     0.151 C 
HETATM   12  C28 UNL     1      35.061  30.492  28.710  1.00  0.00     0.117 C 
ENDROOT
BRANCH  11  13
HETATM   13  O5  UNL     1      36.641  31.819  29.929  1.00  0.00    -0.393 OA
ATOM     14  H5  UNL     1      37.545  32.108  29.980  1.00  0.00     0.210 HD
ENDBRANCH  11  13
BRANCH  12  15
HETATM   15  C29 UNL     1      34.766  29.063  28.456  1.00  0.00     0.032 C 
BRANCH  15  16
HETATM   16  C30 UNL     1      33.964  28.416  29.524  1.00  0.00    -0.021 C 
HETATM   17  C31 UNL     1      34.918  27.646  30.458  1.00  0.00     0.009 C 
HETATM   18  C32 UNL     1      33.304  29.459  30.448  1.00  0.00     0.009 C 
ENDBRANCH  15  16
ENDBRANCH  12  15
BRANCH   1  19
HETATM   19  C5  UNL     1      33.894  33.121  26.014  1.00  0.00     0.276 C 
BRANCH  19  20
HETATM   20  C4  UNL     1      35.137  33.917  25.739  1.00  0.00     0.043 C 
BRANCH  20  21
HETATM   21  C3  UNL     1      35.794  33.736  24.428  1.00  0.00     0.002 C 
BRANCH  21  22
HETATM   22  C2  UNL     1      35.032  34.298  23.253  1.00  0.00    -0.004 C 
HETATM   23  C1  UNL     1      35.280  35.790  23.112  1.00  0.00     0.005 C 
ENDBRANCH  21  22
ENDBRANCH  20  21
ENDBRANCH  19  20
BRANCH  19  24
HETATM   24  N1  UNL     1      32.911  34.186  26.426  1.00  0.00    -0.066 N 
HETATM   25  C6  UNL     1      33.595  35.460  26.540  1.00  0.00     0.267 C 
ATOM     26  H12 UNL     1      32.110  34.234  25.796  1.00  0.00     0.277 HD
ATOM     27  H11 UNL     1      32.412  33.939  27.281  1.00  0.00     0.277 HD
ENDBRANCH  19  24
ENDBRANCH   1  19
BRANCH   8  28
HETATM   28  O2  UNL     1      41.026  30.741  25.871  1.00  0.00    -0.298 OA
BRANCH  28  29
HETATM   29  C13 UNL     1      41.284  30.256  24.591  1.00  0.00     0.363 C 
HETATM   30  O3  UNL     1      41.131  29.045  24.383  1.00  0.00    -0.238 OA
HETATM   31  N3  UNL     1      41.709  31.107  23.541  1.00  0.00    -0.315 N 
HETATM   32  C14 UNL     1      41.933  30.539  22.244  1.00  0.00     0.129 C 
HETATM   33  C19 UNL     1      41.904  32.492  23.788  1.00  0.00     0.181 C 
HETATM   34  C15 UNL     1      42.943  31.237  21.396  1.00  0.00     0.024 C 
HETATM   35  C16 UNL     1      42.878  32.740  21.533  1.00  0.00    -0.015 C 
HETATM   36  C17 UNL     1      43.849  33.456  20.664  1.00  0.00     0.010 C 
HETATM   37  C18 UNL     1      43.095  33.013  23.027  1.00  0.00     0.039 C 
BRANCH  33  38
HETATM   38  C20 UNL     1      40.708  33.351  23.603  1.00  0.00     0.241 C 
HETATM   39  O4  UNL     1      39.554  32.883  23.794  1.00  0.00    -0.271 OA
HETATM   40  N4  UNL     1      40.769  34.724  23.207  1.00  0.00    -0.351 N 
ATOM     41  H4  UNL     1      41.684  35.144  23.044  1.00  0.00     0.163 HD
BRANCH  40  42
HETATM   42  C21 UNL     1      39.604  35.536  23.030  1.00  0.00     0.022 C 
HETATM   43  C22 UNL     1      38.636  34.936  22.019  1.00  0.00     0.037 C 
HETATM   44  C23 UNL     1      38.816  35.772  24.296  1.00  0.00     0.037 C 
HETATM   45  C24 UNL     1      39.974  36.900  22.481  1.00  0.00     0.037 C 
ENDBRANCH  40  42
ENDBRANCH  33  38
ENDBRANCH  28  29
ENDBRANCH   8  28
TORSDOF 12
ENDMDL
MODEL 5
REMARK VINA RESULT: -6.894033881      1.902      5.911
REMARK  12 active torsions:
REMARK  status: ('A' for Active; 'I' for Inactive)
REMARK    1  A    between atoms: C2_2  and  C3_3 
REMARK    2  A    between atoms: C3_3  and  C4_4 
REMARK    3  A    between atoms: C4_4  and  C5_5 
REMARK    4  A    between atoms: C5_5  and  N1_6 
REMARK    5  A    between atoms: C5_5  and  C7_10 
REMARK       I    between atoms: C7_10  and  N2_12 
REMARK    6  A    between atoms: C12_17  and  O2_18 
REMARK    7  A    between atoms: O2_18  and  C13_19 
REMARK       I    between atoms: C13_19  and  N3_21 
REMARK    8  A    between atoms: C19_27  and  C20_28 
REMARK       I    between atoms: C20_28  and  N4_30 
REMARK    9  A    between atoms: N4_30  and  C21_32 
REMARK   10  A    between atoms: C27_38  and  O5_39 
REMARK   11  A    between atoms: C28_41  and  C29_42 
REMARK   12  A    between atoms: C29_42  and  C30_43 
ROOT
HETATM    1  C7  UNL     1      35.055  30.625  27.065  1.00  0.00     0.251 C 
HETATM    2  O1  UNL     1      33.829  30.267  26.909  1.00  0.00    -0.271 OA
HETATM    3  N2  UNL     1      35.665  31.493  26.146  1.00  0.00    -0.342 N 
HETATM    4  C8  UNL     1      36.993  32.027  26.022  1.00  0.00     0.138 C 
HETATM    5  C9  UNL     1      37.326  31.974  24.523  1.00  0.00     0.004 C 
HETATM    6  C10 UNL     1      38.092  30.763  24.168  1.00  0.00     0.016 C 
HETATM    7  C11 UNL     1      39.555  30.885  23.900  1.00  0.00     0.033 C 
HETATM    8  C12 UNL     1      40.097  32.250  24.290  1.00  0.00     0.133 C 
HETATM    9  C25 UNL     1      39.278  33.229  23.520  1.00  0.00     0.033 C 
HETATM   10  C26 UNL     1      37.886  33.261  24.058  1.00  0.00     0.016 C 
HETATM   11  C27 UNL     1      35.923  31.845  23.885  1.00  0.00     0.151 C 
HETATM   12  C28 UNL     1      34.936  32.115  25.030  1.00  0.00     0.117 C 
ENDROOT
BRANCH  11  13
HETATM   13  O5  UNL     1      35.717  30.579  23.364  1.00  0.00    -0.393 OA
ATOM     14  H5  UNL     1      36.493  30.038  23.447  1.00  0.00     0.210 HD
ENDBRANCH  11  13
BRANCH  12  15
HETATM   15  C29 UNL     1      34.694  33.568  25.180  1.00  0.00     0.032 C 
BRANCH  15  16
HETATM   16  C30 UNL     1      34.193  34.225  23.947  1.00  0.00    -0.021 C 
HETATM   17  C31 UNL     1      32.828  34.873  24.254  1.00  0.00     0.009 C 
HETATM   18  C32 UNL     1      35.083  35.415  23.537  1.00  0.00     0.009 C 
ENDBRANCH  15  16
ENDBRANCH  12  15
BRANCH   1  19
HETATM   19  C5  UNL     1      35.673  30.024  28.289  1.00  0.00     0.276 C 
BRANCH  19  20
HETATM   20  C4  UNL     1      34.985  28.746  28.673  1.00  0.00     0.043 C 
BRANCH  20  21
HETATM   21  C3  UNL     1      35.818  27.652  29.216  1.00  0.00     0.002 C 
BRANCH  21  22
HETATM   22  C2  UNL     1      35.456  27.213  30.613  1.00  0.00    -0.004 C 
HETATM   23  C1  UNL     1      36.001  25.825  30.902  1.00  0.00     0.005 C 
ENDBRANCH  21  22
ENDBRANCH  20  21
ENDBRANCH  19  20
BRANCH  19  24
HETATM   24  N1  UNL     1      35.261  30.960  29.395  1.00  0.00    -0.066 N 
HETATM   25  C6  UNL     1      36.417  31.704  29.858  1.00  0.00     0.267 C 
ATOM     26  H12 UNL     1      34.495  31.573  29.115  1.00  0.00     0.277 HD
ATOM     27  H11 UNL     1      34.787  30.472  30.156  1.00  0.00     0.277 HD
ENDBRANCH  19  24
ENDBRANCH   1  19
BRANCH   8  28
HETATM   28  O2  UNL     1      41.479  32.341  24.109  1.00  0.00    -0.298 OA
BRANCH  28  29
HETATM   29  C13 UNL     1      42.348  33.014  24.964  1.00  0.00     0.363 C 
HETATM   30  O3  UNL     1      42.365  34.252  24.925  1.00  0.00    -0.238 OA
HETATM   31  N3  UNL     1      43.198  32.322  25.862  1.00  0.00    -0.315 N 
HETATM   32  C14 UNL     1      44.050  33.084  26.727  1.00  0.00     0.129 C 
HETATM   33  C19 UNL     1      43.192  30.903  25.889  1.00  0.00     0.181 C 
HETATM   34  C15 UNL     1      45.317  32.415  27.144  1.00  0.00     0.024 C 
HETATM   35  C16 UNL     1      45.134  30.941  27.414  1.00  0.00    -0.015 C 
HETATM   36  C17 UNL     1      46.376  30.263  27.871  1.00  0.00     0.010 C 
HETATM   37  C18 UNL     1      44.582  30.361  26.106  1.00  0.00     0.039 C 
BRANCH  33  38
HETATM   38  C20 UNL     1      42.206  30.284  26.810  1.00  0.00     0.241 C 
HETATM   39  O4  UNL     1      41.856  29.084  26.652  1.00  0.00    -0.271 OA
HETATM   40  N4  UNL     1      41.599  30.974  27.906  1.00  0.00    -0.351 N 
ATOM     41  H4  UNL     1      41.857  31.947  28.071  1.00  0.00     0.163 HD
BRANCH  40  42
HETATM   42  C21 UNL     1      40.648  30.362  28.781  1.00  0.00     0.022 C 
HETATM   43  C22 UNL     1      39.377  29.953  28.050  1.00  0.00     0.037 C 
HETATM   44  C23 UNL     1      41.160  29.127  29.484  1.00  0.00     0.037 C 
HETATM   45  C24 UNL     1      40.204  31.329  29.861  1.00  0.00     0.037 C 
ENDBRANCH  40  42
ENDBRANCH  33  38
ENDBRANCH  28  29
ENDBRANCH   8  28
TORSDOF 12
ENDMDL
