MODEL 1
REMARK VINA RESULT: -8.892625334      0.000      0.000
REMARK  16 active torsions:
REMARK  status: ('A' for Active; 'I' for Inactive)
REMARK    1  A    between atoms: O1_2  and  C2_3 
REMARK    2  A    between atoms: C2_3  and  O2_4 
REMARK    3  A    between atoms: C2_3  and  N1_6 
REMARK    4  A    between atoms: N1_6  and  C3_7 
REMARK    5  A    between atoms: N1_6  and  C8_13 
REMARK    6  A    between atoms: C3_7  and  C4_8 
REMARK    7  A    between atoms: C4_8  and  C5_9 
REMARK    8  A    between atoms: C5_9  and  N2_10 
REMARK    9  A    between atoms: C8_13  and  C9_14 
REMARK   10  A    between atoms: C9_14  and  N3_15 
REMARK   11  A    between atoms: N3_15  and  C10_17 
REMARK   12  A    between atoms: C11_20  and  N5_21 
REMARK   13  A    between atoms: N5_21  and  C12_23 
REMARK   14  A    between atoms: C12_23  and  C13_24 
REMARK   15  A    between atoms: C17_30  and  N7_31 
REMARK   16  A    between atoms: N7_31  and  C18_33 
ROOT
HETATM    1  C10 UNL     1      36.765  32.151  24.604  1.00  0.00     0.707 A 
HETATM    2  N4  UNL     1      37.695  33.061  24.318  1.00  0.00    -0.022 N 
ATOM      3  H4  UNL     1      37.486  33.783  23.627  1.00  0.00     0.203 HD
HETATM    4  C11 UNL     1      38.906  33.054  24.917  1.00  0.00     0.707 A 
HETATM    5  N6  UNL     1      39.147  32.093  25.819  1.00  0.00    -0.021 N 
ATOM      6  H6  UNL     1      40.052  32.060  26.288  1.00  0.00     0.203 HD
HETATM    7  C17 UNL     1      38.217  31.172  26.115  1.00  0.00     0.711 A 
HETATM    8  N8  UNL     1      37.030  31.203  25.510  1.00  0.00    -0.021 N 
ATOM      9  H8  UNL     1      36.324  30.503  25.737  1.00  0.00     0.203 HD
ENDROOT
BRANCH   7  10
HETATM   10  N7  UNL     1      38.527  30.287  26.989  1.00  0.00    -0.191 N 
ATOM     11  H7  UNL     1      39.497  29.971  26.989  1.00  0.00     0.184 HD
BRANCH  10  12
HETATM   12  C18 UNL     1      37.681  29.700  27.947  1.00  0.00     0.049 A 
HETATM   13  C19 UNL     1      36.811  30.443  28.718  1.00  0.00     0.031 A 
HETATM   14  C20 UNL     1      35.978  29.880  29.652  1.00  0.00     0.015 A 
HETATM   15  C21 UNL     1      35.988  28.494  29.853  1.00  0.00    -0.018 A 
HETATM   16  C22 UNL     1      36.838  27.728  29.104  1.00  0.00    -0.032 A 
HETATM   17  C32 UNL     1      35.232  27.638  30.754  1.00  0.00    -0.018 A 
HETATM   18  C23 UNL     1      37.682  28.338  28.151  1.00  0.00     0.039 A 
HETATM   19  C24 UNL     1      36.659  26.323  29.494  1.00  0.00     0.008 A 
HETATM   20  C25 UNL     1      36.135  25.594  28.264  1.00  0.00     0.025 C 
HETATM   21  C26 UNL     1      37.949  25.693  29.980  1.00  0.00     0.025 C 
HETATM   22  C27 UNL     1      35.630  26.340  30.547  1.00  0.00    -0.035 A 
HETATM   23  C28 UNL     1      35.019  25.360  31.322  1.00  0.00     0.009 A 
HETATM   24  C29 UNL     1      34.059  25.692  32.251  1.00  0.00     0.001 A 
HETATM   25  C30 UNL     1      33.655  26.998  32.462  1.00  0.00     0.001 A 
HETATM   26  C31 UNL     1      34.257  27.967  31.699  1.00  0.00     0.013 A 
ENDBRANCH  10  12
ENDBRANCH   7  10
BRANCH   4  27
HETATM   27  N5  UNL     1      39.745  33.963  24.582  1.00  0.00    -0.224 N 
ATOM     28  H5  UNL     1      40.742  33.788  24.714  1.00  0.00     0.177 HD
BRANCH  27  29
HETATM   29  C12 UNL     1      39.328  35.217  24.027  1.00  0.00     0.146 C 
BRANCH  29  30
HETATM   30  C13 UNL     1      40.077  35.486  22.739  1.00  0.00    -0.035 C 
HETATM   31  C14 UNL     1      39.526  34.602  21.648  1.00  0.00     0.016 C 
HETATM   32  C15 UNL     1      41.526  35.111  22.951  1.00  0.00     0.016 C 
HETATM   33  C16 UNL     1      39.929  36.952  22.415  1.00  0.00     0.016 C 
ENDBRANCH  29  30
ENDBRANCH  27  29
ENDBRANCH   4  27
BRANCH   1  34
HETATM   34  N3  UNL     1      35.607  32.121  24.052  1.00  0.00    -0.224 N 
ATOM     35  H3  UNL     1      35.526  31.997  23.043  1.00  0.00     0.177 HD
BRANCH  34  36
HETATM   36  C9  UNL     1      34.430  32.263  24.856  1.00  0.00     0.158 C 
BRANCH  36  37
HETATM   37  C8  UNL     1      33.626  33.483  24.600  1.00  0.00     0.147 C 
BRANCH  37  38
HETATM   38  N1  UNL     1      34.003  34.529  25.562  1.00  0.00    -0.340 N 
BRANCH  38  39
HETATM   39  C2  UNL     1      34.973  35.442  25.135  1.00  0.00     0.259 C 
BRANCH  39  40
HETATM   40  O1  UNL     1      35.899  35.319  24.146  1.00  0.00    -0.322 OA
HETATM   41  C1  UNL     1      35.640  35.721  22.834  1.00  0.00     0.213 C 
ENDBRANCH  39  40
BRANCH  39  42
HETATM   42  O2  UNL     1      35.026  36.587  25.763  1.00  0.00    -0.327 OA
ATOM     43  H2  UNL     1      34.305  37.169  25.554  1.00  0.00     0.221 HD
ENDBRANCH  39  42
ENDBRANCH  38  39
BRANCH  38  44
HETATM   44  C3  UNL     1      33.352  34.462  26.833  1.00  0.00     0.132 C 
BRANCH  44  45
HETATM   45  C4  UNL     1      34.202  34.047  27.986  1.00  0.00     0.064 C 
BRANCH  45  46
HETATM   46  C5  UNL     1      33.771  32.982  28.879  1.00  0.00     0.058 C 
BRANCH  46  47
HETATM   47  N2  UNL     1      32.912  31.970  28.506  1.00  0.00    -0.402 N 
HETATM   48  C6  UNL     1      33.164  30.812  27.815  1.00  0.00     0.148 C 
HETATM   49  C7  UNL     1      31.547  32.105  29.012  1.00  0.00     0.148 C 
ENDBRANCH  46  47
ENDBRANCH  45  46
ENDBRANCH  44  45
ENDBRANCH  38  44
ENDBRANCH  37  38
ENDBRANCH  36  37
ENDBRANCH  34  36
ENDBRANCH   1  34
TORSDOF 16
ENDMDL
MODEL 2
REMARK VINA RESULT: -8.858383472      1.266      2.287
REMARK  16 active torsions:
REMARK  status: ('A' for Active; 'I' for Inactive)
REMARK    1  A    between atoms: O1_2  and  C2_3 
REMARK    2  A    between atoms: C2_3  and  O2_4 
REMARK    3  A    between atoms: C2_3  and  N1_6 
REMARK    4  A    between atoms: N1_6  and  C3_7 
REMARK    5  A    between atoms: N1_6  and  C8_13 
REMARK    6  A    between atoms: C3_7  and  C4_8 
REMARK    7  A    between atoms: C4_8  and  C5_9 
REMARK    8  A    between atoms: C5_9  and  N2_10 
REMARK    9  A    between atoms: C8_13  and  C9_14 
REMARK   10  A    between atoms: C9_14  and  N3_15 
REMARK   11  A    between atoms: N3_15  and  C10_17 
REMARK   12  A    between atoms: C11_20  and  N5_21 
REMARK   13  A    between atoms: N5_21  and  C12_23 
REMARK   14  A    between atoms: C12_23  and  C13_24 
REMARK   15  A    between atoms: C17_30  and  N7_31 
REMARK   16  A    between atoms: N7_31  and  C18_33 
ROOT
HETATM    1  C10 UNL     1      36.959  31.451  24.126  1.00  0.00     0.707 A 
HETATM    2  N4  UNL     1      37.448  32.680  23.975  1.00  0.00    -0.022 N 
ATOM      3  H4  UNL     1      37.119  33.253  23.197  1.00  0.00     0.203 HD
HETATM    4  C11 UNL     1      38.368  33.191  24.823  1.00  0.00     0.707 A 
HETATM    5  N6  UNL     1      38.778  32.412  25.834  1.00  0.00    -0.021 N 
ATOM      6  H6  UNL     1      39.472  32.769  26.491  1.00  0.00     0.203 HD
HETATM    7  C17 UNL     1      38.292  31.173  25.996  1.00  0.00     0.711 A 
HETATM    8  N8  UNL     1      37.385  30.696  25.145  1.00  0.00    -0.021 N 
ATOM      9  H8  UNL     1      37.015  29.753  25.269  1.00  0.00     0.203 HD
ENDROOT
BRANCH   7  10
HETATM   10  N7  UNL     1      38.738  30.494  26.988  1.00  0.00    -0.191 N 
ATOM     11  H7  UNL     1      39.726  30.613  27.210  1.00  0.00     0.184 HD
BRANCH  10  12
HETATM   12  C18 UNL     1      38.018  29.602  27.803  1.00  0.00     0.049 A 
HETATM   13  C19 UNL     1      38.529  28.384  28.197  1.00  0.00     0.031 A 
HETATM   14  C20 UNL     1      37.838  27.509  28.997  1.00  0.00     0.015 A 
HETATM   15  C21 UNL     1      36.554  27.841  29.448  1.00  0.00    -0.018 A 
HETATM   16  C22 UNL     1      36.017  29.042  29.076  1.00  0.00    -0.032 A 
HETATM   17  C32 UNL     1      35.605  27.125  30.288  1.00  0.00    -0.018 A 
HETATM   18  C23 UNL     1      36.755  29.919  28.253  1.00  0.00     0.039 A 
HETATM   19  C24 UNL     1      34.679  29.155  29.674  1.00  0.00     0.008 A 
HETATM   20  C25 UNL     1      34.732  30.337  30.634  1.00  0.00     0.025 C 
HETATM   21  C26 UNL     1      33.600  29.361  28.631  1.00  0.00     0.025 C 
HETATM   22  C27 UNL     1      34.482  27.904  30.425  1.00  0.00    -0.035 A 
HETATM   23  C28 UNL     1      33.446  27.390  31.199  1.00  0.00     0.009 A 
HETATM   24  C29 UNL     1      33.558  26.155  31.795  1.00  0.00     0.001 A 
HETATM   25  C30 UNL     1      34.687  25.368  31.660  1.00  0.00     0.001 A 
HETATM   26  C31 UNL     1      35.710  25.872  30.897  1.00  0.00     0.013 A 
ENDBRANCH  10  12
ENDBRANCH   7  10
BRANCH   4  27
HETATM   27  N5  UNL     1      38.789  34.382  24.605  1.00  0.00    -0.224 N 
ATOM     28  H5  UNL     1      38.180  35.169  24.826  1.00  0.00     0.177 HD
BRANCH  27  29
HETATM   29  C12 UNL     1      40.088  34.641  24.059  1.00  0.00     0.146 C 
BRANCH  29  30
HETATM   30  C13 UNL     1      39.958  35.381  22.745  1.00  0.00    -0.035 C 
HETATM   31  C14 UNL     1      41.138  36.307  22.575  1.00  0.00     0.016 C 
HETATM   32  C15 UNL     1      38.708  36.230  22.806  1.00  0.00     0.016 C 
HETATM   33  C16 UNL     1      39.874  34.355  21.642  1.00  0.00     0.016 C 
ENDBRANCH  29  30
ENDBRANCH  27  29
ENDBRANCH   4  27
BRANCH   1  34
HETATM   34  N3  UNL     1      36.091  30.930  23.338  1.00  0.00    -0.224 N 
ATOM     35  H3  UNL     1      36.390  30.487  22.469  1.00  0.00     0.177 HD
BRANCH  34  36
HETATM   36  C9  UNL     1      34.700  30.972  23.680  1.00  0.00     0.158 C 
BRANCH  36  37
HETATM   37  C8  UNL     1      33.987  32.216  23.300  1.00  0.00     0.147 C 
BRANCH  37  38
HETATM   38  N1  UNL     1      33.738  33.025  24.502  1.00  0.00    -0.340 N 
BRANCH  38  39
HETATM   39  C2  UNL     1      33.190  34.294  24.291  1.00  0.00     0.259 C 
BRANCH  39  40
HETATM   40  O1  UNL     1      33.762  35.402  23.746  1.00  0.00    -0.322 OA
HETATM   41  C1  UNL     1      35.147  35.582  23.715  1.00  0.00     0.213 C 
ENDBRANCH  39  40
BRANCH  39  42
HETATM   42  O2  UNL     1      31.951  34.476  24.667  1.00  0.00    -0.327 OA
ATOM     43  H2  UNL     1      31.855  35.114  25.363  1.00  0.00     0.221 HD
ENDBRANCH  39  42
ENDBRANCH  38  39
BRANCH  38  44
HETATM   44  C3  UNL     1      34.119  32.423  25.742  1.00  0.00     0.132 C 
BRANCH  44  45
HETATM   45  C4  UNL     1      34.934  33.269  26.661  1.00  0.00     0.064 C 
BRANCH  45  46
HETATM   46  C5  UNL     1      34.295  34.059  27.701  1.00  0.00     0.058 C 
BRANCH  46  47
HETATM   47  N2  UNL     1      33.635  33.514  28.782  1.00  0.00    -0.402 N 
HETATM   48  C6  UNL     1      32.513  32.726  28.821  1.00  0.00     0.148 C 
HETATM   49  C7  UNL     1      34.290  33.724  30.072  1.00  0.00     0.148 C 
ENDBRANCH  46  47
ENDBRANCH  45  46
ENDBRANCH  44  45
ENDBRANCH  38  44
ENDBRANCH  37  38
ENDBRANCH  36  37
ENDBRANCH  34  36
ENDBRANCH   1  34
TORSDOF 16
ENDMDL
MODEL 3
REMARK VINA RESULT: -8.820839652      1.927      3.765
REMARK  16 active torsions:
REMARK  status: ('A' for Active; 'I' for Inactive)
REMARK    1  A    between atoms: O1_2  and  C2_3 
REMARK    2  A    between atoms: C2_3  and  O2_4 
REMARK    3  A    between atoms: C2_3  and  N1_6 
REMARK    4  A    between atoms: N1_6  and  C3_7 
REMARK    5  A    between atoms: N1_6  and  C8_13 
REMARK    6  A    between atoms: C3_7  and  C4_8 
REMARK    7  A    between atoms: C4_8  and  C5_9 
REMARK    8  A    between atoms: C5_9  and  N2_10 
REMARK    9  A    between atoms: C8_13  and  C9_14 
REMARK   10  A    between atoms: C9_14  and  N3_15 
REMARK   11  A    between atoms: N3_15  and  C10_17 
REMARK   12  A    between atoms: C11_20  and  N5_21 
REMARK   13  A    between atoms: N5_21  and  C12_23 
REMARK   14  A    between atoms: C12_23  and  C13_24 
REMARK   15  A    between atoms: C17_30  and  N7_31 
REMARK   16  A    between atoms: N7_31  and  C18_33 
ROOT
HETATM    1  C10 UNL     1      36.324  32.370  24.424  1.00  0.00     0.707 A 
HETATM    2  N4  UNL     1      37.424  32.547  23.695  1.00  0.00    -0.022 N 
ATOM      3  H4  UNL     1      37.332  32.776  22.705  1.00  0.00     0.203 HD
HETATM    4  C11 UNL     1      38.660  32.431  24.231  1.00  0.00     0.707 A 
HETATM    5  N6  UNL     1      38.745  32.130  25.535  1.00  0.00    -0.021 N 
ATOM      6  H6  UNL     1      39.663  32.035  25.968  1.00  0.00     0.203 HD
HETATM    7  C17 UNL     1      37.643  31.950  26.278  1.00  0.00     0.711 A 
HETATM    8  N8  UNL     1      36.437  32.071  25.723  1.00  0.00    -0.021 N 
ATOM      9  H8  UNL     1      35.600  31.935  26.290  1.00  0.00     0.203 HD
ENDROOT
BRANCH   7  10
HETATM   10  N7  UNL     1      37.812  31.663  27.515  1.00  0.00    -0.191 N 
ATOM     11  H7  UNL     1      38.327  32.345  28.072  1.00  0.00     0.184 HD
BRANCH  10  12
HETATM   12  C18 UNL     1      37.366  30.514  28.194  1.00  0.00     0.049 A 
HETATM   13  C19 UNL     1      38.142  29.380  28.314  1.00  0.00     0.031 A 
HETATM   14  C20 UNL     1      37.719  28.256  28.978  1.00  0.00     0.015 A 
HETATM   15  C21 UNL     1      36.449  28.230  29.568  1.00  0.00    -0.018 A 
HETATM   16  C22 UNL     1      35.655  29.338  29.468  1.00  0.00    -0.032 A 
HETATM   17  C32 UNL     1      35.749  27.198  30.319  1.00  0.00    -0.018 A 
HETATM   18  C23 UNL     1      36.120  30.478  28.779  1.00  0.00     0.039 A 
HETATM   19  C24 UNL     1      34.390  29.064  30.164  1.00  0.00     0.008 A 
HETATM   20  C25 UNL     1      34.313  30.048  31.325  1.00  0.00     0.025 C 
HETATM   21  C26 UNL     1      33.188  29.217  29.253  1.00  0.00     0.025 C 
HETATM   22  C27 UNL     1      34.517  27.689  30.675  1.00  0.00    -0.035 A 
HETATM   23  C28 UNL     1      33.686  26.845  31.405  1.00  0.00     0.009 A 
HETATM   24  C29 UNL     1      34.095  25.577  31.747  1.00  0.00     0.001 A 
HETATM   25  C30 UNL     1      35.335  25.078  31.391  1.00  0.00     0.001 A 
HETATM   26  C31 UNL     1      36.157  25.909  30.670  1.00  0.00     0.013 A 
ENDBRANCH  10  12
ENDBRANCH   7  10
BRANCH   4  27
HETATM   27  N5  UNL     1      39.667  32.614  23.460  1.00  0.00    -0.224 N 
ATOM     28  H5  UNL     1      39.503  32.802  22.471  1.00  0.00     0.177 HD
BRANCH  27  29
HETATM   29  C12 UNL     1      41.015  32.563  23.942  1.00  0.00     0.146 C 
BRANCH  29  30
HETATM   30  C13 UNL     1      41.839  31.635  23.075  1.00  0.00    -0.035 C 
HETATM   31  C14 UNL     1      41.454  30.205  23.368  1.00  0.00     0.016 C 
HETATM   32  C15 UNL     1      43.294  31.809  23.453  1.00  0.00     0.016 C 
HETATM   33  C16 UNL     1      41.596  32.009  21.634  1.00  0.00     0.016 C 
ENDBRANCH  29  30
ENDBRANCH  27  29
ENDBRANCH   4  27
BRANCH   1  34
HETATM   34  N3  UNL     1      35.135  32.464  23.950  1.00  0.00    -0.224 N 
ATOM     35  H3  UNL     1      34.990  32.515  22.941  1.00  0.00     0.177 HD
BRANCH  34  36
HETATM   36  C9  UNL     1      34.013  32.498  24.840  1.00  0.00     0.158 C 
BRANCH  36  37
HETATM   37  C8  UNL     1      33.282  33.787  24.896  1.00  0.00     0.147 C 
BRANCH  37  38
HETATM   38  N1  UNL     1      33.322  34.314  26.268  1.00  0.00    -0.340 N 
BRANCH  38  39
HETATM   39  C2  UNL     1      32.262  33.946  27.103  1.00  0.00     0.259 C 
BRANCH  39  40
HETATM   40  O1  UNL     1      32.170  32.906  27.975  1.00  0.00    -0.322 OA
HETATM   41  C1  UNL     1      33.044  32.768  29.057  1.00  0.00     0.213 C 
ENDBRANCH  39  40
BRANCH  39  42
HETATM   42  O2  UNL     1      31.187  34.688  27.057  1.00  0.00    -0.327 OA
ATOM     43  H2  UNL     1      30.470  34.351  27.581  1.00  0.00     0.221 HD
ENDBRANCH  39  42
ENDBRANCH  38  39
BRANCH  38  44
HETATM   44  C3  UNL     1      34.427  35.170  26.568  1.00  0.00     0.132 C 
BRANCH  44  45
HETATM   45  C4  UNL     1      34.945  35.996  25.440  1.00  0.00     0.064 C 
BRANCH  45  46
HETATM   46  C5  UNL     1      36.333  35.886  25.017  1.00  0.00     0.058 C 
BRANCH  46  47
HETATM   47  N2  UNL     1      36.738  35.920  23.700  1.00  0.00    -0.402 N 
HETATM   48  C6  UNL     1      37.997  36.047  23.169  1.00  0.00     0.148 C 
HETATM   49  C7  UNL     1      35.676  35.683  22.724  1.00  0.00     0.148 C 
ENDBRANCH  46  47
ENDBRANCH  45  46
ENDBRANCH  44  45
ENDBRANCH  38  44
ENDBRANCH  37  38
ENDBRANCH  36  37
ENDBRANCH  34  36
ENDBRANCH   1  34
TORSDOF 16
ENDMDL
MODEL 4
REMARK VINA RESULT: -8.748570096      1.981      3.766
REMARK  16 active torsions:
REMARK  status: ('A' for Active; 'I' for Inactive)
REMARK    1  A    between atoms: O1_2  and  C2_3 
REMARK    2  A    between atoms: C2_3  and  O2_4 
REMARK    3  A    between atoms: C2_3  and  N1_6 
REMARK    4  A    between atoms: N1_6  and  C3_7 
REMARK    5  A    between atoms: N1_6  and  C8_13 
REMARK    6  A    between atoms: C3_7  and  C4_8 
REMARK    7  A    between atoms: C4_8  and  C5_9 
REMARK    8  A    between atoms: C5_9  and  N2_10 
REMARK    9  A    between atoms: C8_13  and  C9_14 
REMARK   10  A    between atoms: C9_14  and  N3_15 
REMARK   11  A    between atoms: N3_15  and  C10_17 
REMARK   12  A    between atoms: C11_20  and  N5_21 
REMARK   13  A    between atoms: N5_21  and  C12_23 
REMARK   14  A    between atoms: C12_23  and  C13_24 
REMARK   15  A    between atoms: C17_30  and  N7_31 
REMARK   16  A    between atoms: N7_31  and  C18_33 
ROOT
HETATM    1  C10 UNL     1      35.865  31.406  24.219  1.00  0.00     0.707 A 
HETATM    2  N4  UNL     1      37.140  31.442  23.835  1.00  0.00    -0.022 N 
ATOM      3  H4  UNL     1      37.367  31.297  22.851  1.00  0.00     0.203 HD
HETATM    4  C11 UNL     1      38.142  31.666  24.714  1.00  0.00     0.707 A 
HETATM    5  N6  UNL     1      37.810  31.853  25.999  1.00  0.00    -0.021 N 
ATOM      6  H6  UNL     1      38.544  32.024  26.687  1.00  0.00     0.203 HD
HETATM    7  C17 UNL     1      36.529  31.819  26.396  1.00  0.00     0.711 A 
HETATM    8  N8  UNL     1      35.561  31.597  25.507  1.00  0.00    -0.021 N 
ATOM      9  H8  UNL     1      34.587  31.572  25.810  1.00  0.00     0.203 HD
ENDROOT
BRANCH   7  10
HETATM   10  N7  UNL     1      36.297  32.007  27.642  1.00  0.00    -0.191 N 
ATOM     11  H7  UNL     1      36.444  32.953  27.993  1.00  0.00     0.184 HD
BRANCH  10  12
HETATM   12  C18 UNL     1      35.861  31.055  28.582  1.00  0.00     0.049 A 
HETATM   13  C19 UNL     1      35.025  31.379  29.629  1.00  0.00     0.031 A 
HETATM   14  C20 UNL     1      34.590  30.458  30.549  1.00  0.00     0.015 A 
HETATM   15  C21 UNL     1      34.998  29.122  30.445  1.00  0.00    -0.018 A 
HETATM   16  C22 UNL     1      35.827  28.766  29.417  1.00  0.00    -0.032 A 
HETATM   17  C32 UNL     1      34.704  27.951  31.257  1.00  0.00    -0.018 A 
HETATM   18  C23 UNL     1      36.255  29.739  28.488  1.00  0.00     0.039 A 
HETATM   19  C24 UNL     1      36.104  27.327  29.523  1.00  0.00     0.008 A 
HETATM   20  C25 UNL     1      35.523  26.680  28.272  1.00  0.00     0.025 C 
HETATM   21  C26 UNL     1      37.586  27.034  29.639  1.00  0.00     0.025 C 
HETATM   22  C27 UNL     1      35.363  26.876  30.714  1.00  0.00    -0.035 A 
HETATM   23  C28 UNL     1      35.209  25.650  31.353  1.00  0.00     0.009 A 
HETATM   24  C29 UNL     1      34.427  25.536  32.480  1.00  0.00     0.001 A 
HETATM   25  C30 UNL     1      33.760  26.616  33.029  1.00  0.00     0.001 A 
HETATM   26  C31 UNL     1      33.911  27.827  32.401  1.00  0.00     0.013 A 
ENDBRANCH  10  12
ENDBRANCH   7  10
BRANCH   4  27
HETATM   27  N5  UNL     1      39.342  31.682  24.264  1.00  0.00    -0.224 N 
ATOM     28  H5  UNL     1      39.836  32.573  24.205  1.00  0.00     0.177 HD
BRANCH  27  29
HETATM   29  C12 UNL     1      40.012  30.489  23.839  1.00  0.00     0.146 C 
BRANCH  29  30
HETATM   30  C13 UNL     1      41.447  30.804  23.476  1.00  0.00    -0.035 C 
HETATM   31  C14 UNL     1      41.595  30.796  21.974  1.00  0.00     0.016 C 
HETATM   32  C15 UNL     1      42.324  29.704  24.033  1.00  0.00     0.016 C 
HETATM   33  C16 UNL     1      41.795  32.143  24.077  1.00  0.00     0.016 C 
ENDBRANCH  29  30
ENDBRANCH  27  29
ENDBRANCH   4  27
BRANCH   1  34
HETATM   34  N3  UNL     1      34.888  31.189  23.416  1.00  0.00    -0.224 N 
ATOM     35  H3  UNL     1      34.920  30.396  22.774  1.00  0.00     0.177 HD
BRANCH  34  36
HETATM   36  C9  UNL     1      33.753  32.062  23.422  1.00  0.00     0.158 C 
BRANCH  36  37
HETATM   37  C8  UNL     1      34.010  33.446  22.956  1.00  0.00     0.147 C 
BRANCH  37  38
HETATM   38  N1  UNL     1      33.968  34.366  24.102  1.00  0.00    -0.340 N 
BRANCH  38  39
HETATM   39  C2  UNL     1      32.985  34.112  25.063  1.00  0.00     0.259 C 
BRANCH  39  40
HETATM   40  O1  UNL     1      33.094  33.491  26.269  1.00  0.00    -0.322 OA
HETATM   41  C1  UNL     1      33.452  34.183  27.429  1.00  0.00     0.213 C 
ENDBRANCH  39  40
BRANCH  39  42
HETATM   42  O2  UNL     1      31.771  34.514  24.790  1.00  0.00    -0.327 OA
ATOM     43  H2  UNL     1      31.540  34.428  23.873  1.00  0.00     0.221 HD
ENDBRANCH  39  42
ENDBRANCH  38  39
BRANCH  38  44
HETATM   44  C3  UNL     1      34.921  35.431  24.073  1.00  0.00     0.132 C 
BRANCH  44  45
HETATM   45  C4  UNL     1      36.357  35.029  24.102  1.00  0.00     0.064 C 
BRANCH  45  46
HETATM   46  C5  UNL     1      37.209  35.242  22.942  1.00  0.00     0.058 C 
BRANCH  46  47
HETATM   47  N2  UNL     1      38.562  34.975  22.924  1.00  0.00    -0.402 N 
HETATM   48  C6  UNL     1      39.349  34.484  21.914  1.00  0.00     0.148 C 
HETATM   49  C7  UNL     1      39.282  35.372  24.133  1.00  0.00     0.148 C 
ENDBRANCH  46  47
ENDBRANCH  45  46
ENDBRANCH  44  45
ENDBRANCH  38  44
ENDBRANCH  37  38
ENDBRANCH  36  37
ENDBRANCH  34  36
ENDBRANCH   1  34
TORSDOF 16
ENDMDL
MODEL 5
REMARK VINA RESULT: -8.735300535      1.507      3.072
REMARK  16 active torsions:
REMARK  status: ('A' for Active; 'I' for Inactive)
REMARK    1  A    between atoms: O1_2  and  C2_3 
REMARK    2  A    between atoms: C2_3  and  O2_4 
REMARK    3  A    between atoms: C2_3  and  N1_6 
REMARK    4  A    between atoms: N1_6  and  C3_7 
REMARK    5  A    between atoms: N1_6  and  C8_13 
REMARK    6  A    between atoms: C3_7  and  C4_8 
REMARK    7  A    between atoms: C4_8  and  C5_9 
REMARK    8  A    between atoms: C5_9  and  N2_10 
REMARK    9  A    between atoms: C8_13  and  C9_14 
REMARK   10  A    between atoms: C9_14  and  N3_15 
REMARK   11  A    between atoms: N3_15  and  C10_17 
REMARK   12  A    between atoms: C11_20  and  N5_21 
REMARK   13  A    between atoms: N5_21  and  C12_23 
REMARK   14  A    between atoms: C12_23  and  C13_24 
REMARK   15  A    between atoms: C17_30  and  N7_31 
REMARK   16  A    between atoms: N7_31  and  C18_33 
ROOT
HETATM    1  C10 UNL     1      36.400  31.959  24.631  1.00  0.00     0.707 A 
HETATM    2  N4  UNL     1      37.367  32.493  23.887  1.00  0.00    -0.022 N 
ATOM      3  H4  UNL     1      37.113  33.058  23.076  1.00  0.00     0.203 HD
HETATM    4  C11 UNL     1      38.674  32.308  24.177  1.00  0.00     0.707 A 
HETATM    5  N6  UNL     1      38.972  31.560  25.249  1.00  0.00    -0.021 N 
ATOM      6  H6  UNL     1      39.949  31.401  25.493  1.00  0.00     0.203 HD
HETATM    7  C17 UNL     1      38.006  31.018  26.006  1.00  0.00     0.711 A 
HETATM    8  N8  UNL     1      36.725  31.218  25.697  1.00  0.00    -0.021 N 
ATOM      9  H8  UNL     1      35.991  30.806  26.274  1.00  0.00     0.203 HD
ENDROOT
BRANCH   7  10
HETATM   10  N7  UNL     1      38.375  30.316  27.012  1.00  0.00    -0.191 N 
ATOM     11  H7  UNL     1      39.380  30.181  27.126  1.00  0.00     0.184 HD
BRANCH  10  12
HETATM   12  C18 UNL     1      37.551  29.712  27.979  1.00  0.00     0.049 A 
HETATM   13  C19 UNL     1      36.675  30.435  28.760  1.00  0.00     0.031 A 
HETATM   14  C20 UNL     1      35.863  29.855  29.703  1.00  0.00     0.015 A 
HETATM   15  C21 UNL     1      35.906  28.470  29.903  1.00  0.00    -0.018 A 
HETATM   16  C22 UNL     1      36.764  27.722  29.144  1.00  0.00    -0.032 A 
HETATM   17  C32 UNL     1      35.177  27.597  30.812  1.00  0.00    -0.018 A 
HETATM   18  C23 UNL     1      37.584  28.350  28.183  1.00  0.00     0.039 A 
HETATM   19  C24 UNL     1      36.619  26.313  29.536  1.00  0.00     0.008 A 
HETATM   20  C25 UNL     1      36.097  25.574  28.311  1.00  0.00     0.025 C 
HETATM   21  C26 UNL     1      37.927  25.711  30.008  1.00  0.00     0.025 C 
HETATM   22  C27 UNL     1      35.601  26.308  30.600  1.00  0.00    -0.035 A 
HETATM   23  C28 UNL     1      35.019  25.315  31.381  1.00  0.00     0.009 A 
HETATM   24  C29 UNL     1      34.062  25.626  32.320  1.00  0.00     0.001 A 
HETATM   25  C30 UNL     1      33.632  26.923  32.535  1.00  0.00     0.001 A 
HETATM   26  C31 UNL     1      34.205  27.905  31.767  1.00  0.00     0.013 A 
ENDBRANCH  10  12
ENDBRANCH   7  10
BRANCH   4  27
HETATM   27  N5  UNL     1      39.542  32.854  23.408  1.00  0.00    -0.224 N 
ATOM     28  H5  UNL     1      39.531  32.628  22.413  1.00  0.00     0.177 HD
BRANCH  27  29
HETATM   29  C12 UNL     1      40.524  33.773  23.900  1.00  0.00     0.146 C 
BRANCH  29  30
HETATM   30  C13 UNL     1      41.215  34.461  22.742  1.00  0.00    -0.035 C 
HETATM   31  C14 UNL     1      41.546  35.881  23.131  1.00  0.00     0.016 C 
HETATM   32  C15 UNL     1      40.245  34.513  21.582  1.00  0.00     0.016 C 
HETATM   33  C16 UNL     1      42.446  33.662  22.395  1.00  0.00     0.016 C 
ENDBRANCH  29  30
ENDBRANCH  27  29
ENDBRANCH   4  27
BRANCH   1  34
HETATM   34  N3  UNL     1      35.150  32.107  24.384  1.00  0.00    -0.224 N 
ATOM     35  H3  UNL     1      34.813  32.081  23.422  1.00  0.00     0.177 HD
BRANCH  34  36
HETATM   36  C9  UNL     1      34.228  32.309  25.463  1.00  0.00     0.158 C 
BRANCH  36  37
HETATM   37  C8  UNL     1      33.308  33.461  25.308  1.00  0.00     0.147 C 
BRANCH  37  38
HETATM   38  N1  UNL     1      33.162  34.150  26.599  1.00  0.00    -0.340 N 
BRANCH  38  39
HETATM   39  C2  UNL     1      32.019  33.837  27.341  1.00  0.00     0.259 C 
BRANCH  39  40
HETATM   40  O1  UNL     1      31.790  32.787  28.176  1.00  0.00    -0.322 OA
HETATM   41  C1  UNL     1      32.803  32.233  28.963  1.00  0.00     0.213 C 
ENDBRANCH  39  40
BRANCH  39  42
HETATM   42  O2  UNL     1      31.002  34.652  27.234  1.00  0.00    -0.327 OA
ATOM     43  H2  UNL     1      30.400  34.607  27.967  1.00  0.00     0.221 HD
ENDBRANCH  39  42
ENDBRANCH  38  39
BRANCH  38  44
HETATM   44  C3  UNL     1      34.196  35.083  26.920  1.00  0.00     0.132 C 
BRANCH  44  45
HETATM   45  C4  UNL     1      34.664  35.956  25.805  1.00  0.00     0.064 C 
BRANCH  45  46
HETATM   46  C5  UNL     1      36.002  35.801  25.254  1.00  0.00     0.058 C 
BRANCH  46  47
HETATM   47  N2  UNL     1      36.272  35.733  23.904  1.00  0.00    -0.402 N 
HETATM   48  C6  UNL     1      35.431  35.481  22.850  1.00  0.00     0.148 C 
HETATM   49  C7  UNL     1      37.642  36.083  23.532  1.00  0.00     0.148 C 
ENDBRANCH  46  47
ENDBRANCH  45  46
ENDBRANCH  44  45
ENDBRANCH  38  44
ENDBRANCH  37  38
ENDBRANCH  36  37
ENDBRANCH  34  36
ENDBRANCH   1  34
TORSDOF 16
ENDMDL
