MODEL 1
REMARK VINA RESULT: -9.155091705      0.000      0.000
REMARK  3 active torsions:
REMARK  status: ('A' for Active; 'I' for Inactive)
REMARK    1  A    between atoms: C4_9  and  C5_10 
REMARK    2  A    between atoms: N4_17  and  N5_18 
REMARK    3  A    between atoms: N5_18  and  C10_20 
ROOT
HETATM    1  C1  UNL     1     -29.252 -11.129  19.488  1.00  0.00     0.091 C 
HETATM    2  C2  UNL     1     -29.002  -9.648  19.398  1.00  0.00     0.099 C 
HETATM    3  N1  UNL     1     -29.051  -9.144  18.211  1.00  0.00    -0.322 N 
ATOM      4  H1  UNL     1     -29.248  -9.725  17.397  1.00  0.00     0.169 HD
HETATM    5  C3  UNL     1     -28.820  -7.747  18.085  1.00  0.00     0.174 C 
HETATM    6  S1  UNL     1     -28.867  -7.038  16.601  1.00  0.00    -0.041 SA
HETATM    7  N2  UNL     1     -28.548  -6.957  19.239  1.00  0.00    -0.340 N 
ATOM      8  H2  UNL     1     -28.019  -6.087  19.182  1.00  0.00     0.164 HD
HETATM    9  C4  UNL     1     -29.065  -7.459  20.503  1.00  0.00     0.244 C 
HETATM   10  N4  UNL     1     -28.732  -8.871  20.553  1.00  0.00    -0.251 N 
ENDROOT
BRANCH  10  11
HETATM   11  N5  UNL     1     -28.171  -9.489  21.656  1.00  0.00    -0.279 N 
ATOM     12  H5  UNL     1     -27.219  -9.840  21.561  1.00  0.00     0.189 HD
BRANCH  11  13
HETATM   13  C10 UNL     1     -28.749  -9.657  22.787  1.00  0.00     0.131 A 
HETATM   14  N6  UNL     1     -30.002 -10.082  22.957  1.00  0.00    -0.351 N 
HETATM   15  C11 UNL     1     -30.543 -10.235  24.178  1.00  0.00     0.090 A 
ATOM     16  H6  UNL     1     -30.567 -10.296  22.135  1.00  0.00     0.166 HD
HETATM   17  C12 UNL     1     -29.825  -9.959  25.321  1.00  0.00     0.029 A 
HETATM   18  C13 UNL     1     -28.516  -9.515  25.179  1.00  0.00    -0.021 A 
HETATM   19  C14 UNL     1     -27.781  -9.234  26.321  1.00  0.00     0.012 A 
HETATM   20  C18 UNL     1     -28.003  -9.373  23.919  1.00  0.00     0.019 A 
HETATM   21  C15 UNL     1     -26.494  -8.797  26.211  1.00  0.00     0.001 A 
HETATM   22  C16 UNL     1     -25.961  -8.647  24.945  1.00  0.00     0.001 A 
HETATM   23  C17 UNL     1     -26.690  -8.927  23.794  1.00  0.00     0.016 A 
ENDBRANCH  11  13
ENDBRANCH  10  11
BRANCH   9  24
HETATM   24  C5  UNL     1     -28.573  -6.713  21.663  1.00  0.00     0.001 A 
HETATM   25  C6  UNL     1     -29.363  -6.454  22.776  1.00  0.00     0.014 A 
HETATM   26  C7  UNL     1     -28.881  -5.747  23.863  1.00  0.00     0.018 A 
HETATM   27  C8  UNL     1     -27.578  -5.282  23.854  1.00  0.00     0.087 A 
HETATM   28  N3  UNL     1     -26.821  -5.533  22.786  1.00  0.00    -0.375 N 
HETATM   29  C9  UNL     1     -27.281  -6.227  21.705  1.00  0.00     0.098 A 
ATOM     30  H3  UNL     1     -25.860  -5.191  22.776  1.00  0.00     0.164 HD
ENDBRANCH   9  24
TORSDOF 3
ENDMDL
MODEL 2
REMARK VINA RESULT: -8.762321195      2.551      5.034
REMARK  3 active torsions:
REMARK  status: ('A' for Active; 'I' for Inactive)
REMARK    1  A    between atoms: C4_9  and  C5_10 
REMARK    2  A    between atoms: N4_17  and  N5_18 
REMARK    3  A    between atoms: N5_18  and  C10_20 
ROOT
HETATM    1  C1  UNL     1     -28.773 -12.718  20.877  1.00  0.00     0.091 C 
HETATM    2  C2  UNL     1     -29.384 -11.832  21.930  1.00  0.00     0.099 C 
HETATM    3  N1  UNL     1     -30.359 -12.350  22.597  1.00  0.00    -0.322 N 
ATOM      4  H1  UNL     1     -30.684 -13.299  22.411  1.00  0.00     0.169 HD
HETATM    5  C3  UNL     1     -30.963 -11.544  23.601  1.00  0.00     0.174 C 
HETATM    6  S1  UNL     1     -32.214 -12.140  24.489  1.00  0.00    -0.041 SA
HETATM    7  N2  UNL     1     -30.490 -10.222  23.841  1.00  0.00    -0.340 N 
ATOM      8  H2  UNL     1     -31.090  -9.502  24.242  1.00  0.00     0.164 HD
HETATM    9  C4  UNL     1     -29.105  -9.956  23.484  1.00  0.00     0.244 C 
HETATM   10  N4  UNL     1     -28.905 -10.519  22.161  1.00  0.00    -0.251 N 
ENDROOT
BRANCH  10  11
HETATM   11  N5  UNL     1     -28.279  -9.845  21.127  1.00  0.00    -0.279 N 
ATOM     12  H5  UNL     1     -27.262  -9.791  21.153  1.00  0.00     0.189 HD
BRANCH  11  13
HETATM   13  C10 UNL     1     -28.872  -9.283  20.140  1.00  0.00     0.131 A 
HETATM   14  N6  UNL     1     -29.885  -9.809  19.449  1.00  0.00    -0.351 N 
HETATM   15  C11 UNL     1     -30.460  -9.159  18.422  1.00  0.00     0.090 A 
ATOM     16  H6  UNL     1     -30.233 -10.733  19.707  1.00  0.00     0.166 HD
HETATM   17  C12 UNL     1     -30.029  -7.910  18.031  1.00  0.00     0.029 A 
HETATM   18  C13 UNL     1     -28.975  -7.334  18.731  1.00  0.00    -0.021 A 
HETATM   19  C14 UNL     1     -28.531  -6.077  18.348  1.00  0.00     0.012 A 
HETATM   20  C18 UNL     1     -28.419  -8.029  19.770  1.00  0.00     0.019 A 
HETATM   21  C15 UNL     1     -27.499  -5.488  19.018  1.00  0.00     0.001 A 
HETATM   22  C16 UNL     1     -26.925  -6.176  20.069  1.00  0.00     0.001 A 
HETATM   23  C17 UNL     1     -27.364  -7.437  20.460  1.00  0.00     0.016 A 
ENDBRANCH  11  13
ENDBRANCH  10  11
BRANCH   9  24
HETATM   24  C5  UNL     1     -28.753  -8.537  23.562  1.00  0.00     0.001 A 
HETATM   25  C6  UNL     1     -29.651  -7.524  23.252  1.00  0.00     0.014 A 
HETATM   26  C7  UNL     1     -29.301  -6.189  23.331  1.00  0.00     0.018 A 
HETATM   27  C8  UNL     1     -28.024  -5.839  23.731  1.00  0.00     0.087 A 
HETATM   28  N3  UNL     1     -27.162  -6.812  24.029  1.00  0.00    -0.375 N 
HETATM   29  C9  UNL     1     -27.492  -8.135  23.955  1.00  0.00     0.098 A 
ATOM     30  H3  UNL     1     -26.220  -6.558  24.324  1.00  0.00     0.164 HD
ENDBRANCH   9  24
TORSDOF 3
ENDMDL
MODEL 3
REMARK VINA RESULT: -8.578694798      2.079      3.628
REMARK  3 active torsions:
REMARK  status: ('A' for Active; 'I' for Inactive)
REMARK    1  A    between atoms: C4_9  and  C5_10 
REMARK    2  A    between atoms: N4_17  and  N5_18 
REMARK    3  A    between atoms: N5_18  and  C10_20 
ROOT
HETATM    1  C1  UNL     1     -29.913  -8.784  18.017  1.00  0.00     0.091 C 
HETATM    2  C2  UNL     1     -28.757  -8.480  18.933  1.00  0.00     0.099 C 
HETATM    3  N1  UNL     1     -27.655  -8.147  18.349  1.00  0.00    -0.322 N 
ATOM      4  H1  UNL     1     -27.588  -8.096  17.333  1.00  0.00     0.169 HD
HETATM    5  C3  UNL     1     -26.540  -7.852  19.180  1.00  0.00     0.174 C 
HETATM    6  S1  UNL     1     -25.103  -7.420  18.503  1.00  0.00    -0.041 SA
HETATM    7  N2  UNL     1     -26.661  -7.928  20.597  1.00  0.00    -0.340 N 
ATOM      8  H2  UNL     1     -25.854  -8.105  21.196  1.00  0.00     0.164 HD
HETATM    9  C4  UNL     1     -27.996  -7.742  21.144  1.00  0.00     0.244 C 
HETATM   10  N4  UNL     1     -28.887  -8.559  20.342  1.00  0.00    -0.251 N 
ENDROOT
BRANCH  10  11
HETATM   11  N5  UNL     1     -29.846  -9.402  20.876  1.00  0.00    -0.279 N 
ATOM     12  H5  UNL     1     -30.756  -8.997  21.092  1.00  0.00     0.189 HD
BRANCH  11  13
HETATM   13  C10 UNL     1     -29.684 -10.649  21.123  1.00  0.00     0.131 A 
HETATM   14  N6  UNL     1     -28.971 -11.495  20.378  1.00  0.00    -0.351 N 
HETATM   15  C11 UNL     1     -28.846 -12.794  20.700  1.00  0.00     0.090 A 
ATOM     16  H6  UNL     1     -28.506 -11.146  19.540  1.00  0.00     0.166 HD
HETATM   17  C12 UNL     1     -29.452 -13.319  21.821  1.00  0.00     0.029 A 
HETATM   18  C13 UNL     1     -30.203 -12.463  22.618  1.00  0.00    -0.021 A 
HETATM   19  C14 UNL     1     -30.818 -12.976  23.750  1.00  0.00     0.012 A 
HETATM   20  C18 UNL     1     -30.304 -11.148  22.256  1.00  0.00     0.019 A 
HETATM   21  C15 UNL     1     -31.561 -12.159  24.550  1.00  0.00     0.001 A 
HETATM   22  C16 UNL     1     -31.675 -10.828  24.198  1.00  0.00     0.001 A 
HETATM   23  C17 UNL     1     -31.060 -10.304  23.065  1.00  0.00     0.016 A 
ENDBRANCH  11  13
ENDBRANCH  10  11
BRANCH   9  24
HETATM   24  C5  UNL     1     -28.078  -8.040  22.576  1.00  0.00     0.001 A 
HETATM   25  C6  UNL     1     -27.273  -8.989  23.191  1.00  0.00     0.014 A 
HETATM   26  C7  UNL     1     -27.365  -9.257  24.544  1.00  0.00     0.018 A 
HETATM   27  C8  UNL     1     -28.281  -8.566  25.318  1.00  0.00     0.087 A 
HETATM   28  N3  UNL     1     -29.053  -7.655  24.726  1.00  0.00    -0.375 N 
HETATM   29  C9  UNL     1     -28.975  -7.379  23.392  1.00  0.00     0.098 A 
ATOM     30  H3  UNL     1     -29.729  -7.143  25.293  1.00  0.00     0.164 HD
ENDBRANCH   9  24
TORSDOF 3
ENDMDL
MODEL 4
REMARK VINA RESULT: -8.417070369      2.827      5.898
REMARK  3 active torsions:
REMARK  status: ('A' for Active; 'I' for Inactive)
REMARK    1  A    between atoms: C4_9  and  C5_10 
REMARK    2  A    between atoms: N4_17  and  N5_18 
REMARK    3  A    between atoms: N5_18  and  C10_20 
ROOT
HETATM    1  C1  UNL     1     -30.779  -9.504  23.952  1.00  0.00     0.091 C 
HETATM    2  C2  UNL     1     -29.313  -9.174  23.873  1.00  0.00     0.099 C 
HETATM    3  N1  UNL     1     -28.693  -9.113  25.003  1.00  0.00    -0.322 N 
ATOM      4  H1  UNL     1     -29.179  -9.280  25.884  1.00  0.00     0.169 HD
HETATM    5  C3  UNL     1     -27.305  -8.803  24.971  1.00  0.00     0.174 C 
HETATM    6  S1  UNL     1     -26.452  -8.708  26.375  1.00  0.00    -0.041 SA
HETATM    7  N2  UNL     1     -26.650  -8.575  23.727  1.00  0.00    -0.340 N 
ATOM      8  H2  UNL     1     -25.810  -8.000  23.660  1.00  0.00     0.164 HD
HETATM    9  C4  UNL     1     -27.243  -9.205  22.557  1.00  0.00     0.244 C 
HETATM   10  N4  UNL     1     -28.670  -8.949  22.630  1.00  0.00    -0.251 N 
ENDROOT
BRANCH  10  11
HETATM   11  N5  UNL     1     -29.425  -8.500  21.561  1.00  0.00    -0.279 N 
ATOM     12  H5  UNL     1     -29.931  -7.624  21.682  1.00  0.00     0.189 HD
BRANCH  11  13
HETATM   13  C10 UNL     1     -29.540  -9.094  20.432  1.00  0.00     0.131 A 
HETATM   14  N6  UNL     1     -29.775 -10.396  20.267  1.00  0.00    -0.351 N 
HETATM   15  C11 UNL     1     -29.884 -10.951  19.047  1.00  0.00     0.090 A 
ATOM     16  H6  UNL     1     -29.876 -10.990  21.091  1.00  0.00     0.166 HD
HETATM   17  C12 UNL     1     -29.757 -10.197  17.900  1.00  0.00     0.029 A 
HETATM   18  C13 UNL     1     -29.512  -8.836  18.038  1.00  0.00    -0.021 A 
HETATM   19  C14 UNL     1     -29.382  -8.065  16.893  1.00  0.00     0.012 A 
HETATM   20  C18 UNL     1     -29.408  -8.311  19.297  1.00  0.00     0.019 A 
HETATM   21  C15 UNL     1     -29.141  -6.726  16.999  1.00  0.00     0.001 A 
HETATM   22  C16 UNL     1     -29.033  -6.180  18.263  1.00  0.00     0.001 A 
HETATM   23  C17 UNL     1     -29.162  -6.946  19.417  1.00  0.00     0.016 A 
ENDBRANCH  11  13
ENDBRANCH  10  11
BRANCH   9  24
HETATM   24  C5  UNL     1     -26.645  -8.761  21.297  1.00  0.00     0.001 A 
HETATM   25  C6  UNL     1     -26.323  -9.639  20.271  1.00  0.00     0.014 A 
HETATM   26  C7  UNL     1     -25.757  -9.201  19.087  1.00  0.00     0.018 A 
HETATM   27  C8  UNL     1     -25.502  -7.853  18.908  1.00  0.00     0.087 A 
HETATM   28  N3  UNL     1     -25.812  -7.011  19.894  1.00  0.00    -0.375 N 
HETATM   29  C9  UNL     1     -26.370  -7.427  21.069  1.00  0.00     0.098 A 
ATOM     30  H3  UNL     1     -25.626  -6.017  19.766  1.00  0.00     0.164 HD
ENDBRANCH   9  24
TORSDOF 3
ENDMDL
MODEL 5
REMARK VINA RESULT: -8.313715613      1.946      4.096
REMARK  3 active torsions:
REMARK  status: ('A' for Active; 'I' for Inactive)
REMARK    1  A    between atoms: C4_9  and  C5_10 
REMARK    2  A    between atoms: N4_17  and  N5_18 
REMARK    3  A    between atoms: N5_18  and  C10_20 
ROOT
HETATM    1  C1  UNL     1     -26.221  -8.540  21.642  1.00  0.00     0.091 C 
HETATM    2  C2  UNL     1     -27.502  -9.036  21.027  1.00  0.00     0.099 C 
HETATM    3  N1  UNL     1     -27.646  -8.797  19.767  1.00  0.00    -0.322 N 
ATOM      4  H1  UNL     1     -26.930  -8.302  19.236  1.00  0.00     0.169 HD
HETATM    5  C3  UNL     1     -28.844  -9.250  19.150  1.00  0.00     0.174 C 
HETATM    6  S1  UNL     1     -29.094  -8.978  17.546  1.00  0.00    -0.041 SA
HETATM    7  N2  UNL     1     -29.828  -9.940  19.913  1.00  0.00    -0.340 N 
ATOM      8  H2  UNL     1     -30.812  -9.942  19.645  1.00  0.00     0.164 HD
HETATM    9  C4  UNL     1     -29.356 -10.641  21.097  1.00  0.00     0.244 C 
HETATM   10  N4  UNL     1     -28.476  -9.722  21.796  1.00  0.00    -0.251 N 
ENDROOT
BRANCH  10  11
HETATM   11  N5  UNL     1     -28.539  -9.484  23.157  1.00  0.00    -0.279 N 
ATOM     12  H5  UNL     1     -28.420 -10.284  23.777  1.00  0.00     0.189 HD
BRANCH  11  13
HETATM   13  C10 UNL     1     -28.735  -8.342  23.703  1.00  0.00     0.131 A 
HETATM   14  N6  UNL     1     -29.563  -7.401  23.246  1.00  0.00    -0.351 N 
HETATM   15  C11 UNL     1     -29.718  -6.223  23.874  1.00  0.00     0.090 A 
ATOM     16  H6  UNL     1     -30.095  -7.582  22.394  1.00  0.00     0.166 HD
HETATM   17  C12 UNL     1     -29.025  -5.926  25.027  1.00  0.00     0.029 A 
HETATM   18  C13 UNL     1     -28.154  -6.886  25.530  1.00  0.00    -0.021 A 
HETATM   19  C14 UNL     1     -27.450  -6.602  26.691  1.00  0.00     0.012 A 
HETATM   20  C18 UNL     1     -28.026  -8.072  24.861  1.00  0.00     0.019 A 
HETATM   21  C15 UNL     1     -26.588  -7.525  27.207  1.00  0.00     0.001 A 
HETATM   22  C16 UNL     1     -26.446  -8.728  26.543  1.00  0.00     0.001 A 
HETATM   23  C17 UNL     1     -27.149  -9.022  25.379  1.00  0.00     0.016 A 
ENDBRANCH  11  13
ENDBRANCH  10  11
BRANCH   9  24
HETATM   24  C5  UNL     1     -30.441 -11.146  21.940  1.00  0.00     0.001 A 
HETATM   25  C6  UNL     1     -30.296 -12.257  22.761  1.00  0.00     0.014 A 
HETATM   26  C7  UNL     1     -31.333 -12.721  23.550  1.00  0.00     0.018 A 
HETATM   27  C8  UNL     1     -32.553 -12.068  23.530  1.00  0.00     0.087 A 
HETATM   28  N3  UNL     1     -32.690 -11.002  22.742  1.00  0.00    -0.375 N 
HETATM   29  C9  UNL     1     -31.677 -10.532  21.957  1.00  0.00     0.098 A 
ATOM     30  H3  UNL     1     -33.588 -10.518  22.725  1.00  0.00     0.164 HD
ENDBRANCH   9  24
TORSDOF 3
ENDMDL
