MODEL 1
REMARK VINA RESULT: -8.882223980      0.000      0.000
REMARK  3 active torsions:
REMARK  status: ('A' for Active; 'I' for Inactive)
REMARK    1  A    between atoms: C3_6  and  N3_7 
REMARK    2  A    between atoms: N3_7  and  C4_9 
REMARK    3  A    between atoms: C16_24  and  N6_25 
ROOT
HETATM    1  C1  UNL     1     -25.521  -9.249  28.086  1.00  0.00     0.231 C 
HETATM    2  N1  UNL     1     -26.065  -8.739  26.988  1.00  0.00    -0.410 NA
HETATM    3  C2  UNL     1     -26.594  -8.242  26.060  1.00  0.00     0.204 A 
HETATM    4  N2  UNL     1     -26.274  -8.544  24.748  1.00  0.00    -0.163 N 
ATOM      5  H2  UNL     1     -25.543  -9.235  24.576  1.00  0.00     0.187 HD
HETATM    6  C3  UNL     1     -26.867  -7.982  23.698  1.00  0.00     0.685 A 
HETATM    7  N5  UNL     1     -27.833  -7.069  23.893  1.00  0.00    -0.191 N 
ATOM      8  H5  UNL     1     -28.287  -6.640  23.086  1.00  0.00     0.184 HD
HETATM    9  C13 UNL     1     -28.216  -6.709  25.133  1.00  0.00     0.064 A 
HETATM   10  C14 UNL     1     -29.218  -5.760  25.335  1.00  0.00     0.033 A 
HETATM   11  C15 UNL     1     -29.619  -5.381  26.604  1.00  0.00     0.031 A 
HETATM   12  C16 UNL     1     -29.008  -5.960  27.691  1.00  0.00     0.030 A 
HETATM   13  C19 UNL     1     -28.016  -6.898  27.489  1.00  0.00     0.048 A 
HETATM   14  C20 UNL     1     -27.619  -7.275  26.225  1.00  0.00     0.052 A 
ENDROOT
BRANCH   6  15
HETATM   15  N3  UNL     1     -26.575  -8.264  22.474  1.00  0.00    -0.192 N 
ATOM     16  H3  UNL     1     -25.616  -8.101  22.165  1.00  0.00     0.184 HD
BRANCH  15  17
HETATM   17  C4  UNL     1     -27.494  -8.784  21.525  1.00  0.00     0.051 A 
HETATM   18  C5  UNL     1     -27.812 -10.124  21.556  1.00  0.00     0.037 A 
HETATM   19  C6  UNL     1     -28.698 -10.714  20.669  1.00  0.00    -0.052 A 
HETATM   20  C7  UNL     1     -29.027 -12.145  20.715  1.00  0.00     0.049 C 
HETATM   21  C8  UNL     1     -29.287  -9.922  19.713  1.00  0.00    -0.035 A 
HETATM   22  C9  UNL     1     -30.229 -10.502  18.757  1.00  0.00     0.050 C 
HETATM   23  C10 UNL     1     -28.990  -8.581  19.657  1.00  0.00     0.053 A 
HETATM   24  C11 UNL     1     -29.576  -7.688  18.674  1.00  0.00     0.100 C 
HETATM   25  C12 UNL     1     -28.092  -8.002  20.561  1.00  0.00     0.053 A 
HETATM   26  N4  UNL     1     -30.059  -6.980  17.895  1.00  0.00    -0.191 NA
ENDBRANCH  15  17
ENDBRANCH   6  15
BRANCH  12  27
HETATM   27  N6  UNL     1     -29.397  -5.591  29.005  1.00  0.00    -0.390 N 
HETATM   28  C17 UNL     1     -30.790  -5.500  29.384  1.00  0.00     0.149 C 
HETATM   29  C18 UNL     1     -28.386  -5.291  30.011  1.00  0.00     0.149 C 
ENDBRANCH  12  27
TORSDOF 3
ENDMDL
MODEL 2
REMARK VINA RESULT: -8.826018322      2.374      4.027
REMARK  3 active torsions:
REMARK  status: ('A' for Active; 'I' for Inactive)
REMARK    1  A    between atoms: C3_6  and  N3_7 
REMARK    2  A    between atoms: N3_7  and  C4_9 
REMARK    3  A    between atoms: C16_24  and  N6_25 
ROOT
HETATM    1  C1  UNL     1     -30.673  -7.498  28.509  1.00  0.00     0.231 C 
HETATM    2  N1  UNL     1     -29.489  -7.746  27.963  1.00  0.00    -0.410 NA
HETATM    3  C2  UNL     1     -28.404  -7.938  27.545  1.00  0.00     0.204 A 
HETATM    4  N2  UNL     1     -28.153  -8.469  26.292  1.00  0.00    -0.163 N 
ATOM      5  H2  UNL     1     -28.950  -8.703  25.699  1.00  0.00     0.187 HD
HETATM    6  C3  UNL     1     -26.930  -8.691  25.819  1.00  0.00     0.685 A 
HETATM    7  N5  UNL     1     -25.862  -8.392  26.578  1.00  0.00    -0.191 N 
ATOM      8  H5  UNL     1     -24.925  -8.563  26.212  1.00  0.00     0.184 HD
HETATM    9  C13 UNL     1     -26.003  -7.870  27.811  1.00  0.00     0.064 A 
HETATM   10  C14 UNL     1     -24.894  -7.561  28.598  1.00  0.00     0.033 A 
HETATM   11  C15 UNL     1     -25.027  -7.027  29.868  1.00  0.00     0.031 A 
HETATM   12  C16 UNL     1     -26.289  -6.796  30.360  1.00  0.00     0.030 A 
HETATM   13  C19 UNL     1     -27.385  -7.103  29.579  1.00  0.00     0.048 A 
HETATM   14  C20 UNL     1     -27.252  -7.635  28.316  1.00  0.00     0.052 A 
ENDROOT
BRANCH   6  15
HETATM   15  N3  UNL     1     -26.692  -9.182  24.650  1.00  0.00    -0.192 N 
ATOM     16  H3  UNL     1     -26.400 -10.158  24.596  1.00  0.00     0.184 HD
BRANCH  15  17
HETATM   17  C4  UNL     1     -26.806  -8.459  23.434  1.00  0.00     0.051 A 
HETATM   18  C5  UNL     1     -26.989  -7.094  23.473  1.00  0.00     0.037 A 
HETATM   19  C6  UNL     1     -27.110  -6.312  22.336  1.00  0.00    -0.052 A 
HETATM   20  C7  UNL     1     -27.305  -4.857  22.394  1.00  0.00     0.049 C 
HETATM   21  C8  UNL     1     -27.045  -6.930  21.110  1.00  0.00    -0.035 A 
HETATM   22  C9  UNL     1     -27.168  -6.144  19.883  1.00  0.00     0.050 C 
HETATM   23  C10 UNL     1     -26.863  -8.291  21.038  1.00  0.00     0.053 A 
HETATM   24  C11 UNL     1     -26.785  -9.007  19.778  1.00  0.00     0.100 C 
HETATM   25  C12 UNL     1     -26.743  -9.065  22.198  1.00  0.00     0.053 A 
HETATM   26  N4  UNL     1     -26.710  -9.568  18.768  1.00  0.00    -0.191 NA
ENDBRANCH  15  17
ENDBRANCH   6  15
BRANCH  12  27
HETATM   27  N6  UNL     1     -26.457  -6.249  31.658  1.00  0.00    -0.390 N 
HETATM   28  C17 UNL     1     -27.743  -5.776  32.120  1.00  0.00     0.149 C 
HETATM   29  C18 UNL     1     -25.318  -6.151  32.564  1.00  0.00     0.149 C 
ENDBRANCH  12  27
TORSDOF 3
ENDMDL
MODEL 3
REMARK VINA RESULT: -8.692082753      1.673      7.857
REMARK  3 active torsions:
REMARK  status: ('A' for Active; 'I' for Inactive)
REMARK    1  A    between atoms: C3_6  and  N3_7 
REMARK    2  A    between atoms: N3_7  and  C4_9 
REMARK    3  A    between atoms: C16_24  and  N6_25 
ROOT
HETATM    1  C1  UNL     1     -30.278 -11.114  22.480  1.00  0.00     0.231 C 
HETATM    2  N1  UNL     1     -29.321 -10.272  22.854  1.00  0.00    -0.410 NA
HETATM    3  C2  UNL     1     -28.482  -9.489  23.115  1.00  0.00     0.204 A 
HETATM    4  N2  UNL     1     -27.781  -9.491  24.308  1.00  0.00    -0.163 N 
ATOM      5  H2  UNL     1     -28.002 -10.212  24.996  1.00  0.00     0.187 HD
HETATM    6  C3  UNL     1     -26.835  -8.606  24.607  1.00  0.00     0.685 A 
HETATM    7  N5  UNL     1     -26.521  -7.646  23.720  1.00  0.00    -0.191 N 
ATOM      8  H5  UNL     1     -25.795  -6.968  23.953  1.00  0.00     0.184 HD
HETATM    9  C13 UNL     1     -27.147  -7.560  22.531  1.00  0.00     0.064 A 
HETATM   10  C14 UNL     1     -26.822  -6.563  21.611  1.00  0.00     0.033 A 
HETATM   11  C15 UNL     1     -27.459  -6.465  20.387  1.00  0.00     0.031 A 
HETATM   12  C16 UNL     1     -28.437  -7.378  20.074  1.00  0.00     0.030 A 
HETATM   13  C19 UNL     1     -28.757  -8.364  20.986  1.00  0.00     0.048 A 
HETATM   14  C20 UNL     1     -28.122  -8.461  22.204  1.00  0.00     0.052 A 
ENDROOT
BRANCH   6  15
HETATM   15  N3  UNL     1     -26.176  -8.607  25.716  1.00  0.00    -0.192 N 
ATOM     16  H3  UNL     1     -25.357  -9.212  25.781  1.00  0.00     0.184 HD
BRANCH  15  17
HETATM   17  C4  UNL     1     -26.511  -7.826  26.853  1.00  0.00     0.051 A 
HETATM   18  C5  UNL     1     -25.625  -7.746  27.905  1.00  0.00     0.037 A 
HETATM   19  C6  UNL     1     -25.872  -7.008  29.051  1.00  0.00    -0.052 A 
HETATM   20  C7  UNL     1     -24.916  -6.933  30.164  1.00  0.00     0.049 C 
HETATM   21  C8  UNL     1     -27.059  -6.323  29.141  1.00  0.00    -0.035 A 
HETATM   22  C9  UNL     1     -27.362  -5.530  30.332  1.00  0.00     0.050 C 
HETATM   23  C10 UNL     1     -27.965  -6.382  28.108  1.00  0.00     0.053 A 
HETATM   24  C11 UNL     1     -29.236  -5.683  28.138  1.00  0.00     0.100 C 
HETATM   25  C12 UNL     1     -27.698  -7.134  26.958  1.00  0.00     0.053 A 
HETATM   26  N4  UNL     1     -30.243  -5.111  28.164  1.00  0.00    -0.191 NA
ENDBRANCH  15  17
ENDBRANCH   6  15
BRANCH  12  27
HETATM   27  N6  UNL     1     -29.108  -7.302  18.826  1.00  0.00    -0.390 N 
HETATM   28  C17 UNL     1     -29.058  -6.108  18.012  1.00  0.00     0.149 C 
HETATM   29  C18 UNL     1     -29.871  -8.443  18.334  1.00  0.00     0.149 C 
ENDBRANCH  12  27
TORSDOF 3
ENDMDL
MODEL 4
REMARK VINA RESULT: -8.684833561      1.727      2.143
REMARK  3 active torsions:
REMARK  status: ('A' for Active; 'I' for Inactive)
REMARK    1  A    between atoms: C3_6  and  N3_7 
REMARK    2  A    between atoms: N3_7  and  C4_9 
REMARK    3  A    between atoms: C16_24  and  N6_25 
ROOT
HETATM    1  C1  UNL     1     -25.414  -9.441  29.041  1.00  0.00     0.231 C 
HETATM    2  N1  UNL     1     -25.891  -8.994  27.886  1.00  0.00    -0.410 NA
HETATM    3  C2  UNL     1     -26.363  -8.549  26.903  1.00  0.00     0.204 A 
HETATM    4  N2  UNL     1     -25.989  -8.944  25.631  1.00  0.00    -0.163 N 
ATOM      5  H2  UNL     1     -25.269  -9.661  25.541  1.00  0.00     0.187 HD
HETATM    6  C3  UNL     1     -26.517  -8.440  24.519  1.00  0.00     0.685 A 
HETATM    7  N5  UNL     1     -27.468  -7.495  24.607  1.00  0.00    -0.191 N 
ATOM      8  H5  UNL     1     -27.872  -7.111  23.752  1.00  0.00     0.184 HD
HETATM    9  C13 UNL     1     -27.901  -7.045  25.800  1.00  0.00     0.064 A 
HETATM   10  C14 UNL     1     -28.887  -6.063  25.890  1.00  0.00     0.033 A 
HETATM   11  C15 UNL     1     -29.337  -5.591  27.111  1.00  0.00     0.031 A 
HETATM   12  C16 UNL     1     -28.794  -6.110  28.262  1.00  0.00     0.030 A 
HETATM   13  C19 UNL     1     -27.818  -7.081  28.170  1.00  0.00     0.048 A 
HETATM   14  C20 UNL     1     -27.370  -7.550  26.955  1.00  0.00     0.052 A 
ENDROOT
BRANCH   6  15
HETATM   15  N3  UNL     1     -26.174  -8.809  23.331  1.00  0.00    -0.192 N 
ATOM     16  H3  UNL     1     -25.194  -8.707  23.067  1.00  0.00     0.184 HD
BRANCH  15  17
HETATM   17  C4  UNL     1     -27.065  -9.347  22.366  1.00  0.00     0.051 A 
HETATM   18  C5  UNL     1     -26.660  -9.451  21.054  1.00  0.00     0.037 A 
HETATM   19  C6  UNL     1     -27.464  -9.963  20.050  1.00  0.00    -0.052 A 
HETATM   20  C7  UNL     1     -27.017 -10.067  18.653  1.00  0.00     0.049 C 
HETATM   21  C8  UNL     1     -28.728 -10.388  20.380  1.00  0.00    -0.035 A 
HETATM   22  C9  UNL     1     -29.611 -10.937  19.352  1.00  0.00     0.050 C 
HETATM   23  C10 UNL     1     -29.163 -10.299  21.682  1.00  0.00     0.053 A 
HETATM   24  C11 UNL     1     -30.484 -10.729  22.100  1.00  0.00     0.100 C 
HETATM   25  C12 UNL     1     -28.335  -9.777  22.684  1.00  0.00     0.053 A 
HETATM   26  N4  UNL     1     -31.535 -11.089  22.427  1.00  0.00    -0.191 NA
ENDBRANCH  15  17
ENDBRANCH   6  15
BRANCH  12  27
HETATM   27  N6  UNL     1     -29.236  -5.646  29.528  1.00  0.00    -0.390 N 
HETATM   28  C17 UNL     1     -28.331  -5.537  30.651  1.00  0.00     0.149 C 
HETATM   29  C18 UNL     1     -30.629  -5.265  29.723  1.00  0.00     0.149 C 
ENDBRANCH  12  27
TORSDOF 3
ENDMDL
MODEL 5
REMARK VINA RESULT: -8.668880273      1.260      1.547
REMARK  3 active torsions:
REMARK  status: ('A' for Active; 'I' for Inactive)
REMARK    1  A    between atoms: C3_6  and  N3_7 
REMARK    2  A    between atoms: N3_7  and  C4_9 
REMARK    3  A    between atoms: C16_24  and  N6_25 
ROOT
HETATM    1  C1  UNL     1     -25.469  -9.480  29.455  1.00  0.00     0.231 C 
HETATM    2  N1  UNL     1     -25.898  -9.031  28.283  1.00  0.00    -0.410 NA
HETATM    3  C2  UNL     1     -26.329  -8.584  27.281  1.00  0.00     0.204 A 
HETATM    4  N2  UNL     1     -25.899  -8.973  26.025  1.00  0.00    -0.163 N 
ATOM      5  H2  UNL     1     -25.173  -9.687  25.964  1.00  0.00     0.187 HD
HETATM    6  C3  UNL     1     -26.381  -8.468  24.893  1.00  0.00     0.685 A 
HETATM    7  N5  UNL     1     -27.340  -7.527  24.943  1.00  0.00    -0.191 N 
ATOM      8  H5  UNL     1     -27.708  -7.141  24.073  1.00  0.00     0.184 HD
HETATM    9  C13 UNL     1     -27.825  -7.083  26.118  1.00  0.00     0.064 A 
HETATM   10  C14 UNL     1     -28.818  -6.105  26.169  1.00  0.00     0.033 A 
HETATM   11  C15 UNL     1     -29.323  -5.640  27.371  1.00  0.00     0.031 A 
HETATM   12  C16 UNL     1     -28.827  -6.160  28.542  1.00  0.00     0.030 A 
HETATM   13  C19 UNL     1     -27.843  -7.127  28.490  1.00  0.00     0.048 A 
HETATM   14  C20 UNL     1     -27.342  -7.590  27.293  1.00  0.00     0.052 A 
ENDROOT
BRANCH   6  15
HETATM   15  N3  UNL     1     -25.986  -8.831  23.720  1.00  0.00    -0.192 N 
ATOM     16  H3  UNL     1     -25.055  -9.238  23.638  1.00  0.00     0.184 HD
BRANCH  15  17
HETATM   17  C4  UNL     1     -26.757  -8.704  22.535  1.00  0.00     0.051 A 
HETATM   18  C5  UNL     1     -27.602  -9.727  22.164  1.00  0.00     0.037 A 
HETATM   19  C6  UNL     1     -28.388  -9.685  21.025  1.00  0.00    -0.052 A 
HETATM   20  C7  UNL     1     -29.285 -10.785  20.642  1.00  0.00     0.049 C 
HETATM   21  C8  UNL     1     -28.322  -8.568  20.228  1.00  0.00    -0.035 A 
HETATM   22  C9  UNL     1     -29.136  -8.480  19.016  1.00  0.00     0.050 C 
HETATM   23  C10 UNL     1     -27.489  -7.529  20.571  1.00  0.00     0.053 A 
HETATM   24  C11 UNL     1     -27.371  -6.321  19.776  1.00  0.00     0.100 C 
HETATM   25  C12 UNL     1     -26.701  -7.589  21.727  1.00  0.00     0.053 A 
HETATM   26  N4  UNL     1     -27.294  -5.355  19.142  1.00  0.00    -0.191 NA
ENDBRANCH  15  17
ENDBRANCH   6  15
BRANCH  12  27
HETATM   27  N6  UNL     1     -29.325  -5.702  29.790  1.00  0.00    -0.390 N 
HETATM   28  C17 UNL     1     -30.732  -5.434  29.991  1.00  0.00     0.149 C 
HETATM   29  C18 UNL     1     -28.414  -5.491  30.909  1.00  0.00     0.149 C 
ENDBRANCH  12  27
TORSDOF 3
ENDMDL
