MODEL 1
REMARK VINA RESULT: -9.857501300      0.000      0.000
REMARK  2 active torsions:
REMARK  status: ('A' for Active; 'I' for Inactive)
REMARK    1  A    between atoms: C3_7  and  C4_8 
REMARK    2  A    between atoms: C15_23  and  C16_24 
ROOT
HETATM    1  C4  UNL     1     -27.549  -7.410  23.369  1.00  0.00     0.035 A 
HETATM    2  C5  UNL     1     -27.170  -6.219  22.783  1.00  0.00     0.029 A 
HETATM    3  C6  UNL     1     -27.383  -5.963  21.440  1.00  0.00     0.034 A 
HETATM    4  C7  UNL     1     -27.995  -6.962  20.711  1.00  0.00     0.060 A 
HETATM    5  N4  UNL     1     -28.324  -6.992  19.404  1.00  0.00    -0.354 N 
ATOM      6  H4  UNL     1     -28.163  -6.249  18.724  1.00  0.00     0.166 HD
HETATM    7  C8  UNL     1     -28.895  -8.165  19.163  1.00  0.00     0.045 A 
HETATM    8  C9  UNL     1     -29.403  -8.666  17.967  1.00  0.00     0.030 A 
HETATM    9  C10 UNL     1     -29.965  -9.931  17.933  1.00  0.00     0.002 A 
HETATM   10  C11 UNL     1     -29.993 -10.645  19.105  1.00  0.00     0.001 A 
HETATM   11  C12 UNL     1     -29.487 -10.146  20.302  1.00  0.00     0.016 A 
HETATM   12  C13 UNL     1     -28.938  -8.902  20.324  1.00  0.00     0.020 A 
HETATM   13  C14 UNL     1     -28.359  -8.137  21.335  1.00  0.00     0.072 A 
HETATM   14  N5  UNL     1     -28.142  -8.368  22.650  1.00  0.00    -0.355 N 
ATOM     15  H5  UNL     1     -28.424  -9.248  23.082  1.00  0.00     0.166 HD
ENDROOT
BRANCH   1  16
HETATM   16  C3  UNL     1     -27.249  -7.527  24.823  1.00  0.00     0.161 C 
HETATM   17  N3  UNL     1     -27.672  -6.356  25.546  1.00  0.00    -0.352 N 
HETATM   18  C2  UNL     1     -28.864  -6.591  26.030  1.00  0.00     0.187 C 
ATOM     19  H3  UNL     1     -27.136  -5.496  25.660  1.00  0.00     0.163 HD
HETATM   20  N1  UNL     1     -29.293  -7.908  25.665  1.00  0.00    -0.349 N 
HETATM   21  N2  UNL     1     -29.571  -5.635  26.798  1.00  0.00    -0.064 NA
HETATM   22  C1  UNL     1     -30.629  -8.341  25.526  1.00  0.00     0.153 C 
HETATM   23  C15 UNL     1     -28.027  -8.652  25.464  1.00  0.00     0.148 C 
BRANCH  23  24
HETATM   24  C16 UNL     1     -27.481  -8.957  26.806  1.00  0.00    -0.033 A 
HETATM   25  C17 UNL     1     -28.209  -9.414  27.878  1.00  0.00     0.009 A 
HETATM   26  C18 UNL     1     -27.585  -9.672  29.108  1.00  0.00     0.001 A 
HETATM   27  C19 UNL     1     -26.237  -9.485  29.306  1.00  0.00     0.000 A 
HETATM   28  C20 UNL     1     -25.511  -9.027  28.231  1.00  0.00     0.001 A 
HETATM   29  C21 UNL     1     -26.113  -8.771  27.020  1.00  0.00     0.009 A 
ENDBRANCH  23  24
ENDBRANCH   1  16
TORSDOF 2
ENDMDL
MODEL 2
REMARK VINA RESULT: -9.427923055      1.299      2.111
REMARK  2 active torsions:
REMARK  status: ('A' for Active; 'I' for Inactive)
REMARK    1  A    between atoms: C3_7  and  C4_8 
REMARK    2  A    between atoms: C15_23  and  C16_24 
ROOT
HETATM    1  C4  UNL     1     -27.836  -8.477  23.006  1.00  0.00     0.035 A 
HETATM    2  C5  UNL     1     -28.039  -9.834  22.855  1.00  0.00     0.029 A 
HETATM    3  C6  UNL     1     -28.403 -10.388  21.640  1.00  0.00     0.034 A 
HETATM    4  C7  UNL     1     -28.554  -9.515  20.583  1.00  0.00     0.060 A 
HETATM    5  N4  UNL     1     -28.897  -9.766  19.304  1.00  0.00    -0.354 N 
ATOM      6  H4  UNL     1     -29.107 -10.680  18.904  1.00  0.00     0.166 HD
HETATM    7  C8  UNL     1     -28.913  -8.607  18.659  1.00  0.00     0.045 A 
HETATM    8  C9  UNL     1     -29.207  -8.347  17.323  1.00  0.00     0.030 A 
HETATM    9  C10 UNL     1     -29.164  -7.047  16.848  1.00  0.00     0.002 A 
HETATM   10  C11 UNL     1     -28.827  -6.057  17.736  1.00  0.00     0.001 A 
HETATM   11  C12 UNL     1     -28.531  -6.314  19.071  1.00  0.00     0.016 A 
HETATM   12  C13 UNL     1     -28.576  -7.594  19.528  1.00  0.00     0.020 A 
HETATM   13  C14 UNL     1     -28.342  -8.165  20.777  1.00  0.00     0.072 A 
HETATM   14  N5  UNL     1     -27.985  -7.642  21.973  1.00  0.00    -0.355 N 
ATOM     15  H5  UNL     1     -27.835  -6.640  22.083  1.00  0.00     0.166 HD
ENDROOT
BRANCH   1  16
HETATM   16  C3  UNL     1     -27.448  -8.042  24.377  1.00  0.00     0.161 C 
HETATM   17  N3  UNL     1     -27.862  -6.689  24.639  1.00  0.00    -0.352 N 
HETATM   18  C2  UNL     1     -29.015  -6.734  25.254  1.00  0.00     0.187 C 
ATOM     19  H3  UNL     1     -27.347  -5.844  24.390  1.00  0.00     0.163 HD
HETATM   20  N1  UNL     1     -29.426  -8.094  25.433  1.00  0.00    -0.349 N 
HETATM   21  N2  UNL     1     -29.705  -5.565  25.657  1.00  0.00    -0.064 NA
HETATM   22  C1  UNL     1     -30.753  -8.556  25.555  1.00  0.00     0.153 C 
HETATM   23  C15 UNL     1     -28.151  -8.851  25.440  1.00  0.00     0.148 C 
BRANCH  23  24
HETATM   24  C16 UNL     1     -27.518  -8.631  26.760  1.00  0.00    -0.033 A 
HETATM   25  C17 UNL     1     -28.187  -8.483  27.951  1.00  0.00     0.009 A 
HETATM   26  C18 UNL     1     -27.482  -8.279  29.146  1.00  0.00     0.001 A 
HETATM   27  C19 UNL     1     -26.109  -8.216  29.192  1.00  0.00     0.000 A 
HETATM   28  C20 UNL     1     -25.442  -8.364  27.998  1.00  0.00     0.001 A 
HETATM   29  C21 UNL     1     -26.124  -8.564  26.820  1.00  0.00     0.009 A 
ENDBRANCH  23  24
ENDBRANCH   1  16
TORSDOF 2
ENDMDL
MODEL 3
REMARK VINA RESULT: -9.338999311      1.578      7.674
REMARK  2 active torsions:
REMARK  status: ('A' for Active; 'I' for Inactive)
REMARK    1  A    between atoms: C3_7  and  C4_8 
REMARK    2  A    between atoms: C15_23  and  C16_24 
ROOT
HETATM    1  C4  UNL     1     -28.187  -6.771  22.954  1.00  0.00     0.035 A 
HETATM    2  C5  UNL     1     -29.175  -5.889  23.344  1.00  0.00     0.029 A 
HETATM    3  C6  UNL     1     -29.456  -5.648  24.677  1.00  0.00     0.034 A 
HETATM    4  C7  UNL     1     -28.697  -6.334  25.602  1.00  0.00     0.060 A 
HETATM    5  N4  UNL     1     -28.747  -6.300  26.949  1.00  0.00    -0.354 N 
ATOM      6  H4  UNL     1     -29.382  -5.737  27.514  1.00  0.00     0.166 HD
HETATM    7  C8  UNL     1     -27.821  -7.133  27.405  1.00  0.00     0.045 A 
HETATM    8  C9  UNL     1     -27.488  -7.442  28.721  1.00  0.00     0.030 A 
HETATM    9  C10 UNL     1     -26.475  -8.351  28.980  1.00  0.00     0.002 A 
HETATM   10  C11 UNL     1     -25.837  -8.914  27.904  1.00  0.00     0.001 A 
HETATM   11  C12 UNL     1     -26.168  -8.607  26.588  1.00  0.00     0.016 A 
HETATM   12  C13 UNL     1     -27.164  -7.713  26.344  1.00  0.00     0.020 A 
HETATM   13  C14 UNL     1     -27.719  -7.207  25.171  1.00  0.00     0.072 A 
HETATM   14  N5  UNL     1     -27.459  -7.429  23.862  1.00  0.00    -0.355 N 
ATOM     15  H5  UNL     1     -26.728  -8.080  23.575  1.00  0.00     0.166 HD
ENDROOT
BRANCH   1  16
HETATM   16  C3  UNL     1     -28.009  -6.917  21.482  1.00  0.00     0.161 C 
HETATM   17  N3  UNL     1     -26.802  -7.632  21.164  1.00  0.00    -0.352 N 
HETATM   18  C2  UNL     1     -27.112  -8.892  20.997  1.00  0.00     0.187 C 
ATOM     19  H3  UNL     1     -25.869  -7.228  21.082  1.00  0.00     0.163 HD
HETATM   20  N1  UNL     1     -28.519  -9.082  21.190  1.00  0.00    -0.349 N 
HETATM   21  N2  UNL     1     -26.146  -9.873  20.672  1.00  0.00    -0.064 NA
HETATM   22  C1  UNL     1     -29.150 -10.273  21.606  1.00  0.00     0.153 C 
HETATM   23  C15 UNL     1     -29.104  -7.758  20.869  1.00  0.00     0.148 C 
BRANCH  23  24
HETATM   24  C16 UNL     1     -29.096  -7.622  19.395  1.00  0.00    -0.033 A 
HETATM   25  C17 UNL     1     -29.094  -8.662  18.497  1.00  0.00     0.009 A 
HETATM   26  C18 UNL     1     -29.086  -8.414  17.117  1.00  0.00     0.001 A 
HETATM   27  C19 UNL     1     -29.080  -7.141  16.594  1.00  0.00     0.000 A 
HETATM   28  C20 UNL     1     -29.081  -6.103  17.495  1.00  0.00     0.001 A 
HETATM   29  C21 UNL     1     -29.088  -6.334  18.852  1.00  0.00     0.009 A 
ENDBRANCH  23  24
ENDBRANCH   1  16
TORSDOF 2
ENDMDL
MODEL 4
REMARK VINA RESULT: -9.328976873      1.687      7.875
REMARK  2 active torsions:
REMARK  status: ('A' for Active; 'I' for Inactive)
REMARK    1  A    between atoms: C3_7  and  C4_8 
REMARK    2  A    between atoms: C15_23  and  C16_24 
ROOT
HETATM    1  C4  UNL     1     -28.683  -8.489  22.963  1.00  0.00     0.035 A 
HETATM    2  C5  UNL     1     -29.972  -8.917  23.209  1.00  0.00     0.029 A 
HETATM    3  C6  UNL     1     -30.376  -9.342  24.462  1.00  0.00     0.034 A 
HETATM    4  C7  UNL     1     -29.423  -9.319  25.459  1.00  0.00     0.060 A 
HETATM    5  N4  UNL     1     -29.528  -9.670  26.756  1.00  0.00    -0.354 N 
ATOM      6  H4  UNL     1     -30.366 -10.023  27.219  1.00  0.00     0.166 HD
HETATM    7  C8  UNL     1     -28.345  -9.473  27.321  1.00  0.00     0.045 A 
HETATM    8  C9  UNL     1     -27.953  -9.688  28.640  1.00  0.00     0.030 A 
HETATM    9  C10 UNL     1     -26.652  -9.413  29.026  1.00  0.00     0.002 A 
HETATM   10  C11 UNL     1     -25.794  -8.932  28.070  1.00  0.00     0.001 A 
HETATM   11  C12 UNL     1     -26.183  -8.715  26.751  1.00  0.00     0.016 A 
HETATM   12  C13 UNL     1     -27.463  -8.988  26.382  1.00  0.00     0.020 A 
HETATM   13  C14 UNL     1     -28.146  -8.883  25.172  1.00  0.00     0.072 A 
HETATM   14  N5  UNL     1     -27.770  -8.470  23.939  1.00  0.00    -0.355 N 
ATOM     15  H5  UNL     1     -26.817  -8.154  23.760  1.00  0.00     0.166 HD
ENDROOT
BRANCH   1  16
HETATM   16  C3  UNL     1     -28.410  -8.064  21.562  1.00  0.00     0.161 C 
HETATM   17  N3  UNL     1     -27.039  -8.301  21.195  1.00  0.00    -0.352 N 
HETATM   18  C2  UNL     1     -26.980  -9.458  20.587  1.00  0.00     0.187 C 
ATOM     19  H3  UNL     1     -26.252  -7.678  21.376  1.00  0.00     0.163 HD
HETATM   20  N1  UNL     1     -28.285 -10.044  20.516  1.00  0.00    -0.349 N 
HETATM   21  N2  UNL     1     -25.766  -9.994  20.095  1.00  0.00    -0.064 NA
HETATM   22  C1  UNL     1     -28.577 -11.422  20.434  1.00  0.00     0.153 C 
HETATM   23  C15 UNL     1     -29.201  -8.879  20.567  1.00  0.00     0.148 C 
BRANCH  23  24
HETATM   24  C16 UNL     1     -29.168  -8.239  19.233  1.00  0.00    -0.033 A 
HETATM   25  C17 UNL     1     -29.103  -8.902  18.031  1.00  0.00     0.009 A 
HETATM   26  C18 UNL     1     -29.079  -8.189  16.823  1.00  0.00     0.001 A 
HETATM   27  C19 UNL     1     -29.117  -6.815  16.774  1.00  0.00     0.000 A 
HETATM   28  C20 UNL     1     -29.181  -6.155  17.979  1.00  0.00     0.001 A 
HETATM   29  C21 UNL     1     -29.206  -6.843  19.170  1.00  0.00     0.009 A 
ENDBRANCH  23  24
ENDBRANCH   1  16
TORSDOF 2
ENDMDL
MODEL 5
REMARK VINA RESULT: -9.261025617      1.650      2.470
REMARK  2 active torsions:
REMARK  status: ('A' for Active; 'I' for Inactive)
REMARK    1  A    between atoms: C3_7  and  C4_8 
REMARK    2  A    between atoms: C15_23  and  C16_24 
ROOT
HETATM    1  C4  UNL     1     -28.653  -6.702  23.290  1.00  0.00     0.035 A 
HETATM    2  C5  UNL     1     -27.769  -5.744  22.834  1.00  0.00     0.029 A 
HETATM    3  C6  UNL     1     -27.350  -5.704  21.516  1.00  0.00     0.034 A 
HETATM    4  C7  UNL     1     -27.861  -6.672  20.676  1.00  0.00     0.060 A 
HETATM    5  N4  UNL     1     -27.634  -6.875  19.363  1.00  0.00    -0.354 N 
ATOM      6  H4  UNL     1     -27.023  -6.321  18.763  1.00  0.00     0.166 HD
HETATM    7  C8  UNL     1     -28.350  -7.928  18.992  1.00  0.00     0.045 A 
HETATM    8  C9  UNL     1     -28.451  -8.527  17.738  1.00  0.00     0.030 A 
HETATM    9  C10 UNL     1     -29.266  -9.632  17.565  1.00  0.00     0.002 A 
HETATM   10  C11 UNL     1     -29.950 -10.094  18.662  1.00  0.00     0.001 A 
HETATM   11  C12 UNL     1     -29.852  -9.498  19.915  1.00  0.00     0.016 A 
HETATM   12  C13 UNL     1     -29.049  -8.412  20.074  1.00  0.00     0.020 A 
HETATM   13  C14 UNL     1     -28.742  -7.610  21.172  1.00  0.00     0.072 A 
HETATM   14  N5  UNL     1     -29.141  -7.633  22.465  1.00  0.00    -0.355 N 
ATOM     15  H5  UNL     1     -29.795  -8.340  22.800  1.00  0.00     0.166 HD
ENDROOT
BRANCH   1  16
HETATM   16  C3  UNL     1     -29.004  -6.606  24.735  1.00  0.00     0.161 C 
HETATM   17  N3  UNL     1     -29.730  -7.766  25.180  1.00  0.00    -0.352 N 
HETATM   18  C2  UNL     1     -28.870  -8.601  25.704  1.00  0.00     0.187 C 
ATOM     19  H3  UNL     1     -30.736  -7.911  25.102  1.00  0.00     0.163 HD
HETATM   20  N1  UNL     1     -27.548  -8.054  25.639  1.00  0.00    -0.349 N 
HETATM   21  N2  UNL     1     -29.260  -9.852  26.241  1.00  0.00    -0.064 NA
HETATM   22  C1  UNL     1     -26.343  -8.787  25.599  1.00  0.00     0.153 C 
HETATM   23  C15 UNL     1     -27.772  -6.589  25.609  1.00  0.00     0.148 C 
BRANCH  23  24
HETATM   24  C16 UNL     1     -28.121  -6.171  26.985  1.00  0.00    -0.033 A 
HETATM   25  C17 UNL     1     -29.325  -5.637  27.376  1.00  0.00     0.009 A 
HETATM   26  C18 UNL     1     -29.546  -5.276  28.713  1.00  0.00     0.001 A 
HETATM   27  C19 UNL     1     -28.589  -5.433  29.689  1.00  0.00     0.000 A 
HETATM   28  C20 UNL     1     -27.384  -5.967  29.294  1.00  0.00     0.001 A 
HETATM   29  C21 UNL     1     -27.156  -6.325  27.985  1.00  0.00     0.009 A 
ENDBRANCH  23  24
ENDBRANCH   1  16
TORSDOF 2
ENDMDL
