MODEL 1
REMARK VINA RESULT: -8.884058945      0.000      0.000
REMARK  3 active torsions:
REMARK  status: ('A' for Active; 'I' for Inactive)
REMARK    1  A    between atoms: N1_2  and  C2_4 
REMARK    2  A    between atoms: C17_23  and  C18_24 
REMARK    3  A    between atoms: C18_24  and  N4_25 
ROOT
HETATM    1  C2  UNL     1     -30.982 -10.125  23.738  1.00  0.00     0.101 A 
HETATM    2  C3  UNL     1     -30.228  -9.121  23.158  1.00  0.00     0.061 A 
HETATM    3  C4  UNL     1     -29.281  -8.494  23.919  1.00  0.00    -0.007 A 
HETATM    4  C5  UNL     1     -29.098  -8.881  25.265  1.00  0.00     0.004 A 
HETATM    5  C6  UNL     1     -29.857  -9.873  25.816  1.00  0.00     0.102 A 
HETATM    6  N2  UNL     1     -30.783 -10.475  25.039  1.00  0.00    -0.352 N 
ATOM      7  H2  UNL     1     -31.354 -11.218  25.440  1.00  0.00     0.166 HD
HETATM    8  C7  UNL     1     -28.158  -8.302  26.183  1.00  0.00     0.010 A 
HETATM    9  C8  UNL     1     -27.773  -9.197  27.140  1.00  0.00     0.017 A 
HETATM   10  C9  UNL     1     -26.901  -8.750  28.128  1.00  0.00     0.024 A 
HETATM   11  C10 UNL     1     -26.447  -7.426  28.120  1.00  0.00     0.047 A 
HETATM   12  C11 UNL     1     -25.551  -6.969  29.142  1.00  0.00     0.099 C 
HETATM   13  N3  UNL     1     -24.825  -6.590  29.956  1.00  0.00    -0.191 NA
HETATM   14  C12 UNL     1     -26.863  -6.539  27.120  1.00  0.00     0.061 A 
HETATM   15  C13 UNL     1     -27.721  -6.985  26.150  1.00  0.00     0.088 A 
HETATM   16  O1  UNL     1     -28.058  -5.986  25.185  1.00  0.00    -0.309 OA
HETATM   17  C14 UNL     1     -28.064  -6.306  23.788  1.00  0.00     0.087 A 
HETATM   18  C15 UNL     1     -27.482  -5.378  22.986  1.00  0.00     0.039 A 
HETATM   19  C16 UNL     1     -27.427  -5.599  21.604  1.00  0.00     0.011 A 
HETATM   20  C17 UNL     1     -27.964  -6.761  21.059  1.00  0.00    -0.032 A 
HETATM   21  C20 UNL     1     -28.561  -7.720  21.854  1.00  0.00     0.024 A 
HETATM   22  C21 UNL     1     -28.588  -7.451  23.192  1.00  0.00     0.010 A 
ENDROOT
BRANCH   1  23
HETATM   23  N1  UNL     1     -31.851 -10.681  22.990  1.00  0.00    -0.381 N 
HETATM   24  C1  UNL     1     -32.555 -11.891  23.247  1.00  0.00     0.147 C 
ATOM     25  H1  UNL     1     -32.065 -10.208  22.112  1.00  0.00     0.160 HD
ENDBRANCH   1  23
BRANCH  20  26
HETATM   26  C18 UNL     1     -27.877  -6.944  19.587  1.00  0.00     0.270 C 
BRANCH  26  27
HETATM   27  N4  UNL     1     -26.724  -6.290  19.028  1.00  0.00    -0.075 N 
HETATM   28  C19 UNL     1     -25.739  -7.315  18.701  1.00  0.00     0.267 C 
ATOM     29  H42 UNL     1     -26.955  -5.696  18.231  1.00  0.00     0.277 HD
ATOM     30  H41 UNL     1     -26.350  -5.562  19.636  1.00  0.00     0.277 HD
ENDBRANCH  26  27
ENDBRANCH  20  26
TORSDOF 3
ENDMDL
MODEL 2
REMARK VINA RESULT: -8.584995296      2.814      6.885
REMARK  3 active torsions:
REMARK  status: ('A' for Active; 'I' for Inactive)
REMARK    1  A    between atoms: N1_2  and  C2_4 
REMARK    2  A    between atoms: C17_23  and  C18_24 
REMARK    3  A    between atoms: C18_24  and  N4_25 
ROOT
HETATM    1  C2  UNL     1     -30.116  -6.554  28.495  1.00  0.00     0.101 A 
HETATM    2  C3  UNL     1     -30.366  -7.741  27.827  1.00  0.00     0.061 A 
HETATM    3  C4  UNL     1     -29.991  -7.843  26.516  1.00  0.00    -0.007 A 
HETATM    4  C5  UNL     1     -29.366  -6.748  25.882  1.00  0.00     0.004 A 
HETATM    5  C6  UNL     1     -29.132  -5.586  26.561  1.00  0.00     0.102 A 
HETATM    6  N2  UNL     1     -29.513  -5.516  27.855  1.00  0.00    -0.352 N 
ATOM      7  H2  UNL     1     -29.342  -4.653  28.372  1.00  0.00     0.166 HD
HETATM    8  C7  UNL     1     -28.936  -6.706  24.512  1.00  0.00     0.010 A 
HETATM    9  C8  UNL     1     -27.887  -5.848  24.340  1.00  0.00     0.017 A 
HETATM   10  C9  UNL     1     -27.404  -5.672  23.047  1.00  0.00     0.024 A 
HETATM   11  C10 UNL     1     -27.986  -6.361  21.977  1.00  0.00     0.047 A 
HETATM   12  C11 UNL     1     -27.486  -6.175  20.647  1.00  0.00     0.099 C 
HETATM   13  N3  UNL     1     -27.090  -6.038  19.571  1.00  0.00    -0.191 NA
HETATM   14  C12 UNL     1     -29.059  -7.234  22.196  1.00  0.00     0.061 A 
HETATM   15  C13 UNL     1     -29.530  -7.404  23.470  1.00  0.00     0.088 A 
HETATM   16  O1  UNL     1     -30.618  -8.327  23.557  1.00  0.00    -0.309 OA
HETATM   17  C14 UNL     1     -30.643  -9.315  24.595  1.00  0.00     0.087 A 
HETATM   18  C15 UNL     1     -31.001 -10.561  24.191  1.00  0.00     0.039 A 
HETATM   19  C16 UNL     1     -31.048 -11.602  25.127  1.00  0.00     0.011 A 
HETATM   20  C17 UNL     1     -30.729 -11.360  26.460  1.00  0.00    -0.032 A 
HETATM   21  C20 UNL     1     -30.363 -10.102  26.895  1.00  0.00     0.024 A 
HETATM   22  C21 UNL     1     -30.336  -9.126  25.941  1.00  0.00     0.010 A 
ENDROOT
BRANCH   1  23
HETATM   23  N1  UNL     1     -30.482  -6.507  29.714  1.00  0.00    -0.381 N 
HETATM   24  C1  UNL     1     -31.797  -6.274  30.206  1.00  0.00     0.147 C 
ATOM     25  H1  UNL     1     -29.754  -6.652  30.414  1.00  0.00     0.160 HD
ENDBRANCH   1  23
BRANCH  20  26
HETATM   26  C18 UNL     1     -30.795 -12.501  27.409  1.00  0.00     0.270 C 
BRANCH  26  27
HETATM   27  N4  UNL     1     -29.738 -12.456  28.383  1.00  0.00    -0.075 N 
HETATM   28  C19 UNL     1     -29.355 -13.828  28.695  1.00  0.00     0.267 C 
ATOM     29  H42 UNL     1     -28.948 -11.884  28.083  1.00  0.00     0.277 HD
ATOM     30  H41 UNL     1     -29.988 -11.918  29.213  1.00  0.00     0.277 HD
ENDBRANCH  26  27
ENDBRANCH  20  26
TORSDOF 3
ENDMDL
MODEL 3
REMARK VINA RESULT: -8.556007430      1.813      2.019
REMARK  3 active torsions:
REMARK  status: ('A' for Active; 'I' for Inactive)
REMARK    1  A    between atoms: N1_2  and  C2_4 
REMARK    2  A    between atoms: C17_23  and  C18_24 
REMARK    3  A    between atoms: C18_24  and  N4_25 
ROOT
HETATM    1  C2  UNL     1     -30.985 -11.036  24.671  1.00  0.00     0.101 A 
HETATM    2  C3  UNL     1     -30.039 -10.424  23.867  1.00  0.00     0.061 A 
HETATM    3  C4  UNL     1     -29.049  -9.693  24.464  1.00  0.00    -0.007 A 
HETATM    4  C5  UNL     1     -29.017  -9.579  25.871  1.00  0.00     0.004 A 
HETATM    5  C6  UNL     1     -29.964 -10.189  26.644  1.00  0.00     0.102 A 
HETATM    6  N2  UNL     1     -30.928 -10.906  26.025  1.00  0.00    -0.352 N 
ATOM      7  H2  UNL     1     -31.638 -11.367  26.593  1.00  0.00     0.166 HD
HETATM    8  C7  UNL     1     -28.053  -8.834  26.630  1.00  0.00     0.010 A 
HETATM    9  C8  UNL     1     -27.883  -9.358  27.880  1.00  0.00     0.017 A 
HETATM   10  C9  UNL     1     -27.011  -8.698  28.741  1.00  0.00     0.024 A 
HETATM   11  C10 UNL     1     -26.343  -7.543  28.320  1.00  0.00     0.047 A 
HETATM   12  C11 UNL     1     -25.449  -6.866  29.213  1.00  0.00     0.099 C 
HETATM   13  N3  UNL     1     -24.721  -6.314  29.920  1.00  0.00    -0.191 NA
HETATM   14  C12 UNL     1     -26.543  -7.039  27.029  1.00  0.00     0.061 A 
HETATM   15  C13 UNL     1     -27.401  -7.691  26.186  1.00  0.00     0.088 A 
HETATM   16  O1  UNL     1     -27.507  -7.082  24.897  1.00  0.00    -0.309 OA
HETATM   17  C14 UNL     1     -27.479  -7.889  23.713  1.00  0.00     0.087 A 
HETATM   18  C15 UNL     1     -26.702  -7.406  22.710  1.00  0.00     0.039 A 
HETATM   19  C16 UNL     1     -26.599  -8.125  21.512  1.00  0.00     0.011 A 
HETATM   20  C17 UNL     1     -27.288  -9.324  21.353  1.00  0.00    -0.032 A 
HETATM   21  C20 UNL     1     -28.084  -9.835  22.359  1.00  0.00     0.024 A 
HETATM   22  C21 UNL     1     -28.150  -9.092  23.502  1.00  0.00     0.010 A 
ENDROOT
BRANCH   1  23
HETATM   23  N1  UNL     1     -31.886 -11.707  24.071  1.00  0.00    -0.381 N 
HETATM   24  C1  UNL     1     -32.531 -11.372  22.847  1.00  0.00     0.147 C 
ATOM     25  H1  UNL     1     -32.176 -12.579  24.514  1.00  0.00     0.160 HD
ENDBRANCH   1  23
BRANCH  20  26
HETATM   26  C18 UNL     1     -27.141 -10.045  20.062  1.00  0.00     0.270 C 
BRANCH  26  27
HETATM   27  N4  UNL     1     -28.019 -11.181  19.974  1.00  0.00    -0.075 N 
HETATM   28  C19 UNL     1     -29.130 -10.825  19.099  1.00  0.00     0.267 C 
ATOM     29  H42 UNL     1     -27.538 -12.030  19.676  1.00  0.00     0.277 HD
ATOM     30  H41 UNL     1     -28.327 -11.513  20.888  1.00  0.00     0.277 HD
ENDBRANCH  26  27
ENDBRANCH  20  26
TORSDOF 3
ENDMDL
MODEL 4
REMARK VINA RESULT: -8.534655402      2.094      2.250
REMARK  3 active torsions:
REMARK  status: ('A' for Active; 'I' for Inactive)
REMARK    1  A    between atoms: N1_2  and  C2_4 
REMARK    2  A    between atoms: C17_23  and  C18_24 
REMARK    3  A    between atoms: C18_24  and  N4_25 
ROOT
HETATM    1  C2  UNL     1     -30.703 -11.590  24.057  1.00  0.00     0.101 A 
HETATM    2  C3  UNL     1     -29.806 -10.761  23.407  1.00  0.00     0.061 A 
HETATM    3  C4  UNL     1     -29.318  -9.674  24.079  1.00  0.00    -0.007 A 
HETATM    4  C5  UNL     1     -29.737  -9.426  25.404  1.00  0.00     0.004 A 
HETATM    5  C6  UNL     1     -30.625 -10.258  26.024  1.00  0.00     0.102 A 
HETATM    6  N2  UNL     1     -31.088 -11.324  25.335  1.00  0.00    -0.352 N 
ATOM      7  H2  UNL     1     -31.751 -11.952  25.789  1.00  0.00     0.166 HD
HETATM    8  C7  UNL     1     -29.323  -8.320  26.221  1.00  0.00     0.010 A 
HETATM    9  C8  UNL     1     -29.370  -8.631  27.550  1.00  0.00     0.017 A 
HETATM   10  C9  UNL     1     -29.043  -7.629  28.458  1.00  0.00     0.024 A 
HETATM   11  C10 UNL     1     -28.681  -6.356  28.003  1.00  0.00     0.047 A 
HETATM   12  C11 UNL     1     -28.348  -5.327  28.943  1.00  0.00     0.099 C 
HETATM   13  N3  UNL     1     -28.071  -4.489  29.689  1.00  0.00    -0.191 NA
HETATM   14  C12 UNL     1     -28.642  -6.078  26.632  1.00  0.00     0.061 A 
HETATM   15  C13 UNL     1     -28.964  -7.068  25.742  1.00  0.00     0.088 A 
HETATM   16  O1  UNL     1     -28.875  -6.658  24.376  1.00  0.00    -0.309 OA
HETATM   17  C14 UNL     1     -28.249  -7.509  23.407  1.00  0.00     0.087 A 
HETATM   18  C15 UNL     1     -27.405  -6.877  22.551  1.00  0.00     0.039 A 
HETATM   19  C16 UNL     1     -26.735  -7.620  21.571  1.00  0.00     0.011 A 
HETATM   20  C17 UNL     1     -26.933  -8.995  21.477  1.00  0.00    -0.032 A 
HETATM   21  C20 UNL     1     -27.785  -9.659  22.337  1.00  0.00     0.024 A 
HETATM   22  C21 UNL     1     -28.413  -8.885  23.269  1.00  0.00     0.010 A 
ENDROOT
BRANCH   1  23
HETATM   23  N1  UNL     1     -31.129 -12.590  23.392  1.00  0.00    -0.381 N 
HETATM   24  C1  UNL     1     -30.345 -13.598  22.763  1.00  0.00     0.147 C 
ATOM     25  H1  UNL     1     -32.142 -12.678  23.301  1.00  0.00     0.160 HD
ENDBRANCH   1  23
BRANCH  20  26
HETATM   26  C18 UNL     1     -26.196  -9.733  20.419  1.00  0.00     0.270 C 
BRANCH  26  27
HETATM   27  N4  UNL     1     -27.065 -10.572  19.639  1.00  0.00    -0.075 N 
HETATM   28  C19 UNL     1     -27.472  -9.821  18.456  1.00  0.00     0.267 C 
ATOM     29  H42 UNL     1     -26.644 -11.472  19.409  1.00  0.00     0.277 HD
ATOM     30  H41 UNL     1     -27.858 -10.925  20.174  1.00  0.00     0.277 HD
ENDBRANCH  26  27
ENDBRANCH  20  26
TORSDOF 3
ENDMDL
MODEL 5
REMARK VINA RESULT: -8.402787830      1.835      2.021
REMARK  3 active torsions:
REMARK  status: ('A' for Active; 'I' for Inactive)
REMARK    1  A    between atoms: N1_2  and  C2_4 
REMARK    2  A    between atoms: C17_23  and  C18_24 
REMARK    3  A    between atoms: C18_24  and  N4_25 
ROOT
HETATM    1  C2  UNL     1     -31.201 -11.301  24.762  1.00  0.00     0.101 A 
HETATM    2  C3  UNL     1     -30.674 -10.283  23.987  1.00  0.00     0.061 A 
HETATM    3  C4  UNL     1     -30.097  -9.215  24.617  1.00  0.00    -0.007 A 
HETATM    4  C5  UNL     1     -30.054  -9.177  26.028  1.00  0.00     0.004 A 
HETATM    5  C6  UNL     1     -30.583 -10.193  26.771  1.00  0.00     0.102 A 
HETATM    6  N2  UNL     1     -31.145 -11.235  26.120  1.00  0.00    -0.352 N 
ATOM      7  H2  UNL     1     -31.541 -12.000  26.666  1.00  0.00     0.166 HD
HETATM    8  C7  UNL     1     -29.498  -8.117  26.821  1.00  0.00     0.010 A 
HETATM    9  C8  UNL     1     -29.050  -8.574  28.028  1.00  0.00     0.017 A 
HETATM   10  C9  UNL     1     -28.534  -7.638  28.919  1.00  0.00     0.024 A 
HETATM   11  C10 UNL     1     -28.483  -6.284  28.570  1.00  0.00     0.047 A 
HETATM   12  C11 UNL     1     -27.952  -5.325  29.492  1.00  0.00     0.099 C 
HETATM   13  N3  UNL     1     -27.522  -4.541  30.224  1.00  0.00    -0.191 NA
HETATM   14  C12 UNL     1     -28.950  -5.856  27.321  1.00  0.00     0.061 A 
HETATM   15  C13 UNL     1     -29.458  -6.781  26.448  1.00  0.00     0.088 A 
HETATM   16  O1  UNL     1     -29.889  -6.216  25.208  1.00  0.00    -0.309 OA
HETATM   17  C14 UNL     1     -29.554  -6.856  23.969  1.00  0.00     0.087 A 
HETATM   18  C15 UNL     1     -29.128  -6.017  22.990  1.00  0.00     0.039 A 
HETATM   19  C16 UNL     1     -28.767  -6.542  21.742  1.00  0.00     0.011 A 
HETATM   20  C17 UNL     1     -28.843  -7.913  21.511  1.00  0.00    -0.032 A 
HETATM   21  C20 UNL     1     -29.273  -8.785  22.492  1.00  0.00     0.024 A 
HETATM   22  C21 UNL     1     -29.614  -8.218  23.685  1.00  0.00     0.010 A 
ENDROOT
BRANCH   1  23
HETATM   23  N1  UNL     1     -31.726 -12.275  24.131  1.00  0.00    -0.381 N 
HETATM   24  C1  UNL     1     -32.826 -12.218  23.228  1.00  0.00     0.147 C 
ATOM     25  H1  UNL     1     -31.314 -13.195  24.288  1.00  0.00     0.160 HD
ENDBRANCH   1  23
BRANCH  20  26
HETATM   26  C18 UNL     1     -28.447  -8.415  20.170  1.00  0.00     0.270 C 
BRANCH  26  27
HETATM   27  N4  UNL     1     -29.024  -7.636  19.108  1.00  0.00    -0.075 N 
HETATM   28  C19 UNL     1     -29.983  -8.478  18.403  1.00  0.00     0.267 C 
ATOM     29  H42 UNL     1     -29.434  -6.762  19.437  1.00  0.00     0.277 HD
ATOM     30  H41 UNL     1     -28.322  -7.233  18.488  1.00  0.00     0.277 HD
ENDBRANCH  26  27
ENDBRANCH  20  26
TORSDOF 3
ENDMDL
