MODEL 1
REMARK VINA RESULT: -8.473606623      0.000      0.000
REMARK  13 active torsions:
REMARK  status: ('A' for Active; 'I' for Inactive)
REMARK       I    between atoms: C1_4  and  N3_6 
REMARK    1  A    between atoms: N3_6  and  O1_8 
REMARK    2  A    between atoms: O1_8  and  C2_9 
REMARK    3  A    between atoms: C2_9  and  C3_10 
REMARK    4  A    between atoms: C3_10  and  N4_11 
REMARK    5  A    between atoms: N4_11  and  C4_12 
REMARK    6  A    between atoms: N4_11  and  C6_18 
REMARK    7  A    between atoms: C4_12  and  C5_13 
REMARK    8  A    between atoms: C5_13  and  N5_14 
REMARK    9  A    between atoms: C6_18  and  C7_19 
REMARK       I    between atoms: C7_19  and  N6_21 
REMARK   10  A    between atoms: N6_21  and  C8_23 
REMARK   11  A    between atoms: C8_23  and  C9_24 
REMARK   12  A    between atoms: C9_24  and  N7_25 
REMARK   13  A    between atoms: N7_25  and  C10_27 
ROOT
HETATM    1  N4  UNL     1      84.068  18.414  -1.022  1.00  0.00    -0.284 NA
ENDROOT
BRANCH   1   2
HETATM    2  C3  UNL     1      84.817  17.938  -2.137  1.00  0.00     0.123 C 
BRANCH   2   3
HETATM    3  C2  UNL     1      85.751  16.817  -1.954  1.00  0.00     0.216 C 
BRANCH   3   4
HETATM    4  O1  UNL     1      86.831  16.725  -2.806  1.00  0.00    -0.277 OA
BRANCH   4   5
HETATM    5  N3  UNL     1      87.602  15.661  -2.491  1.00  0.00    -0.239 N 
HETATM    6  C1  UNL     1      88.462  15.000  -3.382  1.00  0.00     0.205 C 
HETATM    7  N1  UNL     1      88.051  13.983  -4.064  1.00  0.00    -0.372 N 
HETATM    8  N2  UNL     1      89.799  15.443  -3.543  1.00  0.00    -0.062 NA
ATOM      9  H12 UNL     1      88.676  13.503  -4.711  1.00  0.00     0.158 HD
ATOM     10  H11 UNL     1      87.089  13.664  -3.947  1.00  0.00     0.158 HD
ATOM     11  H3  UNL     1      87.554  15.312  -1.534  1.00  0.00     0.197 HD
ENDBRANCH   4   5
ENDBRANCH   3   4
ENDBRANCH   2   3
ENDBRANCH   1   2
BRANCH   1  12
HETATM   12  C4  UNL     1      83.922  17.538   0.086  1.00  0.00     0.122 C 
BRANCH  12  13
HETATM   13  C5  UNL     1      84.589  17.943   1.375  1.00  0.00     0.244 C 
BRANCH  13  14
HETATM   14  N5  UNL     1      85.526  17.054   1.936  1.00  0.00    -0.078 N 
ATOM     15  H53 UNL     1      85.142  16.109   1.922  1.00  0.00     0.274 HD
ATOM     16  H52 UNL     1      86.315  16.950   1.297  1.00  0.00     0.274 HD
ATOM     17  H51 UNL     1      85.877  17.261   2.871  1.00  0.00     0.274 HD
ENDBRANCH  13  14
ENDBRANCH  12  13
ENDBRANCH   1  12
BRANCH   1  18
HETATM   18  C6  UNL     1      84.421  19.765  -0.685  1.00  0.00     0.134 C 
BRANCH  18  19
HETATM   19  C7  UNL     1      83.376  20.741  -0.523  1.00  0.00     0.252 C 
HETATM   20  O2  UNL     1      82.327  20.572  -1.239  1.00  0.00    -0.268 OA
HETATM   21  N6  UNL     1      83.360  21.856   0.332  1.00  0.00    -0.352 N 
ATOM     22  H6  UNL     1      84.186  21.996   0.913  1.00  0.00     0.163 HD
BRANCH  21  23
HETATM   23  C8  UNL     1      82.297  22.827   0.477  1.00  0.00     0.167 C 
BRANCH  23  24
HETATM   24  C9  UNL     1      82.179  23.474   1.808  1.00  0.00     0.076 C 
BRANCH  24  25
HETATM   25  N7  UNL     1      83.334  23.897   2.451  1.00  0.00    -0.381 N 
ATOM     26  H7  UNL     1      84.161  23.318   2.306  1.00  0.00     0.160 HD
BRANCH  25  27
HETATM   27  C10 UNL     1      83.506  24.991   3.256  1.00  0.00     0.207 C 
HETATM   28  C11 UNL     1      82.700  26.231   3.204  1.00  0.00     0.174 C 
HETATM   29  N8  UNL     1      83.901  26.824   3.843  1.00  0.00    -0.143 NA
HETATM   30  N9  UNL     1      84.642  25.885   3.059  1.00  0.00    -0.122 NA
ENDBRANCH  25  27
ENDBRANCH  24  25
ENDBRANCH  23  24
ENDBRANCH  21  23
ENDBRANCH  18  19
ENDBRANCH   1  18
TORSDOF 13
ENDMDL
MODEL 2
REMARK VINA RESULT: -8.200075144      3.213      5.269
REMARK  13 active torsions:
REMARK  status: ('A' for Active; 'I' for Inactive)
REMARK       I    between atoms: C1_4  and  N3_6 
REMARK    1  A    between atoms: N3_6  and  O1_8 
REMARK    2  A    between atoms: O1_8  and  C2_9 
REMARK    3  A    between atoms: C2_9  and  C3_10 
REMARK    4  A    between atoms: C3_10  and  N4_11 
REMARK    5  A    between atoms: N4_11  and  C4_12 
REMARK    6  A    between atoms: N4_11  and  C6_18 
REMARK    7  A    between atoms: C4_12  and  C5_13 
REMARK    8  A    between atoms: C5_13  and  N5_14 
REMARK    9  A    between atoms: C6_18  and  C7_19 
REMARK       I    between atoms: C7_19  and  N6_21 
REMARK   10  A    between atoms: N6_21  and  C8_23 
REMARK   11  A    between atoms: C8_23  and  C9_24 
REMARK   12  A    between atoms: C9_24  and  N7_25 
REMARK   13  A    between atoms: N7_25  and  C10_27 
ROOT
HETATM    1  N4  UNL     1      83.121  23.024   0.739  1.00  0.00    -0.284 NA
ENDROOT
BRANCH   1   2
HETATM    2  C3  UNL     1      82.418  22.036  -0.010  1.00  0.00     0.123 C 
BRANCH   2   3
HETATM    3  C2  UNL     1      83.132  20.838  -0.476  1.00  0.00     0.216 C 
BRANCH   3   4
HETATM    4  O1  UNL     1      83.121  19.720   0.331  1.00  0.00    -0.277 OA
BRANCH   4   5
HETATM    5  N3  UNL     1      84.353  19.169   0.401  1.00  0.00    -0.239 N 
HETATM    6  C1  UNL     1      84.653  17.952   1.033  1.00  0.00     0.205 C 
HETATM    7  N1  UNL     1      85.016  17.924   2.272  1.00  0.00    -0.372 N 
HETATM    8  N2  UNL     1      84.562  16.734   0.315  1.00  0.00    -0.062 NA
ATOM      9  H12 UNL     1      85.234  17.040   2.731  1.00  0.00     0.158 HD
ATOM     10  H11 UNL     1      85.082  18.800   2.789  1.00  0.00     0.158 HD
ATOM     11  H3  UNL     1      85.122  19.675  -0.037  1.00  0.00     0.197 HD
ENDBRANCH   4   5
ENDBRANCH   3   4
ENDBRANCH   2   3
ENDBRANCH   1   2
BRANCH   1  12
HETATM   12  C4  UNL     1      84.508  23.176   0.476  1.00  0.00     0.122 C 
BRANCH  12  13
HETATM   13  C5  UNL     1      85.167  24.438   0.967  1.00  0.00     0.244 C 
BRANCH  13  14
HETATM   14  N5  UNL     1      85.504  24.513   2.333  1.00  0.00    -0.078 N 
ATOM     15  H53 UNL     1      85.792  25.466   2.556  1.00  0.00     0.274 HD
ATOM     16  H52 UNL     1      84.656  24.432   2.894  1.00  0.00     0.274 HD
ATOM     17  H51 UNL     1      86.203  23.860   2.686  1.00  0.00     0.274 HD
ENDBRANCH  13  14
ENDBRANCH  12  13
ENDBRANCH   1  12
BRANCH   1  18
HETATM   18  C6  UNL     1      82.381  24.253   0.820  1.00  0.00     0.134 C 
BRANCH  18  19
HETATM   19  C7  UNL     1      81.901  24.697   2.102  1.00  0.00     0.252 C 
HETATM   20  O2  UNL     1      82.525  24.249   3.126  1.00  0.00    -0.268 OA
HETATM   21  N6  UNL     1      80.834  25.572   2.369  1.00  0.00    -0.352 N 
ATOM     22  H6  UNL     1      80.335  25.942   1.560  1.00  0.00     0.163 HD
BRANCH  21  23
HETATM   23  C8  UNL     1      80.367  26.005   3.668  1.00  0.00     0.167 C 
BRANCH  23  24
HETATM   24  C9  UNL     1      80.978  27.247   4.203  1.00  0.00     0.076 C 
BRANCH  24  25
HETATM   25  N7  UNL     1      82.306  27.220   4.606  1.00  0.00    -0.381 N 
ATOM     26  H7  UNL     1      82.489  26.776   5.506  1.00  0.00     0.160 HD
BRANCH  25  27
HETATM   27  C10 UNL     1      83.403  27.711   3.951  1.00  0.00     0.207 C 
HETATM   28  C11 UNL     1      83.492  27.966   2.495  1.00  0.00     0.174 C 
HETATM   29  N8  UNL     1      84.949  27.831   2.744  1.00  0.00    -0.143 NA
HETATM   30  N9  UNL     1      84.576  26.870   3.735  1.00  0.00    -0.122 NA
ENDBRANCH  25  27
ENDBRANCH  24  25
ENDBRANCH  23  24
ENDBRANCH  21  23
ENDBRANCH  18  19
ENDBRANCH   1  18
TORSDOF 13
ENDMDL
MODEL 3
REMARK VINA RESULT: -7.803338364      3.450     10.096
REMARK  13 active torsions:
REMARK  status: ('A' for Active; 'I' for Inactive)
REMARK       I    between atoms: C1_4  and  N3_6 
REMARK    1  A    between atoms: N3_6  and  O1_8 
REMARK    2  A    between atoms: O1_8  and  C2_9 
REMARK    3  A    between atoms: C2_9  and  C3_10 
REMARK    4  A    between atoms: C3_10  and  N4_11 
REMARK    5  A    between atoms: N4_11  and  C4_12 
REMARK    6  A    between atoms: N4_11  and  C6_18 
REMARK    7  A    between atoms: C4_12  and  C5_13 
REMARK    8  A    between atoms: C5_13  and  N5_14 
REMARK    9  A    between atoms: C6_18  and  C7_19 
REMARK       I    between atoms: C7_19  and  N6_21 
REMARK   10  A    between atoms: N6_21  and  C8_23 
REMARK   11  A    between atoms: C8_23  and  C9_24 
REMARK   12  A    between atoms: C9_24  and  N7_25 
REMARK   13  A    between atoms: N7_25  and  C10_27 
ROOT
HETATM    1  N4  UNL     1      82.073  25.541   1.697  1.00  0.00    -0.284 NA
ENDROOT
BRANCH   1   2
HETATM    2  C3  UNL     1      83.338  26.191   1.602  1.00  0.00     0.123 C 
BRANCH   2   3
HETATM    3  C2  UNL     1      84.216  26.240   2.780  1.00  0.00     0.216 C 
BRANCH   3   4
HETATM    4  O1  UNL     1      83.632  26.378   4.021  1.00  0.00    -0.277 OA
BRANCH   4   5
HETATM    5  N3  UNL     1      83.735  27.652   4.459  1.00  0.00    -0.239 N 
HETATM    6  C1  UNL     1      82.718  28.616   4.376  1.00  0.00     0.205 C 
HETATM    7  N1  UNL     1      82.638  29.405   3.357  1.00  0.00    -0.372 N 
HETATM    8  N2  UNL     1      81.762  28.734   5.416  1.00  0.00    -0.062 NA
ATOM      9  H12 UNL     1      81.899  30.105   3.297  1.00  0.00     0.158 HD
ATOM     10  H11 UNL     1      83.327  29.320   2.610  1.00  0.00     0.158 HD
ATOM     11  H3  UNL     1      84.619  27.935   4.883  1.00  0.00     0.197 HD
ENDBRANCH   4   5
ENDBRANCH   3   4
ENDBRANCH   2   3
ENDBRANCH   1   2
BRANCH   1  12
HETATM   12  C4  UNL     1      80.939  26.356   1.953  1.00  0.00     0.122 C 
BRANCH  12  13
HETATM   13  C5  UNL     1      80.246  26.175   3.278  1.00  0.00     0.244 C 
BRANCH  13  14
HETATM   14  N5  UNL     1      80.760  25.203   4.160  1.00  0.00    -0.078 N 
ATOM     15  H53 UNL     1      80.604  25.506   5.121  1.00  0.00     0.274 HD
ATOM     16  H52 UNL     1      80.171  24.371   4.122  1.00  0.00     0.274 HD
ATOM     17  H51 UNL     1      81.735  24.929   4.048  1.00  0.00     0.274 HD
ENDBRANCH  13  14
ENDBRANCH  12  13
ENDBRANCH   1  12
BRANCH   1  18
HETATM   18  C6  UNL     1      81.897  24.569   0.653  1.00  0.00     0.134 C 
BRANCH  18  19
HETATM   19  C7  UNL     1      82.635  23.335   0.715  1.00  0.00     0.252 C 
HETATM   20  O2  UNL     1      82.044  22.351   1.284  1.00  0.00    -0.268 OA
HETATM   21  N6  UNL     1      83.924  23.073   0.221  1.00  0.00    -0.352 N 
ATOM     22  H6  UNL     1      84.400  23.848  -0.241  1.00  0.00     0.163 HD
BRANCH  21  23
HETATM   23  C8  UNL     1      84.648  21.823   0.296  1.00  0.00     0.167 C 
BRANCH  23  24
HETATM   24  C9  UNL     1      84.196  20.748  -0.623  1.00  0.00     0.076 C 
BRANCH  24  25
HETATM   25  N7  UNL     1      83.374  19.745  -0.127  1.00  0.00    -0.381 N 
ATOM     26  H7  UNL     1      82.435  20.035   0.147  1.00  0.00     0.160 HD
BRANCH  25  27
HETATM   27  C10 UNL     1      83.662  18.418   0.044  1.00  0.00     0.207 C 
HETATM   28  C11 UNL     1      84.529  17.857   1.103  1.00  0.00     0.174 C 
HETATM   29  N8  UNL     1      84.663  16.731   0.145  1.00  0.00    -0.143 NA
HETATM   30  N9  UNL     1      84.569  17.732  -0.870  1.00  0.00    -0.122 NA
ENDBRANCH  25  27
ENDBRANCH  24  25
ENDBRANCH  23  24
ENDBRANCH  21  23
ENDBRANCH  18  19
ENDBRANCH   1  18
TORSDOF 13
ENDMDL
MODEL 4
REMARK VINA RESULT: -7.661384836      3.241      9.875
REMARK  13 active torsions:
REMARK  status: ('A' for Active; 'I' for Inactive)
REMARK       I    between atoms: C1_4  and  N3_6 
REMARK    1  A    between atoms: N3_6  and  O1_8 
REMARK    2  A    between atoms: O1_8  and  C2_9 
REMARK    3  A    between atoms: C2_9  and  C3_10 
REMARK    4  A    between atoms: C3_10  and  N4_11 
REMARK    5  A    between atoms: N4_11  and  C4_12 
REMARK    6  A    between atoms: N4_11  and  C6_18 
REMARK    7  A    between atoms: C4_12  and  C5_13 
REMARK    8  A    between atoms: C5_13  and  N5_14 
REMARK    9  A    between atoms: C6_18  and  C7_19 
REMARK       I    between atoms: C7_19  and  N6_21 
REMARK   10  A    between atoms: N6_21  and  C8_23 
REMARK   11  A    between atoms: C8_23  and  C9_24 
REMARK   12  A    between atoms: C9_24  and  N7_25 
REMARK   13  A    between atoms: N7_25  and  C10_27 
ROOT
HETATM    1  N4  UNL     1      82.478  24.467   1.794  1.00  0.00    -0.284 NA
ENDROOT
BRANCH   1   2
HETATM    2  C3  UNL     1      83.869  24.709   1.990  1.00  0.00     0.123 C 
BRANCH   2   3
HETATM    3  C2  UNL     1      84.295  25.735   2.953  1.00  0.00     0.216 C 
BRANCH   3   4
HETATM    4  O1  UNL     1      83.391  26.146   3.908  1.00  0.00    -0.277 OA
BRANCH   4   5
HETATM    5  N3  UNL     1      83.621  27.429   4.266  1.00  0.00    -0.239 N 
HETATM    6  C1  UNL     1      82.838  28.526   3.874  1.00  0.00     0.205 C 
HETATM    7  N1  UNL     1      83.129  29.199   2.812  1.00  0.00    -0.372 N 
HETATM    8  N2  UNL     1      81.712  28.909   4.645  1.00  0.00    -0.062 NA
ATOM      9  H12 UNL     1      82.560  29.996   2.527  1.00  0.00     0.158 HD
ATOM     10  H11 UNL     1      83.940  28.923   2.258  1.00  0.00     0.158 HD
ATOM     11  H3  UNL     1      84.424  27.613   4.866  1.00  0.00     0.197 HD
ENDBRANCH   4   5
ENDBRANCH   3   4
ENDBRANCH   2   3
ENDBRANCH   1   2
BRANCH   1  12
HETATM   12  C4  UNL     1      81.821  25.222   0.787  1.00  0.00     0.122 C 
BRANCH  12  13
HETATM   13  C5  UNL     1      81.099  26.470   1.223  1.00  0.00     0.244 C 
BRANCH  13  14
HETATM   14  N5  UNL     1      80.556  26.493   2.522  1.00  0.00    -0.078 N 
ATOM     15  H53 UNL     1      80.164  25.576   2.739  1.00  0.00     0.274 HD
ATOM     16  H52 UNL     1      81.314  26.544   3.203  1.00  0.00     0.274 HD
ATOM     17  H51 UNL     1      79.865  27.213   2.735  1.00  0.00     0.274 HD
ENDBRANCH  13  14
ENDBRANCH  12  13
ENDBRANCH   1  12
BRANCH   1  18
HETATM   18  C6  UNL     1      82.181  23.061   1.788  1.00  0.00     0.134 C 
BRANCH  18  19
HETATM   19  C7  UNL     1      82.391  22.307   0.580  1.00  0.00     0.252 C 
HETATM   20  O2  UNL     1      81.489  22.421  -0.322  1.00  0.00    -0.268 OA
HETATM   21  N6  UNL     1      83.471  21.465   0.264  1.00  0.00    -0.352 N 
ATOM     22  H6  UNL     1      84.199  21.374   0.972  1.00  0.00     0.163 HD
BRANCH  21  23
HETATM   23  C8  UNL     1      83.662  20.715  -0.959  1.00  0.00     0.167 C 
BRANCH  23  24
HETATM   24  C9  UNL     1      82.924  19.430  -1.060  1.00  0.00     0.076 C 
BRANCH  24  25
HETATM   25  N7  UNL     1      83.622  18.243  -0.886  1.00  0.00    -0.381 N 
ATOM     26  H7  UNL     1      83.895  17.759  -1.742  1.00  0.00     0.160 HD
BRANCH  25  27
HETATM   27  C10 UNL     1      83.990  17.637   0.285  1.00  0.00     0.207 C 
HETATM   28  C11 UNL     1      84.636  18.310   1.434  1.00  0.00     0.174 C 
HETATM   29  N8  UNL     1      85.101  16.936   1.746  1.00  0.00    -0.143 NA
HETATM   30  N9  UNL     1      85.149  16.752   0.329  1.00  0.00    -0.122 NA
ENDBRANCH  25  27
ENDBRANCH  24  25
ENDBRANCH  23  24
ENDBRANCH  21  23
ENDBRANCH  18  19
ENDBRANCH   1  18
TORSDOF 13
ENDMDL
MODEL 5
REMARK VINA RESULT: -7.582281486      3.579     10.050
REMARK  13 active torsions:
REMARK  status: ('A' for Active; 'I' for Inactive)
REMARK       I    between atoms: C1_4  and  N3_6 
REMARK    1  A    between atoms: N3_6  and  O1_8 
REMARK    2  A    between atoms: O1_8  and  C2_9 
REMARK    3  A    between atoms: C2_9  and  C3_10 
REMARK    4  A    between atoms: C3_10  and  N4_11 
REMARK    5  A    between atoms: N4_11  and  C4_12 
REMARK    6  A    between atoms: N4_11  and  C6_18 
REMARK    7  A    between atoms: C4_12  and  C5_13 
REMARK    8  A    between atoms: C5_13  and  N5_14 
REMARK    9  A    between atoms: C6_18  and  C7_19 
REMARK       I    between atoms: C7_19  and  N6_21 
REMARK   10  A    between atoms: N6_21  and  C8_23 
REMARK   11  A    between atoms: C8_23  and  C9_24 
REMARK   12  A    between atoms: C9_24  and  N7_25 
REMARK   13  A    between atoms: N7_25  and  C10_27 
ROOT
HETATM    1  N4  UNL     1      84.181  26.393   1.916  1.00  0.00    -0.284 NA
ENDROOT
BRANCH   1   2
HETATM    2  C3  UNL     1      83.030  26.321   1.079  1.00  0.00     0.123 C 
BRANCH   2   3
HETATM    3  C2  UNL     1      81.788  25.737   1.605  1.00  0.00     0.216 C 
BRANCH   3   4
HETATM    4  O1  UNL     1      80.609  26.420   1.397  1.00  0.00    -0.277 OA
BRANCH   4   5
HETATM    5  N3  UNL     1      79.959  26.622   2.564  1.00  0.00    -0.239 N 
HETATM    6  C1  UNL     1      80.323  26.055   3.795  1.00  0.00     0.205 C 
HETATM    7  N1  UNL     1      79.818  24.930   4.180  1.00  0.00    -0.372 N 
HETATM    8  N2  UNL     1      81.255  26.714   4.636  1.00  0.00    -0.062 NA
ATOM      9  H12 UNL     1      80.083  24.518   5.074  1.00  0.00     0.158 HD
ATOM     10  H11 UNL     1      79.148  24.456   3.575  1.00  0.00     0.158 HD
ATOM     11  H3  UNL     1      79.142  27.232   2.549  1.00  0.00     0.197 HD
ENDBRANCH   4   5
ENDBRANCH   3   4
ENDBRANCH   2   3
ENDBRANCH   1   2
BRANCH   1  12
HETATM   12  C4  UNL     1      84.166  27.353   2.962  1.00  0.00     0.122 C 
BRANCH  12  13
HETATM   13  C5  UNL     1      83.592  28.709   2.643  1.00  0.00     0.244 C 
BRANCH  13  14
HETATM   14  N5  UNL     1      82.641  29.245   3.535  1.00  0.00    -0.078 N 
ATOM     15  H53 UNL     1      81.724  29.240   3.089  1.00  0.00     0.274 HD
ATOM     16  H52 UNL     1      82.488  28.586   4.298  1.00  0.00     0.274 HD
ATOM     17  H51 UNL     1      82.823  30.171   3.922  1.00  0.00     0.274 HD
ENDBRANCH  13  14
ENDBRANCH  12  13
ENDBRANCH   1  12
BRANCH   1  18
HETATM   18  C6  UNL     1      84.638  25.086   2.300  1.00  0.00     0.134 C 
BRANCH  18  19
HETATM   19  C7  UNL     1      84.890  24.105   1.278  1.00  0.00     0.252 C 
HETATM   20  O2  UNL     1      85.852  24.362   0.471  1.00  0.00    -0.268 OA
HETATM   21  N6  UNL     1      84.215  22.892   1.059  1.00  0.00    -0.352 N 
ATOM     22  H6  UNL     1      83.453  22.673   1.701  1.00  0.00     0.163 HD
BRANCH  21  23
HETATM   23  C8  UNL     1      84.485  21.919   0.022  1.00  0.00     0.167 C 
BRANCH  23  24
HETATM   24  C9  UNL     1      83.393  20.958  -0.273  1.00  0.00     0.076 C 
BRANCH  24  25
HETATM   25  N7  UNL     1      83.712  19.744  -0.864  1.00  0.00    -0.381 N 
ATOM     26  H7  UNL     1      83.936  19.778  -1.859  1.00  0.00     0.160 HD
BRANCH  25  27
HETATM   27  C10 UNL     1      83.766  18.505  -0.285  1.00  0.00     0.207 C 
HETATM   28  C11 UNL     1      84.439  18.183   0.994  1.00  0.00     0.174 C 
HETATM   29  N8  UNL     1      84.469  16.813   0.425  1.00  0.00    -0.143 NA
HETATM   30  N9  UNL     1      84.624  17.463  -0.839  1.00  0.00    -0.122 NA
ENDBRANCH  25  27
ENDBRANCH  24  25
ENDBRANCH  23  24
ENDBRANCH  21  23
ENDBRANCH  18  19
ENDBRANCH   1  18
TORSDOF 13
ENDMDL
