MODEL 1
REMARK VINA RESULT: -7.571050166      0.000      0.000
REMARK  15 active torsions:
REMARK  status: ('A' for Active; 'I' for Inactive)
REMARK    1  A    between atoms: N1_1  and  C1_5 
REMARK    2  A    between atoms: C1_5  and  C2_6 
REMARK    3  A    between atoms: C2_6  and  N2_7 
REMARK    4  A    between atoms: N2_7  and  C3_10 
REMARK    5  A    between atoms: C3_10  and  C4_11 
REMARK       I    between atoms: C4_11  and  N3_13 
REMARK    6  A    between atoms: N3_13  and  C5_15 
REMARK    7  A    between atoms: C5_15  and  C6_16 
REMARK    8  A    between atoms: C7_17  and  N4_18 
REMARK    9  A    between atoms: N4_18  and  N5_19 
REMARK   10  A    between atoms: C8_22  and  N6_23 
REMARK   11  A    between atoms: N6_23  and  C9_26 
REMARK   12  A    between atoms: C9_26  and  C10_27 
REMARK   13  A    between atoms: C10_27  and  N7_28 
REMARK       I    between atoms: N7_28  and  C11_30 
REMARK   14  A    between atoms: C11_30  and  C12_32 
REMARK   15  A    between atoms: C12_32  and  O3_33 
ROOT
HETATM    1  C6  UNL     1      82.342  23.769   0.586  1.00  0.00     0.059 A 
HETATM    2  C7  UNL     1      83.527  24.431   1.090  1.00  0.00     0.137 A 
HETATM    3  C8  UNL     1      82.331  24.295   2.033  1.00  0.00     0.214 A 
ENDROOT
BRANCH   1   4
HETATM    4  C5  UNL     1      82.113  22.315   0.420  1.00  0.00     0.131 C 
BRANCH   4   5
HETATM    5  N3  UNL     1      83.236  21.470   0.237  1.00  0.00    -0.359 N 
HETATM    6  C4  UNL     1      83.255  20.436  -0.736  1.00  0.00     0.243 C 
HETATM    7  O1  UNL     1      82.272  20.209  -1.496  1.00  0.00    -0.272 OA
ATOM      8  H3  UNL     1      84.058  21.609   0.824  1.00  0.00     0.162 HD
BRANCH   6   9
HETATM    9  C3  UNL     1      84.453  19.592  -0.872  1.00  0.00     0.334 C 
BRANCH   9  10
HETATM   10  N2  UNL     1      84.141  18.270  -1.370  1.00  0.00    -0.065 N 
ATOM     11  H22 UNL     1      84.604  18.058  -2.254  1.00  0.00     0.277 HD
ATOM     12  H21 UNL     1      83.180  18.186  -1.702  1.00  0.00     0.277 HD
BRANCH  10  13
HETATM   13  C2  UNL     1      84.463  17.323  -0.320  1.00  0.00     0.260 C 
BRANCH  13  14
HETATM   14  C1  UNL     1      84.477  17.918   1.050  1.00  0.00     0.257 C 
BRANCH  14  15
HETATM   15  N1  UNL     1      85.247  17.098   1.954  1.00  0.00    -0.078 N 
ATOM     16  H13 UNL     1      86.238  17.337   1.930  1.00  0.00     0.274 HD
ATOM     17  H12 UNL     1      85.057  17.329   2.929  1.00  0.00     0.274 HD
ATOM     18  H11 UNL     1      85.092  16.108   1.762  1.00  0.00     0.274 HD
ENDBRANCH  14  15
ENDBRANCH  13  14
ENDBRANCH  10  13
ENDBRANCH   9  10
ENDBRANCH   6   9
ENDBRANCH   4   5
ENDBRANCH   1   4
BRANCH   2  19
HETATM   19  N4  UNL     1      84.770  23.880   1.487  1.00  0.00    -0.141 NA
BRANCH  19  20
HETATM   20  N5  UNL     1      85.388  24.608   2.454  1.00  0.00    -0.348 N 
ATOM     21  H52 UNL     1      84.902  24.944   3.286  1.00  0.00     0.172 HD
ATOM     22  H51 UNL     1      86.374  24.777   2.255  1.00  0.00     0.172 HD
ENDBRANCH  19  20
ENDBRANCH   2  19
BRANCH   3  23
HETATM   23  N6  UNL     1      81.474  25.436   2.269  1.00  0.00    -0.067 N 
ATOM     24  H62 UNL     1      81.972  26.314   2.123  1.00  0.00     0.277 HD
ATOM     25  H61 UNL     1      80.770  25.531   1.538  1.00  0.00     0.277 HD
BRANCH  23  26
HETATM   26  C9  UNL     1      80.869  25.379   3.589  1.00  0.00     0.252 C 
BRANCH  26  27
HETATM   27  C10 UNL     1      81.329  26.553   4.394  1.00  0.00     0.150 C 
BRANCH  27  28
HETATM   28  N7  UNL     1      81.854  27.649   3.652  1.00  0.00    -0.358 N 
HETATM   29  C11 UNL     1      83.226  27.819   3.308  1.00  0.00     0.241 C 
HETATM   30  O2  UNL     1      84.029  26.928   3.694  1.00  0.00    -0.271 OA
ATOM     31  H7  UNL     1      81.198  28.367   3.344  1.00  0.00     0.162 HD
BRANCH  29  32
HETATM   32  C12 UNL     1      83.742  28.955   2.541  1.00  0.00     0.266 C 
BRANCH  32  33
HETATM   33  O3  UNL     1      83.030  30.123   2.902  1.00  0.00    -0.392 OA
ATOM     34  H3  UNL     1      83.185  30.798   2.250  1.00  0.00     0.210 HD
ENDBRANCH  32  33
ENDBRANCH  29  32
ENDBRANCH  27  28
ENDBRANCH  26  27
ENDBRANCH  23  26
ENDBRANCH   3  23
TORSDOF 15
ENDMDL
MODEL 2
REMARK VINA RESULT: -7.559594891      1.820      2.693
REMARK  15 active torsions:
REMARK  status: ('A' for Active; 'I' for Inactive)
REMARK    1  A    between atoms: N1_1  and  C1_5 
REMARK    2  A    between atoms: C1_5  and  C2_6 
REMARK    3  A    between atoms: C2_6  and  N2_7 
REMARK    4  A    between atoms: N2_7  and  C3_10 
REMARK    5  A    between atoms: C3_10  and  C4_11 
REMARK       I    between atoms: C4_11  and  N3_13 
REMARK    6  A    between atoms: N3_13  and  C5_15 
REMARK    7  A    between atoms: C5_15  and  C6_16 
REMARK    8  A    between atoms: C7_17  and  N4_18 
REMARK    9  A    between atoms: N4_18  and  N5_19 
REMARK   10  A    between atoms: C8_22  and  N6_23 
REMARK   11  A    between atoms: N6_23  and  C9_26 
REMARK   12  A    between atoms: C9_26  and  C10_27 
REMARK   13  A    between atoms: C10_27  and  N7_28 
REMARK       I    between atoms: N7_28  and  C11_30 
REMARK   14  A    between atoms: C11_30  and  C12_32 
REMARK   15  A    between atoms: C12_32  and  O3_33 
ROOT
HETATM    1  C6  UNL     1      83.234  24.942   1.107  1.00  0.00     0.059 A 
HETATM    2  C7  UNL     1      84.570  25.461   0.902  1.00  0.00     0.137 A 
HETATM    3  C8  UNL     1      83.781  25.978   2.105  1.00  0.00     0.214 A 
ENDROOT
BRANCH   1   4
HETATM    4  C5  UNL     1      82.843  23.631   1.675  1.00  0.00     0.131 C 
BRANCH   4   5
HETATM    5  N3  UNL     1      83.353  22.454   1.073  1.00  0.00    -0.359 N 
HETATM    6  C4  UNL     1      82.664  21.775   0.035  1.00  0.00     0.243 C 
HETATM    7  O1  UNL     1      81.555  22.181  -0.414  1.00  0.00    -0.272 OA
ATOM      8  H3  UNL     1      84.246  22.082   1.397  1.00  0.00     0.162 HD
BRANCH   6   9
HETATM    9  C3  UNL     1      83.248  20.555  -0.545  1.00  0.00     0.334 C 
BRANCH   9  10
HETATM   10  N2  UNL     1      83.798  19.676   0.462  1.00  0.00    -0.065 N 
ATOM     11  H22 UNL     1      83.280  19.701   1.340  1.00  0.00     0.277 HD
ATOM     12  H21 UNL     1      84.693  20.001   0.828  1.00  0.00     0.277 HD
BRANCH  10  13
HETATM   13  C2  UNL     1      83.871  18.347  -0.115  1.00  0.00     0.260 C 
BRANCH  13  14
HETATM   14  C1  UNL     1      84.475  17.324   0.790  1.00  0.00     0.257 C 
BRANCH  14  15
HETATM   15  N1  UNL     1      84.932  17.933   2.015  1.00  0.00    -0.078 N 
ATOM     16  H13 UNL     1      85.685  18.599   1.848  1.00  0.00     0.274 HD
ATOM     17  H12 UNL     1      84.240  18.577   2.398  1.00  0.00     0.274 HD
ATOM     18  H11 UNL     1      85.201  17.220   2.693  1.00  0.00     0.274 HD
ENDBRANCH  14  15
ENDBRANCH  13  14
ENDBRANCH  10  13
ENDBRANCH   9  10
ENDBRANCH   6   9
ENDBRANCH   4   5
ENDBRANCH   1   4
BRANCH   2  19
HETATM   19  N4  UNL     1      85.824  24.841   1.127  1.00  0.00    -0.141 NA
BRANCH  19  20
HETATM   20  N5  UNL     1      86.813  25.350   0.345  1.00  0.00    -0.348 N 
ATOM     21  H52 UNL     1      86.685  25.546  -0.648  1.00  0.00     0.172 HD
ATOM     22  H51 UNL     1      87.681  25.509   0.857  1.00  0.00     0.172 HD
ENDBRANCH  19  20
ENDBRANCH   2  19
BRANCH   3  23
HETATM   23  N6  UNL     1      83.161  27.282   2.046  1.00  0.00    -0.067 N 
ATOM     24  H62 UNL     1      83.280  27.712   1.129  1.00  0.00     0.277 HD
ATOM     25  H61 UNL     1      82.143  27.212   2.056  1.00  0.00     0.277 HD
BRANCH  23  26
HETATM   26  C9  UNL     1      83.646  28.149   3.107  1.00  0.00     0.252 C 
BRANCH  26  27
HETATM   27  C10 UNL     1      82.629  28.204   4.203  1.00  0.00     0.150 C 
BRANCH  27  28
HETATM   28  N7  UNL     1      81.343  27.683   3.885  1.00  0.00    -0.358 N 
HETATM   29  C11 UNL     1      80.950  26.324   4.046  1.00  0.00     0.241 C 
HETATM   30  O2  UNL     1      81.813  25.527   4.504  1.00  0.00    -0.271 OA
ATOM     31  H7  UNL     1      80.650  28.334   3.515  1.00  0.00     0.162 HD
BRANCH  29  32
HETATM   32  C12 UNL     1      79.618  25.811   3.714  1.00  0.00     0.266 C 
BRANCH  32  33
HETATM   33  O3  UNL     1      79.498  24.484   4.189  1.00  0.00    -0.392 OA
ATOM     34  H3  UNL     1      78.612  24.177   4.039  1.00  0.00     0.210 HD
ENDBRANCH  32  33
ENDBRANCH  29  32
ENDBRANCH  27  28
ENDBRANCH  26  27
ENDBRANCH  23  26
ENDBRANCH   3  23
TORSDOF 15
ENDMDL
MODEL 3
REMARK VINA RESULT: -7.464879192      1.839      2.952
REMARK  15 active torsions:
REMARK  status: ('A' for Active; 'I' for Inactive)
REMARK    1  A    between atoms: N1_1  and  C1_5 
REMARK    2  A    between atoms: C1_5  and  C2_6 
REMARK    3  A    between atoms: C2_6  and  N2_7 
REMARK    4  A    between atoms: N2_7  and  C3_10 
REMARK    5  A    between atoms: C3_10  and  C4_11 
REMARK       I    between atoms: C4_11  and  N3_13 
REMARK    6  A    between atoms: N3_13  and  C5_15 
REMARK    7  A    between atoms: C5_15  and  C6_16 
REMARK    8  A    between atoms: C7_17  and  N4_18 
REMARK    9  A    between atoms: N4_18  and  N5_19 
REMARK   10  A    between atoms: C8_22  and  N6_23 
REMARK   11  A    between atoms: N6_23  and  C9_26 
REMARK   12  A    between atoms: C9_26  and  C10_27 
REMARK   13  A    between atoms: C10_27  and  N7_28 
REMARK       I    between atoms: N7_28  and  C11_30 
REMARK   14  A    between atoms: C11_30  and  C12_32 
REMARK   15  A    between atoms: C12_32  and  O3_33 
ROOT
HETATM    1  C6  UNL     1      83.751  23.698   1.415  1.00  0.00     0.059 A 
HETATM    2  C7  UNL     1      82.507  24.439   1.418  1.00  0.00     0.137 A 
HETATM    3  C8  UNL     1      83.812  25.235   1.398  1.00  0.00     0.214 A 
ENDROOT
BRANCH   1   4
HETATM    4  C5  UNL     1      84.397  23.007   0.274  1.00  0.00     0.131 C 
BRANCH   4   5
HETATM    5  N3  UNL     1      84.362  21.590   0.234  1.00  0.00    -0.359 N 
HETATM    6  C4  UNL     1      83.244  20.874  -0.266  1.00  0.00     0.243 C 
HETATM    7  O1  UNL     1      82.213  21.456  -0.706  1.00  0.00    -0.272 OA
ATOM      8  H3  UNL     1      85.169  21.068   0.577  1.00  0.00     0.162 HD
BRANCH   6   9
HETATM    9  C3  UNL     1      83.272  19.402  -0.277  1.00  0.00     0.334 C 
BRANCH   9  10
HETATM   10  N2  UNL     1      84.138  18.861   0.748  1.00  0.00    -0.065 N 
ATOM     11  H22 UNL     1      83.727  18.905   1.680  1.00  0.00     0.277 HD
ATOM     12  H21 UNL     1      84.951  19.449   0.934  1.00  0.00     0.277 HD
BRANCH  10  13
HETATM   13  C2  UNL     1      84.493  17.513   0.347  1.00  0.00     0.260 C 
BRANCH  13  14
HETATM   14  C1  UNL     1      84.704  17.351  -1.122  1.00  0.00     0.257 C 
BRANCH  14  15
HETATM   15  N1  UNL     1      85.387  16.113  -1.406  1.00  0.00    -0.078 N 
ATOM     16  H13 UNL     1      86.398  16.209  -1.315  1.00  0.00     0.274 HD
ATOM     17  H12 UNL     1      85.232  15.419  -0.675  1.00  0.00     0.274 HD
ATOM     18  H11 UNL     1      85.122  15.759  -2.326  1.00  0.00     0.274 HD
ENDBRANCH  14  15
ENDBRANCH  13  14
ENDBRANCH  10  13
ENDBRANCH   9  10
ENDBRANCH   6   9
ENDBRANCH   4   5
ENDBRANCH   1   4
BRANCH   2  19
HETATM   19  N4  UNL     1      81.573  24.640   0.372  1.00  0.00    -0.141 NA
BRANCH  19  20
HETATM   20  N5  UNL     1      81.106  25.915   0.318  1.00  0.00    -0.348 N 
ATOM     21  H52 UNL     1      81.606  26.703   0.730  1.00  0.00     0.172 HD
ATOM     22  H51 UNL     1      80.216  25.991  -0.174  1.00  0.00     0.172 HD
ENDBRANCH  19  20
ENDBRANCH   2  19
BRANCH   3  23
HETATM   23  N6  UNL     1      84.293  25.848   2.616  1.00  0.00    -0.067 N 
ATOM     24  H62 UNL     1      83.853  25.440   3.440  1.00  0.00     0.277 HD
ATOM     25  H61 UNL     1      85.260  25.587   2.809  1.00  0.00     0.277 HD
BRANCH  23  26
HETATM   26  C9  UNL     1      84.128  27.292   2.584  1.00  0.00     0.252 C 
BRANCH  26  27
HETATM   27  C10 UNL     1      83.242  27.713   3.713  1.00  0.00     0.150 C 
BRANCH  27  28
HETATM   28  N7  UNL     1      81.853  27.448   3.546  1.00  0.00    -0.358 N 
HETATM   29  C11 UNL     1      81.197  26.249   3.947  1.00  0.00     0.241 C 
HETATM   30  O2  UNL     1      81.908  25.360   4.489  1.00  0.00    -0.271 OA
ATOM     31  H7  UNL     1      81.285  28.172   3.106  1.00  0.00     0.162 HD
BRANCH  29  32
HETATM   32  C12 UNL     1      79.765  25.999   3.766  1.00  0.00     0.266 C 
BRANCH  32  33
HETATM   33  O3  UNL     1      79.471  24.671   4.157  1.00  0.00    -0.392 OA
ATOM     34  H3  UNL     1      78.633  24.655   4.604  1.00  0.00     0.210 HD
ENDBRANCH  32  33
ENDBRANCH  29  32
ENDBRANCH  27  28
ENDBRANCH  26  27
ENDBRANCH  23  26
ENDBRANCH   3  23
TORSDOF 15
ENDMDL
MODEL 4
REMARK VINA RESULT: -7.433753256      0.783      1.007
REMARK  15 active torsions:
REMARK  status: ('A' for Active; 'I' for Inactive)
REMARK    1  A    between atoms: N1_1  and  C1_5 
REMARK    2  A    between atoms: C1_5  and  C2_6 
REMARK    3  A    between atoms: C2_6  and  N2_7 
REMARK    4  A    between atoms: N2_7  and  C3_10 
REMARK    5  A    between atoms: C3_10  and  C4_11 
REMARK       I    between atoms: C4_11  and  N3_13 
REMARK    6  A    between atoms: N3_13  and  C5_15 
REMARK    7  A    between atoms: C5_15  and  C6_16 
REMARK    8  A    between atoms: C7_17  and  N4_18 
REMARK    9  A    between atoms: N4_18  and  N5_19 
REMARK   10  A    between atoms: C8_22  and  N6_23 
REMARK   11  A    between atoms: N6_23  and  C9_26 
REMARK   12  A    between atoms: C9_26  and  C10_27 
REMARK   13  A    between atoms: C10_27  and  N7_28 
REMARK       I    between atoms: N7_28  and  C11_30 
REMARK   14  A    between atoms: C11_30  and  C12_32 
REMARK   15  A    between atoms: C12_32  and  O3_33 
ROOT
HETATM    1  C6  UNL     1      82.300  23.875   0.561  1.00  0.00     0.059 A 
HETATM    2  C7  UNL     1      83.497  24.489   1.096  1.00  0.00     0.137 A 
HETATM    3  C8  UNL     1      82.289  24.353   2.024  1.00  0.00     0.214 A 
ENDROOT
BRANCH   1   4
HETATM    4  C5  UNL     1      82.034  22.434   0.344  1.00  0.00     0.131 C 
BRANCH   4   5
HETATM    5  N3  UNL     1      83.132  21.537   0.333  1.00  0.00    -0.359 N 
HETATM    6  C4  UNL     1      83.203  20.439  -0.563  1.00  0.00     0.243 C 
HETATM    7  O1  UNL     1      82.293  20.196  -1.404  1.00  0.00    -0.272 OA
ATOM      8  H3  UNL     1      83.897  21.687   0.991  1.00  0.00     0.162 HD
BRANCH   6   9
HETATM    9  C3  UNL     1      84.371  19.544  -0.520  1.00  0.00     0.334 C 
BRANCH   9  10
HETATM   10  N2  UNL     1      84.440  18.788   0.711  1.00  0.00    -0.065 N 
ATOM     11  H22 UNL     1      83.705  19.036   1.372  1.00  0.00     0.277 HD
ATOM     12  H21 UNL     1      85.235  19.048   1.294  1.00  0.00     0.277 HD
BRANCH  10  13
HETATM   13  C2  UNL     1      84.434  17.381   0.356  1.00  0.00     0.260 C 
BRANCH  13  14
HETATM   14  C1  UNL     1      84.707  17.117  -1.088  1.00  0.00     0.257 C 
BRANCH  14  15
HETATM   15  N1  UNL     1      85.543  15.952  -1.244  1.00  0.00    -0.078 N 
ATOM     16  H13 UNL     1      86.518  16.204  -1.405  1.00  0.00     0.274 HD
ATOM     17  H12 UNL     1      85.658  15.449  -0.364  1.00  0.00     0.274 HD
ATOM     18  H11 UNL     1      85.182  15.346  -1.981  1.00  0.00     0.274 HD
ENDBRANCH  14  15
ENDBRANCH  13  14
ENDBRANCH  10  13
ENDBRANCH   9  10
ENDBRANCH   6   9
ENDBRANCH   4   5
ENDBRANCH   1   4
BRANCH   2  19
HETATM   19  N4  UNL     1      84.722  23.891   1.484  1.00  0.00    -0.141 NA
BRANCH  19  20
HETATM   20  N5  UNL     1      85.372  24.597   2.447  1.00  0.00    -0.348 N 
ATOM     21  H52 UNL     1      84.886  25.058   3.216  1.00  0.00     0.172 HD
ATOM     22  H51 UNL     1      86.383  24.611   2.314  1.00  0.00     0.172 HD
ENDBRANCH  19  20
ENDBRANCH   2  19
BRANCH   3  23
HETATM   23  N6  UNL     1      81.461  25.508   2.290  1.00  0.00    -0.067 N 
ATOM     24  H62 UNL     1      81.976  26.378   2.156  1.00  0.00     0.277 HD
ATOM     25  H61 UNL     1      80.751  25.633   1.569  1.00  0.00     0.277 HD
BRANCH  23  26
HETATM   26  C9  UNL     1      80.867  25.440   3.615  1.00  0.00     0.252 C 
BRANCH  26  27
HETATM   27  C10 UNL     1      81.350  26.596   4.433  1.00  0.00     0.150 C 
BRANCH  27  28
HETATM   28  N7  UNL     1      81.866  27.703   3.701  1.00  0.00    -0.358 N 
HETATM   29  C11 UNL     1      83.228  27.865   3.319  1.00  0.00     0.241 C 
HETATM   30  O2  UNL     1      84.032  26.955   3.660  1.00  0.00    -0.271 OA
ATOM     31  H7  UNL     1      81.210  28.435   3.430  1.00  0.00     0.162 HD
BRANCH  29  32
HETATM   32  C12 UNL     1      83.736  29.013   2.564  1.00  0.00     0.266 C 
BRANCH  32  33
HETATM   33  O3  UNL     1      83.040  30.178   2.964  1.00  0.00    -0.392 OA
ATOM     34  H3  UNL     1      83.040  30.804   2.249  1.00  0.00     0.210 HD
ENDBRANCH  32  33
ENDBRANCH  29  32
ENDBRANCH  27  28
ENDBRANCH  26  27
ENDBRANCH  23  26
ENDBRANCH   3  23
TORSDOF 15
ENDMDL
MODEL 5
REMARK VINA RESULT: -7.332188102      1.158      1.248
REMARK  15 active torsions:
REMARK  status: ('A' for Active; 'I' for Inactive)
REMARK    1  A    between atoms: N1_1  and  C1_5 
REMARK    2  A    between atoms: C1_5  and  C2_6 
REMARK    3  A    between atoms: C2_6  and  N2_7 
REMARK    4  A    between atoms: N2_7  and  C3_10 
REMARK    5  A    between atoms: C3_10  and  C4_11 
REMARK       I    between atoms: C4_11  and  N3_13 
REMARK    6  A    between atoms: N3_13  and  C5_15 
REMARK    7  A    between atoms: C5_15  and  C6_16 
REMARK    8  A    between atoms: C7_17  and  N4_18 
REMARK    9  A    between atoms: N4_18  and  N5_19 
REMARK   10  A    between atoms: C8_22  and  N6_23 
REMARK   11  A    between atoms: N6_23  and  C9_26 
REMARK   12  A    between atoms: C9_26  and  C10_27 
REMARK   13  A    between atoms: C10_27  and  N7_28 
REMARK       I    between atoms: N7_28  and  C11_30 
REMARK   14  A    between atoms: C11_30  and  C12_32 
REMARK   15  A    between atoms: C12_32  and  O3_33 
ROOT
HETATM    1  C6  UNL     1      82.626  24.150   0.581  1.00  0.00     0.059 A 
HETATM    2  C7  UNL     1      83.789  24.941   0.924  1.00  0.00     0.137 A 
HETATM    3  C8  UNL     1      82.489  25.219   1.679  1.00  0.00     0.214 A 
ENDROOT
BRANCH   1   4
HETATM    4  C5  UNL     1      82.320  22.758   0.984  1.00  0.00     0.131 C 
BRANCH   4   5
HETATM    5  N3  UNL     1      83.252  21.739   0.662  1.00  0.00    -0.359 N 
HETATM    6  C4  UNL     1      83.051  20.843  -0.420  1.00  0.00     0.243 C 
HETATM    7  O1  UNL     1      82.030  20.902  -1.161  1.00  0.00    -0.272 OA
ATOM      8  H3  UNL     1      84.096  21.647   1.228  1.00  0.00     0.162 HD
BRANCH   6   9
HETATM    9  C3  UNL     1      84.057  19.806  -0.698  1.00  0.00     0.334 C 
BRANCH   9  10
HETATM   10  N2  UNL     1      83.459  18.521  -0.984  1.00  0.00    -0.065 N 
ATOM     11  H22 UNL     1      83.506  18.270  -1.971  1.00  0.00     0.277 HD
ATOM     12  H21 UNL     1      82.443  18.527  -0.898  1.00  0.00     0.277 HD
BRANCH  10  13
HETATM   13  C2  UNL     1      84.096  17.545  -0.120  1.00  0.00     0.260 C 
BRANCH  13  14
HETATM   14  C1  UNL     1      84.491  18.083   1.216  1.00  0.00     0.257 C 
BRANCH  14  15
HETATM   15  N1  UNL     1      85.283  17.118   1.940  1.00  0.00    -0.078 N 
ATOM     16  H13 UNL     1      84.920  16.959   2.879  1.00  0.00     0.274 HD
ATOM     17  H12 UNL     1      85.164  16.176   1.568  1.00  0.00     0.274 HD
ATOM     18  H11 UNL     1      86.264  17.398   1.956  1.00  0.00     0.274 HD
ENDBRANCH  14  15
ENDBRANCH  13  14
ENDBRANCH  10  13
ENDBRANCH   9  10
ENDBRANCH   6   9
ENDBRANCH   4   5
ENDBRANCH   1   4
BRANCH   2  19
HETATM   19  N4  UNL     1      84.941  24.578   1.665  1.00  0.00    -0.141 NA
BRANCH  19  20
HETATM   20  N5  UNL     1      84.818  24.839   2.994  1.00  0.00    -0.348 N 
ATOM     21  H52 UNL     1      83.936  24.736   3.496  1.00  0.00     0.172 HD
ATOM     22  H51 UNL     1      85.693  25.142   3.421  1.00  0.00     0.172 HD
ENDBRANCH  19  20
ENDBRANCH   2  19
BRANCH   3  23
HETATM   23  N6  UNL     1      81.690  26.371   1.325  1.00  0.00    -0.067 N 
ATOM     24  H62 UNL     1      82.112  27.236   1.660  1.00  0.00     0.277 HD
ATOM     25  H61 UNL     1      81.726  26.556   0.323  1.00  0.00     0.277 HD
BRANCH  23  26
HETATM   26  C9  UNL     1      80.321  26.230   1.792  1.00  0.00     0.252 C 
BRANCH  26  27
HETATM   27  C10 UNL     1      80.318  26.098   3.282  1.00  0.00     0.150 C 
BRANCH  27  28
HETATM   28  N7  UNL     1      80.720  27.254   4.009  1.00  0.00    -0.358 N 
HETATM   29  C11 UNL     1      81.995  27.432   4.620  1.00  0.00     0.241 C 
HETATM   30  O2  UNL     1      82.823  26.489   4.504  1.00  0.00    -0.271 OA
ATOM     31  H7  UNL     1      80.044  28.013   4.100  1.00  0.00     0.162 HD
BRANCH  29  32
HETATM   32  C12 UNL     1      82.387  28.633   5.362  1.00  0.00     0.266 C 
BRANCH  32  33
HETATM   33  O3  UNL     1      82.579  29.699   4.453  1.00  0.00    -0.392 OA
ATOM     34  H3  UNL     1      82.638  30.516   4.936  1.00  0.00     0.210 HD
ENDBRANCH  32  33
ENDBRANCH  29  32
ENDBRANCH  27  28
ENDBRANCH  26  27
ENDBRANCH  23  26
ENDBRANCH   3  23
TORSDOF 15
ENDMDL
