MODEL 1
REMARK VINA RESULT: -8.920012465      0.000      0.000
REMARK  11 active torsions:
REMARK  status: ('A' for Active; 'I' for Inactive)
REMARK    1  A    between atoms: N2_3  and  N3_5 
REMARK    2  A    between atoms: N3_5  and  N4_7 
REMARK    3  A    between atoms: N4_7  and  C2_8 
REMARK    4  A    between atoms: C2_8  and  C3_9 
REMARK    5  A    between atoms: C4_13  and  N6_14 
REMARK       I    between atoms: N6_14  and  C5_16 
REMARK    6  A    between atoms: C5_16  and  C6_18 
REMARK    7  A    between atoms: C6_18  and  C7_19 
REMARK    8  A    between atoms: C7_19  and  C8_20 
REMARK    9  A    between atoms: C8_20  and  N7_21 
REMARK   10  A    between atoms: C10_26  and  C11_27 
REMARK   11  A    between atoms: C11_27  and  O2_28 
ROOT
HETATM    1  C3  UNL     1      81.794  25.820   1.576  1.00  0.00     0.340 C 
HETATM    2  N5  UNL     1      81.790  24.545   0.930  1.00  0.00    -0.024 N 
ATOM      3  H51 UNL     1      82.076  24.582  -0.048  1.00  0.00     0.282 HD
ATOM      4  H52 UNL     1      80.854  24.171   0.770  1.00  0.00     0.282 HD
HETATM    5  C4  UNL     1      82.618  23.694   1.735  1.00  0.00     0.321 C 
HETATM    6  C10 UNL     1      83.377  24.672   2.565  1.00  0.00     0.198 C 
HETATM    7  O3  UNL     1      82.433  25.663   2.791  1.00  0.00    -0.346 OA
ENDROOT
BRANCH   5   8
HETATM    8  N6  UNL     1      83.398  22.749   1.013  1.00  0.00    -0.331 N 
HETATM    9  C5  UNL     1      82.853  21.911  -0.006  1.00  0.00     0.219 C 
HETATM   10  O1  UNL     1      81.632  22.026  -0.263  1.00  0.00    -0.274 OA
ATOM     11  H6  UNL     1      84.391  22.666   1.233  1.00  0.00     0.164 HD
BRANCH   9  12
HETATM   12  C6  UNL     1      83.726  20.977  -0.689  1.00  0.00     0.108 C 
BRANCH  12  13
HETATM   13  C7  UNL     1      83.153  19.900  -1.515  1.00  0.00     0.054 C 
BRANCH  13  14
HETATM   14  C8  UNL     1      83.257  18.500  -1.056  1.00  0.00     0.063 C 
BRANCH  14  15
HETATM   15  N7  UNL     1      83.786  18.238   0.223  1.00  0.00    -0.347 N 
HETATM   16  C9  UNL     1      84.599  17.291   0.538  1.00  0.00     0.200 C 
HETATM   17  N8  UNL     1      85.033  17.178   1.894  1.00  0.00    -0.067 NA
HETATM   18  N9  UNL     1      85.090  16.350  -0.391  1.00  0.00    -0.067 NA
ATOM     19  H7  UNL     1      83.495  18.862   0.976  1.00  0.00     0.167 HD
ENDBRANCH  14  15
ENDBRANCH  13  14
ENDBRANCH  12  13
ENDBRANCH   9  12
ENDBRANCH   5   8
BRANCH   6  20
HETATM   20  C11 UNL     1      84.637  25.168   1.961  1.00  0.00     0.200 C 
BRANCH  20  21
HETATM   21  O2  UNL     1      85.770  24.482   2.288  1.00  0.00    -0.398 OA
ATOM     22  H2  UNL     1      85.866  23.622   1.895  1.00  0.00     0.209 HD
ENDBRANCH  20  21
ENDBRANCH   6  20
BRANCH   1  23
HETATM   23  C2  UNL     1      80.350  26.311   1.791  1.00  0.00     0.197 C 
BRANCH  23  24
HETATM   24  N4  UNL     1      80.063  26.190   3.195  1.00  0.00    -0.121 NA
BRANCH  24  25
HETATM   25  N3  UNL     1      80.474  27.320   3.911  1.00  0.00    -0.246 N 
ATOM     26  H3  UNL     1      80.119  28.250   3.689  1.00  0.00     0.203 HD
BRANCH  25  27
HETATM   27  N2  UNL     1      81.392  27.119   4.943  1.00  0.00    -0.287 N 
HETATM   28  C1  UNL     1      82.201  28.102   5.218  1.00  0.00     0.207 C 
HETATM   29  N1  UNL     1      82.178  29.337   4.521  1.00  0.00    -0.095 NA
ATOM     30  H2  UNL     1      81.429  26.241   5.461  1.00  0.00     0.188 HD
ENDBRANCH  25  27
ENDBRANCH  24  25
ENDBRANCH  23  24
ENDBRANCH   1  23
TORSDOF 11
ENDMDL
MODEL 2
REMARK VINA RESULT: -8.742439357      1.224      1.538
REMARK  11 active torsions:
REMARK  status: ('A' for Active; 'I' for Inactive)
REMARK    1  A    between atoms: N2_3  and  N3_5 
REMARK    2  A    between atoms: N3_5  and  N4_7 
REMARK    3  A    between atoms: N4_7  and  C2_8 
REMARK    4  A    between atoms: C2_8  and  C3_9 
REMARK    5  A    between atoms: C4_13  and  N6_14 
REMARK       I    between atoms: N6_14  and  C5_16 
REMARK    6  A    between atoms: C5_16  and  C6_18 
REMARK    7  A    between atoms: C6_18  and  C7_19 
REMARK    8  A    between atoms: C7_19  and  C8_20 
REMARK    9  A    between atoms: C8_20  and  N7_21 
REMARK   10  A    between atoms: C10_26  and  C11_27 
REMARK   11  A    between atoms: C11_27  and  O2_28 
ROOT
HETATM    1  C3  UNL     1      82.042  25.699   1.285  1.00  0.00     0.340 C 
HETATM    2  N5  UNL     1      81.791  24.385   0.782  1.00  0.00    -0.024 N 
ATOM      3  H51 UNL     1      82.049  24.267  -0.197  1.00  0.00     0.282 HD
ATOM      4  H52 UNL     1      80.799  24.171   0.675  1.00  0.00     0.282 HD
HETATM    5  C4  UNL     1      82.478  23.489   1.667  1.00  0.00     0.321 C 
HETATM    6  C10 UNL     1      83.425  24.395   2.376  1.00  0.00     0.198 C 
HETATM    7  O3  UNL     1      82.681  25.558   2.503  1.00  0.00    -0.346 OA
ENDROOT
BRANCH   5   8
HETATM    8  N6  UNL     1      83.055  22.347   1.043  1.00  0.00    -0.331 N 
HETATM    9  C5  UNL     1      82.450  21.681  -0.065  1.00  0.00     0.219 C 
HETATM   10  O1  UNL     1      81.365  22.134  -0.495  1.00  0.00    -0.274 OA
ATOM     11  H6  UNL     1      83.939  21.988   1.405  1.00  0.00     0.164 HD
BRANCH   9  12
HETATM   12  C6  UNL     1      83.113  20.524  -0.635  1.00  0.00     0.108 C 
BRANCH  12  13
HETATM   13  C7  UNL     1      83.646  19.470   0.245  1.00  0.00     0.054 C 
BRANCH  13  14
HETATM   14  C8  UNL     1      83.779  18.093  -0.269  1.00  0.00     0.063 C 
BRANCH  14  15
HETATM   15  N7  UNL     1      84.950  17.734  -0.966  1.00  0.00    -0.347 N 
HETATM   16  C9  UNL     1      85.125  17.766  -2.241  1.00  0.00     0.200 C 
HETATM   17  N8  UNL     1      86.388  17.364  -2.773  1.00  0.00    -0.067 NA
HETATM   18  N9  UNL     1      84.129  18.180  -3.149  1.00  0.00    -0.067 NA
ATOM     19  H7  UNL     1      85.740  17.417  -0.403  1.00  0.00     0.167 HD
ENDBRANCH  14  15
ENDBRANCH  13  14
ENDBRANCH  12  13
ENDBRANCH   9  12
ENDBRANCH   5   8
BRANCH   6  20
HETATM   20  C11 UNL     1      84.734  24.589   1.708  1.00  0.00     0.200 C 
BRANCH  20  21
HETATM   21  O2  UNL     1      85.822  24.668   2.528  1.00  0.00    -0.398 OA
ATOM     22  H2  UNL     1      86.644  24.363   2.163  1.00  0.00     0.209 HD
ENDBRANCH  20  21
ENDBRANCH   6  20
BRANCH   1  23
HETATM   23  C2  UNL     1      80.716  26.463   1.461  1.00  0.00     0.197 C 
BRANCH  23  24
HETATM   24  N4  UNL     1      80.208  26.139   2.767  1.00  0.00    -0.121 NA
BRANCH  24  25
HETATM   25  N3  UNL     1      80.459  27.160   3.692  1.00  0.00    -0.246 N 
ATOM     26  H3  UNL     1      80.006  28.071   3.615  1.00  0.00     0.203 HD
BRANCH  25  27
HETATM   27  N2  UNL     1      81.355  26.877   4.724  1.00  0.00    -0.287 N 
HETATM   28  C1  UNL     1      82.123  27.848   5.126  1.00  0.00     0.207 C 
HETATM   29  N1  UNL     1      82.079  29.150   4.564  1.00  0.00    -0.095 NA
ATOM     30  H2  UNL     1      81.406  25.950   5.146  1.00  0.00     0.188 HD
ENDBRANCH  25  27
ENDBRANCH  24  25
ENDBRANCH  23  24
ENDBRANCH   1  23
TORSDOF 11
ENDMDL
MODEL 3
REMARK VINA RESULT: -8.299298756      1.724      2.501
REMARK  11 active torsions:
REMARK  status: ('A' for Active; 'I' for Inactive)
REMARK    1  A    between atoms: N2_3  and  N3_5 
REMARK    2  A    between atoms: N3_5  and  N4_7 
REMARK    3  A    between atoms: N4_7  and  C2_8 
REMARK    4  A    between atoms: C2_8  and  C3_9 
REMARK    5  A    between atoms: C4_13  and  N6_14 
REMARK       I    between atoms: N6_14  and  C5_16 
REMARK    6  A    between atoms: C5_16  and  C6_18 
REMARK    7  A    between atoms: C6_18  and  C7_19 
REMARK    8  A    between atoms: C7_19  and  C8_20 
REMARK    9  A    between atoms: C8_20  and  N7_21 
REMARK   10  A    between atoms: C10_26  and  C11_27 
REMARK   11  A    between atoms: C11_27  and  O2_28 
ROOT
HETATM    1  C3  UNL     1      81.214  26.179   3.191  1.00  0.00     0.340 C 
HETATM    2  N5  UNL     1      81.313  24.760   3.056  1.00  0.00    -0.024 N 
ATOM      3  H51 UNL     1      80.410  24.291   2.994  1.00  0.00     0.282 HD
ATOM      4  H52 UNL     1      81.636  24.291   3.903  1.00  0.00     0.282 HD
HETATM    5  C4  UNL     1      82.155  24.531   1.918  1.00  0.00     0.321 C 
HETATM    6  C10 UNL     1      82.135  25.853   1.229  1.00  0.00     0.198 C 
HETATM    7  O3  UNL     1      82.104  26.740   2.294  1.00  0.00    -0.346 OA
ENDROOT
BRANCH   5   8
HETATM    8  N6  UNL     1      81.804  23.406   1.121  1.00  0.00    -0.331 N 
HETATM    9  C5  UNL     1      82.766  22.630   0.409  1.00  0.00     0.219 C 
HETATM   10  O1  UNL     1      83.969  22.967   0.499  1.00  0.00    -0.274 OA
ATOM     11  H6  UNL     1      80.820  23.143   1.056  1.00  0.00     0.164 HD
BRANCH   9  12
HETATM   12  C6  UNL     1      82.314  21.499  -0.377  1.00  0.00     0.108 C 
BRANCH  12  13
HETATM   13  C7  UNL     1      83.295  20.594  -1.002  1.00  0.00     0.054 C 
BRANCH  13  14
HETATM   14  C8  UNL     1      83.317  19.169  -0.616  1.00  0.00     0.063 C 
BRANCH  14  15
HETATM   15  N7  UNL     1      83.994  18.791   0.560  1.00  0.00    -0.347 N 
HETATM   16  C9  UNL     1      84.526  17.645   0.805  1.00  0.00     0.200 C 
HETATM   17  N8  UNL     1      85.177  17.440   2.060  1.00  0.00    -0.067 NA
HETATM   18  N9  UNL     1      84.501  16.568  -0.107  1.00  0.00    -0.067 NA
ATOM     19  H7  UNL     1      84.072  19.498   1.293  1.00  0.00     0.167 HD
ENDBRANCH  14  15
ENDBRANCH  13  14
ENDBRANCH  12  13
ENDBRANCH   9  12
ENDBRANCH   5   8
BRANCH   6  20
HETATM   20  C11 UNL     1      81.032  26.041   0.257  1.00  0.00     0.200 C 
BRANCH  20  21
HETATM   21  O2  UNL     1      80.933  27.281  -0.306  1.00  0.00    -0.398 OA
ATOM     22  H2  UNL     1      81.572  27.486  -0.979  1.00  0.00     0.209 HD
ENDBRANCH  20  21
ENDBRANCH   6  20
BRANCH   1  23
HETATM   23  C2  UNL     1      81.564  26.603   4.629  1.00  0.00     0.197 C 
BRANCH  23  24
HETATM   24  N4  UNL     1      81.548  28.041   4.666  1.00  0.00    -0.121 NA
BRANCH  24  25
HETATM   25  N3  UNL     1      82.822  28.583   4.460  1.00  0.00    -0.246 N 
ATOM     26  H3  UNL     1      83.576  28.441   5.132  1.00  0.00     0.203 HD
BRANCH  25  27
HETATM   27  N2  UNL     1      83.016  29.326   3.295  1.00  0.00    -0.287 N 
HETATM   28  C1  UNL     1      84.032  29.004   2.547  1.00  0.00     0.207 C 
HETATM   29  N1  UNL     1      84.923  27.950   2.870  1.00  0.00    -0.095 NA
ATOM     30  H2  UNL     1      82.388  30.089   3.039  1.00  0.00     0.188 HD
ENDBRANCH  25  27
ENDBRANCH  24  25
ENDBRANCH  23  24
ENDBRANCH   1  23
TORSDOF 11
ENDMDL
MODEL 4
REMARK VINA RESULT: -8.264396643      1.722      2.550
REMARK  11 active torsions:
REMARK  status: ('A' for Active; 'I' for Inactive)
REMARK    1  A    between atoms: N2_3  and  N3_5 
REMARK    2  A    between atoms: N3_5  and  N4_7 
REMARK    3  A    between atoms: N4_7  and  C2_8 
REMARK    4  A    between atoms: C2_8  and  C3_9 
REMARK    5  A    between atoms: C4_13  and  N6_14 
REMARK       I    between atoms: N6_14  and  C5_16 
REMARK    6  A    between atoms: C5_16  and  C6_18 
REMARK    7  A    between atoms: C6_18  and  C7_19 
REMARK    8  A    between atoms: C7_19  and  C8_20 
REMARK    9  A    between atoms: C8_20  and  N7_21 
REMARK   10  A    between atoms: C10_26  and  C11_27 
REMARK   11  A    between atoms: C11_27  and  O2_28 
ROOT
HETATM    1  C3  UNL     1      83.607  26.589   2.701  1.00  0.00     0.340 C 
HETATM    2  N5  UNL     1      84.245  25.638   1.846  1.00  0.00    -0.024 N 
ATOM      3  H51 UNL     1      84.795  24.942   2.348  1.00  0.00     0.282 HD
ATOM      4  H52 UNL     1      85.014  26.030   1.300  1.00  0.00     0.282 HD
HETATM    5  C4  UNL     1      83.202  25.072   1.041  1.00  0.00     0.321 C 
HETATM    6  C10 UNL     1      81.971  25.447   1.795  1.00  0.00     0.198 C 
HETATM    7  O3  UNL     1      82.295  26.704   2.281  1.00  0.00    -0.346 OA
ENDROOT
BRANCH   5   8
HETATM    8  N6  UNL     1      83.353  23.689   0.739  1.00  0.00    -0.331 N 
HETATM    9  C5  UNL     1      84.607  23.105   0.390  1.00  0.00     0.219 C 
HETATM   10  O1  UNL     1      85.609  23.856   0.352  1.00  0.00    -0.274 OA
ATOM     11  H6  UNL     1      82.528  23.090   0.773  1.00  0.00     0.164 HD
BRANCH   9  12
HETATM   12  C6  UNL     1      84.664  21.686   0.098  1.00  0.00     0.108 C 
BRANCH  12  13
HETATM   13  C7  UNL     1      83.463  20.984  -0.387  1.00  0.00     0.054 C 
BRANCH  13  14
HETATM   14  C8  UNL     1      83.381  19.515  -0.262  1.00  0.00     0.063 C 
BRANCH  14  15
HETATM   15  N7  UNL     1      84.019  18.886   0.825  1.00  0.00    -0.347 N 
HETATM   16  C9  UNL     1      84.544  17.710   0.831  1.00  0.00     0.200 C 
HETATM   17  N8  UNL     1      85.153  17.233   2.032  1.00  0.00    -0.067 NA
HETATM   18  N9  UNL     1      84.550  16.858  -0.293  1.00  0.00    -0.067 NA
ATOM     19  H7  UNL     1      84.071  19.415   1.696  1.00  0.00     0.167 HD
ENDBRANCH  14  15
ENDBRANCH  13  14
ENDBRANCH  12  13
ENDBRANCH   9  12
ENDBRANCH   5   8
BRANCH   6  20
HETATM   20  C11 UNL     1      81.556  24.485   2.843  1.00  0.00     0.200 C 
BRANCH  20  21
HETATM   21  O2  UNL     1      80.697  24.962   3.790  1.00  0.00    -0.398 OA
ATOM     22  H2  UNL     1      81.006  24.933   4.688  1.00  0.00     0.209 HD
ENDBRANCH  20  21
ENDBRANCH   6  20
BRANCH   1  23
HETATM   23  C2  UNL     1      84.321  27.951   2.607  1.00  0.00     0.197 C 
BRANCH  23  24
HETATM   24  N4  UNL     1      83.314  28.941   2.335  1.00  0.00    -0.121 NA
BRANCH  24  25
HETATM   25  N3  UNL     1      82.847  29.547   3.507  1.00  0.00    -0.246 N 
ATOM     26  H3  UNL     1      83.291  30.382   3.889  1.00  0.00     0.203 HD
BRANCH  25  27
HETATM   27  N2  UNL     1      81.746  28.957   4.132  1.00  0.00    -0.287 N 
HETATM   28  C1  UNL     1      81.951  28.397   5.289  1.00  0.00     0.207 C 
HETATM   29  N1  UNL     1      83.221  28.368   5.919  1.00  0.00    -0.095 NA
ATOM     30  H2  UNL     1      80.821  28.965   3.701  1.00  0.00     0.188 HD
ENDBRANCH  25  27
ENDBRANCH  24  25
ENDBRANCH  23  24
ENDBRANCH   1  23
TORSDOF 11
ENDMDL
MODEL 5
REMARK VINA RESULT: -8.158678979      1.413      2.084
REMARK  11 active torsions:
REMARK  status: ('A' for Active; 'I' for Inactive)
REMARK    1  A    between atoms: N2_3  and  N3_5 
REMARK    2  A    between atoms: N3_5  and  N4_7 
REMARK    3  A    between atoms: N4_7  and  C2_8 
REMARK    4  A    between atoms: C2_8  and  C3_9 
REMARK    5  A    between atoms: C4_13  and  N6_14 
REMARK       I    between atoms: N6_14  and  C5_16 
REMARK    6  A    between atoms: C5_16  and  C6_18 
REMARK    7  A    between atoms: C6_18  and  C7_19 
REMARK    8  A    between atoms: C7_19  and  C8_20 
REMARK    9  A    between atoms: C8_20  and  N7_21 
REMARK   10  A    between atoms: C10_26  and  C11_27 
REMARK   11  A    between atoms: C11_27  and  O2_28 
ROOT
HETATM    1  C3  UNL     1      83.610  26.595   2.113  1.00  0.00     0.340 C 
HETATM    2  N5  UNL     1      82.801  25.417   2.065  1.00  0.00    -0.024 N 
ATOM      3  H51 UNL     1      82.307  25.298   1.181  1.00  0.00     0.282 HD
ATOM      4  H52 UNL     1      81.975  25.465   2.662  1.00  0.00     0.282 HD
HETATM    5  C4  UNL     1      83.677  24.327   2.383  1.00  0.00     0.321 C 
HETATM    6  C10 UNL     1      85.027  24.924   2.178  1.00  0.00     0.198 C 
HETATM    7  O3  UNL     1      84.843  26.226   2.618  1.00  0.00    -0.346 OA
ENDROOT
BRANCH   5   8
HETATM    8  N6  UNL     1      83.416  23.117   1.681  1.00  0.00    -0.331 N 
HETATM    9  C5  UNL     1      82.436  23.016   0.648  1.00  0.00     0.219 C 
HETATM   10  O1  UNL     1      81.787  24.047   0.359  1.00  0.00    -0.274 OA
ATOM     11  H6  UNL     1      83.952  22.285   1.928  1.00  0.00     0.164 HD
BRANCH   9  12
HETATM   12  C6  UNL     1      82.241  21.740  -0.012  1.00  0.00     0.108 C 
BRANCH  12  13
HETATM   13  C7  UNL     1      83.400  20.987  -0.521  1.00  0.00     0.054 C 
BRANCH  13  14
HETATM   14  C8  UNL     1      83.427  19.517  -0.388  1.00  0.00     0.063 C 
BRANCH  14  15
HETATM   15  N7  UNL     1      84.049  18.944   0.739  1.00  0.00    -0.347 N 
HETATM   16  C9  UNL     1      84.538  17.757   0.825  1.00  0.00     0.200 C 
HETATM   17  N8  UNL     1      85.136  17.345   2.056  1.00  0.00    -0.067 NA
HETATM   18  N9  UNL     1      84.515  16.830  -0.238  1.00  0.00    -0.067 NA
ATOM     19  H7  UNL     1      84.119  19.530   1.572  1.00  0.00     0.167 HD
ENDBRANCH  14  15
ENDBRANCH  13  14
ENDBRANCH  12  13
ENDBRANCH   9  12
ENDBRANCH   5   8
BRANCH   6  20
HETATM   20  C11 UNL     1      85.558  24.825   0.798  1.00  0.00     0.200 C 
BRANCH  20  21
HETATM   21  O2  UNL     1      86.695  25.535   0.540  1.00  0.00    -0.398 OA
ATOM     22  H2  UNL     1      86.759  25.920  -0.327  1.00  0.00     0.209 HD
ENDBRANCH  20  21
ENDBRANCH   6  20
BRANCH   1  23
HETATM   23  C2  UNL     1      82.955  27.654   3.020  1.00  0.00     0.197 C 
BRANCH  23  24
HETATM   24  N4  UNL     1      82.938  27.119   4.355  1.00  0.00    -0.121 NA
BRANCH  24  25
HETATM   25  N3  UNL     1      81.636  27.023   4.862  1.00  0.00    -0.246 N 
ATOM     26  H3  UNL     1      81.457  26.686   5.808  1.00  0.00     0.203 HD
BRANCH  25  27
HETATM   27  N2  UNL     1      80.595  27.410   4.017  1.00  0.00    -0.287 N 
HETATM   28  C1  UNL     1      79.872  26.462   3.494  1.00  0.00     0.207 C 
HETATM   29  N1  UNL     1      80.102  25.086   3.749  1.00  0.00    -0.095 NA
ATOM     30  H2  UNL     1      80.408  28.393   3.817  1.00  0.00     0.188 HD
ENDBRANCH  25  27
ENDBRANCH  24  25
ENDBRANCH  23  24
ENDBRANCH   1  23
TORSDOF 11
ENDMDL
