MODEL 1
REMARK VINA RESULT: -8.409884332      0.000      0.000
REMARK  13 active torsions:
REMARK  status: ('A' for Active; 'I' for Inactive)
REMARK    1  A    between atoms: N1_1  and  N2_4 
REMARK    2  A    between atoms: N2_4  and  C1_5 
REMARK    3  A    between atoms: C1_5  and  C2_6 
REMARK    4  A    between atoms: C3_7  and  N3_8 
REMARK    5  A    between atoms: N3_8  and  C4_10 
REMARK    6  A    between atoms: C5_12  and  N4_13 
REMARK    7  A    between atoms: C6_17  and  N5_18 
REMARK       I    between atoms: N5_18  and  C7_20 
REMARK    8  A    between atoms: C7_20  and  C8_22 
REMARK    9  A    between atoms: C8_22  and  N6_23 
REMARK   10  A    between atoms: C8_22  and  C9_27 
REMARK   11  A    between atoms: C9_27  and  C10_28 
REMARK   12  A    between atoms: C10_28  and  C11_29 
REMARK   13  A    between atoms: C11_29  and  N7_30 
ROOT
HETATM    1  C2  UNL     1      83.557  25.740   3.195  1.00  0.00     0.052 C 
HETATM    2  C3  UNL     1      82.164  26.069   3.767  1.00  0.00     0.123 C 
HETATM    3  C5  UNL     1      81.645  25.175   2.637  1.00  0.00     0.229 C 
HETATM    4  C6  UNL     1      82.993  24.465   2.815  1.00  0.00     0.124 C 
ENDROOT
BRANCH   4   5
HETATM    5  N5  UNL     1      83.384  23.722   1.676  1.00  0.00    -0.352 N 
HETATM    6  C7  UNL     1      82.742  22.675   1.035  1.00  0.00     0.248 C 
HETATM    7  O2  UNL     1      81.649  22.253   1.456  1.00  0.00    -0.271 OA
ATOM      8  H5  UNL     1      84.274  23.999   1.263  1.00  0.00     0.163 HD
BRANCH   6   9
HETATM    9  C8  UNL     1      83.316  22.020  -0.157  1.00  0.00     0.274 C 
BRANCH   9  10
HETATM   10  N6  UNL     1      84.651  21.543   0.167  1.00  0.00    -0.067 N 
ATOM     11  H63 UNL     1      85.227  22.264   0.602  1.00  0.00     0.275 HD
ATOM     12  H62 UNL     1      84.649  20.876   0.939  1.00  0.00     0.275 HD
ATOM     13  H61 UNL     1      85.077  21.160  -0.677  1.00  0.00     0.275 HD
ENDBRANCH   9  10
BRANCH   9  14
HETATM   14  C9  UNL     1      82.493  20.853  -0.603  1.00  0.00     0.044 C 
BRANCH  14  15
HETATM   15  C10 UNL     1      83.290  19.965  -1.505  1.00  0.00     0.022 C 
BRANCH  15  16
HETATM   16  C11 UNL     1      83.239  18.498  -1.124  1.00  0.00     0.122 C 
BRANCH  16  17
HETATM   17  N7  UNL     1      83.731  18.315   0.248  1.00  0.00    -0.367 N 
HETATM   18  C12 UNL     1      84.564  17.356   0.507  1.00  0.00     0.196 C 
HETATM   19  N8  UNL     1      85.017  17.204   1.834  1.00  0.00    -0.067 NA
HETATM   20  N9  UNL     1      85.025  16.468  -0.488  1.00  0.00    -0.067 NA
ATOM     21  H7  UNL     1      83.419  18.938   0.993  1.00  0.00     0.161 HD
ENDBRANCH  16  17
ENDBRANCH  15  16
ENDBRANCH  14  15
ENDBRANCH   9  14
ENDBRANCH   6   9
ENDBRANCH   4   5
BRANCH   1  22
HETATM   22  C1  UNL     1      83.955  26.780   2.226  1.00  0.00     0.143 C 
BRANCH  22  23
HETATM   23  N2  UNL     1      84.783  27.791   2.883  1.00  0.00    -0.148 NA
BRANCH  23  24
HETATM   24  N1  UNL     1      84.455  29.080   2.476  1.00  0.00    -0.348 N 
ATOM     25  H12 UNL     1      84.253  29.324   1.507  1.00  0.00     0.172 HD
ATOM     26  H11 UNL     1      84.442  29.736   3.258  1.00  0.00     0.172 HD
ENDBRANCH  23  24
ENDBRANCH  22  23
ENDBRANCH   1  22
BRANCH   3  27
HETATM   27  N4  UNL     1      80.539  24.332   3.013  1.00  0.00    -0.071 N 
ATOM     28  H43 UNL     1      80.006  24.759   3.771  1.00  0.00     0.274 HD
ATOM     29  H42 UNL     1      79.828  24.328   2.282  1.00  0.00     0.274 HD
ATOM     30  H41 UNL     1      80.807  23.378   3.258  1.00  0.00     0.274 HD
ENDBRANCH   3  27
BRANCH   2  31
HETATM   31  N3  UNL     1      81.744  27.411   3.616  1.00  0.00    -0.361 N 
ATOM     32  H3  UNL     1      81.467  27.755   2.696  1.00  0.00     0.162 HD
BRANCH  31  33
HETATM   33  C4  UNL     1      81.707  28.278   4.728  1.00  0.00     0.348 C 
HETATM   34  O1  UNL     1      82.255  29.408   4.734  1.00  0.00    -0.284 OA
ENDBRANCH  31  33
ENDBRANCH   2  31
TORSDOF 13
ENDMDL
MODEL 2
REMARK VINA RESULT: -8.317159912      1.312      1.570
REMARK  13 active torsions:
REMARK  status: ('A' for Active; 'I' for Inactive)
REMARK    1  A    between atoms: N1_1  and  N2_4 
REMARK    2  A    between atoms: N2_4  and  C1_5 
REMARK    3  A    between atoms: C1_5  and  C2_6 
REMARK    4  A    between atoms: C3_7  and  N3_8 
REMARK    5  A    between atoms: N3_8  and  C4_10 
REMARK    6  A    between atoms: C5_12  and  N4_13 
REMARK    7  A    between atoms: C6_17  and  N5_18 
REMARK       I    between atoms: N5_18  and  C7_20 
REMARK    8  A    between atoms: C7_20  and  C8_22 
REMARK    9  A    between atoms: C8_22  and  N6_23 
REMARK   10  A    between atoms: C8_22  and  C9_27 
REMARK   11  A    between atoms: C9_27  and  C10_28 
REMARK   12  A    between atoms: C10_28  and  C11_29 
REMARK   13  A    between atoms: C11_29  and  N7_30 
ROOT
HETATM    1  C2  UNL     1      83.000  25.676   2.882  1.00  0.00     0.052 C 
HETATM    2  C3  UNL     1      82.147  26.940   2.661  1.00  0.00     0.123 C 
HETATM    3  C5  UNL     1      82.147  26.512   1.191  1.00  0.00     0.229 C 
HETATM    4  C6  UNL     1      82.258  25.101   1.783  1.00  0.00     0.124 C 
ENDROOT
BRANCH   4   5
HETATM    5  N5  UNL     1      82.779  24.155   0.869  1.00  0.00    -0.352 N 
HETATM    6  C7  UNL     1      82.566  22.789   0.786  1.00  0.00     0.248 C 
HETATM    7  O2  UNL     1      81.818  22.216   1.601  1.00  0.00    -0.271 OA
ATOM      8  H5  UNL     1      83.408  24.538   0.163  1.00  0.00     0.163 HD
BRANCH   6   9
HETATM    9  C8  UNL     1      83.207  21.961  -0.254  1.00  0.00     0.274 C 
BRANCH   9  10
HETATM   10  N6  UNL     1      84.601  21.753   0.105  1.00  0.00    -0.067 N 
ATOM     11  H63 UNL     1      84.707  21.163   0.930  1.00  0.00     0.275 HD
ATOM     12  H62 UNL     1      85.090  21.156  -0.562  1.00  0.00     0.275 HD
ATOM     13  H61 UNL     1      85.051  22.662   0.216  1.00  0.00     0.275 HD
ENDBRANCH   9  10
BRANCH   9  14
HETATM   14  C9  UNL     1      82.550  20.623  -0.387  1.00  0.00     0.044 C 
BRANCH  14  15
HETATM   15  C10 UNL     1      83.014  19.933  -1.630  1.00  0.00     0.022 C 
BRANCH  15  16
HETATM   16  C11 UNL     1      83.559  18.539  -1.392  1.00  0.00     0.122 C 
BRANCH  16  17
HETATM   17  N7  UNL     1      83.879  18.358   0.031  1.00  0.00    -0.367 N 
HETATM   18  C12 UNL     1      84.591  17.339   0.401  1.00  0.00     0.196 C 
HETATM   19  N8  UNL     1      84.881  17.191   1.774  1.00  0.00    -0.067 NA
HETATM   20  N9  UNL     1      85.078  16.384  -0.515  1.00  0.00    -0.067 NA
ATOM     21  H7  UNL     1      83.544  19.028   0.722  1.00  0.00     0.161 HD
ENDBRANCH  16  17
ENDBRANCH  15  16
ENDBRANCH  14  15
ENDBRANCH   9  14
ENDBRANCH   6   9
ENDBRANCH   4   5
BRANCH   1  22
HETATM   22  C1  UNL     1      84.433  26.022   2.809  1.00  0.00     0.143 C 
BRANCH  22  23
HETATM   23  N2  UNL     1      85.203  24.885   2.307  1.00  0.00    -0.148 NA
BRANCH  23  24
HETATM   24  N1  UNL     1      85.790  25.154   1.076  1.00  0.00    -0.348 N 
ATOM     25  H12 UNL     1      85.278  25.116   0.194  1.00  0.00     0.172 HD
ATOM     26  H11 UNL     1      86.779  25.389   1.166  1.00  0.00     0.172 HD
ENDBRANCH  23  24
ENDBRANCH  22  23
ENDBRANCH   1  22
BRANCH   3  27
HETATM   27  N4  UNL     1      80.889  26.716   0.519  1.00  0.00    -0.071 N 
ATOM     28  H43 UNL     1      80.643  27.706   0.514  1.00  0.00     0.274 HD
ATOM     29  H42 UNL     1      80.991  26.559  -0.484  1.00  0.00     0.274 HD
ATOM     30  H41 UNL     1      80.122  26.157   0.893  1.00  0.00     0.274 HD
ENDBRANCH   3  27
BRANCH   2  31
HETATM   31  N3  UNL     1      82.819  28.170   2.855  1.00  0.00    -0.361 N 
ATOM     32  H3  UNL     1      83.520  28.476   2.179  1.00  0.00     0.162 HD
BRANCH  31  33
HETATM   33  C4  UNL     1      82.527  28.976   3.975  1.00  0.00     0.348 C 
HETATM   34  O1  UNL     1      81.607  28.711   4.787  1.00  0.00    -0.284 OA
ENDBRANCH  31  33
ENDBRANCH   2  31
TORSDOF 13
ENDMDL
MODEL 3
REMARK VINA RESULT: -7.999287638      1.484      2.429
REMARK  13 active torsions:
REMARK  status: ('A' for Active; 'I' for Inactive)
REMARK    1  A    between atoms: N1_1  and  N2_4 
REMARK    2  A    between atoms: N2_4  and  C1_5 
REMARK    3  A    between atoms: C1_5  and  C2_6 
REMARK    4  A    between atoms: C3_7  and  N3_8 
REMARK    5  A    between atoms: N3_8  and  C4_10 
REMARK    6  A    between atoms: C5_12  and  N4_13 
REMARK    7  A    between atoms: C6_17  and  N5_18 
REMARK       I    between atoms: N5_18  and  C7_20 
REMARK    8  A    between atoms: C7_20  and  C8_22 
REMARK    9  A    between atoms: C8_22  and  N6_23 
REMARK   10  A    between atoms: C8_22  and  C9_27 
REMARK   11  A    between atoms: C9_27  and  C10_28 
REMARK   12  A    between atoms: C10_28  and  C11_29 
REMARK   13  A    between atoms: C11_29  and  N7_30 
ROOT
HETATM    1  C2  UNL     1      81.977  26.579   1.356  1.00  0.00     0.052 C 
HETATM    2  C3  UNL     1      82.901  27.187   2.430  1.00  0.00     0.123 C 
HETATM    3  C5  UNL     1      83.254  25.731   2.748  1.00  0.00     0.229 C 
HETATM    4  C6  UNL     1      82.951  25.516   1.259  1.00  0.00     0.124 C 
ENDROOT
BRANCH   4   5
HETATM    5  N5  UNL     1      82.644  24.171   0.945  1.00  0.00    -0.352 N 
HETATM    6  C7  UNL     1      83.486  23.114   0.642  1.00  0.00     0.248 C 
HETATM    7  O2  UNL     1      84.720  23.278   0.616  1.00  0.00    -0.271 OA
ATOM      8  H5  UNL     1      81.649  23.945   0.940  1.00  0.00     0.163 HD
BRANCH   6   9
HETATM    9  C8  UNL     1      82.969  21.765   0.339  1.00  0.00     0.274 C 
BRANCH   9  10
HETATM   10  N6  UNL     1      81.752  21.895  -0.446  1.00  0.00    -0.067 N 
ATOM     11  H63 UNL     1      80.917  21.954   0.137  1.00  0.00     0.275 HD
ATOM     12  H62 UNL     1      81.675  22.807  -0.898  1.00  0.00     0.275 HD
ATOM     13  H61 UNL     1      81.707  21.125  -1.113  1.00  0.00     0.275 HD
ENDBRANCH   9  10
BRANCH   9  14
HETATM   14  C9  UNL     1      83.952  20.953  -0.445  1.00  0.00     0.044 C 
BRANCH  14  15
HETATM   15  C10 UNL     1      83.241  20.077  -1.427  1.00  0.00     0.022 C 
BRANCH  15  16
HETATM   16  C11 UNL     1      83.256  18.606  -1.060  1.00  0.00     0.122 C 
BRANCH  16  17
HETATM   17  N7  UNL     1      83.772  18.430   0.304  1.00  0.00    -0.367 N 
HETATM   18  C12 UNL     1      84.549  17.427   0.569  1.00  0.00     0.196 C 
HETATM   19  N8  UNL     1      85.028  17.283   1.889  1.00  0.00    -0.067 NA
HETATM   20  N9  UNL     1      84.926  16.483  -0.410  1.00  0.00    -0.067 NA
ATOM     21  H7  UNL     1      83.521  19.092   1.037  1.00  0.00     0.161 HD
ENDBRANCH  16  17
ENDBRANCH  15  16
ENDBRANCH  14  15
ENDBRANCH   9  14
ENDBRANCH   6   9
ENDBRANCH   4   5
BRANCH   1  22
HETATM   22  C1  UNL     1      80.621  26.398   1.910  1.00  0.00     0.143 C 
BRANCH  22  23
HETATM   23  N2  UNL     1      80.633  25.373   2.952  1.00  0.00    -0.148 NA
BRANCH  23  24
HETATM   24  N1  UNL     1      79.613  25.558   3.879  1.00  0.00    -0.348 N 
ATOM     25  H12 UNL     1      78.701  25.945   3.635  1.00  0.00     0.172 HD
ATOM     26  H11 UNL     1      79.888  25.262   4.816  1.00  0.00     0.172 HD
ENDBRANCH  23  24
ENDBRANCH  22  23
ENDBRANCH   1  22
BRANCH   3  27
HETATM   27  N4  UNL     1      84.647  25.516   3.049  1.00  0.00    -0.071 N 
ATOM     28  H43 UNL     1      84.927  26.073   3.857  1.00  0.00     0.274 HD
ATOM     29  H42 UNL     1      84.790  24.580   3.427  1.00  0.00     0.274 HD
ATOM     30  H41 UNL     1      85.274  25.685   2.263  1.00  0.00     0.274 HD
ENDBRANCH   3  27
BRANCH   2  31
HETATM   31  N3  UNL     1      82.244  27.820   3.511  1.00  0.00    -0.361 N 
ATOM     32  H3  UNL     1      81.349  28.285   3.358  1.00  0.00     0.162 HD
BRANCH  31  33
HETATM   33  C4  UNL     1      82.818  27.813   4.800  1.00  0.00     0.348 C 
HETATM   34  O1  UNL     1      82.431  28.569   5.725  1.00  0.00    -0.284 OA
ENDBRANCH  31  33
ENDBRANCH   2  31
TORSDOF 13
ENDMDL
MODEL 4
REMARK VINA RESULT: -7.931866242      1.646      2.174
REMARK  13 active torsions:
REMARK  status: ('A' for Active; 'I' for Inactive)
REMARK    1  A    between atoms: N1_1  and  N2_4 
REMARK    2  A    between atoms: N2_4  and  C1_5 
REMARK    3  A    between atoms: C1_5  and  C2_6 
REMARK    4  A    between atoms: C3_7  and  N3_8 
REMARK    5  A    between atoms: N3_8  and  C4_10 
REMARK    6  A    between atoms: C5_12  and  N4_13 
REMARK    7  A    between atoms: C6_17  and  N5_18 
REMARK       I    between atoms: N5_18  and  C7_20 
REMARK    8  A    between atoms: C7_20  and  C8_22 
REMARK    9  A    between atoms: C8_22  and  N6_23 
REMARK   10  A    between atoms: C8_22  and  C9_27 
REMARK   11  A    between atoms: C9_27  and  C10_28 
REMARK   12  A    between atoms: C10_28  and  C11_29 
REMARK   13  A    between atoms: C11_29  and  N7_30 
ROOT
HETATM    1  C2  UNL     1      82.219  25.243   3.030  1.00  0.00     0.052 C 
HETATM    2  C3  UNL     1      81.618  26.643   2.800  1.00  0.00     0.123 C 
HETATM    3  C5  UNL     1      82.064  26.442   1.349  1.00  0.00     0.229 C 
HETATM    4  C6  UNL     1      81.830  24.959   1.667  1.00  0.00     0.124 C 
ENDROOT
BRANCH   4   5
HETATM    5  N5  UNL     1      82.529  24.088   0.797  1.00  0.00    -0.352 N 
HETATM    6  C7  UNL     1      82.533  22.705   0.740  1.00  0.00     0.248 C 
HETATM    7  O2  UNL     1      81.849  22.038   1.539  1.00  0.00    -0.271 OA
ATOM      8  H5  UNL     1      83.120  24.551   0.106  1.00  0.00     0.163 HD
BRANCH   6   9
HETATM    9  C8  UNL     1      83.337  21.967  -0.254  1.00  0.00     0.274 C 
BRANCH   9  10
HETATM   10  N6  UNL     1      84.703  21.863   0.232  1.00  0.00    -0.067 N 
ATOM     11  H63 UNL     1      84.777  21.282   1.067  1.00  0.00     0.275 HD
ATOM     12  H62 UNL     1      85.294  21.304  -0.384  1.00  0.00     0.275 HD
ATOM     13  H61 UNL     1      85.073  22.802   0.378  1.00  0.00     0.275 HD
ENDBRANCH   9  10
BRANCH   9  14
HETATM   14  C9  UNL     1      82.811  20.585  -0.484  1.00  0.00     0.044 C 
BRANCH  14  15
HETATM   15  C10 UNL     1      83.627  19.582   0.269  1.00  0.00     0.022 C 
BRANCH  15  16
HETATM   16  C11 UNL     1      83.587  18.188  -0.325  1.00  0.00     0.122 C 
BRANCH  16  17
HETATM   17  N7  UNL     1      84.885  17.858  -0.929  1.00  0.00    -0.367 N 
HETATM   18  C12 UNL     1      85.027  17.924  -2.216  1.00  0.00     0.196 C 
HETATM   19  N8  UNL     1      86.286  17.600  -2.767  1.00  0.00    -0.067 NA
HETATM   20  N9  UNL     1      83.974  18.304  -3.074  1.00  0.00    -0.067 NA
ATOM     21  H7  UNL     1      85.669  17.579  -0.339  1.00  0.00     0.161 HD
ENDBRANCH  16  17
ENDBRANCH  15  16
ENDBRANCH  14  15
ENDBRANCH   9  14
ENDBRANCH   6   9
ENDBRANCH   4   5
BRANCH   1  22
HETATM   22  C1  UNL     1      83.621  25.369   3.472  1.00  0.00     0.143 C 
BRANCH  22  23
HETATM   23  N2  UNL     1      84.506  25.499   2.315  1.00  0.00    -0.148 NA
BRANCH  23  24
HETATM   24  N1  UNL     1      85.479  24.506   2.287  1.00  0.00    -0.348 N 
ATOM     25  H12 UNL     1      86.417  24.655   1.915  1.00  0.00     0.172 HD
ATOM     26  H11 UNL     1      85.140  23.626   2.679  1.00  0.00     0.172 HD
ENDBRANCH  23  24
ENDBRANCH  22  23
ENDBRANCH   1  22
BRANCH   3  27
HETATM   27  N4  UNL     1      81.128  26.936   0.372  1.00  0.00    -0.071 N 
ATOM     28  H43 UNL     1      81.484  26.784  -0.572  1.00  0.00     0.274 HD
ATOM     29  H42 UNL     1      80.298  26.344   0.341  1.00  0.00     0.274 HD
ATOM     30  H41 UNL     1      80.866  27.913   0.502  1.00  0.00     0.274 HD
ENDBRANCH   3  27
BRANCH   2  31
HETATM   31  N3  UNL     1      82.306  27.711   3.422  1.00  0.00    -0.361 N 
ATOM     32  H3  UNL     1      83.210  28.013   3.057  1.00  0.00     0.162 HD
BRANCH  31  33
HETATM   33  C4  UNL     1      81.752  28.361   4.545  1.00  0.00     0.348 C 
HETATM   34  O1  UNL     1      82.400  28.582   5.597  1.00  0.00    -0.284 OA
ENDBRANCH  31  33
ENDBRANCH   2  31
TORSDOF 13
ENDMDL
MODEL 5
REMARK VINA RESULT: -7.913269765      1.536      1.746
REMARK  13 active torsions:
REMARK  status: ('A' for Active; 'I' for Inactive)
REMARK    1  A    between atoms: N1_1  and  N2_4 
REMARK    2  A    between atoms: N2_4  and  C1_5 
REMARK    3  A    between atoms: C1_5  and  C2_6 
REMARK    4  A    between atoms: C3_7  and  N3_8 
REMARK    5  A    between atoms: N3_8  and  C4_10 
REMARK    6  A    between atoms: C5_12  and  N4_13 
REMARK    7  A    between atoms: C6_17  and  N5_18 
REMARK       I    between atoms: N5_18  and  C7_20 
REMARK    8  A    between atoms: C7_20  and  C8_22 
REMARK    9  A    between atoms: C8_22  and  N6_23 
REMARK   10  A    between atoms: C8_22  and  C9_27 
REMARK   11  A    between atoms: C9_27  and  C10_28 
REMARK   12  A    between atoms: C10_28  and  C11_29 
REMARK   13  A    between atoms: C11_29  and  N7_30 
ROOT
HETATM    1  C2  UNL     1      82.805  25.741   2.816  1.00  0.00     0.052 C 
HETATM    2  C3  UNL     1      81.866  26.411   3.838  1.00  0.00     0.123 C 
HETATM    3  C5  UNL     1      80.813  25.443   3.292  1.00  0.00     0.229 C 
HETATM    4  C6  UNL     1      82.027  24.543   3.033  1.00  0.00     0.124 C 
ENDROOT
BRANCH   4   5
HETATM    5  N5  UNL     1      81.786  23.553   2.050  1.00  0.00    -0.352 N 
HETATM    6  C7  UNL     1      82.676  22.870   1.239  1.00  0.00     0.248 C 
HETATM    7  O2  UNL     1      83.898  23.096   1.313  1.00  0.00    -0.271 OA
ATOM      8  H5  UNL     1      80.805  23.305   1.920  1.00  0.00     0.163 HD
BRANCH   6   9
HETATM    9  C8  UNL     1      82.225  21.858   0.263  1.00  0.00     0.274 C 
BRANCH   9  10
HETATM   10  N6  UNL     1      81.476  22.524  -0.790  1.00  0.00    -0.067 N 
ATOM     11  H63 UNL     1      80.839  21.892  -1.274  1.00  0.00     0.275 HD
ATOM     12  H62 UNL     1      80.781  23.174  -0.423  1.00  0.00     0.275 HD
ATOM     13  H61 UNL     1      82.134  22.975  -1.426  1.00  0.00     0.275 HD
ENDBRANCH   9  10
BRANCH   9  14
HETATM   14  C9  UNL     1      83.375  21.133  -0.361  1.00  0.00     0.044 C 
BRANCH  14  15
HETATM   15  C10 UNL     1      82.884  20.138  -1.364  1.00  0.00     0.022 C 
BRANCH  15  16
HETATM   16  C11 UNL     1      83.441  18.742  -1.168  1.00  0.00     0.122 C 
BRANCH  16  17
HETATM   17  N7  UNL     1      83.869  18.559   0.225  1.00  0.00    -0.367 N 
HETATM   18  C12 UNL     1      84.552  17.506   0.552  1.00  0.00     0.196 C 
HETATM   19  N8  UNL     1      84.948  17.358   1.898  1.00  0.00    -0.067 NA
HETATM   20  N9  UNL     1      84.908  16.515  -0.387  1.00  0.00    -0.067 NA
ATOM     21  H7  UNL     1      83.630  19.255   0.931  1.00  0.00     0.161 HD
ENDBRANCH  16  17
ENDBRANCH  15  16
ENDBRANCH  14  15
ENDBRANCH   9  14
ENDBRANCH   6   9
ENDBRANCH   4   5
BRANCH   1  22
HETATM   22  C1  UNL     1      82.796  26.506   1.554  1.00  0.00     0.143 C 
BRANCH  22  23
HETATM   23  N2  UNL     1      81.619  26.156   0.760  1.00  0.00    -0.148 NA
BRANCH  23  24
HETATM   24  N1  UNL     1      81.146  27.236   0.023  1.00  0.00    -0.348 N 
ATOM     25  H12 UNL     1      80.346  27.173  -0.607  1.00  0.00     0.172 HD
ATOM     26  H11 UNL     1      81.691  28.082   0.190  1.00  0.00     0.172 HD
ENDBRANCH  23  24
ENDBRANCH  22  23
ENDBRANCH   1  22
BRANCH   3  27
HETATM   27  N4  UNL     1      79.941  24.893   4.298  1.00  0.00    -0.071 N 
ATOM     28  H43 UNL     1      80.352  25.002   5.225  1.00  0.00     0.274 HD
ATOM     29  H42 UNL     1      79.110  25.475   4.408  1.00  0.00     0.274 HD
ATOM     30  H41 UNL     1      79.677  23.921   4.135  1.00  0.00     0.274 HD
ENDBRANCH   3  27
BRANCH   2  31
HETATM   31  N3  UNL     1      81.536  27.760   3.568  1.00  0.00    -0.361 N 
ATOM     32  H3  UNL     1      80.916  27.984   2.790  1.00  0.00     0.162 HD
BRANCH  31  33
HETATM   33  C4  UNL     1      82.059  28.798   4.368  1.00  0.00     0.348 C 
HETATM   34  O1  UNL     1      82.018  28.781   5.623  1.00  0.00    -0.284 OA
ENDBRANCH  31  33
ENDBRANCH   2  31
TORSDOF 13
ENDMDL
