MODEL 1
REMARK VINA RESULT: -8.203199853      0.000      0.000
REMARK  13 active torsions:
REMARK  status: ('A' for Active; 'I' for Inactive)
REMARK    1  A    between atoms: N1_1  and  C1_5 
REMARK    2  A    between atoms: C1_5  and  C2_6 
REMARK    3  A    between atoms: C4_8  and  C5_9 
REMARK    4  A    between atoms: C5_9  and  C6_10 
REMARK    5  A    between atoms: C5_9  and  N2_12 
REMARK    6  A    between atoms: N2_12  and  C7_14 
REMARK    7  A    between atoms: C7_14  and  C8_15 
REMARK    8  A    between atoms: C7_14  and  C9_17 
REMARK    9  A    between atoms: C9_17  and  N3_18 
REMARK   10  A    between atoms: C9_17  and  N4_22 
REMARK   11  A    between atoms: N4_22  and  C10_25 
REMARK   12  A    between atoms: C10_25  and  C11_26 
REMARK   13  A    between atoms: C11_26  and  N5_27 
ROOT
HETATM    1  C7  UNL     1      83.642  23.450   0.660  1.00  0.00     0.197 C 
ENDROOT
BRANCH   1   2
HETATM    2  N2  UNL     1      83.704  22.069   0.601  1.00  0.00    -0.396 N 
ATOM      3  H2  UNL     1      83.658  21.610   1.510  1.00  0.00     0.154 HD
BRANCH   2   4
HETATM    4  C5  UNL     1      83.816  21.208  -0.460  1.00  0.00     0.173 C 
BRANCH   4   5
HETATM    5  C4  UNL     1      84.424  19.881  -0.136  1.00  0.00     0.238 C 
HETATM    6  C3  UNL     1      84.609  18.911  -1.191  1.00  0.00     0.014 C 
HETATM    7  C2  UNL     1      84.674  17.718  -0.557  1.00  0.00    -0.031 C 
HETATM    8  C13 UNL     1      84.592  17.958   0.947  1.00  0.00     0.269 C 
HETATM    9  N8  UNL     1      83.833  19.186   0.958  1.00  0.00    -0.062 N 
ATOM     10  H82 UNL     1      83.828  19.689   1.845  1.00  0.00     0.278 HD
ATOM     11  H81 UNL     1      82.821  19.076   0.912  1.00  0.00     0.278 HD
BRANCH   7  12
HETATM   12  C1  UNL     1      84.833  16.347  -1.070  1.00  0.00     0.265 C 
BRANCH  12  13
HETATM   13  N1  UNL     1      86.044  16.109  -1.782  1.00  0.00    -0.076 N 
ATOM     14  H13 UNL     1      85.912  16.297  -2.775  1.00  0.00     0.274 HD
ATOM     15  H12 UNL     1      86.733  16.827  -1.556  1.00  0.00     0.274 HD
ATOM     16  H11 UNL     1      86.446  15.181  -1.649  1.00  0.00     0.274 HD
ENDBRANCH  12  13
ENDBRANCH   7  12
ENDBRANCH   4   5
BRANCH   4  17
HETATM   17  C6  UNL     1      82.384  20.782  -0.885  1.00  0.00     0.258 C 
HETATM   18  O1  UNL     1      81.527  21.699  -0.891  1.00  0.00    -0.305 OA
ENDBRANCH   4  17
ENDBRANCH   2   4
ENDBRANCH   1   2
BRANCH   1  19
HETATM   19  C8  UNL     1      84.863  23.917   1.460  1.00  0.00     0.259 C 
HETATM   20  O2  UNL     1      85.589  24.683   0.800  1.00  0.00    -0.305 OA
ENDBRANCH   1  19
BRANCH   1  21
HETATM   21  C9  UNL     1      82.494  24.025   1.398  1.00  0.00     0.408 C 
BRANCH  21  22
HETATM   22  N3  UNL     1      81.636  22.922   1.921  1.00  0.00    -0.048 N 
ATOM     23  H33 UNL     1      81.674  22.091   1.330  1.00  0.00     0.276 HD
ATOM     24  H32 UNL     1      82.014  22.511   2.775  1.00  0.00     0.276 HD
ATOM     25  H31 UNL     1      80.682  23.262   2.046  1.00  0.00     0.276 HD
ENDBRANCH  21  22
BRANCH  21  26
HETATM   26  N4  UNL     1      82.889  24.706   2.600  1.00  0.00    -0.042 N 
ATOM     27  H42 UNL     1      83.404  24.089   3.229  1.00  0.00     0.279 HD
ATOM     28  H41 UNL     1      83.622  25.392   2.419  1.00  0.00     0.279 HD
BRANCH  26  29
HETATM   29  C10 UNL     1      81.775  25.294   3.246  1.00  0.00     0.254 C 
BRANCH  29  30
HETATM   30  C11 UNL     1      81.986  26.446   4.176  1.00  0.00     0.149 C 
BRANCH  30  31
HETATM   31  N5  UNL     1      82.417  27.596   3.467  1.00  0.00    -0.365 N 
HETATM   32  C12 UNL     1      83.459  28.012   2.944  1.00  0.00     0.197 C 
HETATM   33  N6  UNL     1      84.736  27.342   2.898  1.00  0.00    -0.067 NA
HETATM   34  N7  UNL     1      83.462  29.324   2.290  1.00  0.00    -0.067 NA
ATOM     35  H5  UNL     1      81.657  28.267   3.358  1.00  0.00     0.161 HD
ENDBRANCH  30  31
ENDBRANCH  29  30
ENDBRANCH  26  29
ENDBRANCH  21  26
ENDBRANCH   1  21
TORSDOF 13
ENDMDL
MODEL 2
REMARK VINA RESULT: -8.097155279      1.358      1.433
REMARK  13 active torsions:
REMARK  status: ('A' for Active; 'I' for Inactive)
REMARK    1  A    between atoms: N1_1  and  C1_5 
REMARK    2  A    between atoms: C1_5  and  C2_6 
REMARK    3  A    between atoms: C4_8  and  C5_9 
REMARK    4  A    between atoms: C5_9  and  C6_10 
REMARK    5  A    between atoms: C5_9  and  N2_12 
REMARK    6  A    between atoms: N2_12  and  C7_14 
REMARK    7  A    between atoms: C7_14  and  C8_15 
REMARK    8  A    between atoms: C7_14  and  C9_17 
REMARK    9  A    between atoms: C9_17  and  N3_18 
REMARK   10  A    between atoms: C9_17  and  N4_22 
REMARK   11  A    between atoms: N4_22  and  C10_25 
REMARK   12  A    between atoms: C10_25  and  C11_26 
REMARK   13  A    between atoms: C11_26  and  N5_27 
ROOT
HETATM    1  C7  UNL     1      84.178  23.945   0.738  1.00  0.00     0.197 C 
ENDROOT
BRANCH   1   2
HETATM    2  N2  UNL     1      84.308  22.571   0.639  1.00  0.00    -0.396 N 
ATOM      3  H2  UNL     1      84.794  22.139   1.426  1.00  0.00     0.154 HD
BRANCH   2   4
HETATM    4  C5  UNL     1      83.902  21.685  -0.325  1.00  0.00     0.173 C 
BRANCH   4   5
HETATM    5  C4  UNL     1      84.417  20.290  -0.161  1.00  0.00     0.238 C 
HETATM    6  C3  UNL     1      84.683  19.492  -1.336  1.00  0.00     0.014 C 
HETATM    7  C2  UNL     1      84.630  18.211  -0.902  1.00  0.00    -0.031 C 
HETATM    8  C13 UNL     1      84.388  18.213   0.603  1.00  0.00     0.269 C 
HETATM    9  N8  UNL     1      83.681  19.465   0.736  1.00  0.00    -0.062 N 
ATOM     10  H82 UNL     1      83.594  19.820   1.688  1.00  0.00     0.278 HD
ATOM     11  H81 UNL     1      82.676  19.421   0.566  1.00  0.00     0.278 HD
BRANCH   7  12
HETATM   12  C1  UNL     1      84.793  16.933  -1.614  1.00  0.00     0.265 C 
BRANCH  12  13
HETATM   13  N1  UNL     1      85.544  15.946  -0.912  1.00  0.00    -0.076 N 
ATOM     14  H13 UNL     1      86.107  16.384  -0.183  1.00  0.00     0.274 HD
ATOM     15  H12 UNL     1      84.925  15.374  -0.338  1.00  0.00     0.274 HD
ATOM     16  H11 UNL     1      86.128  15.352  -1.500  1.00  0.00     0.274 HD
ENDBRANCH  12  13
ENDBRANCH   7  12
ENDBRANCH   4   5
BRANCH   4  17
HETATM   17  C6  UNL     1      82.375  21.457  -0.155  1.00  0.00     0.258 C 
HETATM   18  O1  UNL     1      81.792  20.939  -1.139  1.00  0.00    -0.305 OA
ENDBRANCH   4  17
ENDBRANCH   2   4
ENDBRANCH   1   2
BRANCH   1  19
HETATM   19  C8  UNL     1      85.543  24.491   1.172  1.00  0.00     0.259 C 
HETATM   20  O2  UNL     1      85.746  25.639   0.736  1.00  0.00    -0.305 OA
ENDBRANCH   1  19
BRANCH   1  21
HETATM   21  C9  UNL     1      83.249  24.442   1.778  1.00  0.00     0.408 C 
BRANCH  21  22
HETATM   22  N3  UNL     1      83.971  24.551   3.080  1.00  0.00    -0.048 N 
ATOM     23  H33 UNL     1      84.940  24.240   3.010  1.00  0.00     0.276 HD
ATOM     24  H32 UNL     1      84.148  25.521   3.342  1.00  0.00     0.276 HD
ATOM     25  H31 UNL     1      83.455  24.045   3.799  1.00  0.00     0.276 HD
ENDBRANCH  21  22
BRANCH  21  26
HETATM   26  N4  UNL     1      82.824  25.795   1.546  1.00  0.00    -0.042 N 
ATOM     27  H42 UNL     1      83.303  26.450   2.164  1.00  0.00     0.279 HD
ATOM     28  H41 UNL     1      83.166  26.147   0.651  1.00  0.00     0.279 HD
BRANCH  26  29
HETATM   29  C10 UNL     1      81.418  25.917   1.649  1.00  0.00     0.254 C 
BRANCH  29  30
HETATM   30  C11 UNL     1      80.776  25.913   2.999  1.00  0.00     0.149 C 
BRANCH  30  31
HETATM   31  N5  UNL     1      81.031  27.128   3.684  1.00  0.00    -0.365 N 
HETATM   32  C12 UNL     1      81.974  27.662   4.281  1.00  0.00     0.197 C 
HETATM   33  N6  UNL     1      83.293  27.115   4.486  1.00  0.00    -0.067 NA
HETATM   34  N7  UNL     1      81.793  28.991   4.873  1.00  0.00    -0.067 NA
ATOM     35  H5  UNL     1      80.207  27.730   3.685  1.00  0.00     0.161 HD
ENDBRANCH  30  31
ENDBRANCH  29  30
ENDBRANCH  26  29
ENDBRANCH  21  26
ENDBRANCH   1  21
TORSDOF 13
ENDMDL
MODEL 3
REMARK VINA RESULT: -7.535577165      1.351      1.954
REMARK  13 active torsions:
REMARK  status: ('A' for Active; 'I' for Inactive)
REMARK    1  A    between atoms: N1_1  and  C1_5 
REMARK    2  A    between atoms: C1_5  and  C2_6 
REMARK    3  A    between atoms: C4_8  and  C5_9 
REMARK    4  A    between atoms: C5_9  and  C6_10 
REMARK    5  A    between atoms: C5_9  and  N2_12 
REMARK    6  A    between atoms: N2_12  and  C7_14 
REMARK    7  A    between atoms: C7_14  and  C8_15 
REMARK    8  A    between atoms: C7_14  and  C9_17 
REMARK    9  A    between atoms: C9_17  and  N3_18 
REMARK   10  A    between atoms: C9_17  and  N4_22 
REMARK   11  A    between atoms: N4_22  and  C10_25 
REMARK   12  A    between atoms: C10_25  and  C11_26 
REMARK   13  A    between atoms: C11_26  and  N5_27 
ROOT
HETATM    1  C7  UNL     1      83.974  23.623   0.799  1.00  0.00     0.197 C 
ENDROOT
BRANCH   1   2
HETATM    2  N2  UNL     1      83.984  22.244   0.690  1.00  0.00    -0.396 N 
ATOM      3  H2  UNL     1      84.082  21.755   1.580  1.00  0.00     0.154 HD
BRANCH   2   4
HETATM    4  C5  UNL     1      83.887  21.416  -0.399  1.00  0.00     0.173 C 
BRANCH   4   5
HETATM    5  C4  UNL     1      84.453  20.045  -0.203  1.00  0.00     0.238 C 
HETATM    6  C3  UNL     1      84.635  19.187  -1.351  1.00  0.00     0.014 C 
HETATM    7  C2  UNL     1      84.656  17.932  -0.844  1.00  0.00    -0.031 C 
HETATM    8  C13 UNL     1      84.548  18.016   0.674  1.00  0.00     0.269 C 
HETATM    9  N8  UNL     1      83.821  19.257   0.800  1.00  0.00    -0.062 N 
ATOM     10  H82 UNL     1      83.810  19.665   1.735  1.00  0.00     0.278 HD
ATOM     11  H81 UNL     1      82.807  19.181   0.724  1.00  0.00     0.278 HD
BRANCH   7  12
HETATM   12  C1  UNL     1      84.790  16.619  -1.495  1.00  0.00     0.265 C 
BRANCH  12  13
HETATM   13  N1  UNL     1      85.984  15.910  -1.177  1.00  0.00    -0.076 N 
ATOM     14  H13 UNL     1      86.781  16.546  -1.168  1.00  0.00     0.274 HD
ATOM     15  H12 UNL     1      85.975  15.624  -0.197  1.00  0.00     0.274 HD
ATOM     16  H11 UNL     1      86.181  15.107  -1.776  1.00  0.00     0.274 HD
ENDBRANCH  12  13
ENDBRANCH   7  12
ENDBRANCH   4   5
BRANCH   4  17
HETATM   17  C6  UNL     1      82.385  21.087  -0.619  1.00  0.00     0.258 C 
HETATM   18  O1  UNL     1      81.598  22.059  -0.508  1.00  0.00    -0.305 OA
ENDBRANCH   4  17
ENDBRANCH   2   4
ENDBRANCH   1   2
BRANCH   1  19
HETATM   19  C8  UNL     1      85.349  24.037   1.335  1.00  0.00     0.259 C 
HETATM   20  O2  UNL     1      85.804  25.030   0.736  1.00  0.00    -0.305 OA
ENDBRANCH   1  19
BRANCH   1  21
HETATM   21  C9  UNL     1      83.025  24.196   1.780  1.00  0.00     0.408 C 
BRANCH  21  22
HETATM   22  N3  UNL     1      82.183  23.107   2.355  1.00  0.00    -0.048 N 
ATOM     23  H33 UNL     1      82.247  23.067   3.372  1.00  0.00     0.276 HD
ATOM     24  H32 UNL     1      81.186  23.309   2.279  1.00  0.00     0.276 HD
ATOM     25  H31 UNL     1      82.430  22.218   1.919  1.00  0.00     0.276 HD
ENDBRANCH  21  22
BRANCH  21  26
HETATM   26  N4  UNL     1      83.678  24.730   2.943  1.00  0.00    -0.042 N 
ATOM     27  H42 UNL     1      83.423  24.215   3.786  1.00  0.00     0.279 HD
ATOM     28  H41 UNL     1      84.679  24.532   2.935  1.00  0.00     0.279 HD
BRANCH  26  29
HETATM   29  C10 UNL     1      83.424  26.116   3.085  1.00  0.00     0.254 C 
BRANCH  29  30
HETATM   30  C11 UNL     1      82.646  26.605   4.263  1.00  0.00     0.149 C 
BRANCH  30  31
HETATM   31  N5  UNL     1      81.374  25.981   4.325  1.00  0.00    -0.365 N 
HETATM   32  C12 UNL     1      80.375  25.867   3.604  1.00  0.00     0.197 C 
HETATM   33  N6  UNL     1      80.185  26.425   2.287  1.00  0.00    -0.067 NA
HETATM   34  N7  UNL     1      79.223  25.099   4.086  1.00  0.00    -0.067 NA
ATOM     35  H5  UNL     1      81.248  25.488   5.209  1.00  0.00     0.161 HD
ENDBRANCH  30  31
ENDBRANCH  29  30
ENDBRANCH  26  29
ENDBRANCH  21  26
ENDBRANCH   1  21
TORSDOF 13
ENDMDL
MODEL 4
REMARK VINA RESULT: -7.487056241      1.801      8.321
REMARK  13 active torsions:
REMARK  status: ('A' for Active; 'I' for Inactive)
REMARK    1  A    between atoms: N1_1  and  C1_5 
REMARK    2  A    between atoms: C1_5  and  C2_6 
REMARK    3  A    between atoms: C4_8  and  C5_9 
REMARK    4  A    between atoms: C5_9  and  C6_10 
REMARK    5  A    between atoms: C5_9  and  N2_12 
REMARK    6  A    between atoms: N2_12  and  C7_14 
REMARK    7  A    between atoms: C7_14  and  C8_15 
REMARK    8  A    between atoms: C7_14  and  C9_17 
REMARK    9  A    between atoms: C9_17  and  N3_18 
REMARK   10  A    between atoms: C9_17  and  N4_22 
REMARK   11  A    between atoms: N4_22  and  C10_25 
REMARK   12  A    between atoms: C10_25  and  C11_26 
REMARK   13  A    between atoms: C11_26  and  N5_27 
ROOT
HETATM    1  C7  UNL     1      83.257  23.121   1.275  1.00  0.00     0.197 C 
ENDROOT
BRANCH   1   2
HETATM    2  N2  UNL     1      82.529  24.272   1.036  1.00  0.00    -0.396 N 
ATOM      3  H2  UNL     1      82.700  24.693   0.122  1.00  0.00     0.154 HD
BRANCH   2   4
HETATM    4  C5  UNL     1      81.619  24.951   1.805  1.00  0.00     0.173 C 
BRANCH   4   5
HETATM    5  C4  UNL     1      82.203  25.702   2.959  1.00  0.00     0.238 C 
HETATM    6  C3  UNL     1      81.344  26.544   3.760  1.00  0.00     0.014 C 
HETATM    7  C2  UNL     1      82.180  27.434   4.344  1.00  0.00    -0.031 C 
HETATM    8  C13 UNL     1      83.612  27.096   3.944  1.00  0.00     0.269 C 
HETATM    9  N8  UNL     1      83.368  26.467   2.668  1.00  0.00    -0.062 N 
ATOM     10  H82 UNL     1      84.152  25.942   2.281  1.00  0.00     0.278 HD
ATOM     11  H81 UNL     1      83.287  27.103   1.874  1.00  0.00     0.278 HD
BRANCH   7  12
HETATM   12  C1  UNL     1      81.923  28.561   5.255  1.00  0.00     0.265 C 
BRANCH  12  13
HETATM   13  N1  UNL     1      83.025  28.928   6.081  1.00  0.00    -0.076 N 
ATOM     14  H13 UNL     1      82.832  28.688   7.054  1.00  0.00     0.274 HD
ATOM     15  H12 UNL     1      83.821  28.316   5.901  1.00  0.00     0.274 HD
ATOM     16  H11 UNL     1      83.310  29.906   6.010  1.00  0.00     0.274 HD
ENDBRANCH  12  13
ENDBRANCH   7  12
ENDBRANCH   4   5
BRANCH   4  17
HETATM   17  C6  UNL     1      81.044  26.115   0.954  1.00  0.00     0.258 C 
HETATM   18  O1  UNL     1      81.890  26.781   0.307  1.00  0.00    -0.305 OA
ENDBRANCH   4  17
ENDBRANCH   2   4
ENDBRANCH   1   2
BRANCH   1  19
HETATM   19  C8  UNL     1      84.626  23.313   0.611  1.00  0.00     0.259 C 
HETATM   20  O2  UNL     1      85.253  24.268   1.104  1.00  0.00    -0.305 OA
ENDBRANCH   1  19
BRANCH   1  21
HETATM   21  C9  UNL     1      82.738  21.877   0.663  1.00  0.00     0.408 C 
BRANCH  21  22
HETATM   22  N3  UNL     1      81.746  22.220  -0.398  1.00  0.00    -0.048 N 
ATOM     23  H33 UNL     1      82.166  22.236  -1.327  1.00  0.00     0.276 HD
ATOM     24  H32 UNL     1      81.074  21.468  -0.555  1.00  0.00     0.276 HD
ATOM     25  H31 UNL     1      81.290  23.102  -0.166  1.00  0.00     0.276 HD
ENDBRANCH  21  22
BRANCH  21  26
HETATM   26  N4  UNL     1      83.741  21.156  -0.072  1.00  0.00    -0.042 N 
ATOM     27  H42 UNL     1      84.486  21.773  -0.393  1.00  0.00     0.279 HD
ATOM     28  H41 UNL     1      84.290  20.551   0.539  1.00  0.00     0.279 HD
BRANCH  26  29
HETATM   29  C10 UNL     1      83.169  20.430  -1.144  1.00  0.00     0.254 C 
BRANCH  29  30
HETATM   30  C11 UNL     1      83.124  18.937  -1.082  1.00  0.00     0.149 C 
BRANCH  30  31
HETATM   31  N5  UNL     1      83.754  18.460   0.096  1.00  0.00    -0.365 N 
HETATM   32  C12 UNL     1      84.483  17.516   0.426  1.00  0.00     0.197 C 
HETATM   33  N6  UNL     1      84.978  16.461  -0.425  1.00  0.00    -0.067 NA
HETATM   34  N7  UNL     1      84.919  17.396   1.820  1.00  0.00    -0.067 NA
ATOM     35  H5  UNL     1      83.550  19.063   0.892  1.00  0.00     0.161 HD
ENDBRANCH  30  31
ENDBRANCH  29  30
ENDBRANCH  26  29
ENDBRANCH  21  26
ENDBRANCH   1  21
TORSDOF 13
ENDMDL
MODEL 5
REMARK VINA RESULT: -7.364647273      1.625      2.219
REMARK  13 active torsions:
REMARK  status: ('A' for Active; 'I' for Inactive)
REMARK    1  A    between atoms: N1_1  and  C1_5 
REMARK    2  A    between atoms: C1_5  and  C2_6 
REMARK    3  A    between atoms: C4_8  and  C5_9 
REMARK    4  A    between atoms: C5_9  and  C6_10 
REMARK    5  A    between atoms: C5_9  and  N2_12 
REMARK    6  A    between atoms: N2_12  and  C7_14 
REMARK    7  A    between atoms: C7_14  and  C8_15 
REMARK    8  A    between atoms: C7_14  and  C9_17 
REMARK    9  A    between atoms: C9_17  and  N3_18 
REMARK   10  A    between atoms: C9_17  and  N4_22 
REMARK   11  A    between atoms: N4_22  and  C10_25 
REMARK   12  A    between atoms: C10_25  and  C11_26 
REMARK   13  A    between atoms: C11_26  and  N5_27 
ROOT
HETATM    1  C7  UNL     1      81.870  24.014   1.107  1.00  0.00     0.197 C 
ENDROOT
BRANCH   1   2
HETATM    2  N2  UNL     1      82.503  23.034   0.362  1.00  0.00    -0.396 N 
ATOM      3  H2  UNL     1      82.232  23.016  -0.621  1.00  0.00     0.154 HD
BRANCH   2   4
HETATM    4  C5  UNL     1      83.428  22.083   0.709  1.00  0.00     0.173 C 
BRANCH   4   5
HETATM    5  C4  UNL     1      83.260  20.761   0.029  1.00  0.00     0.238 C 
HETATM    6  C3  UNL     1      84.422  19.934  -0.202  1.00  0.00     0.014 C 
HETATM    7  C2  UNL     1      84.068  19.120  -1.223  1.00  0.00    -0.031 C 
HETATM    8  C13 UNL     1      82.617  19.404  -1.596  1.00  0.00     0.269 C 
HETATM    9  N8  UNL     1      82.527  20.787  -1.191  1.00  0.00    -0.062 N 
ATOM     10  H82 UNL     1      81.581  21.163  -1.126  1.00  0.00     0.278 HD
ATOM     11  H81 UNL     1      82.847  21.467  -1.880  1.00  0.00     0.278 HD
BRANCH   7  12
HETATM   12  C1  UNL     1      84.812  18.068  -1.936  1.00  0.00     0.265 C 
BRANCH  12  13
HETATM   13  N1  UNL     1      84.936  16.837  -1.230  1.00  0.00    -0.076 N 
ATOM     14  H13 UNL     1      85.911  16.537  -1.211  1.00  0.00     0.274 HD
ATOM     15  H12 UNL     1      84.776  16.983  -0.233  1.00  0.00     0.274 HD
ATOM     16  H11 UNL     1      84.342  16.082  -1.574  1.00  0.00     0.274 HD
ENDBRANCH  12  13
ENDBRANCH   7  12
ENDBRANCH   4   5
BRANCH   4  17
HETATM   17  C6  UNL     1      84.807  22.530   0.152  1.00  0.00     0.258 C 
HETATM   18  O1  UNL     1      85.300  23.553   0.687  1.00  0.00    -0.305 OA
ENDBRANCH   4  17
ENDBRANCH   2   4
ENDBRANCH   1   2
BRANCH   1  19
HETATM   19  C8  UNL     1      82.470  25.358   0.675  1.00  0.00     0.259 C 
HETATM   20  O2  UNL     1      81.661  26.294   0.808  1.00  0.00    -0.305 OA
ENDBRANCH   1  19
BRANCH   1  21
HETATM   21  C9  UNL     1      82.100  23.978   2.569  1.00  0.00     0.408 C 
BRANCH  21  22
HETATM   22  N3  UNL     1      83.441  24.556   2.878  1.00  0.00    -0.048 N 
ATOM     23  H33 UNL     1      83.760  25.197   2.151  1.00  0.00     0.276 HD
ATOM     24  H32 UNL     1      83.405  25.219   3.652  1.00  0.00     0.276 HD
ATOM     25  H31 UNL     1      84.107  23.802   3.047  1.00  0.00     0.276 HD
ENDBRANCH  21  22
BRANCH  21  26
HETATM   26  N4  UNL     1      81.214  24.845   3.295  1.00  0.00    -0.042 N 
ATOM     27  H42 UNL     1      80.641  25.407   2.665  1.00  0.00     0.279 HD
ATOM     28  H41 UNL     1      80.471  24.321   3.757  1.00  0.00     0.279 HD
BRANCH  26  29
HETATM   29  C10 UNL     1      81.926  25.655   4.213  1.00  0.00     0.254 C 
BRANCH  29  30
HETATM   30  C11 UNL     1      81.497  27.071   4.432  1.00  0.00     0.149 C 
BRANCH  30  31
HETATM   31  N5  UNL     1      82.199  27.951   3.569  1.00  0.00    -0.365 N 
HETATM   32  C12 UNL     1      83.358  28.106   3.165  1.00  0.00     0.197 C 
HETATM   33  N6  UNL     1      84.512  27.312   3.512  1.00  0.00    -0.067 NA
HETATM   34  N7  UNL     1      83.658  29.202   2.239  1.00  0.00    -0.067 NA
ATOM     35  H5  UNL     1      81.574  28.651   3.170  1.00  0.00     0.161 HD
ENDBRANCH  30  31
ENDBRANCH  29  30
ENDBRANCH  26  29
ENDBRANCH  21  26
ENDBRANCH   1  21
TORSDOF 13
ENDMDL
