MODEL 1
REMARK VINA RESULT: -8.933774719      0.000      0.000
REMARK  10 active torsions:
REMARK  status: ('A' for Active; 'I' for Inactive)
REMARK    1  A    between atoms: O1_3  and  C2_4 
REMARK    2  A    between atoms: C2_4  and  N4_20 
REMARK    3  A    between atoms: N2_5  and  C3_7 
REMARK    4  A    between atoms: C3_7  and  C4_8 
REMARK       I    between atoms: C4_8  and  N3_10 
REMARK    5  A    between atoms: N3_10  and  C5_12 
REMARK    6  A    between atoms: C5_12  and  C6_13 
REMARK    7  A    between atoms: C5_12  and  C7_15 
REMARK    8  A    between atoms: C7_15  and  O4_16 
REMARK    9  A    between atoms: C7_15  and  O5_18 
REMARK       I    between atoms: N4_20  and  C8_22 
REMARK       I    between atoms: C8_22  and  N6_26 
REMARK   10  A    between atoms: N6_26  and  N7_28 
ROOT
HETATM    1  N1  UNL     1      16.321  43.239  -2.503  1.00  0.00    -0.163 NA
HETATM    2  C1  UNL     1      15.760  44.260  -2.513  1.00  0.00     0.236 C 
HETATM    3  O1  UNL     1      15.114  45.483  -2.538  1.00  0.00    -0.205 OA
ENDROOT
BRANCH   3   4
HETATM    4  C2  UNL     1      13.747  45.525  -2.350  1.00  0.00     0.249 C 
HETATM    5  N2  UNL     1      13.229  46.359  -1.578  1.00  0.00    -0.346 N 
ATOM      6  H2  UNL     1      12.214  46.282  -1.531  1.00  0.00     0.163 HD
BRANCH   5   7
HETATM    7  C3  UNL     1      13.746  47.383  -0.757  1.00  0.00     0.226 C 
BRANCH   7   8
HETATM    8  C4  UNL     1      12.799  48.557  -0.648  1.00  0.00     0.236 C 
HETATM    9  O2  UNL     1      11.633  48.516  -1.112  1.00  0.00    -0.272 OA
HETATM   10  N3  UNL     1      13.215  49.753  -0.005  1.00  0.00    -0.344 N 
ATOM     11  H3  UNL     1      14.159  49.803   0.377  1.00  0.00     0.163 HD
BRANCH  10  12
HETATM   12  C5  UNL     1      12.358  50.890   0.124  1.00  0.00     0.200 C 
BRANCH  12  13
HETATM   13  C6  UNL     1      13.137  52.167   0.231  1.00  0.00     0.261 C 
HETATM   14  O3  UNL     1      13.772  52.380   1.236  1.00  0.00    -0.304 OA
ENDBRANCH  12  13
BRANCH  12  15
HETATM   15  C7  UNL     1      11.524  50.779   1.378  1.00  0.00     0.283 C 
BRANCH  15  16
HETATM   16  O4  UNL     1      10.387  49.989   1.125  1.00  0.00    -0.369 OA
ATOM     17  H4  UNL     1       9.745  50.122   1.813  1.00  0.00     0.212 HD
ENDBRANCH  15  16
BRANCH  15  18
HETATM   18  O5  UNL     1      11.182  52.018   1.888  1.00  0.00    -0.369 OA
ATOM     19  H5  UNL     1      11.884  52.401   2.401  1.00  0.00     0.212 HD
ENDBRANCH  15  18
ENDBRANCH  12  15
ENDBRANCH  10  12
ENDBRANCH   7   8
ENDBRANCH   5   7
BRANCH   4  20
HETATM   20  N4  UNL     1      12.952  44.590  -3.065  1.00  0.00    -0.153 N 
HETATM   21  C8  UNL     1      11.995  43.802  -2.382  1.00  0.00     0.694 C 
HETATM   22  N5  UNL     1      10.912  44.341  -1.934  1.00  0.00    -0.233 N 
HETATM   23  N6  UNL     1      12.189  42.409  -2.169  1.00  0.00    -0.118 N 
ATOM     24  H52 UNL     1      10.773  45.340  -2.088  1.00  0.00     0.174 HD
ATOM     25  H51 UNL     1      10.222  43.773  -1.442  1.00  0.00     0.174 HD
ATOM     26  H6  UNL     1      11.724  41.960  -1.379  1.00  0.00     0.207 HD
ATOM     27  H4  UNL     1      13.071  44.487  -4.073  1.00  0.00     0.188 HD
BRANCH  23  28
HETATM   28  N7  UNL     1      12.998  41.638  -3.011  1.00  0.00    -0.235 N 
HETATM   29  N8  UNL     1      14.018  41.019  -2.579  1.00  0.00    -0.330 N 
ATOM     30  H82 UNL     1      14.241  41.096  -1.587  1.00  0.00     0.178 HD
ATOM     31  H81 UNL     1      14.608  40.457  -3.193  1.00  0.00     0.178 HD
ATOM     32  H7  UNL     1      12.761  41.572  -4.001  1.00  0.00     0.208 HD
ENDBRANCH  23  28
ENDBRANCH   4  20
ENDBRANCH   3   4
TORSDOF 10
ENDMDL
MODEL 2
REMARK VINA RESULT: -8.804742714      0.993      1.189
REMARK  10 active torsions:
REMARK  status: ('A' for Active; 'I' for Inactive)
REMARK    1  A    between atoms: O1_3  and  C2_4 
REMARK    2  A    between atoms: C2_4  and  N4_20 
REMARK    3  A    between atoms: N2_5  and  C3_7 
REMARK    4  A    between atoms: C3_7  and  C4_8 
REMARK       I    between atoms: C4_8  and  N3_10 
REMARK    5  A    between atoms: N3_10  and  C5_12 
REMARK    6  A    between atoms: C5_12  and  C6_13 
REMARK    7  A    between atoms: C5_12  and  C7_15 
REMARK    8  A    between atoms: C7_15  and  O4_16 
REMARK    9  A    between atoms: C7_15  and  O5_18 
REMARK       I    between atoms: N4_20  and  C8_22 
REMARK       I    between atoms: C8_22  and  N6_26 
REMARK   10  A    between atoms: N6_26  and  N7_28 
ROOT
HETATM    1  N1  UNL     1      16.098  43.301  -2.500  1.00  0.00    -0.163 NA
HETATM    2  C1  UNL     1      15.633  44.368  -2.520  1.00  0.00     0.236 C 
HETATM    3  O1  UNL     1      15.102  45.645  -2.551  1.00  0.00    -0.205 OA
ENDROOT
BRANCH   3   4
HETATM    4  C2  UNL     1      13.734  45.804  -2.635  1.00  0.00     0.249 C 
HETATM    5  N2  UNL     1      13.124  46.557  -1.848  1.00  0.00    -0.346 N 
ATOM      6  H2  UNL     1      12.119  46.583  -2.019  1.00  0.00     0.163 HD
BRANCH   5   7
HETATM    7  C3  UNL     1      13.524  47.379  -0.773  1.00  0.00     0.226 C 
BRANCH   7   8
HETATM    8  C4  UNL     1      12.658  48.612  -0.646  1.00  0.00     0.236 C 
HETATM    9  O2  UNL     1      11.471  48.636  -1.057  1.00  0.00    -0.272 OA
HETATM   10  N3  UNL     1      13.176  49.790  -0.047  1.00  0.00    -0.344 N 
ATOM     11  H3  UNL     1      14.138  49.787   0.292  1.00  0.00     0.163 HD
BRANCH  10  12
HETATM   12  C5  UNL     1      12.398  50.980   0.096  1.00  0.00     0.200 C 
BRANCH  12  13
HETATM   13  C6  UNL     1      13.255  52.211   0.095  1.00  0.00     0.261 C 
HETATM   14  O3  UNL     1      12.825  53.220  -0.409  1.00  0.00    -0.304 OA
ENDBRANCH  12  13
BRANCH  12  15
HETATM   15  C7  UNL     1      11.655  50.966   1.411  1.00  0.00     0.283 C 
BRANCH  15  16
HETATM   16  O4  UNL     1      10.497  50.176   1.296  1.00  0.00    -0.369 OA
ATOM     17  H4  UNL     1      10.739  49.262   1.207  1.00  0.00     0.212 HD
ENDBRANCH  15  16
BRANCH  15  18
HETATM   18  O5  UNL     1      11.361  52.242   1.858  1.00  0.00    -0.369 OA
ATOM     19  H5  UNL     1      10.651  52.639   1.368  1.00  0.00     0.212 HD
ENDBRANCH  15  18
ENDBRANCH  12  15
ENDBRANCH  10  12
ENDBRANCH   7   8
ENDBRANCH   5   7
BRANCH   4  20
HETATM   20  N4  UNL     1      13.046  45.083  -3.648  1.00  0.00    -0.153 N 
HETATM   21  C8  UNL     1      11.632  45.046  -3.657  1.00  0.00     0.694 C 
HETATM   22  N5  UNL     1      10.958  46.097  -3.984  1.00  0.00    -0.233 N 
HETATM   23  N6  UNL     1      10.912  43.869  -3.313  1.00  0.00    -0.118 N 
ATOM     24  H52 UNL     1      11.474  46.941  -4.231  1.00  0.00     0.174 HD
ATOM     25  H51 UNL     1       9.938  46.070  -3.991  1.00  0.00     0.174 HD
ATOM     26  H6  UNL     1       9.962  43.957  -2.952  1.00  0.00     0.207 HD
ATOM     27  H4  UNL     1      13.573  44.591  -4.369  1.00  0.00     0.188 HD
BRANCH  23  28
HETATM   28  N7  UNL     1      11.470  42.593  -3.456  1.00  0.00    -0.235 N 
HETATM   29  N8  UNL     1      12.033  41.994  -2.488  1.00  0.00    -0.330 N 
ATOM     30  H82 UNL     1      12.071  42.471  -1.587  1.00  0.00     0.178 HD
ATOM     31  H81 UNL     1      12.440  41.065  -2.592  1.00  0.00     0.178 HD
ATOM     32  H7  UNL     1      11.423  42.131  -4.364  1.00  0.00     0.208 HD
ENDBRANCH  23  28
ENDBRANCH   4  20
ENDBRANCH   3   4
TORSDOF 10
ENDMDL
MODEL 3
REMARK VINA RESULT: -8.573118064      1.594      2.528
REMARK  10 active torsions:
REMARK  status: ('A' for Active; 'I' for Inactive)
REMARK    1  A    between atoms: O1_3  and  C2_4 
REMARK    2  A    between atoms: C2_4  and  N4_20 
REMARK    3  A    between atoms: N2_5  and  C3_7 
REMARK    4  A    between atoms: C3_7  and  C4_8 
REMARK       I    between atoms: C4_8  and  N3_10 
REMARK    5  A    between atoms: N3_10  and  C5_12 
REMARK    6  A    between atoms: C5_12  and  C6_13 
REMARK    7  A    between atoms: C5_12  and  C7_15 
REMARK    8  A    between atoms: C7_15  and  O4_16 
REMARK    9  A    between atoms: C7_15  and  O5_18 
REMARK       I    between atoms: N4_20  and  C8_22 
REMARK       I    between atoms: C8_22  and  N6_26 
REMARK   10  A    between atoms: N6_26  and  N7_28 
ROOT
HETATM    1  N1  UNL     1      15.474  44.273  -2.517  1.00  0.00    -0.163 NA
HETATM    2  C1  UNL     1      14.455  44.756  -2.806  1.00  0.00     0.236 C 
HETATM    3  O1  UNL     1      13.249  45.325  -3.175  1.00  0.00    -0.205 OA
ENDROOT
BRANCH   3   4
HETATM    4  C2  UNL     1      12.229  45.398  -2.248  1.00  0.00     0.249 C 
HETATM    5  N2  UNL     1      12.230  46.272  -1.357  1.00  0.00    -0.346 N 
ATOM      6  H2  UNL     1      11.420  46.214  -0.739  1.00  0.00     0.163 HD
BRANCH   5   7
HETATM    7  C3  UNL     1      13.109  47.323  -1.019  1.00  0.00     0.226 C 
BRANCH   7   8
HETATM    8  C4  UNL     1      12.379  48.630  -0.805  1.00  0.00     0.236 C 
HETATM    9  O2  UNL     1      11.202  48.806  -1.204  1.00  0.00    -0.272 OA
HETATM   10  N3  UNL     1      13.021  49.705  -0.137  1.00  0.00    -0.344 N 
ATOM     11  H3  UNL     1      13.977  49.578   0.194  1.00  0.00     0.163 HD
BRANCH  10  12
HETATM   12  C5  UNL     1      12.374  50.960   0.090  1.00  0.00     0.200 C 
BRANCH  12  13
HETATM   13  C6  UNL     1      13.354  52.094   0.124  1.00  0.00     0.261 C 
HETATM   14  O3  UNL     1      13.054  53.139  -0.401  1.00  0.00    -0.304 OA
ENDBRANCH  12  13
BRANCH  12  15
HETATM   15  C7  UNL     1      11.666  50.953   1.424  1.00  0.00     0.283 C 
BRANCH  15  16
HETATM   16  O4  UNL     1      10.495  50.177   1.338  1.00  0.00    -0.369 OA
ATOM     17  H4  UNL     1      10.548  49.448   1.945  1.00  0.00     0.212 HD
ENDBRANCH  15  16
BRANCH  15  18
HETATM   18  O5  UNL     1      11.400  52.230   1.881  1.00  0.00    -0.369 OA
ATOM     19  H5  UNL     1      10.507  52.321   2.192  1.00  0.00     0.212 HD
ENDBRANCH  15  18
ENDBRANCH  12  15
ENDBRANCH  10  12
ENDBRANCH   7   8
ENDBRANCH   5   7
BRANCH   4  20
HETATM   20  N4  UNL     1      11.179  44.446  -2.345  1.00  0.00    -0.153 N 
HETATM   21  C8  UNL     1      10.862  43.861  -3.594  1.00  0.00     0.694 C 
HETATM   22  N5  UNL     1      11.659  42.997  -4.126  1.00  0.00    -0.233 N 
HETATM   23  N6  UNL     1       9.673  44.198  -4.297  1.00  0.00    -0.118 N 
ATOM     24  H52 UNL     1      12.512  42.755  -3.620  1.00  0.00     0.174 HD
ATOM     25  H51 UNL     1      11.431  42.575  -5.026  1.00  0.00     0.174 HD
ATOM     26  H6  UNL     1       9.650  44.090  -5.312  1.00  0.00     0.207 HD
ATOM     27  H4  UNL     1      10.652  44.183  -1.512  1.00  0.00     0.188 HD
BRANCH  23  28
HETATM   28  N7  UNL     1       8.534  44.674  -3.638  1.00  0.00    -0.235 N 
HETATM   29  N8  UNL     1       7.997  45.784  -3.941  1.00  0.00    -0.330 N 
ATOM     30  H82 UNL     1       8.421  46.332  -4.689  1.00  0.00     0.178 HD
ATOM     31  H81 UNL     1       7.167  46.131  -3.461  1.00  0.00     0.178 HD
ATOM     32  H7  UNL     1       8.123  44.113  -2.892  1.00  0.00     0.208 HD
ENDBRANCH  23  28
ENDBRANCH   4  20
ENDBRANCH   3   4
TORSDOF 10
ENDMDL
MODEL 4
REMARK VINA RESULT: -8.477955323      1.748      2.414
REMARK  10 active torsions:
REMARK  status: ('A' for Active; 'I' for Inactive)
REMARK    1  A    between atoms: O1_3  and  C2_4 
REMARK    2  A    between atoms: C2_4  and  N4_20 
REMARK    3  A    between atoms: N2_5  and  C3_7 
REMARK    4  A    between atoms: C3_7  and  C4_8 
REMARK       I    between atoms: C4_8  and  N3_10 
REMARK    5  A    between atoms: N3_10  and  C5_12 
REMARK    6  A    between atoms: C5_12  and  C6_13 
REMARK    7  A    between atoms: C5_12  and  C7_15 
REMARK    8  A    between atoms: C7_15  and  O4_16 
REMARK    9  A    between atoms: C7_15  and  O5_18 
REMARK       I    between atoms: N4_20  and  C8_22 
REMARK       I    between atoms: C8_22  and  N6_26 
REMARK   10  A    between atoms: N6_26  and  N7_28 
ROOT
HETATM    1  N1  UNL     1       9.787  45.174  -0.277  1.00  0.00    -0.163 NA
HETATM    2  C1  UNL     1      10.891  45.045  -0.625  1.00  0.00     0.236 C 
HETATM    3  O1  UNL     1      12.203  44.869  -1.025  1.00  0.00    -0.205 OA
ENDROOT
BRANCH   3   4
HETATM    4  C2  UNL     1      12.670  45.563  -2.123  1.00  0.00     0.249 C 
HETATM    5  N2  UNL     1      13.268  46.651  -1.990  1.00  0.00    -0.346 N 
ATOM      6  H2  UNL     1      13.559  47.058  -2.878  1.00  0.00     0.163 HD
BRANCH   5   7
HETATM    7  C3  UNL     1      13.628  47.439  -0.876  1.00  0.00     0.226 C 
BRANCH   7   8
HETATM    8  C4  UNL     1      12.728  48.643  -0.716  1.00  0.00     0.236 C 
HETATM    9  O2  UNL     1      11.541  48.645  -1.126  1.00  0.00    -0.272 OA
HETATM   10  N3  UNL     1      13.213  49.819  -0.085  1.00  0.00    -0.344 N 
ATOM     11  H3  UNL     1      14.175  49.834   0.254  1.00  0.00     0.163 HD
BRANCH  10  12
HETATM   12  C5  UNL     1      12.402  50.983   0.091  1.00  0.00     0.200 C 
BRANCH  12  13
HETATM   13  C6  UNL     1      13.226  52.234   0.150  1.00  0.00     0.261 C 
HETATM   14  O3  UNL     1      12.781  53.249  -0.329  1.00  0.00    -0.304 OA
ENDBRANCH  12  13
BRANCH  12  15
HETATM   15  C7  UNL     1      11.640  50.899   1.392  1.00  0.00     0.283 C 
BRANCH  15  16
HETATM   16  O4  UNL     1      10.464  50.148   1.209  1.00  0.00    -0.369 OA
ATOM     17  H4  UNL     1      10.629  49.237   1.420  1.00  0.00     0.212 HD
ENDBRANCH  15  16
BRANCH  15  18
HETATM   18  O5  UNL     1      11.370  52.149   1.920  1.00  0.00    -0.369 OA
ATOM     19  H5  UNL     1      10.440  52.285   2.064  1.00  0.00     0.212 HD
ENDBRANCH  15  18
ENDBRANCH  12  15
ENDBRANCH  10  12
ENDBRANCH   7   8
ENDBRANCH   5   7
BRANCH   4  20
HETATM   20  N4  UNL     1      12.448  44.997  -3.407  1.00  0.00    -0.153 N 
HETATM   21  C8  UNL     1      11.134  44.690  -3.831  1.00  0.00     0.694 C 
HETATM   22  N5  UNL     1      10.312  45.637  -4.136  1.00  0.00    -0.233 N 
HETATM   23  N6  UNL     1      10.676  43.347  -3.935  1.00  0.00    -0.118 N 
ATOM     24  H52 UNL     1      10.641  46.600  -4.061  1.00  0.00     0.174 HD
ATOM     25  H51 UNL     1       9.364  45.415  -4.441  1.00  0.00     0.174 HD
ATOM     26  H6  UNL     1       9.677  43.157  -3.854  1.00  0.00     0.207 HD
ATOM     27  H4  UNL     1      13.238  44.812  -4.025  1.00  0.00     0.188 HD
BRANCH  23  28
HETATM   28  N7  UNL     1      11.558  42.280  -4.147  1.00  0.00    -0.235 N 
HETATM   29  N8  UNL     1      11.948  41.534  -3.197  1.00  0.00    -0.330 N 
ATOM     30  H82 UNL     1      11.600  41.732  -2.259  1.00  0.00     0.178 HD
ATOM     31  H81 UNL     1      12.591  40.757  -3.351  1.00  0.00     0.178 HD
ATOM     32  H7  UNL     1      11.896  42.098  -5.092  1.00  0.00     0.208 HD
ENDBRANCH  23  28
ENDBRANCH   4  20
ENDBRANCH   3   4
TORSDOF 10
ENDMDL
MODEL 5
REMARK VINA RESULT: -8.232282539      1.574      2.311
REMARK  10 active torsions:
REMARK  status: ('A' for Active; 'I' for Inactive)
REMARK    1  A    between atoms: O1_3  and  C2_4 
REMARK    2  A    between atoms: C2_4  and  N4_20 
REMARK    3  A    between atoms: N2_5  and  C3_7 
REMARK    4  A    between atoms: C3_7  and  C4_8 
REMARK       I    between atoms: C4_8  and  N3_10 
REMARK    5  A    between atoms: N3_10  and  C5_12 
REMARK    6  A    between atoms: C5_12  and  C6_13 
REMARK    7  A    between atoms: C5_12  and  C7_15 
REMARK    8  A    between atoms: C7_15  and  O4_16 
REMARK    9  A    between atoms: C7_15  and  O5_18 
REMARK       I    between atoms: N4_20  and  C8_22 
REMARK       I    between atoms: C8_22  and  N6_26 
REMARK   10  A    between atoms: N6_26  and  N7_28 
ROOT
HETATM    1  N1  UNL     1      15.681  44.080  -2.425  1.00  0.00    -0.163 NA
HETATM    2  C1  UNL     1      14.658  44.609  -2.598  1.00  0.00     0.236 C 
HETATM    3  O1  UNL     1      13.445  45.232  -2.828  1.00  0.00    -0.205 OA
ENDROOT
BRANCH   3   4
HETATM    4  C2  UNL     1      12.547  45.362  -1.787  1.00  0.00     0.249 C 
HETATM    5  N2  UNL     1      12.565  46.364  -1.043  1.00  0.00    -0.346 N 
ATOM      6  H2  UNL     1      11.851  46.334  -0.316  1.00  0.00     0.163 HD
BRANCH   5   7
HETATM    7  C3  UNL     1      13.360  47.529  -0.991  1.00  0.00     0.226 C 
BRANCH   7   8
HETATM    8  C4  UNL     1      12.532  48.773  -0.761  1.00  0.00     0.236 C 
HETATM    9  O2  UNL     1      11.343  48.863  -1.155  1.00  0.00    -0.272 OA
HETATM   10  N3  UNL     1      13.091  49.888  -0.083  1.00  0.00    -0.344 N 
ATOM     11  H3  UNL     1      14.056  49.832   0.244  1.00  0.00     0.163 HD
BRANCH  10  12
HETATM   12  C5  UNL     1      12.351  51.087   0.159  1.00  0.00     0.200 C 
BRANCH  12  13
HETATM   13  C6  UNL     1      13.243  52.289   0.232  1.00  0.00     0.261 C 
HETATM   14  O3  UNL     1      12.921  53.291  -0.359  1.00  0.00    -0.304 OA
ENDBRANCH  12  13
BRANCH  12  15
HETATM   15  C7  UNL     1      11.626  50.998   1.481  1.00  0.00     0.283 C 
BRANCH  15  16
HETATM   16  O4  UNL     1      10.484  50.188   1.344  1.00  0.00    -0.369 OA
ATOM     17  H4  UNL     1      10.190  49.899   2.201  1.00  0.00     0.212 HD
ENDBRANCH  15  16
BRANCH  15  18
HETATM   18  O5  UNL     1      11.309  52.246   1.987  1.00  0.00    -0.369 OA
ATOM     19  H5  UNL     1      10.626  52.203   2.646  1.00  0.00     0.212 HD
ENDBRANCH  15  18
ENDBRANCH  12  15
ENDBRANCH  10  12
ENDBRANCH   7   8
ENDBRANCH   5   7
BRANCH   4  20
HETATM   20  N4  UNL     1      11.604  44.318  -1.594  1.00  0.00    -0.153 N 
HETATM   21  C8  UNL     1      10.232  44.621  -1.427  1.00  0.00     0.694 C 
HETATM   22  N5  UNL     1       9.532  45.032  -2.430  1.00  0.00    -0.233 N 
HETATM   23  N6  UNL     1       9.584  44.487  -0.168  1.00  0.00    -0.118 N 
ATOM     24  H52 UNL     1       9.997  45.128  -3.333  1.00  0.00     0.174 HD
ATOM     25  H51 UNL     1       8.543  45.251  -2.309  1.00  0.00     0.174 HD
ATOM     26  H6  UNL     1       8.759  45.053   0.027  1.00  0.00     0.207 HD
ATOM     27  H4  UNL     1      11.916  43.347  -1.575  1.00  0.00     0.188 HD
BRANCH  23  28
HETATM   28  N7  UNL     1      10.047  43.599   0.810  1.00  0.00    -0.235 N 
HETATM   29  N8  UNL     1       9.295  43.172   1.739  1.00  0.00    -0.330 N 
ATOM     30  H82 UNL     1       8.328  43.495   1.759  1.00  0.00     0.178 HD
ATOM     31  H81 UNL     1       9.632  42.526   2.452  1.00  0.00     0.178 HD
ATOM     32  H7  UNL     1      11.017  43.286   0.775  1.00  0.00     0.208 HD
ENDBRANCH  23  28
ENDBRANCH   4  20
ENDBRANCH   3   4
TORSDOF 10
ENDMDL
