MODEL 1
REMARK VINA RESULT: -8.161762929      0.000      0.000
REMARK  12 active torsions:
REMARK  status: ('A' for Active; 'I' for Inactive)
REMARK    1  A    between atoms: C1_2  and  N1_3 
REMARK    2  A    between atoms: N1_3  and  C2_5 
REMARK    3  A    between atoms: C2_5  and  C3_6 
REMARK    4  A    between atoms: C3_6  and  N2_7 
REMARK    5  A    between atoms: N2_7  and  C4_10 
REMARK    6  A    between atoms: C4_10  and  C5_11 
REMARK    7  A    between atoms: C5_11  and  C6_12 
REMARK    8  A    between atoms: C6_12  and  N3_13 
REMARK       I    between atoms: N3_13  and  C7_15 
REMARK    9  A    between atoms: C7_15  and  C8_17 
REMARK   10  A    between atoms: C10_22  and  C11_23 
REMARK   11  A    between atoms: C11_23  and  O4_24 
REMARK   12  A    between atoms: C12_29  and  O5_30 
ROOT
HETATM    1  N3  UNL     1      81.665  26.062  -1.172  1.00  0.00    -0.359 N 
ATOM      2  H3  UNL     1      80.898  25.414  -0.993  1.00  0.00     0.162 HD
HETATM    3  C7  UNL     1      81.529  26.981  -2.231  1.00  0.00     0.244 C 
HETATM    4  O2  UNL     1      82.452  27.777  -2.512  1.00  0.00    -0.271 OA
ENDROOT
BRANCH   3   5
HETATM    5  C8  UNL     1      80.276  26.982  -2.994  1.00  0.00     0.233 C 
HETATM    6  N4  UNL     1      79.287  26.036  -2.491  1.00  0.00    -0.342 N 
HETATM    7  C9  UNL     1      77.991  26.021  -3.100  1.00  0.00     0.251 C 
ATOM      8  H4  UNL     1      79.512  25.402  -1.724  1.00  0.00     0.163 HD
HETATM    9  O3  UNL     1      77.237  25.065  -2.990  1.00  0.00    -0.271 OA
HETATM   10  C10 UNL     1      77.682  27.275  -3.867  1.00  0.00     0.303 C 
HETATM   11  N5  UNL     1      78.222  28.355  -3.051  1.00  0.00    -0.032 N 
HETATM   12  C12 UNL     1      79.692  28.345  -3.152  1.00  0.00     0.352 C 
ATOM     13  H52 UNL     1      77.822  29.262  -3.293  1.00  0.00     0.281 HD
ATOM     14  H51 UNL     1      77.900  28.309  -2.085  1.00  0.00     0.281 HD
BRANCH  10  15
HETATM   15  C11 UNL     1      76.220  27.506  -4.050  1.00  0.00     0.207 C 
BRANCH  15  16
HETATM   16  O4  UNL     1      75.465  27.260  -2.899  1.00  0.00    -0.398 OA
ATOM     17  H4  UNL     1      74.537  27.144  -3.069  1.00  0.00     0.209 HD
ENDBRANCH  15  16
ENDBRANCH  10  15
BRANCH  12  18
HETATM   18  O5  UNL     1      80.090  28.931  -4.347  1.00  0.00    -0.368 OA
ATOM     19  H5  UNL     1      79.387  28.926  -4.986  1.00  0.00     0.212 HD
ENDBRANCH  12  18
ENDBRANCH   3   5
BRANCH   1  20
HETATM   20  C6  UNL     1      82.814  25.990  -0.339  1.00  0.00     0.124 C 
BRANCH  20  21
HETATM   21  C5  UNL     1      83.485  24.665  -0.372  1.00  0.00     0.047 C 
BRANCH  21  22
HETATM   22  C4  UNL     1      84.907  24.768   0.158  1.00  0.00     0.234 C 
BRANCH  22  23
HETATM   23  N2  UNL     1      85.840  24.811  -0.944  1.00  0.00    -0.074 N 
ATOM     24  H22 UNL     1      85.853  25.739  -1.368  1.00  0.00     0.277 HD
ATOM     25  H21 UNL     1      85.492  24.267  -1.732  1.00  0.00     0.277 HD
BRANCH  23  26
HETATM   26  C3  UNL     1      87.156  24.402  -0.595  1.00  0.00     0.251 C 
BRANCH  26  27
HETATM   27  C2  UNL     1      87.269  23.897   0.788  1.00  0.00     0.149 C 
BRANCH  27  28
HETATM   28  N1  UNL     1      88.367  23.019   1.062  1.00  0.00    -0.367 N 
ATOM     29  H1  UNL     1      89.314  23.289   0.797  1.00  0.00     0.161 HD
BRANCH  28  30
HETATM   30  C1  UNL     1      88.133  21.755   1.711  1.00  0.00     0.348 C 
HETATM   31  O1  UNL     1      87.097  21.634   2.374  1.00  0.00    -0.284 OA
ENDBRANCH  28  30
ENDBRANCH  27  28
ENDBRANCH  26  27
ENDBRANCH  23  26
ENDBRANCH  22  23
ENDBRANCH  21  22
ENDBRANCH  20  21
ENDBRANCH   1  20
TORSDOF 12
ENDMDL
MODEL 2
REMARK VINA RESULT: -8.140039291      5.178      6.595
REMARK  12 active torsions:
REMARK  status: ('A' for Active; 'I' for Inactive)
REMARK    1  A    between atoms: C1_2  and  N1_3 
REMARK    2  A    between atoms: N1_3  and  C2_5 
REMARK    3  A    between atoms: C2_5  and  C3_6 
REMARK    4  A    between atoms: C3_6  and  N2_7 
REMARK    5  A    between atoms: N2_7  and  C4_10 
REMARK    6  A    between atoms: C4_10  and  C5_11 
REMARK    7  A    between atoms: C5_11  and  C6_12 
REMARK    8  A    between atoms: C6_12  and  N3_13 
REMARK       I    between atoms: N3_13  and  C7_15 
REMARK    9  A    between atoms: C7_15  and  C8_17 
REMARK   10  A    between atoms: C10_22  and  C11_23 
REMARK   11  A    between atoms: C11_23  and  O4_24 
REMARK   12  A    between atoms: C12_29  and  O5_30 
ROOT
HETATM    1  N3  UNL     1      77.634  23.802  -3.834  1.00  0.00    -0.359 N 
ATOM      2  H3  UNL     1      77.127  24.247  -4.599  1.00  0.00     0.162 HD
HETATM    3  C7  UNL     1      78.735  24.484  -3.278  1.00  0.00     0.244 C 
HETATM    4  O2  UNL     1      79.410  23.969  -2.359  1.00  0.00    -0.271 OA
ENDROOT
BRANCH   3   5
HETATM    5  C8  UNL     1      79.067  25.813  -3.802  1.00  0.00     0.233 C 
HETATM    6  N4  UNL     1      77.897  26.622  -4.120  1.00  0.00    -0.342 N 
HETATM    7  C9  UNL     1      78.103  27.973  -4.548  1.00  0.00     0.251 C 
ATOM      8  H4  UNL     1      76.956  26.237  -4.040  1.00  0.00     0.163 HD
HETATM    9  O3  UNL     1      77.241  28.598  -5.149  1.00  0.00    -0.271 OA
HETATM   10  C10 UNL     1      79.459  28.510  -4.186  1.00  0.00     0.303 C 
HETATM   11  N5  UNL     1      79.718  27.996  -2.846  1.00  0.00    -0.032 N 
HETATM   12  C12 UNL     1      80.024  26.558  -2.935  1.00  0.00     0.352 C 
ATOM     13  H52 UNL     1      80.449  28.520  -2.364  1.00  0.00     0.281 HD
ATOM     14  H51 UNL     1      78.952  28.192  -2.202  1.00  0.00     0.281 HD
BRANCH  10  15
HETATM   15  C11 UNL     1      79.507  30.000  -4.139  1.00  0.00     0.207 C 
BRANCH  15  16
HETATM   16  O4  UNL     1      80.662  30.543  -4.710  1.00  0.00    -0.398 OA
ATOM     17  H4  UNL     1      80.841  30.221  -5.586  1.00  0.00     0.209 HD
ENDBRANCH  15  16
ENDBRANCH  10  15
BRANCH  12  18
HETATM   18  O5  UNL     1      81.335  26.376  -3.354  1.00  0.00    -0.368 OA
ATOM     19  H5  UNL     1      81.877  27.123  -3.131  1.00  0.00     0.212 HD
ENDBRANCH  12  18
ENDBRANCH   3   5
BRANCH   1  20
HETATM   20  C6  UNL     1      77.193  22.528  -3.387  1.00  0.00     0.124 C 
BRANCH  20  21
HETATM   21  C5  UNL     1      76.901  21.582  -4.495  1.00  0.00     0.047 C 
BRANCH  21  22
HETATM   22  C4  UNL     1      77.406  20.187  -4.160  1.00  0.00     0.234 C 
BRANCH  22  23
HETATM   23  N2  UNL     1      78.831  20.113  -4.388  1.00  0.00    -0.074 N 
ATOM     24  H22 UNL     1      79.244  21.046  -4.395  1.00  0.00     0.277 HD
ATOM     25  H21 UNL     1      79.027  19.831  -5.348  1.00  0.00     0.277 HD
BRANCH  23  26
HETATM   26  C3  UNL     1      79.514  19.270  -3.469  1.00  0.00     0.251 C 
BRANCH  26  27
HETATM   27  C2  UNL     1      78.732  18.968  -2.254  1.00  0.00     0.149 C 
BRANCH  27  28
HETATM   28  N1  UNL     1      79.149  19.617  -1.047  1.00  0.00    -0.367 N 
ATOM     29  H1  UNL     1      80.062  19.406  -0.643  1.00  0.00     0.161 HD
BRANCH  28  30
HETATM   30  C1  UNL     1      78.279  20.566  -0.402  1.00  0.00     0.348 C 
HETATM   31  O1  UNL     1      78.769  21.644  -0.047  1.00  0.00    -0.284 OA
ENDBRANCH  28  30
ENDBRANCH  27  28
ENDBRANCH  26  27
ENDBRANCH  23  26
ENDBRANCH  22  23
ENDBRANCH  21  22
ENDBRANCH  20  21
ENDBRANCH   1  20
TORSDOF 12
ENDMDL
MODEL 3
REMARK VINA RESULT: -8.008885339      5.185      6.650
REMARK  12 active torsions:
REMARK  status: ('A' for Active; 'I' for Inactive)
REMARK    1  A    between atoms: C1_2  and  N1_3 
REMARK    2  A    between atoms: N1_3  and  C2_5 
REMARK    3  A    between atoms: C2_5  and  C3_6 
REMARK    4  A    between atoms: C3_6  and  N2_7 
REMARK    5  A    between atoms: N2_7  and  C4_10 
REMARK    6  A    between atoms: C4_10  and  C5_11 
REMARK    7  A    between atoms: C5_11  and  C6_12 
REMARK    8  A    between atoms: C6_12  and  N3_13 
REMARK       I    between atoms: N3_13  and  C7_15 
REMARK    9  A    between atoms: C7_15  and  C8_17 
REMARK   10  A    between atoms: C10_22  and  C11_23 
REMARK   11  A    between atoms: C11_23  and  O4_24 
REMARK   12  A    between atoms: C12_29  and  O5_30 
ROOT
HETATM    1  N3  UNL     1      77.034  23.988  -3.178  1.00  0.00    -0.359 N 
ATOM      2  H3  UNL     1      76.426  24.618  -3.701  1.00  0.00     0.162 HD
HETATM    3  C7  UNL     1      78.126  24.542  -2.480  1.00  0.00     0.244 C 
HETATM    4  O2  UNL     1      78.921  23.811  -1.849  1.00  0.00    -0.271 OA
ENDROOT
BRANCH   3   5
HETATM    5  C8  UNL     1      78.305  25.997  -2.511  1.00  0.00     0.233 C 
HETATM    6  N4  UNL     1      79.666  26.410  -2.833  1.00  0.00    -0.342 N 
HETATM    7  C9  UNL     1      79.932  27.809  -2.985  1.00  0.00     0.251 C 
ATOM      8  H4  UNL     1      80.409  25.721  -2.947  1.00  0.00     0.163 HD
HETATM    9  O3  UNL     1      81.065  28.262  -2.912  1.00  0.00    -0.271 OA
HETATM   10  C10 UNL     1      78.695  28.625  -3.233  1.00  0.00     0.303 C 
HETATM   11  N5  UNL     1      77.887  27.812  -4.134  1.00  0.00    -0.032 N 
HETATM   12  C12 UNL     1      77.309  26.688  -3.379  1.00  0.00     0.352 C 
ATOM     13  H52 UNL     1      77.176  28.361  -4.620  1.00  0.00     0.281 HD
ATOM     14  H51 UNL     1      78.411  27.502  -4.952  1.00  0.00     0.281 HD
BRANCH  10  15
HETATM   15  C11 UNL     1      78.976  29.931  -3.897  1.00  0.00     0.207 C 
BRANCH  15  16
HETATM   16  O4  UNL     1      80.160  29.939  -4.640  1.00  0.00    -0.398 OA
ATOM     17  H4  UNL     1      80.875  30.398  -4.215  1.00  0.00     0.209 HD
ENDBRANCH  15  16
ENDBRANCH  10  15
BRANCH  12  18
HETATM   18  O5  UNL     1      76.212  27.122  -2.645  1.00  0.00    -0.368 OA
ATOM     19  H5  UNL     1      76.377  27.069  -1.711  1.00  0.00     0.212 HD
ENDBRANCH  12  18
ENDBRANCH   3   5
BRANCH   1  20
HETATM   20  C6  UNL     1      76.736  22.600  -3.192  1.00  0.00     0.124 C 
BRANCH  20  21
HETATM   21  C5  UNL     1      77.110  21.928  -4.464  1.00  0.00     0.047 C 
BRANCH  21  22
HETATM   22  C4  UNL     1      77.409  20.456  -4.228  1.00  0.00     0.234 C 
BRANCH  22  23
HETATM   23  N2  UNL     1      78.802  20.186  -4.500  1.00  0.00    -0.074 N 
ATOM     24  H22 UNL     1      79.336  21.055  -4.538  1.00  0.00     0.277 HD
ATOM     25  H21 UNL     1      78.926  19.867  -5.461  1.00  0.00     0.277 HD
BRANCH  23  26
HETATM   26  C3  UNL     1      79.397  19.272  -3.588  1.00  0.00     0.251 C 
BRANCH  26  27
HETATM   27  C2  UNL     1      78.590  19.045  -2.373  1.00  0.00     0.149 C 
BRANCH  27  28
HETATM   28  N1  UNL     1      79.097  19.602  -1.154  1.00  0.00    -0.367 N 
ATOM     29  H1  UNL     1      80.008  19.311  -0.800  1.00  0.00     0.161 HD
BRANCH  28  30
HETATM   30  C1  UNL     1      78.320  20.574  -0.430  1.00  0.00     0.348 C 
HETATM   31  O1  UNL     1      78.920  21.325   0.347  1.00  0.00    -0.284 OA
ENDBRANCH  28  30
ENDBRANCH  27  28
ENDBRANCH  26  27
ENDBRANCH  23  26
ENDBRANCH  22  23
ENDBRANCH  21  22
ENDBRANCH  20  21
ENDBRANCH   1  20
TORSDOF 12
ENDMDL
MODEL 4
REMARK VINA RESULT: -7.989980884      2.129      2.873
REMARK  12 active torsions:
REMARK  status: ('A' for Active; 'I' for Inactive)
REMARK    1  A    between atoms: C1_2  and  N1_3 
REMARK    2  A    between atoms: N1_3  and  C2_5 
REMARK    3  A    between atoms: C2_5  and  C3_6 
REMARK    4  A    between atoms: C3_6  and  N2_7 
REMARK    5  A    between atoms: N2_7  and  C4_10 
REMARK    6  A    between atoms: C4_10  and  C5_11 
REMARK    7  A    between atoms: C5_11  and  C6_12 
REMARK    8  A    between atoms: C6_12  and  N3_13 
REMARK       I    between atoms: N3_13  and  C7_15 
REMARK    9  A    between atoms: C7_15  and  C8_17 
REMARK   10  A    between atoms: C10_22  and  C11_23 
REMARK   11  A    between atoms: C11_23  and  O4_24 
REMARK   12  A    between atoms: C12_29  and  O5_30 
ROOT
HETATM    1  N3  UNL     1      81.383  26.003  -1.270  1.00  0.00    -0.359 N 
ATOM      2  H3  UNL     1      81.488  27.006  -1.424  1.00  0.00     0.162 HD
HETATM    3  C7  UNL     1      80.181  25.388  -1.674  1.00  0.00     0.244 C 
HETATM    4  O2  UNL     1      79.988  24.168  -1.479  1.00  0.00    -0.271 OA
ENDROOT
BRANCH   3   5
HETATM    5  C8  UNL     1      79.163  26.216  -2.329  1.00  0.00     0.233 C 
HETATM    6  N4  UNL     1      79.558  27.611  -2.485  1.00  0.00    -0.342 N 
HETATM    7  C9  UNL     1      78.681  28.489  -3.199  1.00  0.00     0.251 C 
ATOM      8  H4  UNL     1      80.437  27.952  -2.097  1.00  0.00     0.163 HD
HETATM    9  O3  UNL     1      78.752  29.704  -3.087  1.00  0.00    -0.271 OA
HETATM   10  C10 UNL     1      77.694  27.762  -4.069  1.00  0.00     0.303 C 
HETATM   11  N5  UNL     1      78.451  26.661  -4.653  1.00  0.00    -0.032 N 
HETATM   12  C12 UNL     1      78.686  25.639  -3.619  1.00  0.00     0.352 C 
ATOM     13  H52 UNL     1      77.999  26.277  -5.483  1.00  0.00     0.281 HD
ATOM     14  H51 UNL     1      79.315  26.976  -5.092  1.00  0.00     0.281 HD
BRANCH  10  15
HETATM   15  C11 UNL     1      77.155  28.605  -5.176  1.00  0.00     0.207 C 
BRANCH  15  16
HETATM   16  O4  UNL     1      76.258  27.931  -6.009  1.00  0.00    -0.398 OA
ATOM     17  H4  UNL     1      76.676  27.473  -6.729  1.00  0.00     0.209 HD
ENDBRANCH  15  16
ENDBRANCH  10  15
BRANCH  12  18
HETATM   18  O5  UNL     1      77.541  24.873  -3.438  1.00  0.00    -0.368 OA
ATOM     19  H5  UNL     1      76.774  25.307  -3.794  1.00  0.00     0.212 HD
ENDBRANCH  12  18
ENDBRANCH   3   5
BRANCH   1  20
HETATM   20  C6  UNL     1      82.456  25.301  -0.660  1.00  0.00     0.124 C 
BRANCH  20  21
HETATM   21  C5  UNL     1      83.726  26.072  -0.630  1.00  0.00     0.047 C 
BRANCH  21  22
HETATM   22  C4  UNL     1      84.250  26.191   0.793  1.00  0.00     0.234 C 
BRANCH  22  23
HETATM   23  N2  UNL     1      85.695  26.166   0.788  1.00  0.00    -0.074 N 
ATOM     24  H22 UNL     1      86.071  27.050   1.131  1.00  0.00     0.277 HD
ATOM     25  H21 UNL     1      86.052  26.186  -0.166  1.00  0.00     0.277 HD
BRANCH  23  26
HETATM   26  C3  UNL     1      86.250  25.072   1.507  1.00  0.00     0.251 C 
BRANCH  26  27
HETATM   27  C2  UNL     1      86.839  24.034   0.639  1.00  0.00     0.149 C 
BRANCH  27  28
HETATM   28  N1  UNL     1      87.485  24.490  -0.556  1.00  0.00    -0.367 N 
ATOM     29  H1  UNL     1      88.355  25.018  -0.497  1.00  0.00     0.161 HD
BRANCH  28  30
HETATM   30  C1  UNL     1      86.904  24.201  -1.842  1.00  0.00     0.348 C 
HETATM   31  O1  UNL     1      87.449  23.335  -2.536  1.00  0.00    -0.284 OA
ENDBRANCH  28  30
ENDBRANCH  27  28
ENDBRANCH  26  27
ENDBRANCH  23  26
ENDBRANCH  22  23
ENDBRANCH  21  22
ENDBRANCH  20  21
ENDBRANCH   1  20
TORSDOF 12
ENDMDL
MODEL 5
REMARK VINA RESULT: -7.989503084      1.491      1.759
REMARK  12 active torsions:
REMARK  status: ('A' for Active; 'I' for Inactive)
REMARK    1  A    between atoms: C1_2  and  N1_3 
REMARK    2  A    between atoms: N1_3  and  C2_5 
REMARK    3  A    between atoms: C2_5  and  C3_6 
REMARK    4  A    between atoms: C3_6  and  N2_7 
REMARK    5  A    between atoms: N2_7  and  C4_10 
REMARK    6  A    between atoms: C4_10  and  C5_11 
REMARK    7  A    between atoms: C5_11  and  C6_12 
REMARK    8  A    between atoms: C6_12  and  N3_13 
REMARK       I    between atoms: N3_13  and  C7_15 
REMARK    9  A    between atoms: C7_15  and  C8_17 
REMARK   10  A    between atoms: C10_22  and  C11_23 
REMARK   11  A    between atoms: C11_23  and  O4_24 
REMARK   12  A    between atoms: C12_29  and  O5_30 
ROOT
HETATM    1  N3  UNL     1      81.778  25.593  -1.482  1.00  0.00    -0.359 N 
ATOM      2  H3  UNL     1      81.036  24.898  -1.407  1.00  0.00     0.162 HD
HETATM    3  C7  UNL     1      81.588  26.680  -2.358  1.00  0.00     0.244 C 
HETATM    4  O2  UNL     1      82.480  27.544  -2.511  1.00  0.00    -0.271 OA
ENDROOT
BRANCH   3   5
HETATM    5  C8  UNL     1      80.317  26.774  -3.085  1.00  0.00     0.233 C 
HETATM    6  N4  UNL     1      79.303  25.841  -2.607  1.00  0.00    -0.342 N 
HETATM    7  C9  UNL     1      77.993  25.913  -3.180  1.00  0.00     0.251 C 
ATOM      8  H4  UNL     1      79.521  25.157  -1.883  1.00  0.00     0.163 HD
HETATM    9  O3  UNL     1      77.203  24.983  -3.101  1.00  0.00    -0.271 OA
HETATM   10  C10 UNL     1      77.717  27.220  -3.868  1.00  0.00     0.303 C 
HETATM   11  N5  UNL     1      78.322  28.229  -3.009  1.00  0.00    -0.032 N 
HETATM   12  C12 UNL     1      79.787  28.166  -3.152  1.00  0.00     0.352 C 
ATOM     13  H52 UNL     1      77.954  29.164  -3.189  1.00  0.00     0.281 HD
ATOM     14  H51 UNL     1      78.022  28.142  -2.038  1.00  0.00     0.281 HD
BRANCH  10  15
HETATM   15  C11 UNL     1      76.261  27.519  -3.997  1.00  0.00     0.207 C 
BRANCH  15  16
HETATM   16  O4  UNL     1      75.519  27.199  -2.856  1.00  0.00    -0.398 OA
ATOM     17  H4  UNL     1      74.669  26.820  -3.047  1.00  0.00     0.209 HD
ENDBRANCH  15  16
ENDBRANCH  10  15
BRANCH  12  18
HETATM   18  O5  UNL     1      80.178  28.801  -4.323  1.00  0.00    -0.368 OA
ATOM     19  H5  UNL     1      79.698  29.610  -4.456  1.00  0.00     0.212 HD
ENDBRANCH  12  18
ENDBRANCH   3   5
BRANCH   1  20
HETATM   20  C6  UNL     1      82.949  25.413  -0.698  1.00  0.00     0.124 C 
BRANCH  20  21
HETATM   21  C5  UNL     1      83.391  26.651  -0.005  1.00  0.00     0.047 C 
BRANCH  21  22
HETATM   22  C4  UNL     1      84.775  26.465   0.597  1.00  0.00     0.234 C 
BRANCH  22  23
HETATM   23  N2  UNL     1      85.071  25.057   0.725  1.00  0.00    -0.074 N 
ATOM     24  H22 UNL     1      85.005  24.592  -0.180  1.00  0.00     0.277 HD
ATOM     25  H21 UNL     1      84.322  24.575   1.221  1.00  0.00     0.277 HD
BRANCH  23  26
HETATM   26  C3  UNL     1      86.327  24.790   1.335  1.00  0.00     0.251 C 
BRANCH  26  27
HETATM   27  C2  UNL     1      87.146  23.810   0.595  1.00  0.00     0.149 C 
BRANCH  27  28
HETATM   28  N1  UNL     1      87.751  24.267  -0.620  1.00  0.00    -0.367 N 
ATOM     29  H1  UNL     1      88.679  24.690  -0.600  1.00  0.00     0.161 HD
BRANCH  28  30
HETATM   30  C1  UNL     1      87.048  24.132  -1.869  1.00  0.00     0.348 C 
HETATM   31  O1  UNL     1      87.358  23.184  -2.601  1.00  0.00    -0.284 OA
ENDBRANCH  28  30
ENDBRANCH  27  28
ENDBRANCH  26  27
ENDBRANCH  23  26
ENDBRANCH  22  23
ENDBRANCH  21  22
ENDBRANCH  20  21
ENDBRANCH   1  20
TORSDOF 12
ENDMDL
