MODEL 1
REMARK VINA RESULT: -8.480672412      0.000      0.000
REMARK  12 active torsions:
REMARK  status: ('A' for Active; 'I' for Inactive)
REMARK       I    between atoms: C1_4  and  N3_6 
REMARK    1  A    between atoms: N3_6  and  C2_8 
REMARK    2  A    between atoms: C2_8  and  C3_9 
REMARK    3  A    between atoms: C3_9  and  N4_10 
REMARK    4  A    between atoms: N4_10  and  C4_13 
REMARK    5  A    between atoms: C4_13  and  C5_14 
REMARK       I    between atoms: C5_14  and  N5_16 
REMARK    6  A    between atoms: N5_16  and  C6_18 
REMARK    7  A    between atoms: C6_18  and  C7_19 
REMARK    8  A    between atoms: N7_24  and  C9_25 
REMARK    9  A    between atoms: C9_25  and  C10_26 
REMARK       I    between atoms: C10_26  and  N8_28 
REMARK   10  A    between atoms: N8_28  and  C11_30 
REMARK   11  A    between atoms: C11_30  and  C12_31 
REMARK   12  A    between atoms: C12_31  and  N9_32 
ROOT
HETATM    1  C6  UNL     1      79.879  26.435  -4.169  1.00  0.00     0.171 C 
ENDROOT
BRANCH   1   2
HETATM    2  N5  UNL     1      80.885  26.260  -3.144  1.00  0.00    -0.356 N 
HETATM    3  C5  UNL     1      80.726  25.275  -2.108  1.00  0.00     0.243 C 
HETATM    4  O1  UNL     1      79.692  24.587  -2.126  1.00  0.00    -0.272 OA
ATOM      5  H5  UNL     1      81.721  26.845  -3.156  1.00  0.00     0.162 HD
BRANCH   3   6
HETATM    6  C4  UNL     1      81.744  25.098  -1.076  1.00  0.00     0.335 C 
BRANCH   6   7
HETATM    7  N4  UNL     1      82.848  26.014  -1.114  1.00  0.00    -0.062 N 
ATOM      8  H42 UNL     1      82.524  26.980  -1.157  1.00  0.00     0.278 HD
ATOM      9  H41 UNL     1      83.335  25.966  -2.009  1.00  0.00     0.278 HD
BRANCH   7  10
HETATM   10  C3  UNL     1      83.739  25.823  -0.038  1.00  0.00     0.277 C 
BRANCH  10  11
HETATM   11  C2  UNL     1      84.823  24.818  -0.189  1.00  0.00     0.090 C 
BRANCH  11  12
HETATM   12  N3  UNL     1      85.807  25.029  -1.171  1.00  0.00    -0.343 N 
HETATM   13  C1  UNL     1      86.974  24.250  -1.295  1.00  0.00     0.185 C 
HETATM   14  N1  UNL     1      87.794  24.003  -0.320  1.00  0.00    -0.374 N 
HETATM   15  N2  UNL     1      87.291  23.706  -2.570  1.00  0.00    -0.064 NA
ATOM     16  H12 UNL     1      88.639  23.439  -0.410  1.00  0.00     0.158 HD
ATOM     17  H11 UNL     1      87.567  24.393   0.594  1.00  0.00     0.158 HD
ATOM     18  H3  UNL     1      85.667  25.792  -1.834  1.00  0.00     0.167 HD
ENDBRANCH  11  12
ENDBRANCH  10  11
ENDBRANCH   7  10
ENDBRANCH   6   7
ENDBRANCH   3   6
ENDBRANCH   1   2
BRANCH   1  19
HETATM   19  C7  UNL     1      78.980  27.595  -3.815  1.00  0.00     0.285 C 
HETATM   20  N6  UNL     1      78.931  28.546  -4.945  1.00  0.00    -0.045 N 
HETATM   21  C8  UNL     1      77.461  28.429  -4.953  1.00  0.00     0.332 C 
ATOM     22  H62 UNL     1      79.375  29.461  -4.866  1.00  0.00     0.280 HD
ATOM     23  H61 UNL     1      79.467  28.366  -5.794  1.00  0.00     0.280 HD
HETATM   24  N7  UNL     1      77.613  27.323  -4.085  1.00  0.00    -0.234 NA
BRANCH  24  25
HETATM   25  C9  UNL     1      76.698  27.046  -3.063  1.00  0.00     0.137 C 
BRANCH  25  26
HETATM   26  C10 UNL     1      76.032  25.748  -3.055  1.00  0.00     0.251 C 
HETATM   27  O2  UNL     1      74.788  25.575  -2.991  1.00  0.00    -0.268 OA
HETATM   28  N8  UNL     1      76.830  24.574  -3.126  1.00  0.00    -0.355 N 
ATOM     29  H8  UNL     1      77.842  24.684  -3.184  1.00  0.00     0.162 HD
BRANCH  28  30
HETATM   30  C11 UNL     1      76.295  23.243  -3.122  1.00  0.00     0.150 C 
BRANCH  30  31
HETATM   31  C12 UNL     1      77.342  22.172  -3.176  1.00  0.00     0.249 C 
BRANCH  31  32
HETATM   32  N9  UNL     1      77.949  21.967  -1.869  1.00  0.00    -0.078 N 
ATOM     33  H93 UNL     1      77.251  21.977  -1.125  1.00  0.00     0.274 HD
ATOM     34  H92 UNL     1      78.283  21.010  -1.756  1.00  0.00     0.274 HD
ATOM     35  H91 UNL     1      78.691  22.646  -1.698  1.00  0.00     0.274 HD
ENDBRANCH  31  32
ENDBRANCH  30  31
ENDBRANCH  28  30
ENDBRANCH  25  26
ENDBRANCH  24  25
ENDBRANCH   1  19
TORSDOF 12
ENDMDL
MODEL 2
REMARK VINA RESULT: -8.420323847      1.487      1.812
REMARK  12 active torsions:
REMARK  status: ('A' for Active; 'I' for Inactive)
REMARK       I    between atoms: C1_4  and  N3_6 
REMARK    1  A    between atoms: N3_6  and  C2_8 
REMARK    2  A    between atoms: C2_8  and  C3_9 
REMARK    3  A    between atoms: C3_9  and  N4_10 
REMARK    4  A    between atoms: N4_10  and  C4_13 
REMARK    5  A    between atoms: C4_13  and  C5_14 
REMARK       I    between atoms: C5_14  and  N5_16 
REMARK    6  A    between atoms: N5_16  and  C6_18 
REMARK    7  A    between atoms: C6_18  and  C7_19 
REMARK    8  A    between atoms: N7_24  and  C9_25 
REMARK    9  A    between atoms: C9_25  and  C10_26 
REMARK       I    between atoms: C10_26  and  N8_28 
REMARK   10  A    between atoms: N8_28  and  C11_30 
REMARK   11  A    between atoms: C11_30  and  C12_31 
REMARK   12  A    between atoms: C12_31  and  N9_32 
ROOT
HETATM    1  C6  UNL     1      79.080  28.671  -1.962  1.00  0.00     0.171 C 
ENDROOT
BRANCH   1   2
HETATM    2  N5  UNL     1      79.693  27.468  -1.444  1.00  0.00    -0.356 N 
HETATM    3  C5  UNL     1      81.046  27.116  -1.786  1.00  0.00     0.243 C 
HETATM    4  O1  UNL     1      81.661  27.883  -2.545  1.00  0.00    -0.272 OA
ATOM      5  H5  UNL     1      79.158  26.858  -0.825  1.00  0.00     0.162 HD
BRANCH   3   6
HETATM    6  C4  UNL     1      81.664  25.904  -1.259  1.00  0.00     0.335 C 
BRANCH   6   7
HETATM    7  N4  UNL     1      83.070  25.982  -0.978  1.00  0.00    -0.062 N 
ATOM      8  H42 UNL     1      83.299  26.843  -0.481  1.00  0.00     0.278 HD
ATOM      9  H41 UNL     1      83.607  26.139  -1.831  1.00  0.00     0.278 HD
BRANCH   7  10
HETATM   10  C3  UNL     1      83.540  24.851  -0.280  1.00  0.00     0.277 C 
BRANCH  10  11
HETATM   11  C2  UNL     1      84.992  24.760   0.020  1.00  0.00     0.090 C 
BRANCH  11  12
HETATM   12  N3  UNL     1      85.912  25.009  -1.014  1.00  0.00    -0.343 N 
HETATM   13  C1  UNL     1      87.051  24.218  -1.262  1.00  0.00     0.185 C 
HETATM   14  N1  UNL     1      87.929  23.900  -0.360  1.00  0.00    -0.374 N 
HETATM   15  N2  UNL     1      87.269  23.742  -2.584  1.00  0.00    -0.064 NA
ATOM     16  H12 UNL     1      88.754  23.328  -0.540  1.00  0.00     0.158 HD
ATOM     17  H11 UNL     1      87.773  24.242   0.588  1.00  0.00     0.158 HD
ATOM     18  H3  UNL     1      85.744  25.811  -1.622  1.00  0.00     0.167 HD
ENDBRANCH  11  12
ENDBRANCH  10  11
ENDBRANCH   7  10
ENDBRANCH   6   7
ENDBRANCH   3   6
ENDBRANCH   1   2
BRANCH   1  19
HETATM   19  C7  UNL     1      78.264  28.344  -3.189  1.00  0.00     0.285 C 
HETATM   20  N6  UNL     1      79.057  28.629  -4.402  1.00  0.00    -0.045 N 
HETATM   21  C8  UNL     1      78.835  27.241  -4.849  1.00  0.00     0.332 C 
ATOM     22  H62 UNL     1      78.809  29.412  -5.007  1.00  0.00     0.280 HD
ATOM     23  H61 UNL     1      80.004  29.000  -4.323  1.00  0.00     0.280 HD
HETATM   24  N7  UNL     1      78.349  26.973  -3.548  1.00  0.00    -0.234 NA
BRANCH  24  25
HETATM   25  C9  UNL     1      77.297  26.080  -3.315  1.00  0.00     0.137 C 
BRANCH  25  26
HETATM   26  C10 UNL     1      77.619  24.709  -2.935  1.00  0.00     0.251 C 
HETATM   27  O2  UNL     1      78.626  24.361  -2.268  1.00  0.00    -0.268 OA
HETATM   28  N8  UNL     1      76.739  23.667  -3.338  1.00  0.00    -0.355 N 
ATOM     29  H8  UNL     1      75.910  23.920  -3.876  1.00  0.00     0.162 HD
BRANCH  28  30
HETATM   30  C11 UNL     1      76.947  22.281  -3.031  1.00  0.00     0.150 C 
BRANCH  30  31
HETATM   31  C12 UNL     1      77.138  21.419  -4.242  1.00  0.00     0.249 C 
BRANCH  31  32
HETATM   32  N9  UNL     1      78.280  20.531  -4.077  1.00  0.00    -0.078 N 
ATOM     33  H93 UNL     1      78.906  20.857  -3.341  1.00  0.00     0.274 HD
ATOM     34  H92 UNL     1      78.006  19.639  -3.665  1.00  0.00     0.274 HD
ATOM     35  H91 UNL     1      78.773  20.400  -4.961  1.00  0.00     0.274 HD
ENDBRANCH  31  32
ENDBRANCH  30  31
ENDBRANCH  28  30
ENDBRANCH  25  26
ENDBRANCH  24  25
ENDBRANCH   1  19
TORSDOF 12
ENDMDL
MODEL 3
REMARK VINA RESULT: -8.366250434      1.386      1.645
REMARK  12 active torsions:
REMARK  status: ('A' for Active; 'I' for Inactive)
REMARK       I    between atoms: C1_4  and  N3_6 
REMARK    1  A    between atoms: N3_6  and  C2_8 
REMARK    2  A    between atoms: C2_8  and  C3_9 
REMARK    3  A    between atoms: C3_9  and  N4_10 
REMARK    4  A    between atoms: N4_10  and  C4_13 
REMARK    5  A    between atoms: C4_13  and  C5_14 
REMARK       I    between atoms: C5_14  and  N5_16 
REMARK    6  A    between atoms: N5_16  and  C6_18 
REMARK    7  A    between atoms: C6_18  and  C7_19 
REMARK    8  A    between atoms: N7_24  and  C9_25 
REMARK    9  A    between atoms: C9_25  and  C10_26 
REMARK       I    between atoms: C10_26  and  N8_28 
REMARK   10  A    between atoms: N8_28  and  C11_30 
REMARK   11  A    between atoms: C11_30  and  C12_31 
REMARK   12  A    between atoms: C12_31  and  N9_32 
ROOT
HETATM    1  C6  UNL     1      79.889  28.375  -3.096  1.00  0.00     0.171 C 
ENDROOT
BRANCH   1   2
HETATM    2  N5  UNL     1      80.254  27.457  -2.038  1.00  0.00    -0.356 N 
HETATM    3  C5  UNL     1      81.624  27.073  -1.827  1.00  0.00     0.243 C 
HETATM    4  O1  UNL     1      82.477  27.555  -2.590  1.00  0.00    -0.272 OA
ATOM      5  H5  UNL     1      79.527  27.077  -1.432  1.00  0.00     0.162 HD
BRANCH   3   6
HETATM    6  C4  UNL     1      81.990  26.150  -0.757  1.00  0.00     0.335 C 
BRANCH   6   7
HETATM    7  N4  UNL     1      82.896  25.096  -1.115  1.00  0.00    -0.062 N 
ATOM      8  H42 UNL     1      83.508  25.379  -1.880  1.00  0.00     0.278 HD
ATOM      9  H41 UNL     1      82.405  24.329  -1.575  1.00  0.00     0.278 HD
BRANCH   7  10
HETATM   10  C3  UNL     1      83.642  24.634  -0.011  1.00  0.00     0.277 C 
BRANCH  10  11
HETATM   11  C2  UNL     1      85.086  24.974   0.057  1.00  0.00     0.090 C 
BRANCH  11  12
HETATM   12  N3  UNL     1      85.815  25.064  -1.142  1.00  0.00    -0.343 N 
HETATM   13  C1  UNL     1      86.991  24.334  -1.406  1.00  0.00     0.185 C 
HETATM   14  N1  UNL     1      88.018  24.294  -0.614  1.00  0.00    -0.374 N 
HETATM   15  N2  UNL     1      87.071  23.599  -2.621  1.00  0.00    -0.064 NA
ATOM     16  H12 UNL     1      88.869  23.765  -0.805  1.00  0.00     0.158 HD
ATOM     17  H11 UNL     1      87.961  24.821   0.257  1.00  0.00     0.158 HD
ATOM     18  H3  UNL     1      85.472  25.697  -1.865  1.00  0.00     0.167 HD
ENDBRANCH  11  12
ENDBRANCH  10  11
ENDBRANCH   7  10
ENDBRANCH   6   7
ENDBRANCH   3   6
ENDBRANCH   1   2
BRANCH   1  19
HETATM   19  C7  UNL     1      78.389  28.524  -3.153  1.00  0.00     0.285 C 
HETATM   20  N6  UNL     1      78.023  29.431  -4.259  1.00  0.00    -0.045 N 
HETATM   21  C8  UNL     1      77.150  28.377  -4.810  1.00  0.00     0.332 C 
ATOM     22  H62 UNL     1      77.648  30.359  -4.061  1.00  0.00     0.280 HD
ATOM     23  H61 UNL     1      78.747  29.855  -4.839  1.00  0.00     0.280 HD
HETATM   24  N7  UNL     1      77.768  27.488  -3.900  1.00  0.00    -0.234 NA
BRANCH  24  25
HETATM   25  C9  UNL     1      77.066  26.447  -3.281  1.00  0.00     0.137 C 
BRANCH  25  26
HETATM   26  C10 UNL     1      77.690  25.131  -3.208  1.00  0.00     0.251 C 
HETATM   27  O2  UNL     1      78.912  24.922  -2.997  1.00  0.00    -0.268 OA
HETATM   28  N8  UNL     1      76.875  23.980  -3.386  1.00  0.00    -0.355 N 
ATOM     29  H8  UNL     1      75.878  24.119  -3.555  1.00  0.00     0.162 HD
BRANCH  28  30
HETATM   30  C11 UNL     1      77.370  22.635  -3.342  1.00  0.00     0.150 C 
BRANCH  30  31
HETATM   31  C12 UNL     1      77.246  21.990  -1.995  1.00  0.00     0.249 C 
BRANCH  31  32
HETATM   32  N9  UNL     1      78.346  22.379  -1.125  1.00  0.00    -0.078 N 
ATOM     33  H93 UNL     1      78.544  23.377  -1.193  1.00  0.00     0.274 HD
ATOM     34  H92 UNL     1      78.078  22.340  -0.141  1.00  0.00     0.274 HD
ATOM     35  H91 UNL     1      79.177  21.817  -1.311  1.00  0.00     0.274 HD
ENDBRANCH  31  32
ENDBRANCH  30  31
ENDBRANCH  28  30
ENDBRANCH  25  26
ENDBRANCH  24  25
ENDBRANCH   1  19
TORSDOF 12
ENDMDL
MODEL 4
REMARK VINA RESULT: -8.072526366      1.512      1.855
REMARK  12 active torsions:
REMARK  status: ('A' for Active; 'I' for Inactive)
REMARK       I    between atoms: C1_4  and  N3_6 
REMARK    1  A    between atoms: N3_6  and  C2_8 
REMARK    2  A    between atoms: C2_8  and  C3_9 
REMARK    3  A    between atoms: C3_9  and  N4_10 
REMARK    4  A    between atoms: N4_10  and  C4_13 
REMARK    5  A    between atoms: C4_13  and  C5_14 
REMARK       I    between atoms: C5_14  and  N5_16 
REMARK    6  A    between atoms: N5_16  and  C6_18 
REMARK    7  A    between atoms: C6_18  and  C7_19 
REMARK    8  A    between atoms: N7_24  and  C9_25 
REMARK    9  A    between atoms: C9_25  and  C10_26 
REMARK       I    between atoms: C10_26  and  N8_28 
REMARK   10  A    between atoms: N8_28  and  C11_30 
REMARK   11  A    between atoms: C11_30  and  C12_31 
REMARK   12  A    between atoms: C12_31  and  N9_32 
ROOT
HETATM    1  C6  UNL     1      79.854  28.017  -3.339  1.00  0.00     0.171 C 
ENDROOT
BRANCH   1   2
HETATM    2  N5  UNL     1      80.255  27.089  -2.304  1.00  0.00    -0.356 N 
HETATM    3  C5  UNL     1      81.633  26.961  -1.913  1.00  0.00     0.243 C 
HETATM    4  O1  UNL     1      82.463  27.674  -2.501  1.00  0.00    -0.272 OA
ATOM      5  H5  UNL     1      79.548  26.516  -1.843  1.00  0.00     0.162 HD
BRANCH   3   6
HETATM    6  C4  UNL     1      82.035  26.027  -0.866  1.00  0.00     0.335 C 
BRANCH   6   7
HETATM    7  N4  UNL     1      83.435  25.718  -0.797  1.00  0.00    -0.062 N 
ATOM      8  H42 UNL     1      83.917  26.004  -1.649  1.00  0.00     0.278 HD
ATOM      9  H41 UNL     1      83.593  24.712  -0.851  1.00  0.00     0.278 HD
BRANCH   7  10
HETATM   10  C3  UNL     1      84.049  26.270   0.346  1.00  0.00     0.277 C 
BRANCH  10  11
HETATM   11  C2  UNL     1      85.511  26.079   0.523  1.00  0.00     0.090 C 
BRANCH  11  12
HETATM   12  N3  UNL     1      86.034  24.775   0.456  1.00  0.00    -0.343 N 
HETATM   13  C1  UNL     1      86.860  24.311  -0.587  1.00  0.00     0.185 C 
HETATM   14  N1  UNL     1      86.572  24.417  -1.848  1.00  0.00    -0.374 N 
HETATM   15  N2  UNL     1      88.085  23.674  -0.247  1.00  0.00    -0.064 NA
ATOM     16  H12 UNL     1      87.170  24.082  -2.603  1.00  0.00     0.158 HD
ATOM     17  H11 UNL     1      85.694  24.875  -2.092  1.00  0.00     0.158 HD
ATOM     18  H3  UNL     1      85.802  24.126   1.208  1.00  0.00     0.167 HD
ENDBRANCH  11  12
ENDBRANCH  10  11
ENDBRANCH   7  10
ENDBRANCH   6   7
ENDBRANCH   3   6
ENDBRANCH   1   2
BRANCH   1  19
HETATM   19  C7  UNL     1      78.368  28.264  -3.262  1.00  0.00     0.285 C 
HETATM   20  N6  UNL     1      77.950  29.128  -4.385  1.00  0.00    -0.045 N 
HETATM   21  C8  UNL     1      76.963  28.105  -4.779  1.00  0.00     0.332 C 
ATOM     22  H62 UNL     1      77.655  30.090  -4.212  1.00  0.00     0.280 HD
ATOM     23  H61 UNL     1      78.638  29.467  -5.057  1.00  0.00     0.280 HD
HETATM   24  N7  UNL     1      77.613  27.231  -3.877  1.00  0.00    -0.234 NA
BRANCH  24  25
HETATM   25  C9  UNL     1      76.913  26.279  -3.127  1.00  0.00     0.137 C 
BRANCH  25  26
HETATM   26  C10 UNL     1      77.514  24.964  -2.934  1.00  0.00     0.251 C 
HETATM   27  O2  UNL     1      78.657  24.756  -2.454  1.00  0.00    -0.268 OA
HETATM   28  N8  UNL     1      76.769  23.813  -3.309  1.00  0.00    -0.355 N 
ATOM     29  H8  UNL     1      75.835  23.951  -3.698  1.00  0.00     0.162 HD
BRANCH  28  30
HETATM   30  C11 UNL     1      77.251  22.469  -3.174  1.00  0.00     0.150 C 
BRANCH  30  31
HETATM   31  C12 UNL     1      77.023  21.622  -4.389  1.00  0.00     0.249 C 
BRANCH  31  32
HETATM   32  N9  UNL     1      77.950  20.500  -4.428  1.00  0.00    -0.078 N 
ATOM     33  H93 UNL     1      78.757  20.660  -3.826  1.00  0.00     0.274 HD
ATOM     34  H92 UNL     1      77.566  19.679  -3.960  1.00  0.00     0.274 HD
ATOM     35  H91 UNL     1      78.231  20.290  -5.386  1.00  0.00     0.274 HD
ENDBRANCH  31  32
ENDBRANCH  30  31
ENDBRANCH  28  30
ENDBRANCH  25  26
ENDBRANCH  24  25
ENDBRANCH   1  19
TORSDOF 12
ENDMDL
MODEL 5
REMARK VINA RESULT: -8.033977915      1.704      2.146
REMARK  12 active torsions:
REMARK  status: ('A' for Active; 'I' for Inactive)
REMARK       I    between atoms: C1_4  and  N3_6 
REMARK    1  A    between atoms: N3_6  and  C2_8 
REMARK    2  A    between atoms: C2_8  and  C3_9 
REMARK    3  A    between atoms: C3_9  and  N4_10 
REMARK    4  A    between atoms: N4_10  and  C4_13 
REMARK    5  A    between atoms: C4_13  and  C5_14 
REMARK       I    between atoms: C5_14  and  N5_16 
REMARK    6  A    between atoms: N5_16  and  C6_18 
REMARK    7  A    between atoms: C6_18  and  C7_19 
REMARK    8  A    between atoms: N7_24  and  C9_25 
REMARK    9  A    between atoms: C9_25  and  C10_26 
REMARK       I    between atoms: C10_26  and  N8_28 
REMARK   10  A    between atoms: N8_28  and  C11_30 
REMARK   11  A    between atoms: C11_30  and  C12_31 
REMARK   12  A    between atoms: C12_31  and  N9_32 
ROOT
HETATM    1  C6  UNL     1      79.782  26.911  -3.312  1.00  0.00     0.171 C 
ENDROOT
BRANCH   1   2
HETATM    2  N5  UNL     1      80.827  26.193  -2.614  1.00  0.00    -0.356 N 
HETATM    3  C5  UNL     1      81.456  26.747  -1.445  1.00  0.00     0.243 C 
HETATM    4  O1  UNL     1      81.070  27.864  -1.063  1.00  0.00    -0.272 OA
ATOM      5  H5  UNL     1      81.123  25.279  -2.957  1.00  0.00     0.162 HD
BRANCH   3   6
HETATM    6  C4  UNL     1      82.508  26.021  -0.741  1.00  0.00     0.335 C 
BRANCH   6   7
HETATM    7  N4  UNL     1      83.457  26.822  -0.021  1.00  0.00    -0.062 N 
ATOM      8  H42 UNL     1      82.992  27.415   0.666  1.00  0.00     0.278 HD
ATOM      9  H41 UNL     1      83.855  27.546  -0.619  1.00  0.00     0.278 HD
BRANCH   7  10
HETATM   10  C3  UNL     1      84.469  26.044   0.578  1.00  0.00     0.277 C 
BRANCH  10  11
HETATM   11  C2  UNL     1      84.954  24.840  -0.144  1.00  0.00     0.090 C 
BRANCH  11  12
HETATM   12  N3  UNL     1      85.922  25.002  -1.151  1.00  0.00    -0.343 N 
HETATM   13  C1  UNL     1      87.070  24.195  -1.277  1.00  0.00     0.185 C 
HETATM   14  N1  UNL     1      87.904  23.955  -0.312  1.00  0.00    -0.374 N 
HETATM   15  N2  UNL     1      87.348  23.609  -2.543  1.00  0.00    -0.064 NA
ATOM     16  H12 UNL     1      88.734  23.370  -0.403  1.00  0.00     0.158 HD
ATOM     17  H11 UNL     1      87.704  24.375   0.596  1.00  0.00     0.158 HD
ATOM     18  H3  UNL     1      85.786  25.750  -1.831  1.00  0.00     0.167 HD
ENDBRANCH  11  12
ENDBRANCH  10  11
ENDBRANCH   7  10
ENDBRANCH   6   7
ENDBRANCH   3   6
ENDBRANCH   1   2
BRANCH   1  19
HETATM   19  C7  UNL     1      78.483  26.793  -2.553  1.00  0.00     0.285 C 
HETATM   20  N6  UNL     1      77.565  27.872  -2.971  1.00  0.00    -0.045 N 
HETATM   21  C8  UNL     1      76.551  26.854  -3.306  1.00  0.00     0.332 C 
ATOM     22  H62 UNL     1      77.339  28.633  -2.330  1.00  0.00     0.280 HD
ATOM     23  H61 UNL     1      77.858  28.556  -3.669  1.00  0.00     0.280 HD
HETATM   24  N7  UNL     1      77.576  25.889  -3.167  1.00  0.00    -0.234 NA
BRANCH  24  25
HETATM   25  C9  UNL     1      77.333  24.614  -2.643  1.00  0.00     0.137 C 
BRANCH  25  26
HETATM   26  C10 UNL     1      77.775  23.451  -3.405  1.00  0.00     0.251 C 
HETATM   27  O2  UNL     1      78.970  23.187  -3.693  1.00  0.00    -0.268 OA
HETATM   28  N8  UNL     1      76.796  22.529  -3.869  1.00  0.00    -0.355 N 
ATOM     29  H8  UNL     1      75.818  22.715  -3.647  1.00  0.00     0.162 HD
BRANCH  28  30
HETATM   30  C11 UNL     1      77.103  21.354  -4.631  1.00  0.00     0.150 C 
BRANCH  30  31
HETATM   31  C12 UNL     1      77.785  20.282  -3.836  1.00  0.00     0.249 C 
BRANCH  31  32
HETATM   32  N9  UNL     1      79.125  20.025  -4.343  1.00  0.00    -0.078 N 
ATOM     33  H93 UNL     1      79.439  20.768  -4.966  1.00  0.00     0.274 HD
ATOM     34  H92 UNL     1      79.830  20.127  -3.612  1.00  0.00     0.274 HD
ATOM     35  H91 UNL     1      79.179  19.110  -4.791  1.00  0.00     0.274 HD
ENDBRANCH  31  32
ENDBRANCH  30  31
ENDBRANCH  28  30
ENDBRANCH  25  26
ENDBRANCH  24  25
ENDBRANCH   1  19
TORSDOF 12
ENDMDL
