MODEL 1
REMARK VINA RESULT: -8.646126916      0.000      0.000
REMARK  12 active torsions:
REMARK  status: ('A' for Active; 'I' for Inactive)
REMARK    1  A    between atoms: N1_1  and  C1_5 
REMARK    2  A    between atoms: C1_5  and  C2_6 
REMARK    3  A    between atoms: C2_6  and  N2_7 
REMARK    4  A    between atoms: N2_7  and  C3_9 
REMARK    5  A    between atoms: C3_9  and  C4_10 
REMARK       I    between atoms: C4_10  and  N3_12 
REMARK    6  A    between atoms: N3_12  and  C5_14 
REMARK    7  A    between atoms: C6_18  and  N5_19 
REMARK       I    between atoms: N5_19  and  C7_21 
REMARK    8  A    between atoms: C7_21  and  C8_23 
REMARK    9  A    between atoms: C8_23  and  N6_24 
REMARK   10  A    between atoms: N6_24  and  C9_26 
REMARK   11  A    between atoms: C9_26  and  C10_27 
REMARK   12  A    between atoms: C10_27  and  N7_28 
REMARK       I    between atoms: N7_28  and  C11_30 
ROOT
HETATM    1  C5  UNL     1      78.907  26.360  -4.111  1.00  0.00     0.339 A 
HETATM    2  N4  UNL     1      78.907  27.305  -3.038  1.00  0.00    -0.026 N 
ATOM      3  H41 UNL     1      78.519  27.306  -2.095  1.00  0.00     0.282 HD
ATOM      4  H42 UNL     1      78.448  28.203  -2.885  1.00  0.00     0.282 HD
HETATM    5  C6  UNL     1      80.174  26.911  -3.600  1.00  0.00     0.339 A 
ENDROOT
BRANCH   5   6
HETATM    6  N5  UNL     1      81.066  26.100  -2.802  1.00  0.00    -0.329 N 
HETATM    7  C7  UNL     1      81.461  26.560  -1.520  1.00  0.00     0.236 C 
HETATM    8  O2  UNL     1      81.011  27.668  -1.129  1.00  0.00    -0.272 OA
ATOM      9  H5  UNL     1      81.408  25.207  -3.158  1.00  0.00     0.164 HD
BRANCH   7  10
HETATM   10  C8  UNL     1      82.374  25.729  -0.707  1.00  0.00     0.217 C 
BRANCH  10  11
HETATM   11  N6  UNL     1      83.743  26.106  -0.832  1.00  0.00    -0.412 N 
ATOM     12  H6  UNL     1      84.196  26.205  -1.740  1.00  0.00     0.153 HD
BRANCH  11  13
HETATM   13  C9  UNL     1      84.445  26.339   0.391  1.00  0.00     0.134 C 
BRANCH  13  14
HETATM   14  C10 UNL     1      85.802  25.634   0.262  1.00  0.00     0.143 C 
BRANCH  14  15
HETATM   15  N7  UNL     1      85.954  25.060  -1.059  1.00  0.00    -0.344 N 
HETATM   16  C11 UNL     1      87.067  24.235  -1.310  1.00  0.00     0.328 C 
HETATM   17  N8  UNL     1      87.243  23.664  -2.578  1.00  0.00    -0.040 NA
HETATM   18  O3  UNL     1      87.897  24.013  -0.404  1.00  0.00    -0.251 OA
ATOM     19  H7  UNL     1      85.269  25.249  -1.791  1.00  0.00     0.163 HD
ENDBRANCH  14  15
ENDBRANCH  13  14
ENDBRANCH  11  13
ENDBRANCH  10  11
ENDBRANCH   7  10
ENDBRANCH   5   6
BRANCH   1  20
HETATM   20  N3  UNL     1      78.681  24.951  -3.822  1.00  0.00    -0.329 N 
HETATM   21  C4  UNL     1      77.447  24.561  -3.250  1.00  0.00     0.236 C 
HETATM   22  O1  UNL     1      76.586  25.432  -3.009  1.00  0.00    -0.272 OA
ATOM     23  H3  UNL     1      79.400  24.258  -4.028  1.00  0.00     0.164 HD
BRANCH  21  24
HETATM   24  C3  UNL     1      77.198  23.156  -2.953  1.00  0.00     0.217 C 
BRANCH  24  25
HETATM   25  N2  UNL     1      78.019  22.203  -3.617  1.00  0.00    -0.412 N 
ATOM     26  H2  UNL     1      79.035  22.287  -3.628  1.00  0.00     0.153 HD
BRANCH  25  27
HETATM   27  C2  UNL     1      77.350  21.125  -4.267  1.00  0.00     0.141 C 
BRANCH  27  28
HETATM   28  C1  UNL     1      78.206  19.879  -4.114  1.00  0.00     0.248 C 
BRANCH  28  29
HETATM   29  N1  UNL     1      79.551  20.061  -4.565  1.00  0.00    -0.078 N 
ATOM     30  H13 UNL     1      79.804  21.049  -4.563  1.00  0.00     0.274 HD
ATOM     31  H12 UNL     1      80.216  19.718  -3.872  1.00  0.00     0.274 HD
ATOM     32  H11 UNL     1      79.728  19.642  -5.477  1.00  0.00     0.274 HD
ENDBRANCH  28  29
ENDBRANCH  27  28
ENDBRANCH  25  27
ENDBRANCH  24  25
ENDBRANCH  21  24
ENDBRANCH   1  20
TORSDOF 12
ENDMDL
MODEL 2
REMARK VINA RESULT: -8.352631776      1.404      1.632
REMARK  12 active torsions:
REMARK  status: ('A' for Active; 'I' for Inactive)
REMARK    1  A    between atoms: N1_1  and  C1_5 
REMARK    2  A    between atoms: C1_5  and  C2_6 
REMARK    3  A    between atoms: C2_6  and  N2_7 
REMARK    4  A    between atoms: N2_7  and  C3_9 
REMARK    5  A    between atoms: C3_9  and  C4_10 
REMARK       I    between atoms: C4_10  and  N3_12 
REMARK    6  A    between atoms: N3_12  and  C5_14 
REMARK    7  A    between atoms: C6_18  and  N5_19 
REMARK       I    between atoms: N5_19  and  C7_21 
REMARK    8  A    between atoms: C7_21  and  C8_23 
REMARK    9  A    between atoms: C8_23  and  N6_24 
REMARK   10  A    between atoms: N6_24  and  C9_26 
REMARK   11  A    between atoms: C9_26  and  C10_27 
REMARK   12  A    between atoms: C10_27  and  N7_28 
REMARK       I    between atoms: N7_28  and  C11_30 
ROOT
HETATM    1  C5  UNL     1      78.937  26.507  -4.177  1.00  0.00     0.339 A 
HETATM    2  N4  UNL     1      78.946  27.455  -3.107  1.00  0.00    -0.026 N 
ATOM      3  H41 UNL     1      78.556  27.464  -2.165  1.00  0.00     0.282 HD
ATOM      4  H42 UNL     1      78.499  28.360  -2.958  1.00  0.00     0.282 HD
HETATM    5  C6  UNL     1      80.210  27.042  -3.664  1.00  0.00     0.339 A 
ENDROOT
BRANCH   5   6
HETATM    6  N5  UNL     1      81.089  26.222  -2.861  1.00  0.00    -0.329 N 
HETATM    7  C7  UNL     1      81.428  26.647  -1.551  1.00  0.00     0.236 C 
HETATM    8  O2  UNL     1      80.941  27.733  -1.140  1.00  0.00    -0.272 OA
ATOM      9  H5  UNL     1      81.462  25.349  -3.232  1.00  0.00     0.164 HD
BRANCH   7  10
HETATM   10  C8  UNL     1      82.327  25.807  -0.732  1.00  0.00     0.217 C 
BRANCH  10  11
HETATM   11  N6  UNL     1      83.706  26.140  -0.884  1.00  0.00    -0.412 N 
ATOM     12  H6  UNL     1      84.145  26.217  -1.802  1.00  0.00     0.153 HD
BRANCH  11  13
HETATM   13  C9  UNL     1      84.435  26.362   0.323  1.00  0.00     0.134 C 
BRANCH  13  14
HETATM   14  C10 UNL     1      85.606  25.370   0.320  1.00  0.00     0.143 C 
BRANCH  14  15
HETATM   15  N7  UNL     1      85.828  24.849  -1.014  1.00  0.00    -0.344 N 
HETATM   16  C11 UNL     1      87.052  24.212  -1.292  1.00  0.00     0.328 C 
HETATM   17  N8  UNL     1      87.298  23.697  -2.573  1.00  0.00    -0.040 NA
HETATM   18  O3  UNL     1      87.918  24.105  -0.400  1.00  0.00    -0.251 OA
ATOM     19  H7  UNL     1      85.112  24.943  -1.735  1.00  0.00     0.163 HD
ENDBRANCH  14  15
ENDBRANCH  13  14
ENDBRANCH  11  13
ENDBRANCH  10  11
ENDBRANCH   7  10
ENDBRANCH   5   6
BRANCH   1  20
HETATM   20  N3  UNL     1      78.692  25.102  -3.883  1.00  0.00    -0.329 N 
HETATM   21  C4  UNL     1      77.475  24.737  -3.261  1.00  0.00     0.236 C 
HETATM   22  O1  UNL     1      76.644  25.627  -2.981  1.00  0.00    -0.272 OA
ATOM     23  H3  UNL     1      79.385  24.393  -4.122  1.00  0.00     0.164 HD
BRANCH  21  24
HETATM   24  C3  UNL     1      77.206  23.337  -2.959  1.00  0.00     0.217 C 
BRANCH  24  25
HETATM   25  N2  UNL     1      78.074  22.702  -2.028  1.00  0.00    -0.412 N 
ATOM     26  H2  UNL     1      78.998  23.079  -1.815  1.00  0.00     0.153 HD
BRANCH  25  27
HETATM   27  C2  UNL     1      77.589  21.514  -1.408  1.00  0.00     0.141 C 
BRANCH  27  28
HETATM   28  C1  UNL     1      78.385  21.288  -0.134  1.00  0.00     0.248 C 
BRANCH  28  29
HETATM   29  N1  UNL     1      77.970  20.127   0.591  1.00  0.00    -0.078 N 
ATOM     30  H13 UNL     1      77.840  19.334  -0.037  1.00  0.00     0.274 HD
ATOM     31  H12 UNL     1      78.732  19.764   1.164  1.00  0.00     0.274 HD
ATOM     32  H11 UNL     1      77.134  20.284   1.155  1.00  0.00     0.274 HD
ENDBRANCH  28  29
ENDBRANCH  27  28
ENDBRANCH  25  27
ENDBRANCH  24  25
ENDBRANCH  21  24
ENDBRANCH   1  20
TORSDOF 12
ENDMDL
MODEL 3
REMARK VINA RESULT: -8.283704976      1.076      1.178
REMARK  12 active torsions:
REMARK  status: ('A' for Active; 'I' for Inactive)
REMARK    1  A    between atoms: N1_1  and  C1_5 
REMARK    2  A    between atoms: C1_5  and  C2_6 
REMARK    3  A    between atoms: C2_6  and  N2_7 
REMARK    4  A    between atoms: N2_7  and  C3_9 
REMARK    5  A    between atoms: C3_9  and  C4_10 
REMARK       I    between atoms: C4_10  and  N3_12 
REMARK    6  A    between atoms: N3_12  and  C5_14 
REMARK    7  A    between atoms: C6_18  and  N5_19 
REMARK       I    between atoms: N5_19  and  C7_21 
REMARK    8  A    between atoms: C7_21  and  C8_23 
REMARK    9  A    between atoms: C8_23  and  N6_24 
REMARK   10  A    between atoms: N6_24  and  C9_26 
REMARK   11  A    between atoms: C9_26  and  C10_27 
REMARK   12  A    between atoms: C10_27  and  N7_28 
REMARK       I    between atoms: N7_28  and  C11_30 
ROOT
HETATM    1  C5  UNL     1      78.545  27.592  -3.641  1.00  0.00     0.339 A 
HETATM    2  N4  UNL     1      78.324  28.471  -2.536  1.00  0.00    -0.026 N 
ATOM      3  H41 UNL     1      77.698  28.453  -1.731  1.00  0.00     0.282 HD
ATOM      4  H42 UNL     1      77.908  29.396  -2.439  1.00  0.00     0.282 HD
HETATM    5  C6  UNL     1      79.664  27.996  -2.773  1.00  0.00     0.339 A 
ENDROOT
BRANCH   5   6
HETATM    6  N5  UNL     1      80.249  27.064  -1.836  1.00  0.00    -0.329 N 
HETATM    7  C7  UNL     1      81.660  26.943  -1.767  1.00  0.00     0.236 C 
HETATM    8  O2  UNL     1      82.350  27.662  -2.536  1.00  0.00    -0.272 OA
ATOM      9  H5  UNL     1      79.653  26.500  -1.230  1.00  0.00     0.164 HD
BRANCH   7  10
HETATM   10  C8  UNL     1      82.255  25.988  -0.808  1.00  0.00     0.217 C 
BRANCH  10  11
HETATM   11  N6  UNL     1      83.679  25.953  -0.856  1.00  0.00    -0.412 N 
ATOM     12  H6  UNL     1      84.186  25.755  -1.719  1.00  0.00     0.153 HD
BRANCH  11  13
HETATM   13  C9  UNL     1      84.356  26.211   0.375  1.00  0.00     0.134 C 
BRANCH  13  14
HETATM   14  C10 UNL     1      85.769  25.629   0.232  1.00  0.00     0.143 C 
BRANCH  14  15
HETATM   15  N7  UNL     1      85.953  25.058  -1.086  1.00  0.00    -0.344 N 
HETATM   16  C11 UNL     1      87.061  24.216  -1.305  1.00  0.00     0.328 C 
HETATM   17  N8  UNL     1      87.268  23.648  -2.570  1.00  0.00    -0.040 NA
HETATM   18  O3  UNL     1      87.857  23.976  -0.375  1.00  0.00    -0.251 OA
ATOM     19  H7  UNL     1      85.296  25.262  -1.839  1.00  0.00     0.163 HD
ENDBRANCH  14  15
ENDBRANCH  13  14
ENDBRANCH  11  13
ENDBRANCH  10  11
ENDBRANCH   7  10
ENDBRANCH   5   6
BRANCH   1  20
HETATM   20  N3  UNL     1      78.149  26.195  -3.534  1.00  0.00    -0.329 N 
HETATM   21  C4  UNL     1      76.846  25.888  -3.077  1.00  0.00     0.236 C 
HETATM   22  O1  UNL     1      76.070  26.821  -2.779  1.00  0.00    -0.272 OA
ATOM     23  H3  UNL     1      78.800  25.450  -3.783  1.00  0.00     0.164 HD
BRANCH  21  24
HETATM   24  C3  UNL     1      76.426  24.497  -2.961  1.00  0.00     0.217 C 
BRANCH  24  25
HETATM   25  N2  UNL     1      77.202  23.532  -3.661  1.00  0.00    -0.412 N 
ATOM     26  H2  UNL     1      77.701  23.766  -4.519  1.00  0.00     0.153 HD
BRANCH  25  27
HETATM   27  C2  UNL     1      77.246  22.221  -3.103  1.00  0.00     0.141 C 
BRANCH  27  28
HETATM   28  C1  UNL     1      77.253  21.222  -4.248  1.00  0.00     0.248 C 
BRANCH  28  29
HETATM   29  N1  UNL     1      78.438  20.421  -4.288  1.00  0.00    -0.078 N 
ATOM     30  H13 UNL     1      78.252  19.480  -3.944  1.00  0.00     0.274 HD
ATOM     31  H12 UNL     1      78.694  20.200  -5.250  1.00  0.00     0.274 HD
ATOM     32  H11 UNL     1      79.223  20.841  -3.791  1.00  0.00     0.274 HD
ENDBRANCH  28  29
ENDBRANCH  27  28
ENDBRANCH  25  27
ENDBRANCH  24  25
ENDBRANCH  21  24
ENDBRANCH   1  20
TORSDOF 12
ENDMDL
MODEL 4
REMARK VINA RESULT: -8.200879045      1.995      7.614
REMARK  12 active torsions:
REMARK  status: ('A' for Active; 'I' for Inactive)
REMARK    1  A    between atoms: N1_1  and  C1_5 
REMARK    2  A    between atoms: C1_5  and  C2_6 
REMARK    3  A    between atoms: C2_6  and  N2_7 
REMARK    4  A    between atoms: N2_7  and  C3_9 
REMARK    5  A    between atoms: C3_9  and  C4_10 
REMARK       I    between atoms: C4_10  and  N3_12 
REMARK    6  A    between atoms: N3_12  and  C5_14 
REMARK    7  A    between atoms: C6_18  and  N5_19 
REMARK       I    between atoms: N5_19  and  C7_21 
REMARK    8  A    between atoms: C7_21  and  C8_23 
REMARK    9  A    between atoms: C8_23  and  N6_24 
REMARK   10  A    between atoms: N6_24  and  C9_26 
REMARK   11  A    between atoms: C9_26  and  C10_27 
REMARK   12  A    between atoms: C10_27  and  N7_28 
REMARK       I    between atoms: N7_28  and  C11_30 
ROOT
HETATM    1  C5  UNL     1      81.295  27.381  -1.298  1.00  0.00     0.339 A 
HETATM    2  N4  UNL     1      80.940  27.689  -2.648  1.00  0.00    -0.026 N 
ATOM      3  H41 UNL     1      81.291  27.392  -3.558  1.00  0.00     0.282 HD
ATOM      4  H42 UNL     1      81.038  28.516  -3.235  1.00  0.00     0.282 HD
HETATM    5  C6  UNL     1      79.909  27.204  -1.765  1.00  0.00     0.339 A 
ENDROOT
BRANCH   5   6
HETATM    6  N5  UNL     1      79.366  25.884  -1.989  1.00  0.00    -0.329 N 
HETATM    7  C7  UNL     1      78.915  25.530  -3.286  1.00  0.00     0.236 C 
HETATM    8  O2  UNL     1      79.010  26.394  -4.197  1.00  0.00    -0.272 OA
ATOM      9  H5  UNL     1      79.307  25.214  -1.222  1.00  0.00     0.164 HD
BRANCH   7  10
HETATM   10  C8  UNL     1      78.359  24.180  -3.512  1.00  0.00     0.217 C 
BRANCH  10  11
HETATM   11  N6  UNL     1      76.943  24.117  -3.353  1.00  0.00    -0.412 N 
ATOM     12  H6  UNL     1      76.344  24.923  -3.532  1.00  0.00     0.153 HD
BRANCH  11  13
HETATM   13  C9  UNL     1      76.414  22.861  -2.927  1.00  0.00     0.134 C 
BRANCH  13  14
HETATM   14  C10 UNL     1      76.990  21.797  -3.871  1.00  0.00     0.143 C 
BRANCH  14  15
HETATM   15  N7  UNL     1      77.834  20.873  -3.142  1.00  0.00    -0.344 N 
HETATM   16  C11 UNL     1      78.519  19.875  -3.863  1.00  0.00     0.328 C 
HETATM   17  N8  UNL     1      79.343  18.966  -3.187  1.00  0.00    -0.040 NA
HETATM   18  O3  UNL     1      78.391  19.801  -5.102  1.00  0.00    -0.251 OA
ATOM     19  H7  UNL     1      77.930  20.944  -2.129  1.00  0.00     0.163 HD
ENDBRANCH  14  15
ENDBRANCH  13  14
ENDBRANCH  11  13
ENDBRANCH  10  11
ENDBRANCH   7  10
ENDBRANCH   5   6
BRANCH   1  20
HETATM   20  N3  UNL     1      82.016  26.149  -1.012  1.00  0.00    -0.329 N 
HETATM   21  C4  UNL     1      83.204  26.215  -0.247  1.00  0.00     0.236 C 
HETATM   22  O1  UNL     1      83.603  27.325   0.162  1.00  0.00    -0.272 OA
ATOM     23  H3  UNL     1      81.670  25.254  -1.357  1.00  0.00     0.164 HD
BRANCH  21  24
HETATM   24  C3  UNL     1      83.942  24.994   0.053  1.00  0.00     0.217 C 
BRANCH  24  25
HETATM   25  N2  UNL     1      85.007  24.654  -0.827  1.00  0.00    -0.412 N 
ATOM     26  H2  UNL     1      84.847  24.109  -1.675  1.00  0.00     0.153 HD
BRANCH  25  27
HETATM   27  C2  UNL     1      86.307  25.112  -0.465  1.00  0.00     0.141 C 
BRANCH  27  28
HETATM   28  C1  UNL     1      87.325  24.325  -1.273  1.00  0.00     0.248 C 
BRANCH  28  29
HETATM   29  N1  UNL     1      86.829  23.905  -2.548  1.00  0.00    -0.078 N 
ATOM     30  H13 UNL     1      87.575  23.499  -3.112  1.00  0.00     0.274 HD
ATOM     31  H12 UNL     1      86.228  23.086  -2.452  1.00  0.00     0.274 HD
ATOM     32  H11 UNL     1      86.352  24.648  -3.057  1.00  0.00     0.274 HD
ENDBRANCH  28  29
ENDBRANCH  27  28
ENDBRANCH  25  27
ENDBRANCH  24  25
ENDBRANCH  21  24
ENDBRANCH   1  20
TORSDOF 12
ENDMDL
MODEL 5
REMARK VINA RESULT: -8.198993906      2.131      7.418
REMARK  12 active torsions:
REMARK  status: ('A' for Active; 'I' for Inactive)
REMARK    1  A    between atoms: N1_1  and  C1_5 
REMARK    2  A    between atoms: C1_5  and  C2_6 
REMARK    3  A    between atoms: C2_6  and  N2_7 
REMARK    4  A    between atoms: N2_7  and  C3_9 
REMARK    5  A    between atoms: C3_9  and  C4_10 
REMARK       I    between atoms: C4_10  and  N3_12 
REMARK    6  A    between atoms: N3_12  and  C5_14 
REMARK    7  A    between atoms: C6_18  and  N5_19 
REMARK       I    between atoms: N5_19  and  C7_21 
REMARK    8  A    between atoms: C7_21  and  C8_23 
REMARK    9  A    between atoms: C8_23  and  N6_24 
REMARK   10  A    between atoms: N6_24  and  C9_26 
REMARK   11  A    between atoms: C9_26  and  C10_27 
REMARK   12  A    between atoms: C10_27  and  N7_28 
REMARK       I    between atoms: N7_28  and  C11_30 
ROOT
HETATM    1  C5  UNL     1      81.171  27.398  -1.237  1.00  0.00     0.339 A 
HETATM    2  N4  UNL     1      80.802  27.757  -2.571  1.00  0.00    -0.026 N 
ATOM      3  H41 UNL     1      81.163  27.519  -3.494  1.00  0.00     0.282 HD
ATOM      4  H42 UNL     1      80.866  28.616  -3.117  1.00  0.00     0.282 HD
HETATM    5  C6  UNL     1      79.793  27.189  -1.713  1.00  0.00     0.339 A 
ENDROOT
BRANCH   5   6
HETATM    6  N5  UNL     1      79.302  25.860  -2.001  1.00  0.00    -0.329 N 
HETATM    7  C7  UNL     1      78.700  25.601  -3.259  1.00  0.00     0.236 C 
HETATM    8  O2  UNL     1      78.620  26.553  -4.079  1.00  0.00    -0.272 OA
ATOM      9  H5  UNL     1      79.387  25.117  -1.307  1.00  0.00     0.164 HD
BRANCH   7  10
HETATM   10  C8  UNL     1      78.199  24.242  -3.550  1.00  0.00     0.217 C 
BRANCH  10  11
HETATM   11  N6  UNL     1      76.809  24.081  -3.275  1.00  0.00    -0.412 N 
ATOM     12  H6  UNL     1      76.156  24.864  -3.315  1.00  0.00     0.153 HD
BRANCH  11  13
HETATM   13  C9  UNL     1      76.383  22.759  -2.941  1.00  0.00     0.134 C 
BRANCH  13  14
HETATM   14  C10 UNL     1      77.652  21.907  -2.809  1.00  0.00     0.143 C 
BRANCH  14  15
HETATM   15  N7  UNL     1      77.666  21.208  -1.540  1.00  0.00    -0.344 N 
HETATM   16  C11 UNL     1      78.382  21.774  -0.468  1.00  0.00     0.328 C 
HETATM   17  N8  UNL     1      78.416  21.122   0.773  1.00  0.00    -0.040 NA
HETATM   18  O3  UNL     1      78.987  22.855  -0.621  1.00  0.00    -0.251 OA
ATOM     19  H7  UNL     1      77.168  20.325  -1.426  1.00  0.00     0.163 HD
ENDBRANCH  14  15
ENDBRANCH  13  14
ENDBRANCH  11  13
ENDBRANCH  10  11
ENDBRANCH   7  10
ENDBRANCH   5   6
BRANCH   1  20
HETATM   20  N3  UNL     1      81.941  26.184  -1.012  1.00  0.00    -0.329 N 
HETATM   21  C4  UNL     1      83.170  26.273  -0.316  1.00  0.00     0.236 C 
HETATM   22  O1  UNL     1      83.561  27.389   0.086  1.00  0.00    -0.272 OA
ATOM     23  H3  UNL     1      81.601  25.283  -1.350  1.00  0.00     0.164 HD
BRANCH  21  24
HETATM   24  C3  UNL     1      83.957  25.070  -0.077  1.00  0.00     0.217 C 
BRANCH  24  25
HETATM   25  N2  UNL     1      85.097  24.873  -0.905  1.00  0.00    -0.412 N 
ATOM     26  H2  UNL     1      85.009  24.564  -1.872  1.00  0.00     0.153 HD
BRANCH  25  27
HETATM   27  C2  UNL     1      86.368  25.131  -0.313  1.00  0.00     0.141 C 
BRANCH  27  28
HETATM   28  C1  UNL     1      87.421  24.383  -1.116  1.00  0.00     0.248 C 
BRANCH  28  29
HETATM   29  N1  UNL     1      86.954  23.961  -2.400  1.00  0.00    -0.078 N 
ATOM     30  H13 UNL     1      87.079  22.956  -2.519  1.00  0.00     0.274 HD
ATOM     31  H12 UNL     1      85.936  24.010  -2.451  1.00  0.00     0.274 HD
ATOM     32  H11 UNL     1      87.381  24.474  -3.171  1.00  0.00     0.274 HD
ENDBRANCH  28  29
ENDBRANCH  27  28
ENDBRANCH  25  27
ENDBRANCH  24  25
ENDBRANCH  21  24
ENDBRANCH   1  20
TORSDOF 12
ENDMDL
