MODEL 1
REMARK VINA RESULT: -7.998147968      0.000      0.000
REMARK  14 active torsions:
REMARK  status: ('A' for Active; 'I' for Inactive)
REMARK    1  A    between atoms: N2_4  and  N3_6 
REMARK       I    between atoms: N3_6  and  C1_8 
REMARK    2  A    between atoms: N5_10  and  C2_12 
REMARK    3  A    between atoms: C2_12  and  C3_13 
REMARK    4  A    between atoms: C3_13  and  N6_14 
REMARK    5  A    between atoms: N6_14  and  C4_17 
REMARK    6  A    between atoms: C4_17  and  C5_18 
REMARK    7  A    between atoms: C5_18  and  O1_19 
REMARK    8  A    between atoms: O1_19  and  C6_20 
REMARK    9  A    between atoms: C6_20  and  C7_21 
REMARK   10  A    between atoms: C7_21  and  N7_22 
REMARK   11  A    between atoms: C7_21  and  C8_26 
REMARK   12  A    between atoms: C7_21  and  C9_29 
REMARK   13  A    between atoms: C9_29  and  N9_30 
REMARK   14  A    between atoms: C9_29  and  C10_34 
ROOT
HETATM    1  C5  UNL     1      82.604  26.900  -1.215  1.00  0.00     0.195 C 
ENDROOT
BRANCH   1   2
HETATM    2  C4  UNL     1      82.219  25.517  -0.824  1.00  0.00     0.258 C 
BRANCH   2   3
HETATM    3  N6  UNL     1      83.386  24.724  -0.384  1.00  0.00    -0.072 N 
ATOM      4  H62 UNL     1      83.869  24.239  -1.140  1.00  0.00     0.277 HD
ATOM      5  H61 UNL     1      83.145  23.890   0.150  1.00  0.00     0.277 HD
BRANCH   3   6
HETATM    6  C3  UNL     1      84.213  25.663   0.333  1.00  0.00     0.252 C 
BRANCH   6   7
HETATM    7  C2  UNL     1      85.690  25.495   0.066  1.00  0.00     0.150 C 
BRANCH   7   8
HETATM    8  N5  UNL     1      85.960  24.884  -1.189  1.00  0.00    -0.362 N 
HETATM    9  C1  UNL     1      87.033  24.213  -1.405  1.00  0.00     0.204 C 
HETATM   10  N3  UNL     1      88.060  24.001  -0.441  1.00  0.00    -0.260 N 
HETATM   11  N4  UNL     1      87.178  23.655  -2.717  1.00  0.00    -0.062 NA
ATOM     12  H3  UNL     1      89.029  24.163  -0.713  1.00  0.00     0.191 HD
ATOM     13  H5  UNL     1      85.279  24.982  -1.942  1.00  0.00     0.162 HD
BRANCH  10  14
HETATM   14  N2  UNL     1      87.791  23.582   0.849  1.00  0.00    -0.247 N 
HETATM   15  N1  UNL     1      88.369  22.573   1.356  1.00  0.00    -0.331 N 
ATOM     16  H12 UNL     1      89.046  22.069   0.783  1.00  0.00     0.178 HD
ATOM     17  H11 UNL     1      88.171  22.264   2.308  1.00  0.00     0.178 HD
ATOM     18  H2  UNL     1      87.112  24.098   1.407  1.00  0.00     0.207 HD
ENDBRANCH  10  14
ENDBRANCH   7   8
ENDBRANCH   6   7
ENDBRANCH   3   6
ENDBRANCH   2   3
ENDBRANCH   1   2
BRANCH   1  19
HETATM   19  O1  UNL     1      81.633  27.519  -1.973  1.00  0.00    -0.386 OA
BRANCH  19  20
HETATM   20  C6  UNL     1      80.403  27.480  -1.383  1.00  0.00     0.218 C 
BRANCH  20  21
HETATM   21  C7  UNL     1      79.282  27.871  -2.299  1.00  0.00     0.255 C 
BRANCH  21  22
HETATM   22  N7  UNL     1      78.387  28.821  -1.607  1.00  0.00    -0.057 N 
ATOM     23  H73 UNL     1      78.760  29.114  -0.705  1.00  0.00     0.276 HD
ATOM     24  H72 UNL     1      78.368  29.733  -2.062  1.00  0.00     0.276 HD
ATOM     25  H71 UNL     1      77.455  28.413  -1.525  1.00  0.00     0.276 HD
ENDBRANCH  21  22
BRANCH  21  26
HETATM   26  C8  UNL     1      78.493  26.678  -2.666  1.00  0.00     0.272 C 
HETATM   27  N8  UNL     1      77.101  26.748  -2.907  1.00  0.00    -0.060 NA
HETATM   28  O2  UNL     1      79.077  25.574  -2.767  1.00  0.00    -0.274 OA
ENDBRANCH  21  26
BRANCH  21  29
HETATM   29  C9  UNL     1      79.720  28.566  -3.564  1.00  0.00     0.291 C 
BRANCH  29  30
HETATM   30  N9  UNL     1      79.671  27.655  -4.710  1.00  0.00    -0.066 N 
ATOM     31  H93 UNL     1      78.992  26.908  -4.567  1.00  0.00     0.275 HD
ATOM     32  H92 UNL     1      79.245  28.099  -5.524  1.00  0.00     0.275 HD
ATOM     33  H91 UNL     1      80.597  27.285  -4.925  1.00  0.00     0.275 HD
ENDBRANCH  29  30
BRANCH  29  34
HETATM   34  C10 UNL     1      78.820  29.708  -3.875  1.00  0.00     0.267 C 
HETATM   35  O3  UNL     1      77.874  29.554  -4.605  1.00  0.00    -0.305 OA
ENDBRANCH  29  34
ENDBRANCH  21  29
ENDBRANCH  20  21
ENDBRANCH  19  20
ENDBRANCH   1  19
TORSDOF 14
ENDMDL
MODEL 2
REMARK VINA RESULT: -7.837697195      1.030      2.347
REMARK  14 active torsions:
REMARK  status: ('A' for Active; 'I' for Inactive)
REMARK    1  A    between atoms: N2_4  and  N3_6 
REMARK       I    between atoms: N3_6  and  C1_8 
REMARK    2  A    between atoms: N5_10  and  C2_12 
REMARK    3  A    between atoms: C2_12  and  C3_13 
REMARK    4  A    between atoms: C3_13  and  N6_14 
REMARK    5  A    between atoms: N6_14  and  C4_17 
REMARK    6  A    between atoms: C4_17  and  C5_18 
REMARK    7  A    between atoms: C5_18  and  O1_19 
REMARK    8  A    between atoms: O1_19  and  C6_20 
REMARK    9  A    between atoms: C6_20  and  C7_21 
REMARK   10  A    between atoms: C7_21  and  N7_22 
REMARK   11  A    between atoms: C7_21  and  C8_26 
REMARK   12  A    between atoms: C7_21  and  C9_29 
REMARK   13  A    between atoms: C9_29  and  N9_30 
REMARK   14  A    between atoms: C9_29  and  C10_34 
ROOT
HETATM    1  C5  UNL     1      82.470  26.845  -0.750  1.00  0.00     0.195 C 
ENDROOT
BRANCH   1   2
HETATM    2  C4  UNL     1      82.266  25.371  -0.738  1.00  0.00     0.258 C 
BRANCH   2   3
HETATM    3  N6  UNL     1      83.486  24.649  -0.322  1.00  0.00    -0.072 N 
ATOM      4  H62 UNL     1      83.973  24.179  -1.085  1.00  0.00     0.277 HD
ATOM      5  H61 UNL     1      83.305  23.811   0.231  1.00  0.00     0.277 HD
BRANCH   3   6
HETATM    6  C3  UNL     1      84.281  25.642   0.359  1.00  0.00     0.252 C 
BRANCH   6   7
HETATM    7  C2  UNL     1      85.756  25.549   0.052  1.00  0.00     0.150 C 
BRANCH   7   8
HETATM    8  N5  UNL     1      86.024  24.922  -1.195  1.00  0.00    -0.362 N 
HETATM    9  C1  UNL     1      87.082  24.221  -1.393  1.00  0.00     0.204 C 
HETATM   10  N3  UNL     1      88.092  23.989  -0.416  1.00  0.00    -0.260 N 
HETATM   11  N4  UNL     1      87.228  23.649  -2.700  1.00  0.00    -0.062 NA
ATOM     12  H3  UNL     1      89.068  24.125  -0.678  1.00  0.00     0.191 HD
ATOM     13  H5  UNL     1      85.355  25.032  -1.957  1.00  0.00     0.162 HD
BRANCH  10  14
HETATM   14  N2  UNL     1      87.798  23.588   0.874  1.00  0.00    -0.247 N 
HETATM   15  N1  UNL     1      88.313  22.546   1.381  1.00  0.00    -0.331 N 
ATOM     16  H12 UNL     1      88.958  22.001   0.809  1.00  0.00     0.178 HD
ATOM     17  H11 UNL     1      88.096  22.249   2.333  1.00  0.00     0.178 HD
ATOM     18  H2  UNL     1      87.150  24.144   1.431  1.00  0.00     0.207 HD
ENDBRANCH  10  14
ENDBRANCH   7   8
ENDBRANCH   6   7
ENDBRANCH   3   6
ENDBRANCH   2   3
ENDBRANCH   1   2
BRANCH   1  19
HETATM   19  O1  UNL     1      81.458  27.509  -1.409  1.00  0.00    -0.386 OA
BRANCH  19  20
HETATM   20  C6  UNL     1      80.343  26.738  -1.570  1.00  0.00     0.218 C 
BRANCH  20  21
HETATM   21  C7  UNL     1      79.731  26.841  -2.935  1.00  0.00     0.255 C 
BRANCH  21  22
HETATM   22  N7  UNL     1      80.632  26.225  -3.930  1.00  0.00    -0.057 N 
ATOM     23  H73 UNL     1      80.689  25.212  -3.822  1.00  0.00     0.276 HD
ATOM     24  H72 UNL     1      80.241  26.251  -4.871  1.00  0.00     0.276 HD
ATOM     25  H71 UNL     1      81.549  26.669  -3.882  1.00  0.00     0.276 HD
ENDBRANCH  21  22
BRANCH  21  26
HETATM   26  C8  UNL     1      79.548  28.261  -3.297  1.00  0.00     0.272 C 
HETATM   27  N8  UNL     1      78.706  29.120  -2.553  1.00  0.00    -0.060 NA
HETATM   28  O2  UNL     1      80.159  28.715  -4.293  1.00  0.00    -0.274 OA
ENDBRANCH  21  26
BRANCH  21  29
HETATM   29  C9  UNL     1      78.408  26.132  -3.083  1.00  0.00     0.291 C 
BRANCH  29  30
HETATM   30  N9  UNL     1      77.579  26.771  -4.108  1.00  0.00    -0.066 N 
ATOM     31  H93 UNL     1      77.623  27.787  -4.046  1.00  0.00     0.275 HD
ATOM     32  H92 UNL     1      77.978  26.654  -5.040  1.00  0.00     0.275 HD
ATOM     33  H91 UNL     1      76.618  26.433  -4.066  1.00  0.00     0.275 HD
ENDBRANCH  29  30
BRANCH  29  34
HETATM   34  C10 UNL     1      78.613  24.721  -3.504  1.00  0.00     0.267 C 
HETATM   35  O3  UNL     1      78.929  23.885  -2.695  1.00  0.00    -0.305 OA
ENDBRANCH  29  34
ENDBRANCH  21  29
ENDBRANCH  20  21
ENDBRANCH  19  20
ENDBRANCH   1  19
TORSDOF 14
ENDMDL
MODEL 3
REMARK VINA RESULT: -7.757002679      1.722      3.097
REMARK  14 active torsions:
REMARK  status: ('A' for Active; 'I' for Inactive)
REMARK    1  A    between atoms: N2_4  and  N3_6 
REMARK       I    between atoms: N3_6  and  C1_8 
REMARK    2  A    between atoms: N5_10  and  C2_12 
REMARK    3  A    between atoms: C2_12  and  C3_13 
REMARK    4  A    between atoms: C3_13  and  N6_14 
REMARK    5  A    between atoms: N6_14  and  C4_17 
REMARK    6  A    between atoms: C4_17  and  C5_18 
REMARK    7  A    between atoms: C5_18  and  O1_19 
REMARK    8  A    between atoms: O1_19  and  C6_20 
REMARK    9  A    between atoms: C6_20  and  C7_21 
REMARK   10  A    between atoms: C7_21  and  N7_22 
REMARK   11  A    between atoms: C7_21  and  C8_26 
REMARK   12  A    between atoms: C7_21  and  C9_29 
REMARK   13  A    between atoms: C9_29  and  N9_30 
REMARK   14  A    between atoms: C9_29  and  C10_34 
ROOT
HETATM    1  C5  UNL     1      79.084  24.345  -2.647  1.00  0.00     0.195 C 
ENDROOT
BRANCH   1   2
HETATM    2  C4  UNL     1      79.986  24.742  -1.532  1.00  0.00     0.258 C 
BRANCH   2   3
HETATM    3  N6  UNL     1      81.377  24.931  -1.990  1.00  0.00    -0.072 N 
ATOM      4  H62 UNL     1      81.490  25.665  -2.689  1.00  0.00     0.277 HD
ATOM      5  H61 UNL     1      81.732  24.169  -2.567  1.00  0.00     0.277 HD
BRANCH   3   6
HETATM    6  C3  UNL     1      82.131  25.152  -0.780  1.00  0.00     0.252 C 
BRANCH   6   7
HETATM    7  C2  UNL     1      83.362  26.003  -0.982  1.00  0.00     0.150 C 
BRANCH   7   8
HETATM    8  N5  UNL     1      84.061  26.262   0.228  1.00  0.00    -0.362 N 
HETATM    9  C1  UNL     1      85.130  25.627   0.548  1.00  0.00     0.204 C 
HETATM   10  N3  UNL     1      85.735  24.611  -0.247  1.00  0.00    -0.260 N 
HETATM   11  N4  UNL     1      85.730  25.985   1.800  1.00  0.00    -0.062 NA
ATOM     12  H3  UNL     1      86.007  23.735   0.199  1.00  0.00     0.191 HD
ATOM     13  H5  UNL     1      83.701  26.975   0.863  1.00  0.00     0.162 HD
BRANCH  10  14
HETATM   14  N2  UNL     1      85.967  24.769  -1.600  1.00  0.00    -0.247 N 
HETATM   15  N1  UNL     1      86.808  24.050  -2.221  1.00  0.00    -0.331 N 
ATOM     16  H12 UNL     1      87.317  23.342  -1.692  1.00  0.00     0.178 HD
ATOM     17  H11 UNL     1      86.979  24.166  -3.220  1.00  0.00     0.178 HD
ATOM     18  H2  UNL     1      85.449  25.482  -2.113  1.00  0.00     0.207 HD
ENDBRANCH  10  14
ENDBRANCH   7   8
ENDBRANCH   6   7
ENDBRANCH   3   6
ENDBRANCH   2   3
ENDBRANCH   1   2
BRANCH   1  19
HETATM   19  O1  UNL     1      79.091  25.260  -3.678  1.00  0.00    -0.386 OA
BRANCH  19  20
HETATM   20  C6  UNL     1      78.288  26.335  -3.431  1.00  0.00     0.218 C 
BRANCH  20  21
HETATM   21  C7  UNL     1      78.941  27.654  -3.715  1.00  0.00     0.255 C 
BRANCH  21  22
HETATM   22  N7  UNL     1      79.828  27.525  -4.890  1.00  0.00    -0.057 N 
ATOM     23  H73 UNL     1      80.370  26.661  -4.870  1.00  0.00     0.276 HD
ATOM     24  H72 UNL     1      79.305  27.350  -5.748  1.00  0.00     0.276 HD
ATOM     25  H71 UNL     1      80.422  28.351  -4.963  1.00  0.00     0.276 HD
ENDBRANCH  21  22
BRANCH  21  26
HETATM   26  C8  UNL     1      79.766  28.065  -2.560  1.00  0.00     0.272 C 
HETATM   27  N8  UNL     1      79.188  28.434  -1.323  1.00  0.00    -0.060 NA
HETATM   28  O2  UNL     1      81.013  28.085  -2.684  1.00  0.00    -0.274 OA
ENDBRANCH  21  26
BRANCH  21  29
HETATM   29  C9  UNL     1      77.983  28.770  -4.044  1.00  0.00     0.291 C 
BRANCH  29  30
HETATM   30  N9  UNL     1      78.643  30.076  -3.959  1.00  0.00    -0.066 N 
ATOM     31  H93 UNL     1      79.530  30.081  -4.461  1.00  0.00     0.275 HD
ATOM     32  H92 UNL     1      78.150  30.782  -4.505  1.00  0.00     0.275 HD
ATOM     33  H91 UNL     1      78.759  30.365  -2.988  1.00  0.00     0.275 HD
ENDBRANCH  29  30
BRANCH  29  34
HETATM   34  C10 UNL     1      77.470  28.631  -5.433  1.00  0.00     0.267 C 
HETATM   35  O3  UNL     1      76.349  28.234  -5.630  1.00  0.00    -0.305 OA
ENDBRANCH  29  34
ENDBRANCH  21  29
ENDBRANCH  20  21
ENDBRANCH  19  20
ENDBRANCH   1  19
TORSDOF 14
ENDMDL
MODEL 4
REMARK VINA RESULT: -7.575934881      1.244      1.459
REMARK  14 active torsions:
REMARK  status: ('A' for Active; 'I' for Inactive)
REMARK    1  A    between atoms: N2_4  and  N3_6 
REMARK       I    between atoms: N3_6  and  C1_8 
REMARK    2  A    between atoms: N5_10  and  C2_12 
REMARK    3  A    between atoms: C2_12  and  C3_13 
REMARK    4  A    between atoms: C3_13  and  N6_14 
REMARK    5  A    between atoms: N6_14  and  C4_17 
REMARK    6  A    between atoms: C4_17  and  C5_18 
REMARK    7  A    between atoms: C5_18  and  O1_19 
REMARK    8  A    between atoms: O1_19  and  C6_20 
REMARK    9  A    between atoms: C6_20  and  C7_21 
REMARK   10  A    between atoms: C7_21  and  N7_22 
REMARK   11  A    between atoms: C7_21  and  C8_26 
REMARK   12  A    between atoms: C7_21  and  C9_29 
REMARK   13  A    between atoms: C9_29  and  N9_30 
REMARK   14  A    between atoms: C9_29  and  C10_34 
ROOT
HETATM    1  C5  UNL     1      81.223  25.575  -1.494  1.00  0.00     0.195 C 
ENDROOT
BRANCH   1   2
HETATM    2  C4  UNL     1      82.373  26.200  -0.786  1.00  0.00     0.258 C 
BRANCH   2   3
HETATM    3  N6  UNL     1      83.420  25.211  -0.456  1.00  0.00    -0.072 N 
ATOM      4  H62 UNL     1      83.848  24.770  -1.269  1.00  0.00     0.277 HD
ATOM      5  H61 UNL     1      83.063  24.353  -0.036  1.00  0.00     0.277 HD
BRANCH   3   6
HETATM    6  C3  UNL     1      84.350  25.932   0.379  1.00  0.00     0.252 C 
BRANCH   6   7
HETATM    7  C2  UNL     1      85.792  25.550   0.146  1.00  0.00     0.150 C 
BRANCH   7   8
HETATM    8  N5  UNL     1      86.004  24.930  -1.115  1.00  0.00    -0.362 N 
HETATM    9  C1  UNL     1      87.049  24.225  -1.362  1.00  0.00     0.204 C 
HETATM   10  N3  UNL     1      88.097  23.981  -0.429  1.00  0.00    -0.260 N 
HETATM   11  N4  UNL     1      87.137  23.662  -2.678  1.00  0.00    -0.062 NA
ATOM     12  H3  UNL     1      89.063  24.113  -0.730  1.00  0.00     0.191 HD
ATOM     13  H5  UNL     1      85.304  25.049  -1.847  1.00  0.00     0.162 HD
BRANCH  10  14
HETATM   14  N2  UNL     1      87.855  23.572   0.868  1.00  0.00    -0.247 N 
HETATM   15  N1  UNL     1      88.385  22.523   1.347  1.00  0.00    -0.331 N 
ATOM     16  H12 UNL     1      89.004  21.980   0.745  1.00  0.00     0.178 HD
ATOM     17  H11 UNL     1      88.207  22.221   2.305  1.00  0.00     0.178 HD
ATOM     18  H2  UNL     1      87.233  24.127   1.456  1.00  0.00     0.207 HD
ENDBRANCH  10  14
ENDBRANCH   7   8
ENDBRANCH   6   7
ENDBRANCH   3   6
ENDBRANCH   2   3
ENDBRANCH   1   2
BRANCH   1  19
HETATM   19  O1  UNL     1      80.093  26.362  -1.456  1.00  0.00    -0.386 OA
BRANCH  19  20
HETATM   20  C6  UNL     1      79.021  25.770  -2.058  1.00  0.00     0.218 C 
BRANCH  20  21
HETATM   21  C7  UNL     1      78.141  26.729  -2.802  1.00  0.00     0.255 C 
BRANCH  21  22
HETATM   22  N7  UNL     1      77.957  27.956  -2.001  1.00  0.00    -0.057 N 
ATOM     23  H73 UNL     1      78.724  28.106  -1.345  1.00  0.00     0.276 HD
ATOM     24  H72 UNL     1      78.075  28.801  -2.559  1.00  0.00     0.276 HD
ATOM     25  H71 UNL     1      77.051  27.926  -1.533  1.00  0.00     0.276 HD
ENDBRANCH  21  22
BRANCH  21  26
HETATM   26  C8  UNL     1      76.813  26.122  -3.026  1.00  0.00     0.272 C 
HETATM   27  N8  UNL     1      75.630  26.898  -3.044  1.00  0.00    -0.060 NA
HETATM   28  O2  UNL     1      76.736  24.884  -3.206  1.00  0.00    -0.274 OA
ENDBRANCH  21  26
BRANCH  21  29
HETATM   29  C9  UNL     1      78.692  27.183  -4.130  1.00  0.00     0.291 C 
BRANCH  29  30
HETATM   30  N9  UNL     1      77.638  27.242  -5.146  1.00  0.00    -0.066 N 
ATOM     31  H93 UNL     1      77.095  28.102  -5.075  1.00  0.00     0.275 HD
ATOM     32  H92 UNL     1      78.024  27.379  -6.081  1.00  0.00     0.275 HD
ATOM     33  H91 UNL     1      77.041  26.416  -5.104  1.00  0.00     0.275 HD
ENDBRANCH  29  30
BRANCH  29  34
HETATM   34  C10 UNL     1      79.267  28.550  -4.020  1.00  0.00     0.267 C 
HETATM   35  O3  UNL     1      80.426  28.699  -3.722  1.00  0.00    -0.305 OA
ENDBRANCH  29  34
ENDBRANCH  21  29
ENDBRANCH  20  21
ENDBRANCH  19  20
ENDBRANCH   1  19
TORSDOF 14
ENDMDL
MODEL 5
REMARK VINA RESULT: -7.562784802      1.186      1.580
REMARK  14 active torsions:
REMARK  status: ('A' for Active; 'I' for Inactive)
REMARK    1  A    between atoms: N2_4  and  N3_6 
REMARK       I    between atoms: N3_6  and  C1_8 
REMARK    2  A    between atoms: N5_10  and  C2_12 
REMARK    3  A    between atoms: C2_12  and  C3_13 
REMARK    4  A    between atoms: C3_13  and  N6_14 
REMARK    5  A    between atoms: N6_14  and  C4_17 
REMARK    6  A    between atoms: C4_17  and  C5_18 
REMARK    7  A    between atoms: C5_18  and  O1_19 
REMARK    8  A    between atoms: O1_19  and  C6_20 
REMARK    9  A    between atoms: C6_20  and  C7_21 
REMARK   10  A    between atoms: C7_21  and  N7_22 
REMARK   11  A    between atoms: C7_21  and  C8_26 
REMARK   12  A    between atoms: C7_21  and  C9_29 
REMARK   13  A    between atoms: C9_29  and  N9_30 
REMARK   14  A    between atoms: C9_29  and  C10_34 
ROOT
HETATM    1  C5  UNL     1      81.937  26.886  -2.400  1.00  0.00     0.195 C 
ENDROOT
BRANCH   1   2
HETATM    2  C4  UNL     1      82.094  26.610  -0.946  1.00  0.00     0.258 C 
BRANCH   2   3
HETATM    3  N6  UNL     1      82.999  25.470  -0.696  1.00  0.00    -0.072 N 
ATOM      4  H62 UNL     1      83.279  24.968  -1.539  1.00  0.00     0.277 HD
ATOM      5  H61 UNL     1      82.553  24.677  -0.235  1.00  0.00     0.277 HD
BRANCH   3   6
HETATM    6  C3  UNL     1      84.101  26.036   0.042  1.00  0.00     0.252 C 
BRANCH   6   7
HETATM    7  C2  UNL     1      85.310  25.133   0.111  1.00  0.00     0.150 C 
BRANCH   7   8
HETATM    8  N5  UNL     1      85.691  24.620  -1.159  1.00  0.00    -0.362 N 
HETATM    9  C1  UNL     1      86.876  24.185  -1.392  1.00  0.00     0.204 C 
HETATM   10  N3  UNL     1      87.930  24.161  -0.434  1.00  0.00    -0.260 N 
HETATM   11  N4  UNL     1      87.124  23.700  -2.718  1.00  0.00    -0.062 NA
ATOM     12  H3  UNL     1      88.845  24.523  -0.702  1.00  0.00     0.191 HD
ATOM     13  H5  UNL     1      85.000  24.597  -1.909  1.00  0.00     0.162 HD
BRANCH  10  14
HETATM   14  N2  UNL     1      87.758  23.666   0.845  1.00  0.00    -0.247 N 
HETATM   15  N1  UNL     1      88.449  22.695   1.282  1.00  0.00    -0.331 N 
ATOM     16  H12 UNL     1      89.143  22.281   0.660  1.00  0.00     0.178 HD
ATOM     17  H11 UNL     1      88.322  22.329   2.226  1.00  0.00     0.178 HD
ATOM     18  H2  UNL     1      87.059  24.091   1.453  1.00  0.00     0.207 HD
ENDBRANCH  10  14
ENDBRANCH   7   8
ENDBRANCH   6   7
ENDBRANCH   3   6
ENDBRANCH   2   3
ENDBRANCH   1   2
BRANCH   1  19
HETATM   19  O1  UNL     1      81.119  27.967  -2.643  1.00  0.00    -0.386 OA
BRANCH  19  20
HETATM   20  C6  UNL     1      80.151  27.695  -3.566  1.00  0.00     0.218 C 
BRANCH  20  21
HETATM   21  C7  UNL     1      78.776  28.117  -3.142  1.00  0.00     0.255 C 
BRANCH  21  22
HETATM   22  N7  UNL     1      78.694  29.592  -3.123  1.00  0.00    -0.057 N 
ATOM     23  H73 UNL     1      78.906  30.000  -4.033  1.00  0.00     0.276 HD
ATOM     24  H72 UNL     1      77.734  29.922  -3.033  1.00  0.00     0.276 HD
ATOM     25  H71 UNL     1      79.298  29.958  -2.386  1.00  0.00     0.276 HD
ENDBRANCH  21  22
BRANCH  21  26
HETATM   26  C8  UNL     1      78.498  27.623  -1.777  1.00  0.00     0.272 C 
HETATM   27  N8  UNL     1      78.233  28.504  -0.704  1.00  0.00    -0.060 NA
HETATM   28  O2  UNL     1      78.496  26.387  -1.570  1.00  0.00    -0.274 OA
ENDBRANCH  21  26
BRANCH  21  29
HETATM   29  C9  UNL     1      77.669  27.655  -4.055  1.00  0.00     0.291 C 
BRANCH  29  30
HETATM   30  N9  UNL     1      76.421  27.458  -3.314  1.00  0.00    -0.066 N 
ATOM     31  H93 UNL     1      75.889  28.325  -3.237  1.00  0.00     0.275 HD
ATOM     32  H92 UNL     1      75.748  26.910  -3.850  1.00  0.00     0.275 HD
ATOM     33  H91 UNL     1      76.598  27.045  -2.399  1.00  0.00     0.275 HD
ENDBRANCH  29  30
BRANCH  29  34
HETATM   34  C10 UNL     1      77.396  28.671  -5.106  1.00  0.00     0.267 C 
HETATM   35  O3  UNL     1      76.536  28.479  -5.928  1.00  0.00    -0.305 OA
ENDBRANCH  29  34
ENDBRANCH  21  29
ENDBRANCH  20  21
ENDBRANCH  19  20
ENDBRANCH   1  19
TORSDOF 14
ENDMDL
