MODEL 1
REMARK VINA RESULT: -8.339230323      0.000      0.000
REMARK  15 active torsions:
REMARK  status: ('A' for Active; 'I' for Inactive)
REMARK    1  A    between atoms: C2_7  and  C3_8 
REMARK    2  A    between atoms: C3_8  and  C4_9 
REMARK    3  A    between atoms: C4_9  and  N4_10 
REMARK    4  A    between atoms: C4_9  and  N5_14 
REMARK    5  A    between atoms: N5_14  and  C5_16 
REMARK    6  A    between atoms: C5_16  and  C6_17 
REMARK    7  A    between atoms: C6_17  and  N6_18 
REMARK    8  A    between atoms: N6_18  and  C7_20 
REMARK    9  A    between atoms: C7_20  and  C8_21 
REMARK   10  A    between atoms: C8_21  and  O1_22 
REMARK   11  A    between atoms: O1_22  and  N7_23 
REMARK       I    between atoms: N7_23  and  C9_25 
REMARK   12  A    between atoms: C9_25  and  C10_27 
REMARK   13  A    between atoms: C10_27  and  N8_28 
REMARK   14  A    between atoms: C10_27  and  C11_32 
REMARK   15  A    between atoms: C11_32  and  N9_33 
ROOT
HETATM    1  N6  UNL     1      41.599 -68.160  31.792  1.00  0.00    -0.418 N 
ATOM      2  H6  UNL     1      42.579 -68.354  31.998  1.00  0.00     0.153 HD
ENDROOT
BRANCH   1   3
HETATM    3  C6  UNL     1      41.057 -66.836  31.922  1.00  0.00     0.133 C 
BRANCH   3   4
HETATM    4  C5  UNL     1      41.398 -66.454  33.403  1.00  0.00     0.135 C 
BRANCH   4   5
HETATM    5  N5  UNL     1      40.613 -65.334  33.661  1.00  0.00    -0.394 N 
ATOM      6  H5  UNL     1      39.610 -65.488  33.767  1.00  0.00     0.155 HD
BRANCH   5   7
HETATM    7  C4  UNL     1      41.059 -64.038  33.788  1.00  0.00     0.284 C 
BRANCH   7   8
HETATM    8  C3  UNL     1      41.626 -63.297  32.615  1.00  0.00     0.133 C 
BRANCH   8   9
HETATM    9  C2  UNL     1      43.112 -63.547  32.709  1.00  0.00     0.118 A 
HETATM   10  N1  UNL     1      44.076 -63.388  33.590  1.00  0.00    -0.269 N 
HETATM   11  C1  UNL     1      44.161 -62.871  34.962  1.00  0.00     0.181 C 
HETATM   12  N2  UNL     1      44.990 -63.891  32.784  1.00  0.00    -0.238 N 
HETATM   13  N3  UNL     1      44.051 -64.062  31.887  1.00  0.00    -0.273 N 
ATOM     14  H2  UNL     1      45.992 -64.070  32.837  1.00  0.00     0.208 HD
ATOM     15  H3  UNL     1      44.036 -64.436  30.938  1.00  0.00     0.190 HD
ENDBRANCH   8   9
ENDBRANCH   7   8
BRANCH   7  16
HETATM   16  N4  UNL     1      40.152 -63.114  34.486  1.00  0.00    -0.058 N 
ATOM     17  H43 UNL     1      40.270 -63.127  35.499  1.00  0.00     0.276 HD
ATOM     18  H42 UNL     1      40.390 -62.133  34.339  1.00  0.00     0.276 HD
ATOM     19  H41 UNL     1      39.203 -63.345  34.190  1.00  0.00     0.276 HD
ENDBRANCH   7  16
ENDBRANCH   5   7
ENDBRANCH   4   5
ENDBRANCH   3   4
ENDBRANCH   1   3
BRANCH   1  20
HETATM   20  C7  UNL     1      40.719 -69.186  31.368  1.00  0.00     0.142 C 
BRANCH  20  21
HETATM   21  C8  UNL     1      41.454 -70.021  30.285  1.00  0.00     0.220 C 
BRANCH  21  22
HETATM   22  O1  UNL     1      42.679 -70.230  30.796  1.00  0.00    -0.276 OA
BRANCH  22  23
HETATM   23  N7  UNL     1      43.743 -70.067  30.106  1.00  0.00    -0.233 N 
HETATM   24  C9  UNL     1      44.919 -70.829  30.113  1.00  0.00     0.273 C 
HETATM   25  O2  UNL     1      45.074 -71.829  30.847  1.00  0.00    -0.269 OA
ATOM     26  H7  UNL     1      43.735 -69.275  29.463  1.00  0.00     0.197 HD
BRANCH  24  27
HETATM   27  C10 UNL     1      46.063 -70.454  29.211  1.00  0.00     0.301 C 
BRANCH  27  28
HETATM   28  N8  UNL     1      47.308 -70.477  29.947  1.00  0.00    -0.065 N 
ATOM     29  H83 UNL     1      47.160 -70.651  30.941  1.00  0.00     0.275 HD
ATOM     30  H82 UNL     1      47.864 -71.304  29.731  1.00  0.00     0.275 HD
ATOM     31  H81 UNL     1      47.829 -69.615  29.783  1.00  0.00     0.275 HD
ENDBRANCH  27  28
BRANCH  27  32
HETATM   32  C11 UNL     1      46.136 -71.418  28.066  1.00  0.00     0.272 C 
BRANCH  32  33
HETATM   33  N9  UNL     1      45.415 -70.908  26.914  1.00  0.00    -0.077 N 
ATOM     34  H93 UNL     1      45.146 -71.656  26.275  1.00  0.00     0.274 HD
ATOM     35  H92 UNL     1      44.483 -70.579  27.167  1.00  0.00     0.274 HD
ATOM     36  H91 UNL     1      45.954 -70.183  26.440  1.00  0.00     0.274 HD
ENDBRANCH  32  33
ENDBRANCH  27  32
ENDBRANCH  24  27
ENDBRANCH  22  23
ENDBRANCH  21  22
ENDBRANCH  20  21
ENDBRANCH   1  20
TORSDOF 15
ENDMDL
MODEL 2
REMARK VINA RESULT: -8.223318285      1.306      1.462
REMARK  15 active torsions:
REMARK  status: ('A' for Active; 'I' for Inactive)
REMARK    1  A    between atoms: C2_7  and  C3_8 
REMARK    2  A    between atoms: C3_8  and  C4_9 
REMARK    3  A    between atoms: C4_9  and  N4_10 
REMARK    4  A    between atoms: C4_9  and  N5_14 
REMARK    5  A    between atoms: N5_14  and  C5_16 
REMARK    6  A    between atoms: C5_16  and  C6_17 
REMARK    7  A    between atoms: C6_17  and  N6_18 
REMARK    8  A    between atoms: N6_18  and  C7_20 
REMARK    9  A    between atoms: C7_20  and  C8_21 
REMARK   10  A    between atoms: C8_21  and  O1_22 
REMARK   11  A    between atoms: O1_22  and  N7_23 
REMARK       I    between atoms: N7_23  and  C9_25 
REMARK   12  A    between atoms: C9_25  and  C10_27 
REMARK   13  A    between atoms: C10_27  and  N8_28 
REMARK   14  A    between atoms: C10_27  and  C11_32 
REMARK   15  A    between atoms: C11_32  and  N9_33 
ROOT
HETATM    1  N6  UNL     1      41.558 -67.784  31.779  1.00  0.00    -0.418 N 
ATOM      2  H6  UNL     1      41.946 -68.314  32.561  1.00  0.00     0.153 HD
ENDROOT
BRANCH   1   3
HETATM    3  C6  UNL     1      41.027 -66.463  31.964  1.00  0.00     0.133 C 
BRANCH   3   4
HETATM    4  C5  UNL     1      41.060 -66.280  33.520  1.00  0.00     0.135 C 
BRANCH   4   5
HETATM    5  N5  UNL     1      42.414 -66.317  33.844  1.00  0.00    -0.394 N 
ATOM      6  H5  UNL     1      42.938 -67.136  33.536  1.00  0.00     0.155 HD
BRANCH   5   7
HETATM    7  C4  UNL     1      43.112 -65.358  34.541  1.00  0.00     0.284 C 
BRANCH   7   8
HETATM    8  C3  UNL     1      42.832 -63.899  34.340  1.00  0.00     0.133 C 
BRANCH   8   9
HETATM    9  C2  UNL     1      44.124 -63.354  33.781  1.00  0.00     0.118 A 
HETATM   10  N1  UNL     1      45.088 -62.543  34.161  1.00  0.00    -0.269 N 
HETATM   11  C1  UNL     1      45.376 -61.756  35.367  1.00  0.00     0.181 C 
HETATM   12  N2  UNL     1      45.756 -62.697  33.035  1.00  0.00    -0.238 N 
HETATM   13  N3  UNL     1      44.811 -63.508  32.629  1.00  0.00    -0.273 N 
ATOM     14  H2  UNL     1      46.629 -62.340  32.648  1.00  0.00     0.208 HD
ATOM     15  H3  UNL     1      44.655 -64.045  31.776  1.00  0.00     0.190 HD
ENDBRANCH   8   9
ENDBRANCH   7   8
BRANCH   7  16
HETATM   16  N4  UNL     1      43.233 -65.579  35.990  1.00  0.00    -0.058 N 
ATOM     17  H43 UNL     1      43.765 -64.849  36.463  1.00  0.00     0.276 HD
ATOM     18  H42 UNL     1      42.355 -65.447  36.490  1.00  0.00     0.276 HD
ATOM     19  H41 UNL     1      43.632 -66.510  36.118  1.00  0.00     0.276 HD
ENDBRANCH   7  16
ENDBRANCH   5   7
ENDBRANCH   4   5
ENDBRANCH   3   4
ENDBRANCH   1   3
BRANCH   1  20
HETATM   20  C7  UNL     1      41.523 -68.325  30.469  1.00  0.00     0.142 C 
BRANCH  20  21
HETATM   21  C8  UNL     1      41.382 -69.865  30.598  1.00  0.00     0.220 C 
BRANCH  21  22
HETATM   22  O1  UNL     1      42.601 -70.284  30.978  1.00  0.00    -0.276 OA
BRANCH  22  23
HETATM   23  N7  UNL     1      43.644 -70.082  30.269  1.00  0.00    -0.233 N 
HETATM   24  C9  UNL     1      44.800 -70.867  30.164  1.00  0.00     0.273 C 
HETATM   25  O2  UNL     1      44.955 -71.933  30.796  1.00  0.00    -0.269 OA
ATOM     26  H7  UNL     1      43.634 -69.233  29.701  1.00  0.00     0.197 HD
BRANCH  24  27
HETATM   27  C10 UNL     1      45.922 -70.435  29.259  1.00  0.00     0.301 C 
BRANCH  27  28
HETATM   28  N8  UNL     1      47.165 -70.379  29.996  1.00  0.00    -0.065 N 
ATOM     29  H83 UNL     1      47.535 -69.429  30.048  1.00  0.00     0.275 HD
ATOM     30  H82 UNL     1      47.025 -70.540  30.994  1.00  0.00     0.275 HD
ATOM     31  H81 UNL     1      47.841 -71.030  29.597  1.00  0.00     0.275 HD
ENDBRANCH  27  28
BRANCH  27  32
HETATM   32  C11 UNL     1      46.052 -71.404  28.124  1.00  0.00     0.272 C 
BRANCH  32  33
HETATM   33  N9  UNL     1      45.404 -70.892  26.930  1.00  0.00    -0.077 N 
ATOM     34  H93 UNL     1      44.616 -71.475  26.649  1.00  0.00     0.274 HD
ATOM     35  H92 UNL     1      44.897 -70.026  27.118  1.00  0.00     0.274 HD
ATOM     36  H91 UNL     1      46.077 -70.777  26.172  1.00  0.00     0.274 HD
ENDBRANCH  32  33
ENDBRANCH  27  32
ENDBRANCH  24  27
ENDBRANCH  22  23
ENDBRANCH  21  22
ENDBRANCH  20  21
ENDBRANCH   1  20
TORSDOF 15
ENDMDL
MODEL 3
REMARK VINA RESULT: -8.212971151      1.263      1.653
REMARK  15 active torsions:
REMARK  status: ('A' for Active; 'I' for Inactive)
REMARK    1  A    between atoms: C2_7  and  C3_8 
REMARK    2  A    between atoms: C3_8  and  C4_9 
REMARK    3  A    between atoms: C4_9  and  N4_10 
REMARK    4  A    between atoms: C4_9  and  N5_14 
REMARK    5  A    between atoms: N5_14  and  C5_16 
REMARK    6  A    between atoms: C5_16  and  C6_17 
REMARK    7  A    between atoms: C6_17  and  N6_18 
REMARK    8  A    between atoms: N6_18  and  C7_20 
REMARK    9  A    between atoms: C7_20  and  C8_21 
REMARK   10  A    between atoms: C8_21  and  O1_22 
REMARK   11  A    between atoms: O1_22  and  N7_23 
REMARK       I    between atoms: N7_23  and  C9_25 
REMARK   12  A    between atoms: C9_25  and  C10_27 
REMARK   13  A    between atoms: C10_27  and  N8_28 
REMARK   14  A    between atoms: C10_27  and  C11_32 
REMARK   15  A    between atoms: C11_32  and  N9_33 
ROOT
HETATM    1  N6  UNL     1      41.551 -68.036  31.303  1.00  0.00    -0.418 N 
ATOM      2  H6  UNL     1      42.308 -67.917  30.629  1.00  0.00     0.153 HD
ENDROOT
BRANCH   1   3
HETATM    3  C6  UNL     1      41.258 -67.025  32.280  1.00  0.00     0.133 C 
BRANCH   3   4
HETATM    4  C5  UNL     1      40.419 -65.979  31.470  1.00  0.00     0.135 C 
BRANCH   4   5
HETATM    5  N5  UNL     1      40.132 -64.976  32.393  1.00  0.00    -0.394 N 
ATOM      6  H5  UNL     1      39.173 -64.627  32.411  1.00  0.00     0.155 HD
BRANCH   5   7
HETATM    7  C4  UNL     1      41.015 -64.410  33.283  1.00  0.00     0.284 C 
BRANCH   7   8
HETATM    8  C3  UNL     1      41.663 -63.089  32.997  1.00  0.00     0.133 C 
BRANCH   8   9
HETATM    9  C2  UNL     1      43.125 -63.428  32.828  1.00  0.00     0.118 A 
HETATM   10  N1  UNL     1      44.241 -63.307  33.513  1.00  0.00    -0.269 N 
HETATM   11  C1  UNL     1      44.605 -62.764  34.828  1.00  0.00     0.181 C 
HETATM   12  N2  UNL     1      44.962 -63.884  32.573  1.00  0.00    -0.238 N 
HETATM   13  N3  UNL     1      43.867 -64.018  31.867  1.00  0.00    -0.273 N 
ATOM     14  H2  UNL     1      45.946 -64.123  32.449  1.00  0.00     0.208 HD
ATOM     15  H3  UNL     1      43.657 -64.413  30.950  1.00  0.00     0.190 HD
ENDBRANCH   8   9
ENDBRANCH   7   8
BRANCH   7  16
HETATM   16  N4  UNL     1      40.581 -64.383  34.688  1.00  0.00    -0.058 N 
ATOM     17  H43 UNL     1      41.278 -64.761  35.330  1.00  0.00     0.276 HD
ATOM     18  H42 UNL     1      40.543 -63.441  35.077  1.00  0.00     0.276 HD
ATOM     19  H41 UNL     1      39.687 -64.872  34.735  1.00  0.00     0.276 HD
ENDBRANCH   7  16
ENDBRANCH   5   7
ENDBRANCH   4   5
ENDBRANCH   3   4
ENDBRANCH   1   3
BRANCH   1  20
HETATM   20  C7  UNL     1      40.749 -69.204  31.311  1.00  0.00     0.142 C 
BRANCH  20  21
HETATM   21  C8  UNL     1      41.452 -70.266  30.423  1.00  0.00     0.220 C 
BRANCH  21  22
HETATM   22  O1  UNL     1      42.731 -69.859  30.361  1.00  0.00    -0.276 OA
BRANCH  22  23
HETATM   23  N7  UNL     1      43.704 -70.614  30.701  1.00  0.00    -0.233 N 
HETATM   24  C9  UNL     1      45.013 -70.639  30.200  1.00  0.00     0.273 C 
HETATM   25  O2  UNL     1      45.409 -69.868  29.300  1.00  0.00    -0.269 OA
ATOM     26  H7  UNL     1      43.501 -71.291  31.437  1.00  0.00     0.197 HD
BRANCH  24  27
HETATM   27  C10 UNL     1      46.010 -71.623  30.749  1.00  0.00     0.301 C 
BRANCH  27  28
HETATM   28  N8  UNL     1      46.667 -72.324  29.668  1.00  0.00    -0.065 N 
ATOM     29  H83 UNL     1      45.998 -72.770  29.040  1.00  0.00     0.275 HD
ATOM     30  H82 UNL     1      47.094 -71.682  29.001  1.00  0.00     0.275 HD
ATOM     31  H81 UNL     1      47.343 -72.991  30.041  1.00  0.00     0.275 HD
ENDBRANCH  27  28
BRANCH  27  32
HETATM   32  C11 UNL     1      47.029 -70.899  31.574  1.00  0.00     0.272 C 
BRANCH  32  33
HETATM   33  N9  UNL     1      47.927 -70.132  30.730  1.00  0.00    -0.077 N 
ATOM     34  H93 UNL     1      47.426 -69.431  30.185  1.00  0.00     0.274 HD
ATOM     35  H92 UNL     1      48.519 -69.508  31.278  1.00  0.00     0.274 HD
ATOM     36  H91 UNL     1      48.480 -70.749  30.134  1.00  0.00     0.274 HD
ENDBRANCH  32  33
ENDBRANCH  27  32
ENDBRANCH  24  27
ENDBRANCH  22  23
ENDBRANCH  21  22
ENDBRANCH  20  21
ENDBRANCH   1  20
TORSDOF 15
ENDMDL
MODEL 4
REMARK VINA RESULT: -8.094141428      2.198      3.822
REMARK  15 active torsions:
REMARK  status: ('A' for Active; 'I' for Inactive)
REMARK    1  A    between atoms: C2_7  and  C3_8 
REMARK    2  A    between atoms: C3_8  and  C4_9 
REMARK    3  A    between atoms: C4_9  and  N4_10 
REMARK    4  A    between atoms: C4_9  and  N5_14 
REMARK    5  A    between atoms: N5_14  and  C5_16 
REMARK    6  A    between atoms: C5_16  and  C6_17 
REMARK    7  A    between atoms: C6_17  and  N6_18 
REMARK    8  A    between atoms: N6_18  and  C7_20 
REMARK    9  A    between atoms: C7_20  and  C8_21 
REMARK   10  A    between atoms: C8_21  and  O1_22 
REMARK   11  A    between atoms: O1_22  and  N7_23 
REMARK       I    between atoms: N7_23  and  C9_25 
REMARK   12  A    between atoms: C9_25  and  C10_27 
REMARK   13  A    between atoms: C10_27  and  N8_28 
REMARK   14  A    between atoms: C10_27  and  C11_32 
REMARK   15  A    between atoms: C11_32  and  N9_33 
ROOT
HETATM    1  N6  UNL     1      40.357 -64.611  32.602  1.00  0.00    -0.418 N 
ATOM      2  H6  UNL     1      39.447 -64.406  32.190  1.00  0.00     0.153 HD
ENDROOT
BRANCH   1   3
HETATM    3  C6  UNL     1      41.286 -63.563  32.921  1.00  0.00     0.133 C 
BRANCH   3   4
HETATM    4  C5  UNL     1      42.502 -63.866  31.981  1.00  0.00     0.135 C 
BRANCH   4   5
HETATM    5  N5  UNL     1      43.578 -63.225  32.589  1.00  0.00    -0.394 N 
ATOM      6  H5  UNL     1      43.837 -62.310  32.222  1.00  0.00     0.155 HD
BRANCH   5   7
HETATM    7  C4  UNL     1      44.326 -63.708  33.638  1.00  0.00     0.284 C 
BRANCH   7   8
HETATM    8  C3  UNL     1      44.364 -62.994  34.956  1.00  0.00     0.133 C 
BRANCH   8   9
HETATM    9  C2  UNL     1      45.485 -61.994  34.797  1.00  0.00     0.118 A 
HETATM   10  N1  UNL     1      45.943 -60.933  35.423  1.00  0.00    -0.269 N 
HETATM   11  C1  UNL     1      45.565 -60.190  36.632  1.00  0.00     0.181 C 
HETATM   12  N2  UNL     1      46.923 -60.759  34.559  1.00  0.00    -0.238 N 
HETATM   13  N3  UNL     1      46.489 -61.813  33.913  1.00  0.00    -0.273 N 
ATOM     14  H2  UNL     1      47.687 -60.094  34.443  1.00  0.00     0.208 HD
ATOM     15  H3  UNL     1      46.792 -62.304  33.072  1.00  0.00     0.190 HD
ENDBRANCH   8   9
ENDBRANCH   7   8
BRANCH   7  16
HETATM   16  N4  UNL     1      44.173 -65.142  33.929  1.00  0.00    -0.058 N 
ATOM     17  H43 UNL     1      43.636 -65.323  34.777  1.00  0.00     0.276 HD
ATOM     18  H42 UNL     1      43.552 -65.618  33.276  1.00  0.00     0.276 HD
ATOM     19  H41 UNL     1      45.111 -65.543  33.956  1.00  0.00     0.276 HD
ENDBRANCH   7  16
ENDBRANCH   5   7
ENDBRANCH   4   5
ENDBRANCH   3   4
ENDBRANCH   1   3
BRANCH   1  20
HETATM   20  C7  UNL     1      40.754 -65.943  32.884  1.00  0.00     0.142 C 
BRANCH  20  21
HETATM   21  C8  UNL     1      40.702 -66.742  31.554  1.00  0.00     0.220 C 
BRANCH  21  22
HETATM   22  O1  UNL     1      40.651 -68.029  31.937  1.00  0.00    -0.276 OA
BRANCH  22  23
HETATM   23  N7  UNL     1      41.609 -68.846  31.713  1.00  0.00    -0.233 N 
HETATM   24  C9  UNL     1      41.610 -70.000  30.918  1.00  0.00     0.273 C 
HETATM   25  O2  UNL     1      40.603 -70.392  30.290  1.00  0.00    -0.269 OA
ATOM     26  H7  UNL     1      42.492 -68.627  32.175  1.00  0.00     0.197 HD
BRANCH  24  27
HETATM   27  C10 UNL     1      42.862 -70.826  30.794  1.00  0.00     0.301 C 
BRANCH  27  28
HETATM   28  N8  UNL     1      43.864 -70.104  30.043  1.00  0.00    -0.065 N 
ATOM     29  H83 UNL     1      43.638 -69.112  29.959  1.00  0.00     0.275 HD
ATOM     30  H82 UNL     1      44.738 -70.014  30.561  1.00  0.00     0.275 HD
ATOM     31  H81 UNL     1      44.005 -70.542  29.132  1.00  0.00     0.275 HD
ENDBRANCH  27  28
BRANCH  27  32
HETATM   32  C11 UNL     1      43.388 -71.147  32.160  1.00  0.00     0.272 C 
BRANCH  32  33
HETATM   33  N9  UNL     1      44.830 -70.994  32.207  1.00  0.00    -0.077 N 
ATOM     34  H93 UNL     1      45.146 -70.664  33.119  1.00  0.00     0.274 HD
ATOM     35  H92 UNL     1      45.306 -71.897  32.196  1.00  0.00     0.274 HD
ATOM     36  H91 UNL     1      45.156 -70.387  31.454  1.00  0.00     0.274 HD
ENDBRANCH  32  33
ENDBRANCH  27  32
ENDBRANCH  24  27
ENDBRANCH  22  23
ENDBRANCH  21  22
ENDBRANCH  20  21
ENDBRANCH   1  20
TORSDOF 15
ENDMDL
MODEL 5
REMARK VINA RESULT: -8.080966747      2.407      7.699
REMARK  15 active torsions:
REMARK  status: ('A' for Active; 'I' for Inactive)
REMARK    1  A    between atoms: C2_7  and  C3_8 
REMARK    2  A    between atoms: C3_8  and  C4_9 
REMARK    3  A    between atoms: C4_9  and  N4_10 
REMARK    4  A    between atoms: C4_9  and  N5_14 
REMARK    5  A    between atoms: N5_14  and  C5_16 
REMARK    6  A    between atoms: C5_16  and  C6_17 
REMARK    7  A    between atoms: C6_17  and  N6_18 
REMARK    8  A    between atoms: N6_18  and  C7_20 
REMARK    9  A    between atoms: C7_20  and  C8_21 
REMARK   10  A    between atoms: C8_21  and  O1_22 
REMARK   11  A    between atoms: O1_22  and  N7_23 
REMARK       I    between atoms: N7_23  and  C9_25 
REMARK   12  A    between atoms: C9_25  and  C10_27 
REMARK   13  A    between atoms: C10_27  and  N8_28 
REMARK   14  A    between atoms: C10_27  and  C11_32 
REMARK   15  A    between atoms: C11_32  and  N9_33 
ROOT
HETATM    1  N6  UNL     1      41.634 -68.633  31.812  1.00  0.00    -0.418 N 
ATOM      2  H6  UNL     1      42.295 -68.465  32.571  1.00  0.00     0.153 HD
ENDROOT
BRANCH   1   3
HETATM    3  C6  UNL     1      41.152 -69.954  31.520  1.00  0.00     0.133 C 
BRANCH   3   4
HETATM    4  C5  UNL     1      42.105 -70.437  30.375  1.00  0.00     0.135 C 
BRANCH   4   5
HETATM    5  N5  UNL     1      43.369 -70.451  30.960  1.00  0.00    -0.394 N 
ATOM      6  H5  UNL     1      43.991 -69.675  30.730  1.00  0.00     0.155 HD
BRANCH   5   7
HETATM    7  C4  UNL     1      43.860 -71.409  31.816  1.00  0.00     0.284 C 
BRANCH   7   8
HETATM    8  C3  UNL     1      44.923 -72.370  31.375  1.00  0.00     0.133 C 
BRANCH   8   9
HETATM    9  C2  UNL     1      46.038 -71.479  30.881  1.00  0.00     0.118 A 
HETATM   10  N1  UNL     1      46.393 -70.889  29.760  1.00  0.00    -0.269 N 
HETATM   11  C1  UNL     1      45.842 -70.812  28.401  1.00  0.00     0.181 C 
HETATM   12  N2  UNL     1      47.464 -70.346  30.303  1.00  0.00    -0.238 N 
HETATM   13  N3  UNL     1      47.136 -70.922  31.434  1.00  0.00    -0.273 N 
ATOM     14  H2  UNL     1      48.219 -69.741  29.983  1.00  0.00     0.208 HD
ATOM     15  H3  UNL     1      47.549 -70.941  32.366  1.00  0.00     0.190 HD
ENDBRANCH   8   9
ENDBRANCH   7   8
BRANCH   7  16
HETATM   16  N4  UNL     1      44.234 -70.938  33.158  1.00  0.00    -0.058 N 
ATOM     17  H43 UNL     1      43.707 -70.118  33.456  1.00  0.00     0.276 HD
ATOM     18  H42 UNL     1      43.930 -71.566  33.902  1.00  0.00     0.276 HD
ATOM     19  H41 UNL     1      45.243 -70.785  33.151  1.00  0.00     0.276 HD
ENDBRANCH   7  16
ENDBRANCH   5   7
ENDBRANCH   4   5
ENDBRANCH   3   4
ENDBRANCH   1   3
BRANCH   1  20
HETATM   20  C7  UNL     1      41.157 -67.571  31.003  1.00  0.00     0.142 C 
BRANCH  20  21
HETATM   21  C8  UNL     1      40.525 -66.509  31.943  1.00  0.00     0.220 C 
BRANCH  21  22
HETATM   22  O1  UNL     1      41.248 -65.397  31.730  1.00  0.00    -0.276 OA
BRANCH  22  23
HETATM   23  N7  UNL     1      42.338 -65.162  32.354  1.00  0.00    -0.233 N 
HETATM   24  C9  UNL     1      42.777 -63.964  32.933  1.00  0.00     0.273 C 
HETATM   25  O2  UNL     1      42.104 -62.911  32.905  1.00  0.00    -0.269 OA
ATOM     26  H7  UNL     1      42.975 -65.954  32.443  1.00  0.00     0.197 HD
BRANCH  24  27
HETATM   27  C10 UNL     1      44.112 -63.908  33.626  1.00  0.00     0.301 C 
BRANCH  27  28
HETATM   28  N8  UNL     1      45.063 -63.173  32.821  1.00  0.00    -0.065 N 
ATOM     29  H83 UNL     1      44.603 -62.624  32.094  1.00  0.00     0.275 HD
ATOM     30  H82 UNL     1      45.489 -62.406  33.341  1.00  0.00     0.275 HD
ATOM     31  H81 UNL     1      45.762 -63.807  32.435  1.00  0.00     0.275 HD
ENDBRANCH  27  28
BRANCH  27  32
HETATM   32  C11 UNL     1      43.958 -63.243  34.959  1.00  0.00     0.272 C 
BRANCH  32  33
HETATM   33  N9  UNL     1      42.706 -63.626  35.586  1.00  0.00    -0.077 N 
ATOM     34  H93 UNL     1      41.938 -63.647  34.914  1.00  0.00     0.274 HD
ATOM     35  H92 UNL     1      42.703 -64.610  35.855  1.00  0.00     0.274 HD
ATOM     36  H91 UNL     1      42.495 -63.018  36.378  1.00  0.00     0.274 HD
ENDBRANCH  32  33
ENDBRANCH  27  32
ENDBRANCH  24  27
ENDBRANCH  22  23
ENDBRANCH  21  22
ENDBRANCH  20  21
ENDBRANCH   1  20
TORSDOF 15
ENDMDL
