MODEL 1
REMARK VINA RESULT: -7.701509079      0.000      0.000
REMARK  13 active torsions:
REMARK  status: ('A' for Active; 'I' for Inactive)
REMARK    1  A    between atoms: C1_4  and  C2_6 
REMARK    2  A    between atoms: C2_6  and  N3_7 
REMARK    3  A    between atoms: N3_7  and  C3_9 
REMARK    4  A    between atoms: N5_14  and  C5_15 
REMARK    5  A    between atoms: C5_15  and  C6_16 
REMARK    6  A    between atoms: C6_16  and  C7_17 
REMARK    7  A    between atoms: C6_16  and  N8_25 
REMARK    8  A    between atoms: C7_17  and  N6_18 
REMARK    9  A    between atoms: N6_18  and  C8_21 
REMARK   10  A    between atoms: C8_21  and  C9_22 
REMARK   11  A    between atoms: N8_25  and  C10_28 
REMARK   12  A    between atoms: C10_28  and  C11_29 
REMARK   13  A    between atoms: C11_29  and  N9_30 
ROOT
HETATM    1  C6  UNL     1      41.389 -66.667  32.353  1.00  0.00     0.231 C 
ENDROOT
BRANCH   1   2
HETATM    2  C5  UNL     1      40.582 -67.737  31.720  1.00  0.00     0.189 C 
BRANCH   2   3
HETATM    3  N5  UNL     1      41.318 -68.918  31.320  1.00  0.00    -0.226 N 
HETATM    4  C4  UNL     1      41.037 -70.211  31.493  1.00  0.00     0.355 A 
HETATM    5  N4  UNL     1      42.024 -70.969  30.924  1.00  0.00    -0.139 N 
HETATM    6  O1  UNL     1      40.064 -70.763  32.064  1.00  0.00    -0.244 OA
HETATM    7  C3  UNL     1      42.922 -70.130  30.398  1.00  0.00     0.697 A 
ATOM      8  H4  UNL     1      42.067 -71.988  30.906  1.00  0.00     0.189 HD
HETATM    9  N10 UNL     1      42.484 -68.891  30.643  1.00  0.00    -0.126 N 
ATOM     10  H10 UNL     1      42.967 -68.039  30.356  1.00  0.00     0.206 HD
BRANCH   7  11
HETATM   11  N3  UNL     1      44.014 -70.489  29.768  1.00  0.00    -0.218 N 
ATOM     12  H3  UNL     1      44.114 -70.302  28.771  1.00  0.00     0.178 HD
BRANCH  11  13
HETATM   13  C2  UNL     1      45.087 -71.160  30.501  1.00  0.00     0.210 C 
BRANCH  13  14
HETATM   14  C1  UNL     1      46.356 -71.015  29.800  1.00  0.00     0.105 C 
HETATM   15  N1  UNL     1      47.322 -70.368  30.343  1.00  0.00    -0.390 N 
ATOM     16  H12 UNL     1      48.211 -70.267  29.853  1.00  0.00     0.157 HD
ATOM     17  H11 UNL     1      47.197 -69.958  31.269  1.00  0.00     0.157 HD
HETATM   18  N2  UNL     1      46.530 -71.584  28.516  1.00  0.00    -0.086 NA
ENDBRANCH  13  14
ENDBRANCH  11  13
ENDBRANCH   7  11
ENDBRANCH   2   3
ENDBRANCH   1   2
BRANCH   1  19
HETATM   19  C7  UNL     1      40.945 -66.175  33.694  1.00  0.00     0.267 C 
BRANCH  19  20
HETATM   20  N6  UNL     1      41.900 -66.314  34.737  1.00  0.00    -0.065 N 
ATOM     21  H62 UNL     1      41.720 -67.145  35.301  1.00  0.00     0.277 HD
ATOM     22  H61 UNL     1      42.818 -66.567  34.373  1.00  0.00     0.277 HD
BRANCH  20  23
HETATM   23  C8  UNL     1      41.964 -65.130  35.549  1.00  0.00     0.331 C 
BRANCH  23  24
HETATM   24  C9  UNL     1      43.173 -64.362  35.189  1.00  0.00     0.256 C 
HETATM   25  N7  UNL     1      43.299 -62.965  35.415  1.00  0.00    -0.061 NA
HETATM   26  O2  UNL     1      44.138 -64.958  34.657  1.00  0.00    -0.275 OA
ENDBRANCH  23  24
ENDBRANCH  20  23
ENDBRANCH  19  20
ENDBRANCH   1  19
BRANCH   1  27
HETATM   27  N8  UNL     1      41.656 -65.560  31.501  1.00  0.00    -0.066 N 
ATOM     28  H82 UNL     1      42.593 -65.635  31.105  1.00  0.00     0.277 HD
ATOM     29  H81 UNL     1      41.099 -65.626  30.649  1.00  0.00     0.277 HD
BRANCH  27  30
HETATM   30  C10 UNL     1      41.478 -64.293  32.108  1.00  0.00     0.260 C 
BRANCH  30  31
HETATM   31  C11 UNL     1      42.602 -63.306  31.857  1.00  0.00     0.257 C 
BRANCH  31  32
HETATM   32  N9  UNL     1      43.845 -64.080  31.836  1.00  0.00    -0.078 N 
ATOM     33  H93 UNL     1      43.842 -64.862  32.490  1.00  0.00     0.274 HD
ATOM     34  H92 UNL     1      43.965 -64.625  30.982  1.00  0.00     0.274 HD
ATOM     35  H91 UNL     1      44.605 -63.419  32.002  1.00  0.00     0.274 HD
ENDBRANCH  31  32
ENDBRANCH  30  31
ENDBRANCH  27  30
ENDBRANCH   1  27
TORSDOF 13
ENDMDL
MODEL 2
REMARK VINA RESULT: -7.643160012      1.284      2.216
REMARK  13 active torsions:
REMARK  status: ('A' for Active; 'I' for Inactive)
REMARK    1  A    between atoms: C1_4  and  C2_6 
REMARK    2  A    between atoms: C2_6  and  N3_7 
REMARK    3  A    between atoms: N3_7  and  C3_9 
REMARK    4  A    between atoms: N5_14  and  C5_15 
REMARK    5  A    between atoms: C5_15  and  C6_16 
REMARK    6  A    between atoms: C6_16  and  C7_17 
REMARK    7  A    between atoms: C6_16  and  N8_25 
REMARK    8  A    between atoms: C7_17  and  N6_18 
REMARK    9  A    between atoms: N6_18  and  C8_21 
REMARK   10  A    between atoms: C8_21  and  C9_22 
REMARK   11  A    between atoms: N8_25  and  C10_28 
REMARK   12  A    between atoms: C10_28  and  C11_29 
REMARK   13  A    between atoms: C11_29  and  N9_30 
ROOT
HETATM    1  C6  UNL     1      40.937 -66.426  31.820  1.00  0.00     0.231 C 
ENDROOT
BRANCH   1   2
HETATM    2  C5  UNL     1      41.303 -67.239  30.634  1.00  0.00     0.189 C 
BRANCH   2   3
HETATM    3  N5  UNL     1      41.572 -68.637  30.897  1.00  0.00    -0.226 N 
HETATM    4  C4  UNL     1      40.787 -69.584  31.415  1.00  0.00     0.355 A 
HETATM    5  N4  UNL     1      41.474 -70.768  31.456  1.00  0.00    -0.139 N 
HETATM    6  O1  UNL     1      39.603 -69.524  31.832  1.00  0.00    -0.244 OA
HETATM    7  C3  UNL     1      42.693 -70.542  30.959  1.00  0.00     0.697 A 
ATOM      8  H4  UNL     1      41.119 -71.659  31.802  1.00  0.00     0.189 HD
HETATM    9  N10 UNL     1      42.742 -69.249  30.623  1.00  0.00    -0.126 N 
ATOM     10  H10 UNL     1      43.555 -68.787  30.214  1.00  0.00     0.206 HD
BRANCH   7  11
HETATM   11  N3  UNL     1      43.639 -71.441  30.838  1.00  0.00    -0.218 N 
ATOM     12  H3  UNL     1      43.421 -72.366  30.467  1.00  0.00     0.178 HD
BRANCH  11  13
HETATM   13  C2  UNL     1      45.007 -71.115  31.237  1.00  0.00     0.210 C 
BRANCH  13  14
HETATM   14  C1  UNL     1      45.861 -70.959  30.066  1.00  0.00     0.105 C 
HETATM   15  N1  UNL     1      46.783 -71.817  29.823  1.00  0.00    -0.390 N 
ATOM     16  H12 UNL     1      47.381 -71.708  29.003  1.00  0.00     0.157 HD
ATOM     17  H11 UNL     1      46.914 -72.609  30.452  1.00  0.00     0.157 HD
HETATM   18  N2  UNL     1      45.678 -69.861  29.192  1.00  0.00    -0.086 NA
ENDBRANCH  13  14
ENDBRANCH  11  13
ENDBRANCH   7  11
ENDBRANCH   2   3
ENDBRANCH   1   2
BRANCH   1  19
HETATM   19  C7  UNL     1      41.301 -64.975  31.794  1.00  0.00     0.267 C 
BRANCH  19  20
HETATM   20  N6  UNL     1      42.694 -64.701  31.735  1.00  0.00    -0.065 N 
ATOM     21  H62 UNL     1      43.243 -65.466  32.127  1.00  0.00     0.277 HD
ATOM     22  H61 UNL     1      43.042 -64.733  30.777  1.00  0.00     0.277 HD
BRANCH  20  23
HETATM   23  C8  UNL     1      43.007 -63.449  32.367  1.00  0.00     0.331 C 
BRANCH  23  24
HETATM   24  C9  UNL     1      44.249 -63.601  33.151  1.00  0.00     0.256 C 
HETATM   25  N7  UNL     1      45.206 -62.561  33.296  1.00  0.00    -0.061 NA
HETATM   26  O2  UNL     1      44.483 -64.693  33.718  1.00  0.00    -0.275 OA
ENDBRANCH  23  24
ENDBRANCH  20  23
ENDBRANCH  19  20
ENDBRANCH   1  19
BRANCH   1  27
HETATM   27  N8  UNL     1      41.333 -66.998  33.060  1.00  0.00    -0.066 N 
ATOM     28  H82 UNL     1      41.033 -67.971  33.113  1.00  0.00     0.277 HD
ATOM     29  H81 UNL     1      42.344 -67.123  33.085  1.00  0.00     0.277 HD
BRANCH  27  30
HETATM   30  C10 UNL     1      40.896 -66.285  34.203  1.00  0.00     0.260 C 
BRANCH  30  31
HETATM   31  C11 UNL     1      41.995 -65.929  35.186  1.00  0.00     0.257 C 
BRANCH  31  32
HETATM   32  N9  UNL     1      41.787 -64.530  35.562  1.00  0.00    -0.078 N 
ATOM     33  H93 UNL     1      42.632 -63.963  35.486  1.00  0.00     0.274 HD
ATOM     34  H92 UNL     1      41.223 -64.012  34.888  1.00  0.00     0.274 HD
ATOM     35  H91 UNL     1      41.389 -64.535  36.502  1.00  0.00     0.274 HD
ENDBRANCH  31  32
ENDBRANCH  30  31
ENDBRANCH  27  30
ENDBRANCH   1  27
TORSDOF 13
ENDMDL
MODEL 3
REMARK VINA RESULT: -7.445475202      1.479      2.410
REMARK  13 active torsions:
REMARK  status: ('A' for Active; 'I' for Inactive)
REMARK    1  A    between atoms: C1_4  and  C2_6 
REMARK    2  A    between atoms: C2_6  and  N3_7 
REMARK    3  A    between atoms: N3_7  and  C3_9 
REMARK    4  A    between atoms: N5_14  and  C5_15 
REMARK    5  A    between atoms: C5_15  and  C6_16 
REMARK    6  A    between atoms: C6_16  and  C7_17 
REMARK    7  A    between atoms: C6_16  and  N8_25 
REMARK    8  A    between atoms: C7_17  and  N6_18 
REMARK    9  A    between atoms: N6_18  and  C8_21 
REMARK   10  A    between atoms: C8_21  and  C9_22 
REMARK   11  A    between atoms: N8_25  and  C10_28 
REMARK   12  A    between atoms: C10_28  and  C11_29 
REMARK   13  A    between atoms: C11_29  and  N9_30 
ROOT
HETATM    1  C6  UNL     1      40.948 -66.520  31.780  1.00  0.00     0.231 C 
ENDROOT
BRANCH   1   2
HETATM    2  C5  UNL     1      41.230 -67.322  30.565  1.00  0.00     0.189 C 
BRANCH   2   3
HETATM    3  N5  UNL     1      41.631 -68.693  30.804  1.00  0.00    -0.226 N 
HETATM    4  C4  UNL     1      40.962 -69.703  31.362  1.00  0.00     0.355 A 
HETATM    5  N4  UNL     1      41.747 -70.825  31.356  1.00  0.00    -0.139 N 
HETATM    6  O1  UNL     1      39.804 -69.743  31.850  1.00  0.00    -0.244 OA
HETATM    7  C3  UNL     1      42.911 -70.496  30.788  1.00  0.00     0.697 A 
ATOM      8  H4  UNL     1      41.490 -71.743  31.718  1.00  0.00     0.189 HD
HETATM    9  N10 UNL     1      42.831 -69.204  30.457  1.00  0.00    -0.126 N 
ATOM     10  H10 UNL     1      43.575 -68.675  30.003  1.00  0.00     0.206 HD
BRANCH   7  11
HETATM   11  N3  UNL     1      43.920 -71.313  30.606  1.00  0.00    -0.218 N 
ATOM     12  H3  UNL     1      44.309 -71.445  29.673  1.00  0.00     0.178 HD
BRANCH  11  13
HETATM   13  C2  UNL     1      44.485 -72.035  31.745  1.00  0.00     0.210 C 
BRANCH  13  14
HETATM   14  C1  UNL     1      45.587 -71.285  32.333  1.00  0.00     0.105 C 
HETATM   15  N1  UNL     1      45.541 -70.930  33.565  1.00  0.00    -0.390 N 
ATOM     16  H12 UNL     1      46.313 -70.406  33.977  1.00  0.00     0.157 HD
ATOM     17  H11 UNL     1      44.728 -71.177  34.131  1.00  0.00     0.157 HD
HETATM   18  N2  UNL     1      46.715 -70.944  31.549  1.00  0.00    -0.086 NA
ENDBRANCH  13  14
ENDBRANCH  11  13
ENDBRANCH   7  11
ENDBRANCH   2   3
ENDBRANCH   1   2
BRANCH   1  19
HETATM   19  C7  UNL     1      41.217 -65.050  31.708  1.00  0.00     0.267 C 
BRANCH  19  20
HETATM   20  N6  UNL     1      42.590 -64.685  31.696  1.00  0.00    -0.065 N 
ATOM     21  H62 UNL     1      43.167 -65.384  32.165  1.00  0.00     0.277 HD
ATOM     22  H61 UNL     1      42.988 -64.756  30.759  1.00  0.00     0.277 HD
BRANCH  20  23
HETATM   23  C8  UNL     1      42.788 -63.376  32.255  1.00  0.00     0.331 C 
BRANCH  23  24
HETATM   24  C9  UNL     1      43.954 -63.409  33.160  1.00  0.00     0.256 C 
HETATM   25  N7  UNL     1      43.946 -62.824  34.455  1.00  0.00    -0.061 NA
HETATM   26  O2  UNL     1      45.006 -63.973  32.781  1.00  0.00    -0.275 OA
ENDBRANCH  23  24
ENDBRANCH  20  23
ENDBRANCH  19  20
ENDBRANCH   1  19
BRANCH   1  27
HETATM   27  N8  UNL     1      41.512 -67.053  32.972  1.00  0.00    -0.066 N 
ATOM     28  H82 UNL     1      41.366 -68.061  33.013  1.00  0.00     0.277 HD
ATOM     29  H81 UNL     1      42.530 -67.024  32.926  1.00  0.00     0.277 HD
BRANCH  27  30
HETATM   30  C10 UNL     1      41.055 -66.440  34.164  1.00  0.00     0.260 C 
BRANCH  30  31
HETATM   31  C11 UNL     1      42.153 -65.885  35.051  1.00  0.00     0.257 C 
BRANCH  31  32
HETATM   32  N9  UNL     1      41.678 -64.594  35.551  1.00  0.00    -0.078 N 
ATOM     33  H93 UNL     1      40.675 -64.458  35.425  1.00  0.00     0.274 HD
ATOM     34  H92 UNL     1      41.690 -64.527  36.569  1.00  0.00     0.274 HD
ATOM     35  H91 UNL     1      42.241 -63.876  35.095  1.00  0.00     0.274 HD
ENDBRANCH  31  32
ENDBRANCH  30  31
ENDBRANCH  27  30
ENDBRANCH   1  27
TORSDOF 13
ENDMDL
MODEL 4
REMARK VINA RESULT: -7.185978624      2.891      4.627
REMARK  13 active torsions:
REMARK  status: ('A' for Active; 'I' for Inactive)
REMARK    1  A    between atoms: C1_4  and  C2_6 
REMARK    2  A    between atoms: C2_6  and  N3_7 
REMARK    3  A    between atoms: N3_7  and  C3_9 
REMARK    4  A    between atoms: N5_14  and  C5_15 
REMARK    5  A    between atoms: C5_15  and  C6_16 
REMARK    6  A    between atoms: C6_16  and  C7_17 
REMARK    7  A    between atoms: C6_16  and  N8_25 
REMARK    8  A    between atoms: C7_17  and  N6_18 
REMARK    9  A    between atoms: N6_18  and  C8_21 
REMARK   10  A    between atoms: C8_21  and  C9_22 
REMARK   11  A    between atoms: N8_25  and  C10_28 
REMARK   12  A    between atoms: C10_28  and  C11_29 
REMARK   13  A    between atoms: C11_29  and  N9_30 
ROOT
HETATM    1  C6  UNL     1      44.311 -64.652  34.365  1.00  0.00     0.231 C 
ENDROOT
BRANCH   1   2
HETATM    2  C5  UNL     1      43.453 -65.738  34.897  1.00  0.00     0.189 C 
BRANCH   2   3
HETATM    3  N5  UNL     1      42.254 -66.014  34.133  1.00  0.00    -0.226 N 
HETATM    4  C4  UNL     1      41.027 -65.500  34.237  1.00  0.00     0.355 A 
HETATM    5  N4  UNL     1      40.220 -66.057  33.282  1.00  0.00    -0.139 N 
HETATM    6  O1  UNL     1      40.567 -64.645  35.034  1.00  0.00    -0.244 OA
HETATM    7  C3  UNL     1      40.962 -66.925  32.587  1.00  0.00     0.697 A 
ATOM      8  H4  UNL     1      39.234 -65.849  33.129  1.00  0.00     0.189 HD
HETATM    9  N10 UNL     1      42.192 -66.891  33.110  1.00  0.00    -0.126 N 
ATOM     10  H10 UNL     1      42.977 -67.451  32.779  1.00  0.00     0.206 HD
BRANCH   7  11
HETATM   11  N3  UNL     1      40.532 -67.655  31.586  1.00  0.00    -0.218 N 
ATOM     12  H3  UNL     1      39.531 -67.774  31.433  1.00  0.00     0.178 HD
BRANCH  11  13
HETATM   13  C2  UNL     1      41.493 -68.297  30.691  1.00  0.00     0.210 C 
BRANCH  13  14
HETATM   14  C1  UNL     1      41.550 -69.731  30.941  1.00  0.00     0.105 C 
HETATM   15  N1  UNL     1      42.431 -70.211  31.741  1.00  0.00    -0.390 N 
ATOM     16  H12 UNL     1      42.471 -71.215  31.917  1.00  0.00     0.157 HD
ATOM     17  H11 UNL     1      43.090 -69.583  32.201  1.00  0.00     0.157 HD
HETATM   18  N2  UNL     1      40.635 -70.603  30.303  1.00  0.00    -0.086 NA
ENDBRANCH  13  14
ENDBRANCH  11  13
ENDBRANCH   7  11
ENDBRANCH   2   3
ENDBRANCH   1   2
BRANCH   1  19
HETATM   19  C7  UNL     1      44.221 -63.317  35.036  1.00  0.00     0.267 C 
BRANCH  19  20
HETATM   20  N6  UNL     1      45.460 -62.774  35.471  1.00  0.00    -0.065 N 
ATOM     21  H62 UNL     1      45.654 -63.016  36.443  1.00  0.00     0.277 HD
ATOM     22  H61 UNL     1      46.251 -63.244  35.031  1.00  0.00     0.277 HD
BRANCH  20  23
HETATM   23  C8  UNL     1      45.509 -61.353  35.261  1.00  0.00     0.331 C 
BRANCH  23  24
HETATM   24  C9  UNL     1      46.394 -61.064  34.116  1.00  0.00     0.256 C 
HETATM   25  N7  UNL     1      46.553 -59.762  33.569  1.00  0.00    -0.061 NA
HETATM   26  O2  UNL     1      47.039 -62.001  33.591  1.00  0.00    -0.275 OA
ENDBRANCH  23  24
ENDBRANCH  20  23
ENDBRANCH  19  20
ENDBRANCH   1  19
BRANCH   1  27
HETATM   27  N8  UNL     1      44.231 -64.486  32.955  1.00  0.00    -0.066 N 
ATOM     28  H82 UNL     1      45.156 -64.575  32.535  1.00  0.00     0.277 HD
ATOM     29  H81 UNL     1      43.767 -65.289  32.530  1.00  0.00     0.277 HD
BRANCH  27  30
HETATM   30  C10 UNL     1      43.613 -63.283  32.538  1.00  0.00     0.260 C 
BRANCH  30  31
HETATM   31  C11 UNL     1      42.368 -63.470  31.691  1.00  0.00     0.257 C 
BRANCH  31  32
HETATM   32  N9  UNL     1      41.257 -62.885  32.443  1.00  0.00    -0.078 N 
ATOM     33  H93 UNL     1      40.627 -62.331  31.863  1.00  0.00     0.274 HD
ATOM     34  H92 UNL     1      40.572 -63.576  32.752  1.00  0.00     0.274 HD
ATOM     35  H91 UNL     1      41.668 -62.355  33.211  1.00  0.00     0.274 HD
ENDBRANCH  31  32
ENDBRANCH  30  31
ENDBRANCH  27  30
ENDBRANCH   1  27
TORSDOF 13
ENDMDL
MODEL 5
REMARK VINA RESULT: -7.163762560      3.164      5.625
REMARK  13 active torsions:
REMARK  status: ('A' for Active; 'I' for Inactive)
REMARK    1  A    between atoms: C1_4  and  C2_6 
REMARK    2  A    between atoms: C2_6  and  N3_7 
REMARK    3  A    between atoms: N3_7  and  C3_9 
REMARK    4  A    between atoms: N5_14  and  C5_15 
REMARK    5  A    between atoms: C5_15  and  C6_16 
REMARK    6  A    between atoms: C6_16  and  C7_17 
REMARK    7  A    between atoms: C6_16  and  N8_25 
REMARK    8  A    between atoms: C7_17  and  N6_18 
REMARK    9  A    between atoms: N6_18  and  C8_21 
REMARK   10  A    between atoms: C8_21  and  C9_22 
REMARK   11  A    between atoms: N8_25  and  C10_28 
REMARK   12  A    between atoms: C10_28  and  C11_29 
REMARK   13  A    between atoms: C11_29  and  N9_30 
ROOT
HETATM    1  C6  UNL     1      44.217 -63.030  34.013  1.00  0.00     0.231 C 
ENDROOT
BRANCH   1   2
HETATM    2  C5  UNL     1      43.844 -63.313  32.606  1.00  0.00     0.189 C 
BRANCH   2   3
HETATM    3  N5  UNL     1      42.585 -64.005  32.423  1.00  0.00    -0.226 N 
HETATM    4  C4  UNL     1      41.344 -63.641  32.756  1.00  0.00     0.355 A 
HETATM    5  N4  UNL     1      40.467 -64.617  32.365  1.00  0.00    -0.139 N 
HETATM    6  O1  UNL     1      40.925 -62.607  33.333  1.00  0.00    -0.244 OA
HETATM    7  C3  UNL     1      41.180 -65.589  31.788  1.00  0.00     0.697 A 
ATOM      8  H4  UNL     1      39.456 -64.604  32.492  1.00  0.00     0.189 HD
HETATM    9  N10 UNL     1      42.460 -65.208  31.828  1.00  0.00    -0.126 N 
ATOM     10  H10 UNL     1      43.239 -65.754  31.457  1.00  0.00     0.206 HD
BRANCH   7  11
HETATM   11  N3  UNL     1      40.683 -66.694  31.288  1.00  0.00    -0.218 N 
ATOM     12  H3  UNL     1      40.180 -66.674  30.401  1.00  0.00     0.178 HD
BRANCH  11  13
HETATM   13  C2  UNL     1      40.853 -67.957  32.006  1.00  0.00     0.210 C 
BRANCH  13  14
HETATM   14  C1  UNL     1      41.159 -69.038  31.079  1.00  0.00     0.105 C 
HETATM   15  N1  UNL     1      42.197 -68.971  30.330  1.00  0.00    -0.390 N 
ATOM     16  H12 UNL     1      42.412 -69.728  29.681  1.00  0.00     0.157 HD
ATOM     17  H11 UNL     1      42.809 -68.156  30.387  1.00  0.00     0.157 HD
HETATM   18  N2  UNL     1      40.311 -70.170  31.000  1.00  0.00    -0.086 NA
ENDBRANCH  13  14
ENDBRANCH  11  13
ENDBRANCH   7  11
ENDBRANCH   2   3
ENDBRANCH   1   2
BRANCH   1  19
HETATM   19  C7  UNL     1      45.446 -62.208  34.243  1.00  0.00     0.267 C 
BRANCH  19  20
HETATM   20  N6  UNL     1      45.687 -61.845  35.596  1.00  0.00    -0.065 N 
ATOM     21  H62 UNL     1      44.890 -62.070  36.192  1.00  0.00     0.277 HD
ATOM     22  H61 UNL     1      46.383 -62.451  36.029  1.00  0.00     0.277 HD
BRANCH  20  23
HETATM   23  C8  UNL     1      46.053 -60.460  35.708  1.00  0.00     0.331 C 
BRANCH  23  24
HETATM   24  C9  UNL     1      46.168 -60.104  37.136  1.00  0.00     0.256 C 
HETATM   25  N7  UNL     1      45.339 -59.134  37.762  1.00  0.00    -0.061 NA
HETATM   26  O2  UNL     1      47.033 -60.674  37.840  1.00  0.00    -0.275 OA
ENDBRANCH  23  24
ENDBRANCH  20  23
ENDBRANCH  19  20
ENDBRANCH   1  19
BRANCH   1  27
HETATM   27  N8  UNL     1      44.245 -64.179  34.849  1.00  0.00    -0.066 N 
ATOM     28  H82 UNL     1      44.423 -65.017  34.294  1.00  0.00     0.277 HD
ATOM     29  H81 UNL     1      45.082 -64.174  35.431  1.00  0.00     0.277 HD
BRANCH  27  30
HETATM   30  C10 UNL     1      43.090 -64.354  35.649  1.00  0.00     0.260 C 
BRANCH  30  31
HETATM   31  C11 UNL     1      42.785 -65.794  36.015  1.00  0.00     0.257 C 
BRANCH  31  32
HETATM   32  N9  UNL     1      41.667 -66.216  35.169  1.00  0.00    -0.078 N 
ATOM     33  H93 UNL     1      41.591 -67.229  35.078  1.00  0.00     0.274 HD
ATOM     34  H92 UNL     1      40.755 -66.057  35.598  1.00  0.00     0.274 HD
ATOM     35  H91 UNL     1      41.779 -65.738  34.274  1.00  0.00     0.274 HD
ENDBRANCH  31  32
ENDBRANCH  30  31
ENDBRANCH  27  30
ENDBRANCH   1  27
TORSDOF 13
ENDMDL
