MODEL 1
REMARK VINA RESULT: -8.513531007      0.000      0.000
REMARK  13 active torsions:
REMARK  status: ('A' for Active; 'I' for Inactive)
REMARK    1  A    between atoms: N1_2  and  C2_5 
REMARK    2  A    between atoms: C2_5  and  C3_6 
REMARK    3  A    between atoms: C3_6  and  C4_7 
REMARK    4  A    between atoms: C4_7  and  N2_8 
REMARK    5  A    between atoms: N2_8  and  C5_11 
REMARK    6  A    between atoms: C5_11  and  C6_12 
REMARK       I    between atoms: C6_12  and  N3_14 
REMARK    7  A    between atoms: N3_14  and  C7_16 
REMARK    8  A    between atoms: C7_16  and  C8_17 
REMARK    9  A    between atoms: C9_21  and  N5_22 
REMARK   10  A    between atoms: N5_22  and  C10_24 
REMARK   11  A    between atoms: C10_24  and  C11_28 
REMARK   12  A    between atoms: C11_28  and  N7_29 
REMARK   13  A    between atoms: C11_28  and  C12_33 
ROOT
HETATM    1  C8  UNL     1      40.772 -65.915  31.601  1.00  0.00     0.255 A 
HETATM    2  N4  UNL     1      39.826 -64.944  32.125  1.00  0.00    -0.043 N 
ATOM      3  H41 UNL     1      39.056 -64.992  32.791  1.00  0.00     0.280 HD
ATOM      4  H42 UNL     1      39.032 -64.442  31.728  1.00  0.00     0.280 HD
HETATM    5  C9  UNL     1      41.248 -64.657  32.241  1.00  0.00     0.318 A 
ENDROOT
BRANCH   1   6
HETATM    6  C7  UNL     1      40.871 -67.213  32.344  1.00  0.00     0.159 C 
BRANCH   6   7
HETATM    7  N3  UNL     1      41.715 -68.174  31.656  1.00  0.00    -0.358 N 
HETATM    8  C6  UNL     1      41.206 -69.452  31.333  1.00  0.00     0.243 C 
HETATM    9  O1  UNL     1      40.029 -69.763  31.635  1.00  0.00    -0.272 OA
ATOM     10  H3  UNL     1      42.673 -67.926  31.407  1.00  0.00     0.162 HD
BRANCH   8  11
HETATM   11  C5  UNL     1      42.028 -70.479  30.628  1.00  0.00     0.334 C 
BRANCH  11  12
HETATM   12  N2  UNL     1      43.279 -69.886  30.236  1.00  0.00    -0.067 N 
ATOM     13  H22 UNL     1      43.463 -69.046  30.784  1.00  0.00     0.277 HD
ATOM     14  H21 UNL     1      43.203 -69.473  29.306  1.00  0.00     0.277 HD
BRANCH  12  15
HETATM   15  C4  UNL     1      44.398 -70.785  30.298  1.00  0.00     0.234 C 
BRANCH  15  16
HETATM   16  C3  UNL     1      44.378 -71.517  31.598  1.00  0.00     0.055 C 
BRANCH  16  17
HETATM   17  C2  UNL     1      45.787 -71.769  32.134  1.00  0.00     0.233 C 
BRANCH  17  18
HETATM   18  N1  UNL     1      46.300 -70.485  32.572  1.00  0.00    -0.079 N 
HETATM   19  C1  UNL     1      47.595 -70.184  32.050  1.00  0.00     0.266 C 
ATOM     20  H12 UNL     1      46.296 -70.423  33.590  1.00  0.00     0.276 HD
ATOM     21  H11 UNL     1      45.639 -69.738  32.355  1.00  0.00     0.276 HD
ENDBRANCH  17  18
ENDBRANCH  16  17
ENDBRANCH  15  16
ENDBRANCH  12  15
ENDBRANCH  11  12
ENDBRANCH   8  11
ENDBRANCH   6   7
ENDBRANCH   1   6
BRANCH   5  22
HETATM   22  N5  UNL     1      41.792 -64.636  33.558  1.00  0.00    -0.349 N 
ATOM     23  H5  UNL     1      41.174 -64.636  34.369  1.00  0.00     0.163 HD
BRANCH  22  24
HETATM   24  C10 UNL     1      43.212 -64.614  33.734  1.00  0.00     0.112 C 
HETATM   25  N6  UNL     1      43.822 -65.643  34.205  1.00  0.00    -0.387 N 
ATOM     26  H62 UNL     1      43.266 -66.462  34.448  1.00  0.00     0.157 HD
ATOM     27  H61 UNL     1      44.835 -65.627  34.331  1.00  0.00     0.157 HD
BRANCH  24  28
HETATM   28  C11 UNL     1      44.021 -63.420  33.382  1.00  0.00     0.338 C 
BRANCH  28  29
HETATM   29  N7  UNL     1      45.153 -63.742  32.564  1.00  0.00    -0.060 N 
ATOM     30  H73 UNL     1      45.076 -64.686  32.187  1.00  0.00     0.275 HD
ATOM     31  H72 UNL     1      45.136 -63.214  31.692  1.00  0.00     0.275 HD
ATOM     32  H71 UNL     1      46.040 -63.614  33.052  1.00  0.00     0.275 HD
ENDBRANCH  28  29
BRANCH  28  33
HETATM   33  C12 UNL     1      44.481 -62.755  34.620  1.00  0.00     0.269 C 
HETATM   34  N8  UNL     1      45.823 -62.316  34.771  1.00  0.00    -0.060 NA
HETATM   35  O2  UNL     1      43.672 -62.574  35.558  1.00  0.00    -0.274 OA
ENDBRANCH  28  33
ENDBRANCH  24  28
ENDBRANCH  22  24
ENDBRANCH   5  22
TORSDOF 13
ENDMDL
MODEL 2
REMARK VINA RESULT: -8.310010099      1.184      1.885
REMARK  13 active torsions:
REMARK  status: ('A' for Active; 'I' for Inactive)
REMARK    1  A    between atoms: N1_2  and  C2_5 
REMARK    2  A    between atoms: C2_5  and  C3_6 
REMARK    3  A    between atoms: C3_6  and  C4_7 
REMARK    4  A    between atoms: C4_7  and  N2_8 
REMARK    5  A    between atoms: N2_8  and  C5_11 
REMARK    6  A    between atoms: C5_11  and  C6_12 
REMARK       I    between atoms: C6_12  and  N3_14 
REMARK    7  A    between atoms: N3_14  and  C7_16 
REMARK    8  A    between atoms: C7_16  and  C8_17 
REMARK    9  A    between atoms: C9_21  and  N5_22 
REMARK   10  A    between atoms: N5_22  and  C10_24 
REMARK   11  A    between atoms: C10_24  and  C11_28 
REMARK   12  A    between atoms: C11_28  and  N7_29 
REMARK   13  A    between atoms: C11_28  and  C12_33 
ROOT
HETATM    1  C8  UNL     1      40.730 -65.851  31.590  1.00  0.00     0.255 A 
HETATM    2  N4  UNL     1      40.544 -64.699  32.456  1.00  0.00    -0.043 N 
ATOM      3  H41 UNL     1      40.246 -64.579  33.423  1.00  0.00     0.280 HD
ATOM      4  H42 UNL     1      39.867 -63.937  32.487  1.00  0.00     0.280 HD
HETATM    5  C9  UNL     1      41.836 -64.879  31.810  1.00  0.00     0.318 A 
ENDROOT
BRANCH   1   6
HETATM    6  C7  UNL     1      40.768 -67.189  32.263  1.00  0.00     0.159 C 
BRANCH   6   7
HETATM    7  N3  UNL     1      41.602 -68.138  31.547  1.00  0.00    -0.358 N 
HETATM    8  C6  UNL     1      41.125 -69.445  31.300  1.00  0.00     0.243 C 
HETATM    9  O1  UNL     1      39.985 -69.791  31.692  1.00  0.00    -0.272 OA
ATOM     10  H3  UNL     1      42.529 -67.862  31.225  1.00  0.00     0.162 HD
BRANCH   8  11
HETATM   11  C5  UNL     1      41.937 -70.462  30.570  1.00  0.00     0.334 C 
BRANCH  11  12
HETATM   12  N2  UNL     1      43.206 -69.882  30.221  1.00  0.00    -0.067 N 
ATOM     13  H22 UNL     1      43.380 -69.044  30.776  1.00  0.00     0.277 HD
ATOM     14  H21 UNL     1      43.166 -69.467  29.290  1.00  0.00     0.277 HD
BRANCH  12  15
HETATM   15  C4  UNL     1      44.314 -70.792  30.320  1.00  0.00     0.234 C 
BRANCH  15  16
HETATM   16  C3  UNL     1      45.393 -70.368  29.381  1.00  0.00     0.055 C 
BRANCH  16  17
HETATM   17  C2  UNL     1      46.774 -70.429  30.032  1.00  0.00     0.233 C 
BRANCH  17  18
HETATM   18  N1  UNL     1      46.557 -70.469  31.465  1.00  0.00    -0.079 N 
HETATM   19  C1  UNL     1      47.708 -70.093  32.223  1.00  0.00     0.266 C 
ATOM     20  H12 UNL     1      46.217 -71.386  31.754  1.00  0.00     0.276 HD
ATOM     21  H11 UNL     1      45.750 -69.900  31.725  1.00  0.00     0.276 HD
ENDBRANCH  17  18
ENDBRANCH  16  17
ENDBRANCH  15  16
ENDBRANCH  12  15
ENDBRANCH  11  12
ENDBRANCH   8  11
ENDBRANCH   6   7
ENDBRANCH   1   6
BRANCH   5  22
HETATM   22  N5  UNL     1      42.943 -65.169  32.661  1.00  0.00    -0.349 N 
ATOM     23  H5  UNL     1      43.182 -66.136  32.880  1.00  0.00     0.163 HD
BRANCH  22  24
HETATM   24  C10 UNL     1      43.715 -64.095  33.204  1.00  0.00     0.112 C 
HETATM   25  N6  UNL     1      44.719 -63.624  32.554  1.00  0.00    -0.387 N 
ATOM     26  H62 UNL     1      44.943 -64.039  31.650  1.00  0.00     0.157 HD
ATOM     27  H61 UNL     1      45.269 -62.857  32.942  1.00  0.00     0.157 HD
BRANCH  24  28
HETATM   28  C11 UNL     1      43.388 -63.491  34.521  1.00  0.00     0.338 C 
BRANCH  28  29
HETATM   29  N7  UNL     1      44.549 -63.013  35.213  1.00  0.00    -0.060 N 
ATOM     30  H73 UNL     1      44.509 -63.253  36.204  1.00  0.00     0.275 HD
ATOM     31  H72 UNL     1      45.377 -63.545  34.948  1.00  0.00     0.275 HD
ATOM     32  H71 UNL     1      44.699 -62.013  35.085  1.00  0.00     0.275 HD
ENDBRANCH  28  29
BRANCH  28  33
HETATM   33  C12 UNL     1      42.690 -64.489  35.360  1.00  0.00     0.269 C 
HETATM   34  N8  UNL     1      41.273 -64.582  35.375  1.00  0.00    -0.060 NA
HETATM   35  O2  UNL     1      43.359 -65.270  36.072  1.00  0.00    -0.274 OA
ENDBRANCH  28  33
ENDBRANCH  24  28
ENDBRANCH  22  24
ENDBRANCH   5  22
TORSDOF 13
ENDMDL
MODEL 3
REMARK VINA RESULT: -8.259460031      0.745      1.014
REMARK  13 active torsions:
REMARK  status: ('A' for Active; 'I' for Inactive)
REMARK    1  A    between atoms: N1_2  and  C2_5 
REMARK    2  A    between atoms: C2_5  and  C3_6 
REMARK    3  A    between atoms: C3_6  and  C4_7 
REMARK    4  A    between atoms: C4_7  and  N2_8 
REMARK    5  A    between atoms: N2_8  and  C5_11 
REMARK    6  A    between atoms: C5_11  and  C6_12 
REMARK       I    between atoms: C6_12  and  N3_14 
REMARK    7  A    between atoms: N3_14  and  C7_16 
REMARK    8  A    between atoms: C7_16  and  C8_17 
REMARK    9  A    between atoms: C9_21  and  N5_22 
REMARK   10  A    between atoms: N5_22  and  C10_24 
REMARK   11  A    between atoms: C10_24  and  C11_28 
REMARK   12  A    between atoms: C11_28  and  N7_29 
REMARK   13  A    between atoms: C11_28  and  C12_33 
ROOT
HETATM    1  C8  UNL     1      40.856 -65.850  31.769  1.00  0.00     0.255 A 
HETATM    2  N4  UNL     1      39.620 -65.105  31.944  1.00  0.00    -0.043 N 
ATOM      3  H41 UNL     1      38.690 -65.346  32.286  1.00  0.00     0.280 HD
ATOM      4  H42 UNL     1      38.934 -64.709  31.302  1.00  0.00     0.280 HD
HETATM    5  C9  UNL     1      40.830 -64.597  32.574  1.00  0.00     0.318 A 
ENDROOT
BRANCH   1   6
HETATM    6  C7  UNL     1      40.935 -67.178  32.458  1.00  0.00     0.159 C 
BRANCH   6   7
HETATM    7  N3  UNL     1      41.742 -68.131  31.718  1.00  0.00    -0.358 N 
HETATM    8  C6  UNL     1      41.193 -69.379  31.347  1.00  0.00     0.243 C 
HETATM    9  O1  UNL     1      40.011 -69.670  31.651  1.00  0.00    -0.272 OA
ATOM     10  H3  UNL     1      42.704 -67.901  31.467  1.00  0.00     0.162 HD
BRANCH   8  11
HETATM   11  C5  UNL     1      41.975 -70.398  30.587  1.00  0.00     0.334 C 
BRANCH  11  12
HETATM   12  N2  UNL     1      43.244 -69.828  30.216  1.00  0.00    -0.067 N 
ATOM     13  H22 UNL     1      43.459 -69.023  30.803  1.00  0.00     0.277 HD
ATOM     14  H21 UNL     1      43.176 -69.367  29.308  1.00  0.00     0.277 HD
BRANCH  12  15
HETATM   15  C4  UNL     1      44.332 -70.766  30.225  1.00  0.00     0.234 C 
BRANCH  15  16
HETATM   16  C3  UNL     1      44.320 -71.532  31.505  1.00  0.00     0.055 C 
BRANCH  16  17
HETATM   17  C2  UNL     1      45.731 -71.789  32.031  1.00  0.00     0.233 C 
BRANCH  17  18
HETATM   18  N1  UNL     1      46.240 -70.514  32.498  1.00  0.00    -0.079 N 
HETATM   19  C1  UNL     1      47.569 -70.237  32.053  1.00  0.00     0.266 C 
ATOM     20  H12 UNL     1      46.178 -70.450  33.514  1.00  0.00     0.276 HD
ATOM     21  H11 UNL     1      45.606 -69.756  32.242  1.00  0.00     0.276 HD
ENDBRANCH  17  18
ENDBRANCH  16  17
ENDBRANCH  15  16
ENDBRANCH  12  15
ENDBRANCH  11  12
ENDBRANCH   8  11
ENDBRANCH   6   7
ENDBRANCH   1   6
BRANCH   5  22
HETATM   22  N5  UNL     1      40.865 -64.611  33.999  1.00  0.00    -0.349 N 
ATOM     23  H5  UNL     1      39.997 -64.650  34.534  1.00  0.00     0.163 HD
BRANCH  22  24
HETATM   24  C10 UNL     1      42.126 -64.570  34.673  1.00  0.00     0.112 C 
HETATM   25  N6  UNL     1      42.176 -64.592  35.957  1.00  0.00    -0.387 N 
ATOM     26  H62 UNL     1      41.296 -64.637  36.471  1.00  0.00     0.157 HD
ATOM     27  H61 UNL     1      43.075 -64.563  36.438  1.00  0.00     0.157 HD
BRANCH  24  28
HETATM   28  C11 UNL     1      43.406 -64.504  33.924  1.00  0.00     0.338 C 
BRANCH  28  29
HETATM   29  N7  UNL     1      44.280 -65.599  34.226  1.00  0.00    -0.060 N 
ATOM     30  H73 UNL     1      43.867 -66.215  34.926  1.00  0.00     0.275 HD
ATOM     31  H72 UNL     1      44.333 -66.251  33.444  1.00  0.00     0.275 HD
ATOM     32  H71 UNL     1      45.210 -65.293  34.512  1.00  0.00     0.275 HD
ENDBRANCH  28  29
BRANCH  28  33
HETATM   33  C12 UNL     1      44.090 -63.229  34.231  1.00  0.00     0.269 C 
HETATM   34  N8  UNL     1      45.098 -62.705  33.378  1.00  0.00    -0.060 NA
HETATM   35  O2  UNL     1      43.775 -62.595  35.263  1.00  0.00    -0.274 OA
ENDBRANCH  28  33
ENDBRANCH  24  28
ENDBRANCH  22  24
ENDBRANCH   5  22
TORSDOF 13
ENDMDL
MODEL 4
REMARK VINA RESULT: -8.110494980      1.457      1.674
REMARK  13 active torsions:
REMARK  status: ('A' for Active; 'I' for Inactive)
REMARK    1  A    between atoms: N1_2  and  C2_5 
REMARK    2  A    between atoms: C2_5  and  C3_6 
REMARK    3  A    between atoms: C3_6  and  C4_7 
REMARK    4  A    between atoms: C4_7  and  N2_8 
REMARK    5  A    between atoms: N2_8  and  C5_11 
REMARK    6  A    between atoms: C5_11  and  C6_12 
REMARK       I    between atoms: C6_12  and  N3_14 
REMARK    7  A    between atoms: N3_14  and  C7_16 
REMARK    8  A    between atoms: C7_16  and  C8_17 
REMARK    9  A    between atoms: C9_21  and  N5_22 
REMARK   10  A    between atoms: N5_22  and  C10_24 
REMARK   11  A    between atoms: C10_24  and  C11_28 
REMARK   12  A    between atoms: C11_28  and  N7_29 
REMARK   13  A    between atoms: C11_28  and  C12_33 
ROOT
HETATM    1  C8  UNL     1      40.504 -66.654  32.220  1.00  0.00     0.255 A 
HETATM    2  N4  UNL     1      41.124 -66.701  33.533  1.00  0.00    -0.043 N 
ATOM      3  H41 UNL     1      41.824 -67.303  33.966  1.00  0.00     0.280 HD
ATOM      4  H42 UNL     1      40.794 -66.953  34.465  1.00  0.00     0.280 HD
HETATM    5  C9  UNL     1      41.185 -65.455  32.783  1.00  0.00     0.318 A 
ENDROOT
BRANCH   1   6
HETATM    6  C7  UNL     1      41.171 -67.452  31.141  1.00  0.00     0.159 C 
BRANCH   6   7
HETATM    7  N3  UNL     1      41.875 -68.607  31.671  1.00  0.00    -0.358 N 
HETATM    8  C6  UNL     1      41.785 -69.850  31.005  1.00  0.00     0.243 C 
HETATM    9  O1  UNL     1      41.104 -69.964  29.958  1.00  0.00    -0.272 OA
ATOM     10  H3  UNL     1      42.431 -68.521  32.521  1.00  0.00     0.162 HD
BRANCH   8  11
HETATM   11  C5  UNL     1      42.486 -71.070  31.503  1.00  0.00     0.334 C 
BRANCH  11  12
HETATM   12  N2  UNL     1      43.341 -70.701  32.600  1.00  0.00    -0.067 N 
ATOM     13  H22 UNL     1      42.828 -70.740  33.481  1.00  0.00     0.277 HD
ATOM     14  H21 UNL     1      43.554 -69.704  32.567  1.00  0.00     0.277 HD
BRANCH  12  15
HETATM   15  C4  UNL     1      44.550 -71.473  32.685  1.00  0.00     0.234 C 
BRANCH  15  16
HETATM   16  C3  UNL     1      44.866 -72.055  31.349  1.00  0.00     0.055 C 
BRANCH  16  17
HETATM   17  C2  UNL     1      46.335 -71.866  30.975  1.00  0.00     0.233 C 
BRANCH  17  18
HETATM   18  N1  UNL     1      46.446 -70.549  30.377  1.00  0.00    -0.079 N 
HETATM   19  C1  UNL     1      45.483 -70.311  29.349  1.00  0.00     0.266 C 
ATOM     20  H12 UNL     1      47.392 -70.388  30.031  1.00  0.00     0.276 HD
ATOM     21  H11 UNL     1      46.401 -69.822  31.091  1.00  0.00     0.276 HD
ENDBRANCH  17  18
ENDBRANCH  16  17
ENDBRANCH  15  16
ENDBRANCH  12  15
ENDBRANCH  11  12
ENDBRANCH   8  11
ENDBRANCH   6   7
ENDBRANCH   1   6
BRANCH   5  22
HETATM   22  N5  UNL     1      42.473 -65.037  32.339  1.00  0.00    -0.349 N 
ATOM     23  H5  UNL     1      42.678 -64.973  31.342  1.00  0.00     0.163 HD
BRANCH  22  24
HETATM   24  C10 UNL     1      43.477 -64.706  33.303  1.00  0.00     0.112 C 
HETATM   25  N6  UNL     1      43.854 -65.576  34.171  1.00  0.00    -0.387 N 
ATOM     26  H62 UNL     1      43.416 -66.496  34.150  1.00  0.00     0.157 HD
ATOM     27  H61 UNL     1      44.570 -65.340  34.859  1.00  0.00     0.157 HD
BRANCH  24  28
HETATM   28  C11 UNL     1      44.114 -63.365  33.333  1.00  0.00     0.338 C 
BRANCH  28  29
HETATM   29  N7  UNL     1      45.383 -63.340  32.668  1.00  0.00    -0.060 N 
ATOM     30  H73 UNL     1      45.460 -64.106  31.998  1.00  0.00     0.275 HD
ATOM     31  H72 UNL     1      45.443 -62.552  32.023  1.00  0.00     0.275 HD
ATOM     32  H71 UNL     1      46.168 -63.343  33.318  1.00  0.00     0.275 HD
ENDBRANCH  28  29
BRANCH  28  33
HETATM   33  C12 UNL     1      44.286 -62.935  34.738  1.00  0.00     0.269 C 
HETATM   34  N8  UNL     1      43.178 -62.822  35.619  1.00  0.00    -0.060 NA
HETATM   35  O2  UNL     1      45.432 -62.665  35.163  1.00  0.00    -0.274 OA
ENDBRANCH  28  33
ENDBRANCH  24  28
ENDBRANCH  22  24
ENDBRANCH   5  22
TORSDOF 13
ENDMDL
MODEL 5
REMARK VINA RESULT: -8.108180241      1.518      1.969
REMARK  13 active torsions:
REMARK  status: ('A' for Active; 'I' for Inactive)
REMARK    1  A    between atoms: N1_2  and  C2_5 
REMARK    2  A    between atoms: C2_5  and  C3_6 
REMARK    3  A    between atoms: C3_6  and  C4_7 
REMARK    4  A    between atoms: C4_7  and  N2_8 
REMARK    5  A    between atoms: N2_8  and  C5_11 
REMARK    6  A    between atoms: C5_11  and  C6_12 
REMARK       I    between atoms: C6_12  and  N3_14 
REMARK    7  A    between atoms: N3_14  and  C7_16 
REMARK    8  A    between atoms: C7_16  and  C8_17 
REMARK    9  A    between atoms: C9_21  and  N5_22 
REMARK   10  A    between atoms: N5_22  and  C10_24 
REMARK   11  A    between atoms: C10_24  and  C11_28 
REMARK   12  A    between atoms: C11_28  and  N7_29 
REMARK   13  A    between atoms: C11_28  and  C12_33 
ROOT
HETATM    1  C8  UNL     1      40.745 -67.384  32.240  1.00  0.00     0.255 A 
HETATM    2  N4  UNL     1      41.778 -66.893  33.137  1.00  0.00    -0.043 N 
ATOM      3  H41 UNL     1      42.793 -66.815  33.075  1.00  0.00     0.280 HD
ATOM      4  H42 UNL     1      42.177 -67.231  34.013  1.00  0.00     0.280 HD
HETATM    5  C9  UNL     1      40.673 -66.007  32.802  1.00  0.00     0.318 A 
ENDROOT
BRANCH   1   6
HETATM    6  C7  UNL     1      41.147 -67.586  30.811  1.00  0.00     0.159 C 
BRANCH   6   7
HETATM    7  N3  UNL     1      42.060 -68.704  30.652  1.00  0.00    -0.358 N 
HETATM    8  C6  UNL     1      41.584 -70.026  30.798  1.00  0.00     0.243 C 
HETATM    9  O1  UNL     1      40.377 -70.243  31.062  1.00  0.00    -0.272 OA
ATOM     10  H3  UNL     1      43.042 -68.535  30.436  1.00  0.00     0.162 HD
BRANCH   8  11
HETATM   11  C5  UNL     1      42.476 -71.213  30.646  1.00  0.00     0.334 C 
BRANCH  11  12
HETATM   12  N2  UNL     1      43.801 -70.859  31.080  1.00  0.00    -0.067 N 
ATOM     13  H22 UNL     1      43.762 -70.105  31.766  1.00  0.00     0.277 HD
ATOM     14  H21 UNL     1      44.308 -70.386  30.332  1.00  0.00     0.277 HD
BRANCH  12  15
HETATM   15  C4  UNL     1      44.567 -71.964  31.588  1.00  0.00     0.234 C 
BRANCH  15  16
HETATM   16  C3  UNL     1      45.898 -71.998  30.917  1.00  0.00     0.055 C 
BRANCH  16  17
HETATM   17  C2  UNL     1      46.234 -70.668  30.243  1.00  0.00     0.233 C 
BRANCH  17  18
HETATM   18  N1  UNL     1      47.584 -70.327  30.647  1.00  0.00    -0.079 N 
HETATM   19  C1  UNL     1      47.714 -70.096  32.052  1.00  0.00     0.266 C 
ATOM     20  H12 UNL     1      47.929 -69.528  30.115  1.00  0.00     0.276 HD
ATOM     21  H11 UNL     1      48.246 -71.037  30.334  1.00  0.00     0.276 HD
ENDBRANCH  17  18
ENDBRANCH  16  17
ENDBRANCH  15  16
ENDBRANCH  12  15
ENDBRANCH  11  12
ENDBRANCH   8  11
ENDBRANCH   6   7
ENDBRANCH   1   6
BRANCH   5  22
HETATM   22  N5  UNL     1      40.989 -64.854  32.026  1.00  0.00    -0.349 N 
ATOM     23  H5  UNL     1      40.829 -64.853  31.018  1.00  0.00     0.163 HD
BRANCH  22  24
HETATM   24  C10 UNL     1      41.531 -63.697  32.670  1.00  0.00     0.112 C 
HETATM   25  N6  UNL     1      40.757 -62.869  33.275  1.00  0.00    -0.387 N 
ATOM     26  H62 UNL     1      39.756 -63.062  33.278  1.00  0.00     0.157 HD
ATOM     27  H61 UNL     1      41.144 -62.044  33.734  1.00  0.00     0.157 HD
BRANCH  24  28
HETATM   28  C11 UNL     1      42.990 -63.416  32.664  1.00  0.00     0.338 C 
BRANCH  28  29
HETATM   29  N7  UNL     1      43.682 -64.109  31.619  1.00  0.00    -0.060 N 
ATOM     30  H73 UNL     1      43.027 -64.590  31.002  1.00  0.00     0.275 HD
ATOM     31  H72 UNL     1      44.087 -63.454  30.951  1.00  0.00     0.275 HD
ATOM     32  H71 UNL     1      44.388 -64.753  31.974  1.00  0.00     0.275 HD
ENDBRANCH  28  29
BRANCH  28  33
HETATM   33  C12 UNL     1      43.567 -63.793  33.972  1.00  0.00     0.269 C 
HETATM   34  N8  UNL     1      43.396 -62.975  35.121  1.00  0.00    -0.060 NA
HETATM   35  O2  UNL     1      44.222 -64.855  34.073  1.00  0.00    -0.274 OA
ENDBRANCH  28  33
ENDBRANCH  24  28
ENDBRANCH  22  24
ENDBRANCH   5  22
TORSDOF 13
ENDMDL
