MODEL 1
REMARK VINA RESULT: -7.634195159      0.000      0.000
REMARK  13 active torsions:
REMARK  status: ('A' for Active; 'I' for Inactive)
REMARK    1  A    between atoms: C2_2  and  C3_3 
REMARK    2  A    between atoms: C2_2  and  C5_6 
REMARK    3  A    between atoms: C3_3  and  S1_4 
REMARK    4  A    between atoms: C5_6  and  C6_7 
REMARK    5  A    between atoms: C6_7  and  O2_9 
REMARK    6  A    between atoms: O2_9  and  C7_10 
REMARK    7  A    between atoms: C7_10  and  C8_11 
REMARK    8  A    between atoms: C11_14  and  O3_15 
REMARK    9  A    between atoms: O3_15  and  C12_16 
REMARK   10  A    between atoms: C16_21  and  O5_22 
REMARK   11  A    between atoms: O5_22  and  C17_23 
REMARK   12  A    between atoms: C22_29  and  C24_31 
REMARK   13  A    between atoms: C25_32  and  C27_34 
ROOT
HETATM    1  C8  UNL     1      -1.846 -36.215   6.200  1.00  0.00     0.051 C 
HETATM    2  C9  UNL     1      -0.437 -35.987   6.488  1.00  0.00    -0.027 C 
HETATM    3  C10 UNL     1      -0.106 -35.916   7.765  1.00  0.00     0.022 C 
HETATM    4  C11 UNL     1       0.728 -35.852   5.601  1.00  0.00     0.082 C 
HETATM    5  C14 UNL     1       0.864 -36.405   4.410  1.00  0.00     0.019 C 
HETATM    6  C15 UNL     1      -0.042 -37.257   3.663  1.00  0.00     0.049 C 
HETATM    7  C16 UNL     1      -1.475 -36.855   3.762  1.00  0.00     0.145 C 
HETATM    8  C19 UNL     1      -2.107 -37.156   5.058  1.00  0.00     0.027 C 
HETATM    9  C20 UNL     1      -1.873 -38.601   5.495  1.00  0.00     0.014 C 
HETATM   10  C21 UNL     1      -0.468 -39.035   5.278  1.00  0.00     0.007 C 
HETATM   11  C22 UNL     1      -0.256 -40.472   5.790  1.00  0.00    -0.021 C 
HETATM   12  C23 UNL     1      -1.164 -41.425   5.098  1.00  0.00     0.020 C 
HETATM   13  C28 UNL     1       1.201 -40.820   5.655  1.00  0.00     0.013 C 
HETATM   14  C29 UNL     1       2.061 -39.662   5.175  1.00  0.00     0.002 C 
HETATM   15  C30 UNL     1       1.578 -39.126   3.874  1.00  0.00     0.010 C 
HETATM   16  C31 UNL     1       0.095 -38.754   3.945  1.00  0.00    -0.030 C 
HETATM   17  C32 UNL     1      -0.542 -39.442   2.775  1.00  0.00     0.016 C 
ENDROOT
BRANCH   1  18
HETATM   18  C7  UNL     1      -2.701 -34.986   6.119  1.00  0.00     0.188 C 
BRANCH  18  19
HETATM   19  O2  UNL     1      -4.050 -35.108   6.370  1.00  0.00    -0.321 OA
BRANCH  19  20
HETATM   20  C6  UNL     1      -4.718 -35.132   7.559  1.00  0.00     0.262 C 
HETATM   21  O1  UNL     1      -5.036 -33.997   8.044  1.00  0.00    -0.265 OA
BRANCH  20  22
HETATM   22  C5  UNL     1      -5.027 -36.415   8.199  1.00  0.00     0.145 C 
BRANCH  22  23
HETATM   23  C2  UNL     1      -3.926 -36.923   9.060  1.00  0.00    -0.071 C 
HETATM   24  C1  UNL     1      -3.446 -38.129   8.819  1.00  0.00     0.015 C 
BRANCH  23  25
HETATM   25  C3  UNL     1      -3.397 -36.085  10.144  1.00  0.00     0.107 C 
BRANCH  25  26
HETATM   26  S1  UNL     1      -2.013 -36.955  10.938  1.00  0.00    -0.169 SA
HETATM   27  C4  UNL     1      -0.787 -35.744  11.542  1.00  0.00     0.090 C 
ENDBRANCH  25  26
ENDBRANCH  23  25
ENDBRANCH  22  23
ENDBRANCH  20  22
ENDBRANCH  19  20
ENDBRANCH  18  19
ENDBRANCH   1  18
BRANCH   4  28
HETATM   28  O3  UNL     1       1.786 -35.064   6.071  1.00  0.00    -0.279 OA
BRANCH  28  29
HETATM   29  C12 UNL     1       1.554 -33.709   6.247  1.00  0.00     0.260 C 
HETATM   30  C13 UNL     1       2.147 -32.903   7.341  1.00  0.00     0.126 C 
HETATM   31  O4  UNL     1       0.801 -33.111   5.441  1.00  0.00    -0.265 OA
ENDBRANCH  28  29
ENDBRANCH   4  28
BRANCH   7  32
HETATM   32  O5  UNL     1      -1.626 -35.534   3.370  1.00  0.00    -0.315 OA
BRANCH  32  33
HETATM   33  C17 UNL     1      -1.374 -35.061   2.084  1.00  0.00     0.255 C 
HETATM   34  C18 UNL     1      -1.781 -35.777   0.863  1.00  0.00     0.126 C 
HETATM   35  O6  UNL     1      -0.770 -33.970   1.989  1.00  0.00    -0.266 OA
ENDBRANCH  32  33
ENDBRANCH   7  32
BRANCH  11  36
HETATM   36  C24 UNL     1      -0.553 -40.463   7.235  1.00  0.00    -0.004 C 
HETATM   37  C25 UNL     1      -0.364 -41.378   8.129  1.00  0.00     0.011 C 
HETATM   38  C26 UNL     1      -0.815 -40.992   9.570  1.00  0.00     0.055 C 
BRANCH  37  39
HETATM   39  C27 UNL     1       0.198 -42.691   8.099  1.00  0.00     0.204 C 
HETATM   40  O7  UNL     1      -0.366 -43.701   7.676  1.00  0.00    -0.644 OA
HETATM   41  O8  UNL     1       1.522 -42.943   8.581  1.00  0.00    -0.644 OA
ENDBRANCH  37  39
ENDBRANCH  11  36
TORSDOF 13
ENDMDL
MODEL 2
REMARK VINA RESULT: -7.470267367      2.424      5.721
REMARK  13 active torsions:
REMARK  status: ('A' for Active; 'I' for Inactive)
REMARK    1  A    between atoms: C2_2  and  C3_3 
REMARK    2  A    between atoms: C2_2  and  C5_6 
REMARK    3  A    between atoms: C3_3  and  S1_4 
REMARK    4  A    between atoms: C5_6  and  C6_7 
REMARK    5  A    between atoms: C6_7  and  O2_9 
REMARK    6  A    between atoms: O2_9  and  C7_10 
REMARK    7  A    between atoms: C7_10  and  C8_11 
REMARK    8  A    between atoms: C11_14  and  O3_15 
REMARK    9  A    between atoms: O3_15  and  C12_16 
REMARK   10  A    between atoms: C16_21  and  O5_22 
REMARK   11  A    between atoms: O5_22  and  C17_23 
REMARK   12  A    between atoms: C22_29  and  C24_31 
REMARK   13  A    between atoms: C25_32  and  C27_34 
ROOT
HETATM    1  C8  UNL     1      -0.771 -36.377   7.682  1.00  0.00     0.051 C 
HETATM    2  C9  UNL     1      -0.408 -37.406   6.718  1.00  0.00    -0.027 C 
HETATM    3  C10 UNL     1      -0.891 -38.614   6.943  1.00  0.00     0.022 C 
HETATM    4  C11 UNL     1       0.388 -37.344   5.482  1.00  0.00     0.082 C 
HETATM    5  C14 UNL     1       0.523 -36.292   4.698  1.00  0.00     0.019 C 
HETATM    6  C15 UNL     1      -0.039 -34.959   4.813  1.00  0.00     0.049 C 
HETATM    7  C16 UNL     1      -0.058 -34.426   6.207  1.00  0.00     0.145 C 
HETATM    8  C19 UNL     1      -1.075 -35.034   7.080  1.00  0.00     0.027 C 
HETATM    9  C20 UNL     1      -2.461 -35.042   6.437  1.00  0.00     0.014 C 
HETATM   10  C21 UNL     1      -2.419 -35.457   5.010  1.00  0.00     0.007 C 
HETATM   11  C22 UNL     1      -3.838 -35.515   4.416  1.00  0.00    -0.021 C 
HETATM   12  C23 UNL     1      -4.512 -34.194   4.510  1.00  0.00     0.020 C 
HETATM   13  C28 UNL     1      -3.751 -36.050   3.013  1.00  0.00     0.013 C 
HETATM   14  C29 UNL     1      -2.349 -36.481   2.613  1.00  0.00     0.002 C 
HETATM   15  C30 UNL     1      -1.372 -35.368   2.760  1.00  0.00     0.010 C 
HETATM   16  C31 UNL     1      -1.415 -34.778   4.171  1.00  0.00    -0.030 C 
HETATM   17  C32 UNL     1      -1.574 -33.299   3.977  1.00  0.00     0.016 C 
ENDROOT
BRANCH   1  18
HETATM   18  C7  UNL     1       0.125 -36.262   8.879  1.00  0.00     0.188 C 
BRANCH  18  19
HETATM   19  O2  UNL     1      -0.259 -35.431   9.908  1.00  0.00    -0.321 OA
BRANCH  19  20
HETATM   20  C6  UNL     1      -1.111 -35.665  10.949  1.00  0.00     0.262 C 
HETATM   21  O1  UNL     1      -1.164 -34.757  11.842  1.00  0.00    -0.265 OA
BRANCH  20  22
HETATM   22  C5  UNL     1      -1.894 -36.905  10.988  1.00  0.00     0.145 C 
BRANCH  22  23
HETATM   23  C2  UNL     1      -3.239 -36.770  10.368  1.00  0.00    -0.071 C 
HETATM   24  C1  UNL     1      -3.565 -37.594   9.389  1.00  0.00     0.015 C 
BRANCH  23  25
HETATM   25  C3  UNL     1      -4.169 -35.741  10.851  1.00  0.00     0.107 C 
BRANCH  25  26
HETATM   26  S1  UNL     1      -5.634 -36.555  11.554  1.00  0.00    -0.169 SA
HETATM   27  C4  UNL     1      -7.106 -36.144  10.556  1.00  0.00     0.090 C 
ENDBRANCH  25  26
ENDBRANCH  23  25
ENDBRANCH  22  23
ENDBRANCH  20  22
ENDBRANCH  19  20
ENDBRANCH  18  19
ENDBRANCH   1  18
BRANCH   4  28
HETATM   28  O3  UNL     1       1.062 -38.515   5.113  1.00  0.00    -0.279 OA
BRANCH  28  29
HETATM   29  C12 UNL     1       0.955 -38.935   3.796  1.00  0.00     0.260 C 
HETATM   30  C13 UNL     1      -0.276 -39.517   3.209  1.00  0.00     0.126 C 
HETATM   31  O4  UNL     1       1.949 -38.822   3.040  1.00  0.00    -0.265 OA
ENDBRANCH  28  29
ENDBRANCH   4  28
BRANCH   7  32
HETATM   32  O5  UNL     1       1.219 -34.457   6.745  1.00  0.00    -0.315 OA
BRANCH  32  33
HETATM   33  C17 UNL     1       1.959 -33.326   7.082  1.00  0.00     0.255 C 
HETATM   34  C18 UNL     1       2.930 -33.294   8.189  1.00  0.00     0.126 C 
HETATM   35  O6  UNL     1       1.770 -32.298   6.395  1.00  0.00    -0.266 OA
ENDBRANCH  32  33
ENDBRANCH   7  32
BRANCH  11  36
HETATM   36  C24 UNL     1      -4.592 -36.515   5.199  1.00  0.00    -0.004 C 
HETATM   37  C25 UNL     1      -5.507 -36.349   6.098  1.00  0.00     0.011 C 
HETATM   38  C26 UNL     1      -6.071 -37.666   6.710  1.00  0.00     0.055 C 
BRANCH  37  39
HETATM   39  C27 UNL     1      -6.149 -35.202   6.658  1.00  0.00     0.204 C 
HETATM   40  O7  UNL     1      -7.205 -34.708   6.259  1.00  0.00    -0.644 OA
HETATM   41  O8  UNL     1      -5.588 -34.511   7.778  1.00  0.00    -0.644 OA
ENDBRANCH  37  39
ENDBRANCH  11  36
TORSDOF 13
ENDMDL
MODEL 3
REMARK VINA RESULT: -7.448844921      2.228      5.717
REMARK  13 active torsions:
REMARK  status: ('A' for Active; 'I' for Inactive)
REMARK    1  A    between atoms: C2_2  and  C3_3 
REMARK    2  A    between atoms: C2_2  and  C5_6 
REMARK    3  A    between atoms: C3_3  and  S1_4 
REMARK    4  A    between atoms: C5_6  and  C6_7 
REMARK    5  A    between atoms: C6_7  and  O2_9 
REMARK    6  A    between atoms: O2_9  and  C7_10 
REMARK    7  A    between atoms: C7_10  and  C8_11 
REMARK    8  A    between atoms: C11_14  and  O3_15 
REMARK    9  A    between atoms: O3_15  and  C12_16 
REMARK   10  A    between atoms: C16_21  and  O5_22 
REMARK   11  A    between atoms: O5_22  and  C17_23 
REMARK   12  A    between atoms: C22_29  and  C24_31 
REMARK   13  A    between atoms: C25_32  and  C27_34 
ROOT
HETATM    1  C8  UNL     1      -0.712 -36.263   7.672  1.00  0.00     0.051 C 
HETATM    2  C9  UNL     1      -0.368 -37.344   6.759  1.00  0.00    -0.027 C 
HETATM    3  C10 UNL     1      -0.854 -38.536   7.055  1.00  0.00     0.022 C 
HETATM    4  C11 UNL     1       0.411 -37.354   5.512  1.00  0.00     0.082 C 
HETATM    5  C14 UNL     1       0.541 -36.345   4.671  1.00  0.00     0.019 C 
HETATM    6  C15 UNL     1      -0.013 -35.005   4.722  1.00  0.00     0.049 C 
HETATM    7  C16 UNL     1      -0.009 -34.398   6.085  1.00  0.00     0.145 C 
HETATM    8  C19 UNL     1      -1.018 -34.953   7.004  1.00  0.00     0.027 C 
HETATM    9  C20 UNL     1      -2.412 -34.986   6.381  1.00  0.00     0.014 C 
HETATM   10  C21 UNL     1      -2.392 -35.477   4.978  1.00  0.00     0.007 C 
HETATM   11  C22 UNL     1      -3.820 -35.557   4.407  1.00  0.00    -0.021 C 
HETATM   12  C23 UNL     1      -4.485 -34.229   4.440  1.00  0.00     0.020 C 
HETATM   13  C28 UNL     1      -3.755 -36.166   3.033  1.00  0.00     0.013 C 
HETATM   14  C29 UNL     1      -2.361 -36.627   2.638  1.00  0.00     0.002 C 
HETATM   15  C30 UNL     1      -1.376 -35.514   2.712  1.00  0.00     0.010 C 
HETATM   16  C31 UNL     1      -1.396 -34.849   4.090  1.00  0.00    -0.030 C 
HETATM   17  C32 UNL     1      -1.550 -33.382   3.820  1.00  0.00     0.016 C 
ENDROOT
BRANCH   1  18
HETATM   18  C7  UNL     1       0.201 -36.091   8.849  1.00  0.00     0.188 C 
BRANCH  18  19
HETATM   19  O2  UNL     1      -0.194 -36.604  10.065  1.00  0.00    -0.321 OA
BRANCH  19  20
HETATM   20  C6  UNL     1      -1.121 -36.137  10.951  1.00  0.00     0.262 C 
HETATM   21  O1  UNL     1      -0.957 -34.938  11.350  1.00  0.00    -0.265 OA
BRANCH  20  22
HETATM   22  C5  UNL     1      -2.220 -37.006  11.385  1.00  0.00     0.145 C 
BRANCH  22  23
HETATM   23  C2  UNL     1      -3.104 -37.437  10.270  1.00  0.00    -0.071 C 
HETATM   24  C1  UNL     1      -3.760 -36.512   9.594  1.00  0.00     0.015 C 
BRANCH  23  25
HETATM   25  C3  UNL     1      -3.229 -38.864   9.944  1.00  0.00     0.107 C 
BRANCH  25  26
HETATM   26  S1  UNL     1      -2.069 -39.807  10.976  1.00  0.00    -0.169 SA
HETATM   27  C4  UNL     1      -1.323 -41.154   9.994  1.00  0.00     0.090 C 
ENDBRANCH  25  26
ENDBRANCH  23  25
ENDBRANCH  22  23
ENDBRANCH  20  22
ENDBRANCH  19  20
ENDBRANCH  18  19
ENDBRANCH   1  18
BRANCH   4  28
HETATM   28  O3  UNL     1       1.073 -38.546   5.195  1.00  0.00    -0.279 OA
BRANCH  28  29
HETATM   29  C12 UNL     1       0.886 -39.074   3.927  1.00  0.00     0.260 C 
HETATM   30  C13 UNL     1      -0.392 -39.656   3.452  1.00  0.00     0.126 C 
HETATM   31  O4  UNL     1       1.845 -39.066   3.118  1.00  0.00    -0.265 OA
ENDBRANCH  28  29
ENDBRANCH   4  28
BRANCH   7  32
HETATM   32  O5  UNL     1       1.275 -34.409   6.607  1.00  0.00    -0.315 OA
BRANCH  32  33
HETATM   33  C17 UNL     1       1.971 -33.270   7.008  1.00  0.00     0.255 C 
HETATM   34  C18 UNL     1       2.882 -33.244   8.165  1.00  0.00     0.126 C 
HETATM   35  O6  UNL     1       1.796 -32.231   6.335  1.00  0.00    -0.266 OA
ENDBRANCH  32  33
ENDBRANCH   7  32
BRANCH  11  36
HETATM   36  C24 UNL     1      -4.568 -36.509   5.252  1.00  0.00    -0.004 C 
HETATM   37  C25 UNL     1      -5.492 -36.293   6.130  1.00  0.00     0.011 C 
HETATM   38  C26 UNL     1      -6.046 -37.571   6.829  1.00  0.00     0.055 C 
BRANCH  37  39
HETATM   39  C27 UNL     1      -6.153 -35.118   6.604  1.00  0.00     0.204 C 
HETATM   40  O7  UNL     1      -7.224 -34.679   6.180  1.00  0.00    -0.644 OA
HETATM   41  O8  UNL     1      -5.594 -34.326   7.657  1.00  0.00    -0.644 OA
ENDBRANCH  37  39
ENDBRANCH  11  36
TORSDOF 13
ENDMDL
MODEL 4
REMARK VINA RESULT: -7.434405108      1.694      2.224
REMARK  13 active torsions:
REMARK  status: ('A' for Active; 'I' for Inactive)
REMARK    1  A    between atoms: C2_2  and  C3_3 
REMARK    2  A    between atoms: C2_2  and  C5_6 
REMARK    3  A    between atoms: C3_3  and  S1_4 
REMARK    4  A    between atoms: C5_6  and  C6_7 
REMARK    5  A    between atoms: C6_7  and  O2_9 
REMARK    6  A    between atoms: O2_9  and  C7_10 
REMARK    7  A    between atoms: C7_10  and  C8_11 
REMARK    8  A    between atoms: C11_14  and  O3_15 
REMARK    9  A    between atoms: O3_15  and  C12_16 
REMARK   10  A    between atoms: C16_21  and  O5_22 
REMARK   11  A    between atoms: O5_22  and  C17_23 
REMARK   12  A    between atoms: C22_29  and  C24_31 
REMARK   13  A    between atoms: C25_32  and  C27_34 
ROOT
HETATM    1  C8  UNL     1      -1.900 -36.374   6.121  1.00  0.00     0.051 C 
HETATM    2  C9  UNL     1      -0.502 -36.102   6.423  1.00  0.00    -0.027 C 
HETATM    3  C10 UNL     1      -0.189 -36.002   7.702  1.00  0.00     0.022 C 
HETATM    4  C11 UNL     1       0.670 -35.951   5.547  1.00  0.00     0.082 C 
HETATM    5  C14 UNL     1       0.836 -36.519   4.368  1.00  0.00     0.019 C 
HETATM    6  C15 UNL     1      -0.037 -37.408   3.625  1.00  0.00     0.049 C 
HETATM    7  C16 UNL     1      -1.482 -37.043   3.700  1.00  0.00     0.145 C 
HETATM    8  C19 UNL     1      -2.121 -37.340   4.992  1.00  0.00     0.027 C 
HETATM    9  C20 UNL     1      -1.854 -38.770   5.456  1.00  0.00     0.014 C 
HETATM   10  C21 UNL     1      -0.435 -39.170   5.264  1.00  0.00     0.007 C 
HETATM   11  C22 UNL     1      -0.191 -40.592   5.802  1.00  0.00    -0.021 C 
HETATM   12  C23 UNL     1      -1.063 -41.580   5.116  1.00  0.00     0.020 C 
HETATM   13  C28 UNL     1       1.277 -40.902   5.691  1.00  0.00     0.013 C 
HETATM   14  C29 UNL     1       2.111 -39.729   5.202  1.00  0.00     0.002 C 
HETATM   15  C30 UNL     1       1.630 -39.228   3.887  1.00  0.00     0.010 C 
HETATM   16  C31 UNL     1       0.137 -38.895   3.933  1.00  0.00    -0.030 C 
HETATM   17  C32 UNL     1      -0.466 -39.620   2.767  1.00  0.00     0.016 C 
ENDROOT
BRANCH   1  18
HETATM   18  C7  UNL     1      -2.787 -35.170   6.009  1.00  0.00     0.188 C 
BRANCH  18  19
HETATM   19  O2  UNL     1      -3.524 -34.794   7.110  1.00  0.00    -0.321 OA
BRANCH  19  20
HETATM   20  C6  UNL     1      -4.868 -34.587   7.233  1.00  0.00     0.262 C 
HETATM   21  O1  UNL     1      -5.238 -33.904   8.243  1.00  0.00    -0.265 OA
BRANCH  20  22
HETATM   22  C5  UNL     1      -5.787 -35.141   6.233  1.00  0.00     0.145 C 
BRANCH  22  23
HETATM   23  C2  UNL     1      -6.450 -36.396   6.676  1.00  0.00    -0.071 C 
HETATM   24  C1  UNL     1      -5.722 -37.494   6.764  1.00  0.00     0.015 C 
BRANCH  23  25
HETATM   25  C3  UNL     1      -7.881 -36.392   7.005  1.00  0.00     0.107 C 
BRANCH  25  26
HETATM   26  S1  UNL     1      -8.532 -34.710   6.781  1.00  0.00    -0.169 SA
HETATM   27  C4  UNL     1      -8.791 -33.926   8.409  1.00  0.00     0.090 C 
ENDBRANCH  25  26
ENDBRANCH  23  25
ENDBRANCH  22  23
ENDBRANCH  20  22
ENDBRANCH  19  20
ENDBRANCH  18  19
ENDBRANCH   1  18
BRANCH   4  28
HETATM   28  O3  UNL     1       1.700 -35.127   6.017  1.00  0.00    -0.279 OA
BRANCH  28  29
HETATM   29  C12 UNL     1       1.448 -33.767   6.114  1.00  0.00     0.260 C 
HETATM   30  C13 UNL     1       2.082 -32.876   7.115  1.00  0.00     0.126 C 
HETATM   31  O4  UNL     1       0.637 -33.241   5.314  1.00  0.00    -0.265 OA
ENDBRANCH  28  29
ENDBRANCH   4  28
BRANCH   7  32
HETATM   32  O5  UNL     1      -1.663 -35.734   3.283  1.00  0.00    -0.315 OA
BRANCH  32  33
HETATM   33  C17 UNL     1      -1.440 -35.282   1.984  1.00  0.00     0.255 C 
HETATM   34  C18 UNL     1      -1.924 -35.989   0.787  1.00  0.00     0.126 C 
HETATM   35  O6  UNL     1      -0.792 -34.220   1.857  1.00  0.00    -0.266 OA
ENDBRANCH  32  33
ENDBRANCH   7  32
BRANCH  11  36
HETATM   36  C24 UNL     1      -0.506 -40.567   7.244  1.00  0.00    -0.004 C 
HETATM   37  C25 UNL     1      -0.272 -41.447   8.162  1.00  0.00     0.011 C 
HETATM   38  C26 UNL     1      -0.764 -41.056   9.588  1.00  0.00     0.055 C 
BRANCH  37  39
HETATM   39  C27 UNL     1       0.371 -42.723   8.170  1.00  0.00     0.204 C 
HETATM   40  O7  UNL     1      -0.117 -43.772   7.747  1.00  0.00    -0.644 OA
HETATM   41  O8  UNL     1       1.693 -42.885   8.694  1.00  0.00    -0.644 OA
ENDBRANCH  37  39
ENDBRANCH  11  36
TORSDOF 13
ENDMDL
MODEL 5
REMARK VINA RESULT: -7.430099152      2.895      6.012
REMARK  13 active torsions:
REMARK  status: ('A' for Active; 'I' for Inactive)
REMARK    1  A    between atoms: C2_2  and  C3_3 
REMARK    2  A    between atoms: C2_2  and  C5_6 
REMARK    3  A    between atoms: C3_3  and  S1_4 
REMARK    4  A    between atoms: C5_6  and  C6_7 
REMARK    5  A    between atoms: C6_7  and  O2_9 
REMARK    6  A    between atoms: O2_9  and  C7_10 
REMARK    7  A    between atoms: C7_10  and  C8_11 
REMARK    8  A    between atoms: C11_14  and  O3_15 
REMARK    9  A    between atoms: O3_15  and  C12_16 
REMARK   10  A    between atoms: C16_21  and  O5_22 
REMARK   11  A    between atoms: O5_22  and  C17_23 
REMARK   12  A    between atoms: C22_29  and  C24_31 
REMARK   13  A    between atoms: C25_32  and  C27_34 
ROOT
HETATM    1  C8  UNL     1      -2.096 -39.707   8.226  1.00  0.00     0.051 C 
HETATM    2  C9  UNL     1      -1.200 -38.831   8.968  1.00  0.00    -0.027 C 
HETATM    3  C10 UNL     1      -0.109 -39.392   9.460  1.00  0.00     0.022 C 
HETATM    4  C11 UNL     1      -1.263 -37.389   9.251  1.00  0.00     0.082 C 
HETATM    5  C14 UNL     1      -1.841 -36.475   8.495  1.00  0.00     0.019 C 
HETATM    6  C15 UNL     1      -2.547 -36.611   7.235  1.00  0.00     0.049 C 
HETATM    7  C16 UNL     1      -3.424 -37.815   7.157  1.00  0.00     0.145 C 
HETATM    8  C19 UNL     1      -2.702 -39.089   6.999  1.00  0.00     0.027 C 
HETATM    9  C20 UNL     1      -1.676 -39.037   5.868  1.00  0.00     0.014 C 
HETATM   10  C21 UNL     1      -0.888 -37.777   5.878  1.00  0.00     0.007 C 
HETATM   11  C22 UNL     1       0.177 -37.790   4.766  1.00  0.00    -0.021 C 
HETATM   12  C23 UNL     1      -0.450 -37.951   3.428  1.00  0.00     0.020 C 
HETATM   13  C28 UNL     1       1.020 -36.550   4.893  1.00  0.00     0.013 C 
HETATM   14  C29 UNL     1       0.679 -35.705   6.110  1.00  0.00     0.002 C 
HETATM   15  C30 UNL     1      -0.755 -35.309   6.116  1.00  0.00     0.010 C 
HETATM   16  C31 UNL     1      -1.667 -36.530   5.987  1.00  0.00    -0.030 C 
HETATM   17  C32 UNL     1      -2.602 -36.208   4.859  1.00  0.00     0.016 C 
ENDROOT
BRANCH   1  18
HETATM   18  C7  UNL     1      -3.116 -40.439   9.046  1.00  0.00     0.188 C 
BRANCH  18  19
HETATM   19  O2  UNL     1      -3.040 -41.812   9.114  1.00  0.00    -0.321 OA
BRANCH  19  20
HETATM   20  C6  UNL     1      -1.955 -42.619   9.300  1.00  0.00     0.262 C 
HETATM   21  O1  UNL     1      -1.379 -42.528  10.433  1.00  0.00    -0.265 OA
BRANCH  20  22
HETATM   22  C5  UNL     1      -1.520 -43.517   8.225  1.00  0.00     0.145 C 
BRANCH  22  23
HETATM   23  C2  UNL     1      -0.163 -43.199   7.706  1.00  0.00    -0.071 C 
HETATM   24  C1  UNL     1      -0.042 -42.232   6.815  1.00  0.00     0.015 C 
BRANCH  23  25
HETATM   25  C3  UNL     1       1.002 -43.952   8.188  1.00  0.00     0.107 C 
BRANCH  25  26
HETATM   26  S1  UNL     1       2.439 -42.840   8.245  1.00  0.00    -0.169 SA
HETATM   27  C4  UNL     1       3.978 -43.815   8.126  1.00  0.00     0.090 C 
ENDBRANCH  25  26
ENDBRANCH  23  25
ENDBRANCH  22  23
ENDBRANCH  20  22
ENDBRANCH  19  20
ENDBRANCH  18  19
ENDBRANCH   1  18
BRANCH   4  28
HETATM   28  O3  UNL     1      -0.650 -36.955  10.433  1.00  0.00    -0.279 OA
BRANCH  28  29
HETATM   29  C12 UNL     1      -0.238 -35.633  10.501  1.00  0.00     0.260 C 
HETATM   30  C13 UNL     1       0.926 -35.089   9.762  1.00  0.00     0.126 C 
HETATM   31  O4  UNL     1      -0.878 -34.835  11.227  1.00  0.00    -0.265 OA
ENDBRANCH  28  29
ENDBRANCH   4  28
BRANCH   7  32
HETATM   32  O5  UNL     1      -4.321 -37.819   8.213  1.00  0.00    -0.315 OA
BRANCH  32  33
HETATM   33  C17 UNL     1      -5.684 -37.558   8.089  1.00  0.00     0.255 C 
HETATM   34  C18 UNL     1      -6.365 -37.405   6.792  1.00  0.00     0.126 C 
HETATM   35  O6  UNL     1      -6.340 -37.452   9.148  1.00  0.00    -0.266 OA
ENDBRANCH  32  33
ENDBRANCH   7  32
BRANCH  11  36
HETATM   36  C24 UNL     1       1.070 -38.933   5.039  1.00  0.00    -0.004 C 
HETATM   37  C25 UNL     1       1.874 -39.566   4.249  1.00  0.00     0.011 C 
HETATM   38  C26 UNL     1       2.659 -40.738   4.913  1.00  0.00     0.055 C 
BRANCH  37  39
HETATM   39  C27 UNL     1       2.232 -39.420   2.873  1.00  0.00     0.204 C 
HETATM   40  O7  UNL     1       2.918 -38.509   2.405  1.00  0.00    -0.644 OA
HETATM   41  O8  UNL     1       1.800 -40.365   1.890  1.00  0.00    -0.644 OA
ENDBRANCH  37  39
ENDBRANCH  11  36
TORSDOF 13
ENDMDL
