MODEL 1
REMARK VINA RESULT: -8.322833808      0.000      0.000
REMARK  16 active torsions:
REMARK  status: ('A' for Active; 'I' for Inactive)
REMARK    1  A    between atoms: C2_2  and  C3_3 
REMARK    2  A    between atoms: C2_2  and  O4_12 
REMARK    3  A    between atoms: C3_3  and  C4_4 
REMARK    4  A    between atoms: C4_4  and  O2_6 
REMARK    5  A    between atoms: O2_6  and  C5_7 
REMARK    6  A    between atoms: C5_7  and  C6_9 
REMARK    7  A    between atoms: O4_12  and  C9_13 
REMARK    8  A    between atoms: C9_13  and  C10_14 
REMARK    9  A    between atoms: C21_25  and  C22_26 
REMARK   10  A    between atoms: C22_26  and  C24_28 
REMARK   11  A    between atoms: C24_28  and  C25_29 
REMARK   12  A    between atoms: C25_29  and  O6_31 
REMARK   13  A    between atoms: C27_33  and  C28_34 
REMARK   14  A    between atoms: C27_33  and  C29_37 
REMARK   15  A    between atoms: C28_34  and  O7_35 
REMARK   16  A    between atoms: C29_37  and  C30_38 
ROOT
HETATM    1  C10 UNL     1      -1.116 -37.032   7.535  1.00  0.00    -0.018 C 
HETATM    2  C11 UNL     1      -2.548 -36.747   7.837  1.00  0.00     0.018 C 
HETATM    3  C12 UNL     1      -0.364 -37.432   8.837  1.00  0.00     0.012 C 
HETATM    4  C13 UNL     1      -0.794 -38.776   9.138  1.00  0.00     0.006 C 
HETATM    5  C14 UNL     1      -0.279 -39.834   8.122  1.00  0.00    -0.009 C 
HETATM    6  C15 UNL     1      -0.940 -41.033   8.771  1.00  0.00     0.011 C 
HETATM    7  C16 UNL     1      -0.735 -39.480   6.734  1.00  0.00    -0.026 C 
HETATM    8  C17 UNL     1      -2.140 -39.994   6.745  1.00  0.00     0.017 C 
HETATM    9  C18 UNL     1      -0.739 -37.996   6.533  1.00  0.00     0.005 C 
HETATM   10  C19 UNL     1      -1.445 -37.689   5.243  1.00  0.00     0.007 C 
HETATM   11  C20 UNL     1      -0.383 -37.993   4.214  1.00  0.00     0.006 C 
HETATM   12  C21 UNL     1       0.272 -39.315   4.356  1.00  0.00     0.001 C 
HETATM   13  C27 UNL     1       0.131 -40.123   5.593  1.00  0.00    -0.005 C 
ENDROOT
BRANCH   1  14
HETATM   14  C9  UNL     1      -0.448 -35.678   7.249  1.00  0.00     0.184 C 
BRANCH  14  15
HETATM   15  O4  UNL     1      -1.147 -34.827   6.454  1.00  0.00    -0.355 OA
BRANCH  15  16
HETATM   16  C2  UNL     1      -0.746 -33.805   5.618  1.00  0.00     0.046 C 
HETATM   17  C1  UNL     1       0.338 -33.266   5.610  1.00  0.00     0.046 C 
BRANCH  16  18
HETATM   18  C3  UNL     1      -1.831 -33.390   4.651  1.00  0.00     0.175 C 
BRANCH  18  19
HETATM   19  C4  UNL     1      -1.540 -33.681   3.256  1.00  0.00     0.272 C 
HETATM   20  O1  UNL     1      -1.798 -32.892   2.331  1.00  0.00    -0.264 OA
BRANCH  19  21
HETATM   21  O2  UNL     1      -0.941 -34.887   2.858  1.00  0.00    -0.244 OA
BRANCH  21  22
HETATM   22  C5  UNL     1      -1.107 -35.398   1.571  1.00  0.00     0.269 C 
HETATM   23  O3  UNL     1      -0.265 -35.063   0.671  1.00  0.00    -0.264 OA
BRANCH  22  24
HETATM   24  C6  UNL     1      -2.208 -36.306   1.219  1.00  0.00     0.078 C 
HETATM   25  C7  UNL     1      -1.724 -37.736   1.013  1.00  0.00     0.020 C 
HETATM   26  C8  UNL     1      -3.234 -36.321   2.346  1.00  0.00     0.020 C 
ENDBRANCH  22  24
ENDBRANCH  21  22
ENDBRANCH  19  21
ENDBRANCH  18  19
ENDBRANCH  16  18
ENDBRANCH  15  16
ENDBRANCH  14  15
ENDBRANCH   1  14
BRANCH  13  27
HETATM   27  C28 UNL     1      -0.710 -41.336   5.200  1.00  0.00     0.175 C 
BRANCH  27  28
HETATM   28  O7  UNL     1      -1.123 -41.312   3.869  1.00  0.00    -0.400 OA
ATOM     29  H7  UNL     1      -0.994 -42.140   3.420  1.00  0.00     0.209 HD
ENDBRANCH  27  28
ENDBRANCH  13  27
BRANCH  13  30
HETATM   30  C29 UNL     1       1.390 -40.613   6.204  1.00  0.00     0.047 C 
BRANCH  30  31
HETATM   31  C30 UNL     1       2.253 -41.724   6.013  1.00  0.00     0.152 C 
HETATM   32  O8  UNL     1       3.625 -41.186   6.319  1.00  0.00    -0.340 OA
HETATM   33  C31 UNL     1       4.388 -42.336   6.309  1.00  0.00     0.222 C 
HETATM   34  N1  UNL     1       3.718 -43.332   6.730  1.00  0.00    -0.374 N 
HETATM   35  C32 UNL     1       2.372 -42.811   7.063  1.00  0.00     0.108 C 
ATOM     36  H1  UNL     1       4.043 -44.294   6.822  1.00  0.00     0.161 HD
HETATM   37  C33 UNL     1       2.519 -42.292   8.460  1.00  0.00     0.035 C 
ENDBRANCH  30  31
ENDBRANCH  13  30
BRANCH  12  38
HETATM   38  C22 UNL     1       1.584 -39.135   3.678  1.00  0.00    -0.004 C 
HETATM   39  C23 UNL     1       1.871 -37.831   3.010  1.00  0.00     0.011 C 
BRANCH  38  40
HETATM   40  C24 UNL     1       1.546 -40.119   2.464  1.00  0.00     0.115 C 
BRANCH  40  41
HETATM   41  C25 UNL     1       2.943 -40.463   2.078  1.00  0.00     0.258 C 
HETATM   42  O5  UNL     1       3.273 -40.461   0.868  1.00  0.00    -0.265 OA
BRANCH  41  43
HETATM   43  O6  UNL     1       3.903 -40.792   3.014  1.00  0.00    -0.326 OA
HETATM   44  C26 UNL     1       5.215 -41.167   2.765  1.00  0.00     0.213 C 
ENDBRANCH  41  43
ENDBRANCH  40  41
ENDBRANCH  38  40
ENDBRANCH  12  38
TORSDOF 16
ENDMDL
MODEL 2
REMARK VINA RESULT: -8.211196608      0.789      1.165
REMARK  16 active torsions:
REMARK  status: ('A' for Active; 'I' for Inactive)
REMARK    1  A    between atoms: C2_2  and  C3_3 
REMARK    2  A    between atoms: C2_2  and  O4_12 
REMARK    3  A    between atoms: C3_3  and  C4_4 
REMARK    4  A    between atoms: C4_4  and  O2_6 
REMARK    5  A    between atoms: O2_6  and  C5_7 
REMARK    6  A    between atoms: C5_7  and  C6_9 
REMARK    7  A    between atoms: O4_12  and  C9_13 
REMARK    8  A    between atoms: C9_13  and  C10_14 
REMARK    9  A    between atoms: C21_25  and  C22_26 
REMARK   10  A    between atoms: C22_26  and  C24_28 
REMARK   11  A    between atoms: C24_28  and  C25_29 
REMARK   12  A    between atoms: C25_29  and  O6_31 
REMARK   13  A    between atoms: C27_33  and  C28_34 
REMARK   14  A    between atoms: C27_33  and  C29_37 
REMARK   15  A    between atoms: C28_34  and  O7_35 
REMARK   16  A    between atoms: C29_37  and  C30_38 
ROOT
HETATM    1  C10 UNL     1      -0.895 -37.168   8.265  1.00  0.00    -0.018 C 
HETATM    2  C11 UNL     1      -2.299 -36.836   8.645  1.00  0.00     0.018 C 
HETATM    3  C12 UNL     1      -0.117 -37.697   9.505  1.00  0.00     0.012 C 
HETATM    4  C13 UNL     1      -0.603 -39.036   9.728  1.00  0.00     0.006 C 
HETATM    5  C14 UNL     1      -0.182 -40.042   8.620  1.00  0.00    -0.009 C 
HETATM    6  C15 UNL     1      -0.878 -41.252   9.210  1.00  0.00     0.011 C 
HETATM    7  C16 UNL     1      -0.671 -39.567   7.280  1.00  0.00    -0.026 C 
HETATM    8  C17 UNL     1      -2.098 -40.012   7.312  1.00  0.00     0.017 C 
HETATM    9  C18 UNL     1      -0.606 -38.074   7.184  1.00  0.00     0.005 C 
HETATM   10  C19 UNL     1      -1.343 -37.641   5.948  1.00  0.00     0.007 C 
HETATM   11  C20 UNL     1      -0.337 -37.921   4.858  1.00  0.00     0.006 C 
HETATM   12  C21 UNL     1       0.254 -39.280   4.880  1.00  0.00     0.001 C 
HETATM   13  C27 UNL     1       0.118 -40.167   6.062  1.00  0.00    -0.005 C 
ENDROOT
BRANCH   1  14
HETATM   14  C9  UNL     1      -0.170 -35.830   8.048  1.00  0.00     0.184 C 
BRANCH  14  15
HETATM   15  O4  UNL     1      -0.587 -35.095   6.985  1.00  0.00    -0.355 OA
BRANCH  15  16
HETATM   16  C2  UNL     1       0.106 -34.393   6.020  1.00  0.00     0.046 C 
HETATM   17  C1  UNL     1       1.163 -34.709   5.521  1.00  0.00     0.046 C 
BRANCH  16  18
HETATM   18  C3  UNL     1      -0.602 -33.122   5.609  1.00  0.00     0.175 C 
BRANCH  18  19
HETATM   19  C4  UNL     1      -1.828 -33.332   4.856  1.00  0.00     0.272 C 
HETATM   20  O1  UNL     1      -2.895 -33.694   5.383  1.00  0.00    -0.264 OA
BRANCH  19  21
HETATM   21  O2  UNL     1      -1.890 -33.138   3.466  1.00  0.00    -0.244 OA
BRANCH  21  22
HETATM   22  C5  UNL     1      -1.327 -34.049   2.572  1.00  0.00     0.269 C 
HETATM   23  O3  UNL     1      -0.523 -33.611   1.684  1.00  0.00    -0.264 OA
BRANCH  22  24
HETATM   24  C6  UNL     1      -1.628 -35.487   2.621  1.00  0.00     0.078 C 
HETATM   25  C7  UNL     1      -3.106 -35.769   2.383  1.00  0.00     0.020 C 
HETATM   26  C8  UNL     1      -0.836 -36.209   1.538  1.00  0.00     0.020 C 
ENDBRANCH  22  24
ENDBRANCH  21  22
ENDBRANCH  19  21
ENDBRANCH  18  19
ENDBRANCH  16  18
ENDBRANCH  15  16
ENDBRANCH  14  15
ENDBRANCH   1  14
BRANCH  13  27
HETATM   27  C28 UNL     1      -0.797 -41.307   5.619  1.00  0.00     0.175 C 
BRANCH  27  28
HETATM   28  O7  UNL     1      -1.187 -41.214   4.285  1.00  0.00    -0.400 OA
ATOM     29  H7  UNL     1      -2.057 -40.852   4.171  1.00  0.00     0.209 HD
ENDBRANCH  27  28
ENDBRANCH  13  27
BRANCH  13  30
HETATM   30  C29 UNL     1       1.373 -40.760   6.585  1.00  0.00     0.047 C 
BRANCH  30  31
HETATM   31  C30 UNL     1       2.168 -41.898   6.286  1.00  0.00     0.152 C 
HETATM   32  O8  UNL     1       3.584 -41.401   6.392  1.00  0.00    -0.340 OA
HETATM   33  C31 UNL     1       4.303 -42.575   6.285  1.00  0.00     0.222 C 
HETATM   34  N1  UNL     1       3.670 -43.547   6.806  1.00  0.00    -0.374 N 
HETATM   35  C32 UNL     1       2.399 -42.984   7.319  1.00  0.00     0.108 C 
ATOM     36  H1  UNL     1       3.975 -44.518   6.859  1.00  0.00     0.161 HD
HETATM   37  C33 UNL     1       2.756 -42.462   8.676  1.00  0.00     0.035 C 
ENDBRANCH  30  31
ENDBRANCH  13  30
BRANCH  12  38
HETATM   38  C22 UNL     1       1.548 -39.115   4.163  1.00  0.00    -0.004 C 
HETATM   39  C23 UNL     1       1.872 -37.784   3.569  1.00  0.00     0.011 C 
BRANCH  38  40
HETATM   40  C24 UNL     1       1.419 -40.015   2.893  1.00  0.00     0.115 C 
BRANCH  40  41
HETATM   41  C25 UNL     1       2.781 -40.282   2.350  1.00  0.00     0.258 C 
HETATM   42  O5  UNL     1       3.026 -40.048   1.142  1.00  0.00    -0.265 OA
BRANCH  41  43
HETATM   43  O6  UNL     1       3.798 -40.785   3.135  1.00  0.00    -0.326 OA
HETATM   44  C26 UNL     1       5.078 -41.124   2.723  1.00  0.00     0.213 C 
ENDBRANCH  41  43
ENDBRANCH  40  41
ENDBRANCH  38  40
ENDBRANCH  12  38
TORSDOF 16
ENDMDL
MODEL 3
REMARK VINA RESULT: -8.078694097      3.109      8.287
REMARK  16 active torsions:
REMARK  status: ('A' for Active; 'I' for Inactive)
REMARK    1  A    between atoms: C2_2  and  C3_3 
REMARK    2  A    between atoms: C2_2  and  O4_12 
REMARK    3  A    between atoms: C3_3  and  C4_4 
REMARK    4  A    between atoms: C4_4  and  O2_6 
REMARK    5  A    between atoms: O2_6  and  C5_7 
REMARK    6  A    between atoms: C5_7  and  C6_9 
REMARK    7  A    between atoms: O4_12  and  C9_13 
REMARK    8  A    between atoms: C9_13  and  C10_14 
REMARK    9  A    between atoms: C21_25  and  C22_26 
REMARK   10  A    between atoms: C22_26  and  C24_28 
REMARK   11  A    between atoms: C24_28  and  C25_29 
REMARK   12  A    between atoms: C25_29  and  O6_31 
REMARK   13  A    between atoms: C27_33  and  C28_34 
REMARK   14  A    between atoms: C27_33  and  C29_37 
REMARK   15  A    between atoms: C28_34  and  O7_35 
REMARK   16  A    between atoms: C29_37  and  C30_38 
ROOT
HETATM    1  C10 UNL     1      -0.348 -40.915   7.518  1.00  0.00    -0.018 C 
HETATM    2  C11 UNL     1      -1.271 -41.999   7.078  1.00  0.00     0.018 C 
HETATM    3  C12 UNL     1       0.664 -40.581   6.384  1.00  0.00     0.012 C 
HETATM    4  C13 UNL     1      -0.085 -39.841   5.398  1.00  0.00     0.006 C 
HETATM    5  C14 UNL     1      -0.518 -38.428   5.880  1.00  0.00    -0.009 C 
HETATM    6  C15 UNL     1      -1.249 -38.029   4.614  1.00  0.00     0.011 C 
HETATM    7  C16 UNL     1      -1.345 -38.541   7.131  1.00  0.00    -0.026 C 
HETATM    8  C17 UNL     1      -2.685 -38.894   6.568  1.00  0.00     0.017 C 
HETATM    9  C18 UNL     1      -0.850 -39.654   8.002  1.00  0.00     0.005 C 
HETATM   10  C19 UNL     1      -1.857 -39.893   9.091  1.00  0.00     0.007 C 
HETATM   11  C20 UNL     1      -1.553 -38.777  10.061  1.00  0.00     0.006 C 
HETATM   12  C21 UNL     1      -1.480 -37.424   9.461  1.00  0.00     0.001 C 
HETATM   13  C27 UNL     1      -1.382 -37.229   7.993  1.00  0.00    -0.005 C 
ENDROOT
BRANCH   1  14
HETATM   14  C9  UNL     1       0.606 -41.539   8.549  1.00  0.00     0.184 C 
BRANCH  14  15
HETATM   15  O4  UNL     1       1.754 -42.067   8.052  1.00  0.00    -0.355 OA
BRANCH  15  16
HETATM   16  C2  UNL     1       2.201 -43.368   7.946  1.00  0.00     0.046 C 
HETATM   17  C1  UNL     1       1.628 -44.359   8.338  1.00  0.00     0.046 C 
BRANCH  16  18
HETATM   18  C3  UNL     1       3.543 -43.464   7.256  1.00  0.00     0.175 C 
BRANCH  18  19
HETATM   19  C4  UNL     1       4.099 -42.187   6.838  1.00  0.00     0.272 C 
HETATM   20  O1  UNL     1       4.936 -41.559   7.509  1.00  0.00    -0.264 OA
BRANCH  19  21
HETATM   21  O2  UNL     1       3.721 -41.571   5.633  1.00  0.00    -0.244 OA
BRANCH  21  22
HETATM   22  C5  UNL     1       4.404 -41.812   4.441  1.00  0.00     0.269 C 
HETATM   23  O3  UNL     1       5.407 -42.601   4.464  1.00  0.00    -0.264 OA
BRANCH  22  24
HETATM   24  C6  UNL     1       4.007 -41.194   3.168  1.00  0.00     0.078 C 
HETATM   25  C7  UNL     1       3.007 -40.062   3.371  1.00  0.00     0.020 C 
HETATM   26  C8  UNL     1       5.236 -40.611   2.480  1.00  0.00     0.020 C 
ENDBRANCH  22  24
ENDBRANCH  21  22
ENDBRANCH  19  21
ENDBRANCH  18  19
ENDBRANCH  16  18
ENDBRANCH  15  16
ENDBRANCH  14  15
ENDBRANCH   1  14
BRANCH  13  27
HETATM   27  C28 UNL     1      -2.712 -36.608   7.570  1.00  0.00     0.175 C 
BRANCH  27  28
HETATM   28  O7  UNL     1      -3.449 -36.103   8.640  1.00  0.00    -0.400 OA
ATOM     29  H7  UNL     1      -3.070 -35.321   9.022  1.00  0.00     0.209 HD
ENDBRANCH  27  28
ENDBRANCH  13  27
BRANCH  13  30
HETATM   30  C29 UNL     1      -0.289 -36.346   7.519  1.00  0.00     0.047 C 
BRANCH  30  31
HETATM   31  C30 UNL     1      -0.185 -35.009   7.054  1.00  0.00     0.152 C 
HETATM   32  O8  UNL     1       1.101 -34.506   7.652  1.00  0.00    -0.340 OA
HETATM   33  C31 UNL     1       1.248 -33.288   7.019  1.00  0.00     0.222 C 
HETATM   34  N1  UNL     1       0.785 -33.330   5.835  1.00  0.00    -0.374 N 
HETATM   35  C32 UNL     1       0.275 -34.707   5.641  1.00  0.00     0.108 C 
ATOM     36  H1  UNL     1       0.768 -32.569   5.157  1.00  0.00     0.161 HD
HETATM   37  C33 UNL     1       1.483 -35.484   5.218  1.00  0.00     0.035 C 
ENDBRANCH  30  31
ENDBRANCH  13  30
BRANCH  12  38
HETATM   38  C22 UNL     1      -0.632 -36.659  10.416  1.00  0.00    -0.004 C 
HETATM   39  C23 UNL     1       0.704 -37.212  10.788  1.00  0.00     0.011 C 
BRANCH  38  40
HETATM   40  C24 UNL     1      -1.401 -36.725  11.775  1.00  0.00     0.115 C 
BRANCH  40  41
HETATM   41  C25 UNL     1      -2.253 -35.510  11.907  1.00  0.00     0.258 C 
HETATM   42  O5  UNL     1      -1.748 -34.437  12.317  1.00  0.00    -0.265 OA
BRANCH  41  43
HETATM   43  O6  UNL     1      -3.597 -35.519  11.592  1.00  0.00    -0.326 OA
HETATM   44  C26 UNL     1      -4.539 -36.455  11.992  1.00  0.00     0.213 C 
ENDBRANCH  41  43
ENDBRANCH  40  41
ENDBRANCH  38  40
ENDBRANCH  12  38
TORSDOF 16
ENDMDL
MODEL 4
REMARK VINA RESULT: -7.997495330      1.262      1.692
REMARK  16 active torsions:
REMARK  status: ('A' for Active; 'I' for Inactive)
REMARK    1  A    between atoms: C2_2  and  C3_3 
REMARK    2  A    between atoms: C2_2  and  O4_12 
REMARK    3  A    between atoms: C3_3  and  C4_4 
REMARK    4  A    between atoms: C4_4  and  O2_6 
REMARK    5  A    between atoms: O2_6  and  C5_7 
REMARK    6  A    between atoms: C5_7  and  C6_9 
REMARK    7  A    between atoms: O4_12  and  C9_13 
REMARK    8  A    between atoms: C9_13  and  C10_14 
REMARK    9  A    between atoms: C21_25  and  C22_26 
REMARK   10  A    between atoms: C22_26  and  C24_28 
REMARK   11  A    between atoms: C24_28  and  C25_29 
REMARK   12  A    between atoms: C25_29  and  O6_31 
REMARK   13  A    between atoms: C27_33  and  C28_34 
REMARK   14  A    between atoms: C27_33  and  C29_37 
REMARK   15  A    between atoms: C28_34  and  O7_35 
REMARK   16  A    between atoms: C29_37  and  C30_38 
ROOT
HETATM    1  C10 UNL     1      -1.416 -37.723   8.744  1.00  0.00    -0.018 C 
HETATM    2  C11 UNL     1      -2.734 -37.722   9.441  1.00  0.00     0.018 C 
HETATM    3  C12 UNL     1      -0.281 -38.086   9.746  1.00  0.00     0.012 C 
HETATM    4  C13 UNL     1      -0.405 -39.504   9.978  1.00  0.00     0.006 C 
HETATM    5  C14 UNL     1      -0.041 -40.370   8.740  1.00  0.00    -0.009 C 
HETATM    6  C15 UNL     1      -0.309 -41.715   9.384  1.00  0.00     0.011 C 
HETATM    7  C16 UNL     1      -0.912 -39.994   7.574  1.00  0.00    -0.026 C 
HETATM    8  C17 UNL     1      -2.165 -40.748   7.886  1.00  0.00     0.017 C 
HETATM    9  C18 UNL     1      -1.193 -38.523   7.566  1.00  0.00     0.005 C 
HETATM   10  C19 UNL     1      -2.267 -38.245   6.554  1.00  0.00     0.007 C 
HETATM   11  C20 UNL     1      -1.499 -38.273   5.254  1.00  0.00     0.006 C 
HETATM   12  C21 UNL     1      -0.641 -39.465   5.055  1.00  0.00     0.001 C 
HETATM   13  C27 UNL     1      -0.311 -40.380   6.175  1.00  0.00    -0.005 C 
ENDROOT
BRANCH   1  14
HETATM   14  C9  UNL     1      -1.063 -36.254   8.465  1.00  0.00     0.184 C 
BRANCH  14  15
HETATM   15  O4  UNL     1      -0.004 -36.044   7.641  1.00  0.00    -0.355 OA
BRANCH  15  16
HETATM   16  C2  UNL     1       0.233 -35.097   6.665  1.00  0.00     0.046 C 
HETATM   17  C1  UNL     1       1.300 -34.593   6.396  1.00  0.00     0.046 C 
BRANCH  16  18
HETATM   18  C3  UNL     1      -1.021 -34.719   5.910  1.00  0.00     0.175 C 
BRANCH  18  19
HETATM   19  C4  UNL     1      -0.850 -33.630   4.962  1.00  0.00     0.272 C 
HETATM   20  O1  UNL     1      -1.091 -32.443   5.242  1.00  0.00    -0.264 OA
BRANCH  19  21
HETATM   21  O2  UNL     1      -0.394 -33.850   3.652  1.00  0.00    -0.244 OA
BRANCH  21  22
HETATM   22  C5  UNL     1      -1.267 -34.192   2.619  1.00  0.00     0.269 C 
HETATM   23  O3  UNL     1      -1.740 -33.257   1.890  1.00  0.00    -0.264 OA
BRANCH  22  24
HETATM   24  C6  UNL     1      -1.656 -35.582   2.344  1.00  0.00     0.078 C 
HETATM   25  C7  UNL     1      -3.156 -35.797   2.506  1.00  0.00     0.020 C 
HETATM   26  C8  UNL     1      -1.287 -35.939   0.910  1.00  0.00     0.020 C 
ENDBRANCH  22  24
ENDBRANCH  21  22
ENDBRANCH  19  21
ENDBRANCH  18  19
ENDBRANCH  16  18
ENDBRANCH  15  16
ENDBRANCH  14  15
ENDBRANCH   1  14
BRANCH  13  27
HETATM   27  C28 UNL     1      -1.037 -41.688   5.867  1.00  0.00     0.175 C 
BRANCH  27  28
HETATM   28  O7  UNL     1      -1.521 -41.756   4.562  1.00  0.00    -0.400 OA
ATOM     29  H7  UNL     1      -2.200 -42.410   4.445  1.00  0.00     0.209 HD
ENDBRANCH  27  28
ENDBRANCH  13  27
BRANCH  13  30
HETATM   30  C29 UNL     1       1.127 -40.686   6.371  1.00  0.00     0.047 C 
BRANCH  30  31
HETATM   31  C30 UNL     1       2.045 -41.646   5.870  1.00  0.00     0.152 C 
HETATM   32  O8  UNL     1       3.352 -40.905   5.789  1.00  0.00    -0.340 OA
HETATM   33  C31 UNL     1       4.234 -41.923   5.487  1.00  0.00     0.222 C 
HETATM   34  N1  UNL     1       3.874 -43.015   6.028  1.00  0.00    -0.374 N 
HETATM   35  C32 UNL     1       2.629 -42.715   6.773  1.00  0.00     0.108 C 
ATOM     36  H1  UNL     1       4.347 -43.916   5.963  1.00  0.00     0.161 HD
HETATM   37  C33 UNL     1       3.112 -42.197   8.092  1.00  0.00     0.035 C 
ENDBRANCH  30  31
ENDBRANCH  13  30
BRANCH  12  38
HETATM   38  C22 UNL     1       0.389 -39.002   4.086  1.00  0.00    -0.004 C 
HETATM   39  C23 UNL     1       0.844 -37.581   4.150  1.00  0.00     0.011 C 
BRANCH  38  40
HETATM   40  C24 UNL     1      -0.319 -39.053   2.694  1.00  0.00     0.115 C 
BRANCH  40  41
HETATM   41  C25 UNL     1       0.641 -39.583   1.684  1.00  0.00     0.258 C 
HETATM   42  O5  UNL     1       0.534 -39.238   0.483  1.00  0.00    -0.265 OA
BRANCH  41  43
HETATM   43  O6  UNL     1       1.656 -40.454   2.023  1.00  0.00    -0.326 OA
HETATM   44  C26 UNL     1       3.019 -40.238   1.885  1.00  0.00     0.213 C 
ENDBRANCH  41  43
ENDBRANCH  40  41
ENDBRANCH  38  40
ENDBRANCH  12  38
TORSDOF 16
ENDMDL
MODEL 5
REMARK VINA RESULT: -7.956322896      1.638      2.447
REMARK  16 active torsions:
REMARK  status: ('A' for Active; 'I' for Inactive)
REMARK    1  A    between atoms: C2_2  and  C3_3 
REMARK    2  A    between atoms: C2_2  and  O4_12 
REMARK    3  A    between atoms: C3_3  and  C4_4 
REMARK    4  A    between atoms: C4_4  and  O2_6 
REMARK    5  A    between atoms: O2_6  and  C5_7 
REMARK    6  A    between atoms: C5_7  and  C6_9 
REMARK    7  A    between atoms: O4_12  and  C9_13 
REMARK    8  A    between atoms: C9_13  and  C10_14 
REMARK    9  A    between atoms: C21_25  and  C22_26 
REMARK   10  A    between atoms: C22_26  and  C24_28 
REMARK   11  A    between atoms: C24_28  and  C25_29 
REMARK   12  A    between atoms: C25_29  and  O6_31 
REMARK   13  A    between atoms: C27_33  and  C28_34 
REMARK   14  A    between atoms: C27_33  and  C29_37 
REMARK   15  A    between atoms: C28_34  and  O7_35 
REMARK   16  A    between atoms: C29_37  and  C30_38 
ROOT
HETATM    1  C10 UNL     1      -1.319 -37.338   8.268  1.00  0.00    -0.018 C 
HETATM    2  C11 UNL     1      -2.660 -37.131   8.884  1.00  0.00     0.018 C 
HETATM    3  C12 UNL     1      -0.254 -37.588   9.376  1.00  0.00     0.012 C 
HETATM    4  C13 UNL     1      -0.487 -38.931   9.846  1.00  0.00     0.006 C 
HETATM    5  C14 UNL     1      -0.135 -40.024   8.798  1.00  0.00    -0.009 C 
HETATM    6  C15 UNL     1      -0.524 -41.214   9.652  1.00  0.00     0.011 C 
HETATM    7  C16 UNL     1      -0.929 -39.808   7.540  1.00  0.00    -0.026 C 
HETATM    8  C17 UNL     1      -2.244 -40.415   7.913  1.00  0.00     0.017 C 
HETATM    9  C18 UNL     1      -1.105 -38.347   7.261  1.00  0.00     0.005 C 
HETATM   10  C19 UNL     1      -2.114 -38.187   6.160  1.00  0.00     0.007 C 
HETATM   11  C20 UNL     1      -1.298 -38.494   4.928  1.00  0.00     0.006 C 
HETATM   12  C21 UNL     1      -0.519 -39.753   4.986  1.00  0.00     0.001 C 
HETATM   13  C27 UNL     1      -0.301 -40.474   6.265  1.00  0.00    -0.005 C 
ENDROOT
BRANCH   1  14
HETATM   14  C9  UNL     1      -0.852 -35.967   7.755  1.00  0.00     0.184 C 
BRANCH  14  15
HETATM   15  O4  UNL     1       0.239 -35.976   6.945  1.00  0.00    -0.355 OA
BRANCH  15  16
HETATM   16  C2  UNL     1       0.687 -35.085   5.991  1.00  0.00     0.046 C 
HETATM   17  C1  UNL     1       1.597 -34.297   6.115  1.00  0.00     0.046 C 
BRANCH  16  18
HETATM   18  C3  UNL     1      -0.095 -35.179   4.701  1.00  0.00     0.175 C 
BRANCH  18  19
HETATM   19  C4  UNL     1      -0.882 -33.998   4.385  1.00  0.00     0.272 C 
HETATM   20  O1  UNL     1      -0.850 -33.438   3.275  1.00  0.00    -0.264 OA
BRANCH  19  21
HETATM   21  O2  UNL     1      -1.742 -33.406   5.324  1.00  0.00    -0.244 OA
BRANCH  21  22
HETATM   22  C5  UNL     1      -3.115 -33.653   5.321  1.00  0.00     0.269 C 
HETATM   23  O3  UNL     1      -3.900 -32.716   4.955  1.00  0.00    -0.264 OA
BRANCH  22  24
HETATM   24  C6  UNL     1      -3.682 -34.949   5.720  1.00  0.00     0.078 C 
HETATM   25  C7  UNL     1      -4.799 -34.791   6.744  1.00  0.00     0.020 C 
HETATM   26  C8  UNL     1      -4.267 -35.647   4.498  1.00  0.00     0.020 C 
ENDBRANCH  22  24
ENDBRANCH  21  22
ENDBRANCH  19  21
ENDBRANCH  18  19
ENDBRANCH  16  18
ENDBRANCH  15  16
ENDBRANCH  14  15
ENDBRANCH   1  14
BRANCH  13  27
HETATM   27  C28 UNL     1      -1.104 -41.768   6.151  1.00  0.00     0.175 C 
BRANCH  27  28
HETATM   28  O7  UNL     1      -1.601 -41.998   4.870  1.00  0.00    -0.400 OA
ATOM     29  H7  UNL     1      -1.914 -42.886   4.742  1.00  0.00     0.209 HD
ENDBRANCH  27  28
ENDBRANCH  13  27
BRANCH  13  30
HETATM   30  C29 UNL     1       1.103 -40.829   6.586  1.00  0.00     0.047 C 
BRANCH  30  31
HETATM   31  C30 UNL     1       2.007 -41.858   6.213  1.00  0.00     0.152 C 
HETATM   32  O8  UNL     1       3.355 -41.188   6.221  1.00  0.00    -0.340 OA
HETATM   33  C31 UNL     1       4.204 -42.263   6.045  1.00  0.00     0.222 C 
HETATM   34  N1  UNL     1       3.737 -43.309   6.598  1.00  0.00    -0.374 N 
HETATM   35  C32 UNL     1       2.449 -42.910   7.211  1.00  0.00     0.108 C 
ATOM     36  H1  UNL     1       4.164 -44.235   6.615  1.00  0.00     0.161 HD
HETATM   37  C33 UNL     1       2.840 -42.355   8.545  1.00  0.00     0.035 C 
ENDBRANCH  30  31
ENDBRANCH  13  30
BRANCH  12  38
HETATM   38  C22 UNL     1       0.580 -39.535   4.006  1.00  0.00    -0.004 C 
HETATM   39  C23 UNL     1       1.364 -38.266   4.081  1.00  0.00     0.011 C 
BRANCH  38  40
HETATM   40  C24 UNL     1      -0.137 -39.392   2.625  1.00  0.00     0.115 C 
BRANCH  40  41
HETATM   41  C25 UNL     1       0.843 -39.681   1.541  1.00  0.00     0.258 C 
HETATM   42  O5  UNL     1       1.612 -40.667   1.643  1.00  0.00    -0.265 OA
BRANCH  41  43
HETATM   43  O6  UNL     1       0.941 -38.893   0.411  1.00  0.00    -0.326 OA
HETATM   44  C26 UNL     1       1.555 -37.654   0.312  1.00  0.00     0.213 C 
ENDBRANCH  41  43
ENDBRANCH  40  41
ENDBRANCH  38  40
ENDBRANCH  12  38
TORSDOF 16
ENDMDL
