MODEL 1
REMARK VINA RESULT: -8.757252057      0.000      0.000
REMARK  12 active torsions:
REMARK  status: ('A' for Active; 'I' for Inactive)
REMARK    1  A    between atoms: C3_3  and  C4_4 
REMARK    2  A    between atoms: C4_4  and  O1_5 
REMARK    3  A    between atoms: C4_4  and  C8_10 
REMARK    4  A    between atoms: O1_5  and  C5_6 
REMARK    5  A    between atoms: C5_6  and  C6_8 
REMARK    6  A    between atoms: C8_10  and  C9_12 
REMARK    7  A    between atoms: C9_12  and  C10_13 
REMARK    8  A    between atoms: C10_13  and  C11_14 
REMARK    9  A    between atoms: C10_13  and  O8_39 
REMARK   10  A    between atoms: C11_14  and  C12_15 
REMARK   11  A    between atoms: C13_16  and  C15_18 
REMARK   12  A    between atoms: O8_39  and  C32_40 
ROOT
HETATM    1  C12 UNL     1      -1.490 -36.476   4.997  1.00  0.00    -0.051 C 
HETATM    2  C13 UNL     1      -2.221 -35.212   4.990  1.00  0.00     0.069 C 
HETATM    3  C14 UNL     1      -1.581 -34.002   4.375  1.00  0.00     0.032 C 
HETATM    4  C16 UNL     1      -2.481 -34.680   6.414  1.00  0.00     0.028 C 
HETATM    5  C17 UNL     1      -2.940 -35.745   7.297  1.00  0.00     0.045 C 
HETATM    6  C18 UNL     1      -1.744 -36.661   7.578  1.00  0.00     0.096 C 
HETATM    7  O6  UNL     1      -2.330 -37.615   8.350  1.00  0.00    -0.364 OA
HETATM    8  C19 UNL     1      -2.054 -38.185   9.444  1.00  0.00     0.064 C 
HETATM    9  C20 UNL     1      -3.131 -39.306   9.604  1.00  0.00     0.046 C 
HETATM   10  C21 UNL     1      -0.784 -38.999   9.643  1.00  0.00     0.046 C 
HETATM   11  C22 UNL     1      -2.243 -37.442  10.750  1.00  0.00     0.081 A 
HETATM   12  C23 UNL     1      -3.544 -36.751  10.967  1.00  0.00     0.128 A 
HETATM   13  C24 UNL     1      -4.131 -36.926  12.373  1.00  0.00     0.040 C 
HETATM   14  O7  UNL     1      -2.836 -35.524  10.971  1.00  0.00    -0.376 OA
HETATM   15  C25 UNL     1      -1.612 -36.109  10.783  1.00  0.00     0.154 A 
HETATM   16  C26 UNL     1      -0.779 -35.746   9.647  1.00  0.00     0.011 C 
HETATM   17  C27 UNL     1      -0.743 -35.919   8.319  1.00  0.00    -0.050 C 
HETATM   18  C28 UNL     1       0.459 -35.260   7.774  1.00  0.00     0.046 C 
HETATM   19  C29 UNL     1      -1.456 -37.288   6.295  1.00  0.00     0.012 C 
HETATM   20  C30 UNL     1      -2.470 -38.409   6.120  1.00  0.00     0.023 C 
HETATM   21  C31 UNL     1      -0.096 -38.006   6.255  1.00  0.00     0.023 C 
ENDROOT
BRANCH   1  22
HETATM   22  C11 UNL     1      -1.398 -37.357   3.821  1.00  0.00     0.011 C 
BRANCH  22  23
HETATM   23  C10 UNL     1      -0.433 -37.229   2.705  1.00  0.00     0.162 C 
BRANCH  23  24
HETATM   24  C9  UNL     1       0.329 -38.571   2.738  1.00  0.00     0.118 C 
BRANCH  24  25
HETATM   25  C8  UNL     1       1.751 -38.566   2.791  1.00  0.00     0.162 C 
HETATM   26  O3  UNL     1       2.581 -37.737   2.491  1.00  0.00    -0.295 OA
BRANCH  25  27
HETATM   27  C4  UNL     1       2.382 -39.850   3.325  1.00  0.00     0.224 C 
BRANCH  27  28
HETATM   28  C3  UNL     1       1.510 -40.473   4.351  1.00  0.00     0.009 C 
HETATM   29  C2  UNL     1       1.966 -41.106   5.422  1.00  0.00    -0.032 C 
HETATM   30  C1  UNL     1       3.417 -41.264   5.717  1.00  0.00     0.036 C 
ENDBRANCH  27  28
BRANCH  27  31
HETATM   31  O1  UNL     1       2.662 -40.757   2.326  1.00  0.00    -0.304 OA
BRANCH  31  32
HETATM   32  C5  UNL     1       3.918 -40.997   1.773  1.00  0.00     0.259 C 
HETATM   33  O2  UNL     1       3.931 -41.422   0.590  1.00  0.00    -0.265 OA
BRANCH  32  34
HETATM   34  C6  UNL     1       5.182 -40.774   2.520  1.00  0.00     0.106 C 
HETATM   35  C7  UNL     1       5.913 -42.056   2.791  1.00  0.00     0.015 C 
ENDBRANCH  32  34
ENDBRANCH  31  32
ENDBRANCH  27  31
ENDBRANCH  25  27
ENDBRANCH  24  25
ENDBRANCH  23  24
BRANCH  23  36
HETATM   36  O8  UNL     1      -0.774 -36.996   1.413  1.00  0.00    -0.312 OA
BRANCH  36  37
HETATM   37  C32 UNL     1      -1.238 -35.757   0.908  1.00  0.00     0.255 C 
HETATM   38  C33 UNL     1      -2.643 -35.349   0.954  1.00  0.00     0.126 C 
HETATM   39  O9  UNL     1      -0.370 -35.002   0.404  1.00  0.00    -0.266 OA
ENDBRANCH  36  37
ENDBRANCH  23  36
ENDBRANCH  22  23
ENDBRANCH   1  22
BRANCH   2  40
HETATM   40  C15 UNL     1      -3.613 -35.281   4.416  1.00  0.00     0.186 C 
HETATM   41  O4  UNL     1      -4.372 -34.259   4.357  1.00  0.00    -0.647 OA
HETATM   42  O5  UNL     1      -4.185 -36.424   3.910  1.00  0.00    -0.647 OA
ENDBRANCH   2  40
TORSDOF 12
ENDMDL
MODEL 2
REMARK VINA RESULT: -8.667960972      1.625      2.408
REMARK  12 active torsions:
REMARK  status: ('A' for Active; 'I' for Inactive)
REMARK    1  A    between atoms: C3_3  and  C4_4 
REMARK    2  A    between atoms: C4_4  and  O1_5 
REMARK    3  A    between atoms: C4_4  and  C8_10 
REMARK    4  A    between atoms: O1_5  and  C5_6 
REMARK    5  A    between atoms: C5_6  and  C6_8 
REMARK    6  A    between atoms: C8_10  and  C9_12 
REMARK    7  A    between atoms: C9_12  and  C10_13 
REMARK    8  A    between atoms: C10_13  and  C11_14 
REMARK    9  A    between atoms: C10_13  and  O8_39 
REMARK   10  A    between atoms: C11_14  and  C12_15 
REMARK   11  A    between atoms: C13_16  and  C15_18 
REMARK   12  A    between atoms: O8_39  and  C32_40 
ROOT
HETATM    1  C12 UNL     1      -1.358 -36.961   5.666  1.00  0.00    -0.051 C 
HETATM    2  C13 UNL     1      -0.318 -36.011   6.050  1.00  0.00     0.069 C 
HETATM    3  C14 UNL     1       1.094 -36.255   5.604  1.00  0.00     0.032 C 
HETATM    4  C16 UNL     1      -0.110 -35.958   7.577  1.00  0.00     0.028 C 
HETATM    5  C17 UNL     1      -1.386 -35.916   8.280  1.00  0.00     0.045 C 
HETATM    6  C18 UNL     1      -2.030 -37.301   8.155  1.00  0.00     0.096 C 
HETATM    7  O6  UNL     1      -3.210 -37.091   8.796  1.00  0.00    -0.364 OA
HETATM    8  C19 UNL     1      -3.876 -37.699   9.683  1.00  0.00     0.064 C 
HETATM    9  C20 UNL     1      -5.229 -36.923   9.782  1.00  0.00     0.046 C 
HETATM   10  C21 UNL     1      -4.391 -39.118   9.487  1.00  0.00     0.046 C 
HETATM   11  C22 UNL     1      -3.429 -37.648  11.128  1.00  0.00     0.081 A 
HETATM   12  C23 UNL     1      -3.110 -36.312  11.704  1.00  0.00     0.128 A 
HETATM   13  C24 UNL     1      -3.652 -36.082  13.119  1.00  0.00     0.040 C 
HETATM   14  O7  UNL     1      -1.769 -36.748  11.846  1.00  0.00    -0.376 OA
HETATM   15  C25 UNL     1      -2.011 -37.996  11.335  1.00  0.00     0.154 A 
HETATM   16  C26 UNL     1      -1.276 -38.482  10.177  1.00  0.00     0.011 C 
HETATM   17  C27 UNL     1      -1.209 -38.269   8.856  1.00  0.00    -0.050 C 
HETATM   18  C28 UNL     1      -0.205 -39.174   8.267  1.00  0.00     0.046 C 
HETATM   19  C29 UNL     1      -2.347 -37.429   6.739  1.00  0.00     0.012 C 
HETATM   20  C30 UNL     1      -3.628 -36.643   6.506  1.00  0.00     0.023 C 
HETATM   21  C31 UNL     1      -2.707 -38.864   6.319  1.00  0.00     0.023 C 
ENDROOT
BRANCH   1  22
HETATM   22  C11 UNL     1      -1.981 -36.975   4.333  1.00  0.00     0.011 C 
BRANCH  22  23
HETATM   23  C10 UNL     1      -1.459 -36.312   3.115  1.00  0.00     0.162 C 
BRANCH  23  24
HETATM   24  C9  UNL     1      -1.202 -37.489   2.151  1.00  0.00     0.118 C 
BRANCH  24  25
HETATM   25  C8  UNL     1       0.115 -37.721   1.668  1.00  0.00     0.162 C 
HETATM   26  O3  UNL     1       0.837 -37.102   0.917  1.00  0.00    -0.295 OA
BRANCH  25  27
HETATM   27  C4  UNL     1       0.775 -39.000   2.181  1.00  0.00     0.224 C 
BRANCH  27  28
HETATM   28  C3  UNL     1      -0.240 -39.920   2.749  1.00  0.00     0.009 C 
HETATM   29  C2  UNL     1      -0.204 -40.383   3.990  1.00  0.00    -0.032 C 
HETATM   30  C1  UNL     1       0.869 -40.029   4.959  1.00  0.00     0.036 C 
ENDBRANCH  27  28
BRANCH  27  31
HETATM   31  O1  UNL     1       1.507 -39.644   1.206  1.00  0.00    -0.304 OA
BRANCH  31  32
HETATM   32  C5  UNL     1       2.806 -40.126   1.348  1.00  0.00     0.259 C 
HETATM   33  O2  UNL     1       3.295 -40.705   0.345  1.00  0.00    -0.265 OA
BRANCH  32  34
HETATM   34  C6  UNL     1       3.587 -39.977   2.602  1.00  0.00     0.106 C 
HETATM   35  C7  UNL     1       4.781 -40.885   2.636  1.00  0.00     0.015 C 
ENDBRANCH  32  34
ENDBRANCH  31  32
ENDBRANCH  27  31
ENDBRANCH  25  27
ENDBRANCH  24  25
ENDBRANCH  23  24
BRANCH  23  36
HETATM   36  O8  UNL     1      -2.120 -35.358   2.413  1.00  0.00    -0.312 OA
BRANCH  36  37
HETATM   37  C32 UNL     1      -1.683 -34.020   2.251  1.00  0.00     0.255 C 
HETATM   38  C33 UNL     1      -2.486 -32.862   2.646  1.00  0.00     0.126 C 
HETATM   39  O9  UNL     1      -0.547 -33.866   1.740  1.00  0.00    -0.266 OA
ENDBRANCH  36  37
ENDBRANCH  23  36
ENDBRANCH  22  23
ENDBRANCH   1  22
BRANCH   2  40
HETATM   40  C15 UNL     1      -0.614 -34.571   5.718  1.00  0.00     0.186 C 
HETATM   41  O4  UNL     1       0.295 -33.765   5.331  1.00  0.00    -0.647 OA
HETATM   42  O5  UNL     1      -1.862 -33.999   5.796  1.00  0.00    -0.647 OA
ENDBRANCH   2  40
TORSDOF 12
ENDMDL
MODEL 3
REMARK VINA RESULT: -8.660833444      1.876      8.103
REMARK  12 active torsions:
REMARK  status: ('A' for Active; 'I' for Inactive)
REMARK    1  A    between atoms: C3_3  and  C4_4 
REMARK    2  A    between atoms: C4_4  and  O1_5 
REMARK    3  A    between atoms: C4_4  and  C8_10 
REMARK    4  A    between atoms: O1_5  and  C5_6 
REMARK    5  A    between atoms: C5_6  and  C6_8 
REMARK    6  A    between atoms: C8_10  and  C9_12 
REMARK    7  A    between atoms: C9_12  and  C10_13 
REMARK    8  A    between atoms: C10_13  and  C11_14 
REMARK    9  A    between atoms: C10_13  and  O8_39 
REMARK   10  A    between atoms: C11_14  and  C12_15 
REMARK   11  A    between atoms: C13_16  and  C15_18 
REMARK   12  A    between atoms: O8_39  and  C32_40 
ROOT
HETATM    1  C12 UNL     1      -1.689 -35.838   5.840  1.00  0.00    -0.051 C 
HETATM    2  C13 UNL     1      -0.924 -34.726   5.282  1.00  0.00     0.069 C 
HETATM    3  C14 UNL     1      -1.658 -33.583   4.645  1.00  0.00     0.032 C 
HETATM    4  C16 UNL     1      -0.033 -35.163   4.103  1.00  0.00     0.028 C 
HETATM    5  C17 UNL     1       0.665 -36.406   4.404  1.00  0.00     0.045 C 
HETATM    6  C18 UNL     1      -0.369 -37.536   4.377  1.00  0.00     0.096 C 
HETATM    7  O6  UNL     1       0.405 -38.598   4.724  1.00  0.00    -0.364 OA
HETATM    8  C19 UNL     1       0.576 -39.772   4.286  1.00  0.00     0.064 C 
HETATM    9  C20 UNL     1       1.515 -40.464   5.326  1.00  0.00     0.046 C 
HETATM   10  C21 UNL     1      -0.552 -40.791   4.218  1.00  0.00     0.046 C 
HETATM   11  C22 UNL     1       1.371 -39.993   3.016  1.00  0.00     0.081 A 
HETATM   12  C23 UNL     1       2.695 -39.320   2.906  1.00  0.00     0.128 A 
HETATM   13  C24 UNL     1       3.810 -40.198   2.327  1.00  0.00     0.040 C 
HETATM   14  O7  UNL     1       2.168 -38.566   1.828  1.00  0.00    -0.376 OA
HETATM   15  C25 UNL     1       0.935 -39.163   1.878  1.00  0.00     0.154 A 
HETATM   16  C26 UNL     1      -0.269 -38.368   2.065  1.00  0.00     0.011 C 
HETATM   17  C27 UNL     1      -0.886 -37.673   3.030  1.00  0.00    -0.050 C 
HETATM   18  C28 UNL     1      -2.143 -37.113   2.499  1.00  0.00     0.046 C 
HETATM   19  C29 UNL     1      -1.233 -37.265   5.518  1.00  0.00     0.012 C 
HETATM   20  C30 UNL     1      -0.496 -37.762   6.753  1.00  0.00     0.023 C 
HETATM   21  C31 UNL     1      -2.536 -38.083   5.508  1.00  0.00     0.023 C 
ENDROOT
BRANCH   1  22
HETATM   22  C11 UNL     1      -2.353 -35.779   7.152  1.00  0.00     0.011 C 
BRANCH  22  23
HETATM   23  C10 UNL     1      -3.811 -35.864   7.400  1.00  0.00     0.162 C 
BRANCH  23  24
HETATM   24  C9  UNL     1      -3.905 -35.987   8.935  1.00  0.00     0.118 C 
BRANCH  24  25
HETATM   25  C8  UNL     1      -3.046 -36.893   9.617  1.00  0.00     0.162 C 
HETATM   26  O3  UNL     1      -2.874 -38.088   9.525  1.00  0.00    -0.295 OA
BRANCH  25  27
HETATM   27  C4  UNL     1      -2.155 -36.260  10.684  1.00  0.00     0.224 C 
BRANCH  27  28
HETATM   28  C3  UNL     1      -0.816 -35.949  10.127  1.00  0.00     0.009 C 
HETATM   29  C2  UNL     1       0.239 -36.741  10.254  1.00  0.00    -0.032 C 
HETATM   30  C1  UNL     1       0.196 -38.043  10.977  1.00  0.00     0.036 C 
ENDBRANCH  27  28
BRANCH  27  31
HETATM   31  O1  UNL     1      -2.715 -35.128  11.236  1.00  0.00    -0.304 OA
BRANCH  31  32
HETATM   32  C5  UNL     1      -3.033 -34.950  12.581  1.00  0.00     0.259 C 
HETATM   33  O2  UNL     1      -2.711 -33.845  13.085  1.00  0.00    -0.265 OA
BRANCH  32  34
HETATM   34  C6  UNL     1      -3.712 -35.992  13.391  1.00  0.00     0.106 C 
HETATM   35  C7  UNL     1      -5.101 -36.275  12.901  1.00  0.00     0.015 C 
ENDBRANCH  32  34
ENDBRANCH  31  32
ENDBRANCH  27  31
ENDBRANCH  25  27
ENDBRANCH  24  25
ENDBRANCH  23  24
BRANCH  23  36
HETATM   36  O8  UNL     1      -4.713 -34.926   7.019  1.00  0.00    -0.312 OA
BRANCH  36  37
HETATM   37  C32 UNL     1      -5.567 -35.031   5.893  1.00  0.00     0.255 C 
HETATM   38  C33 UNL     1      -5.105 -35.474   4.577  1.00  0.00     0.126 C 
HETATM   39  O9  UNL     1      -6.769 -34.719   6.077  1.00  0.00    -0.266 OA
ENDBRANCH  36  37
ENDBRANCH  23  36
ENDBRANCH  22  23
ENDBRANCH   1  22
BRANCH   2  40
HETATM   40  C15 UNL     1       0.075 -34.103   6.224  1.00  0.00     0.186 C 
HETATM   41  O4  UNL     1       0.434 -32.884   6.120  1.00  0.00    -0.647 OA
HETATM   42  O5  UNL     1       0.681 -34.770   7.262  1.00  0.00    -0.647 OA
ENDBRANCH   2  40
TORSDOF 12
ENDMDL
MODEL 4
REMARK VINA RESULT: -8.539416383      2.139      3.462
REMARK  12 active torsions:
REMARK  status: ('A' for Active; 'I' for Inactive)
REMARK    1  A    between atoms: C3_3  and  C4_4 
REMARK    2  A    between atoms: C4_4  and  O1_5 
REMARK    3  A    between atoms: C4_4  and  C8_10 
REMARK    4  A    between atoms: O1_5  and  C5_6 
REMARK    5  A    between atoms: C5_6  and  C6_8 
REMARK    6  A    between atoms: C8_10  and  C9_12 
REMARK    7  A    between atoms: C9_12  and  C10_13 
REMARK    8  A    between atoms: C10_13  and  C11_14 
REMARK    9  A    between atoms: C10_13  and  O8_39 
REMARK   10  A    between atoms: C11_14  and  C12_15 
REMARK   11  A    between atoms: C13_16  and  C15_18 
REMARK   12  A    between atoms: O8_39  and  C32_40 
ROOT
HETATM    1  C12 UNL     1      -0.850 -36.664   3.597  1.00  0.00    -0.051 C 
HETATM    2  C13 UNL     1      -1.484 -36.008   2.457  1.00  0.00     0.069 C 
HETATM    3  C14 UNL     1      -0.745 -34.917   1.739  1.00  0.00     0.032 C 
HETATM    4  C16 UNL     1      -2.763 -35.246   2.857  1.00  0.00     0.028 C 
HETATM    5  C17 UNL     1      -3.592 -36.045   3.751  1.00  0.00     0.045 C 
HETATM    6  C18 UNL     1      -2.888 -36.100   5.111  1.00  0.00     0.096 C 
HETATM    7  O6  UNL     1      -3.735 -36.907   5.803  1.00  0.00    -0.364 OA
HETATM    8  C19 UNL     1      -4.284 -36.875   6.942  1.00  0.00     0.064 C 
HETATM    9  C20 UNL     1      -4.992 -38.260   7.094  1.00  0.00     0.046 C 
HETATM   10  C21 UNL     1      -3.481 -36.839   8.234  1.00  0.00     0.046 C 
HETATM   11  C22 UNL     1      -5.452 -35.945   7.189  1.00  0.00     0.081 A 
HETATM   12  C23 UNL     1      -6.566 -35.962   6.201  1.00  0.00     0.128 A 
HETATM   13  C24 UNL     1      -7.968 -35.936   6.820  1.00  0.00     0.040 C 
HETATM   14  O7  UNL     1      -6.237 -34.620   5.881  1.00  0.00    -0.376 OA
HETATM   15  C25 UNL     1      -5.209 -34.548   6.784  1.00  0.00     0.154 A 
HETATM   16  C26 UNL     1      -3.861 -34.212   6.352  1.00  0.00     0.011 C 
HETATM   17  C27 UNL     1      -2.845 -34.766   5.676  1.00  0.00    -0.050 C 
HETATM   18  C28 UNL     1      -1.717 -33.817   5.631  1.00  0.00     0.046 C 
HETATM   19  C29 UNL     1      -1.683 -36.880   4.865  1.00  0.00     0.012 C 
HETATM   20  C30 UNL     1      -2.104 -38.342   4.851  1.00  0.00     0.023 C 
HETATM   21  C31 UNL     1      -0.656 -36.798   6.008  1.00  0.00     0.023 C 
ENDROOT
BRANCH   1  22
HETATM   22  C11 UNL     1       0.175 -37.710   3.454  1.00  0.00     0.011 C 
BRANCH  22  23
HETATM   23  C10 UNL     1       1.636 -37.495   3.341  1.00  0.00     0.162 C 
BRANCH  23  24
HETATM   24  C9  UNL     1       2.226 -38.531   4.321  1.00  0.00     0.118 C 
BRANCH  24  25
HETATM   25  C8  UNL     1       2.007 -39.917   4.088  1.00  0.00     0.162 C 
HETATM   26  O3  UNL     1       1.098 -40.529   3.572  1.00  0.00    -0.295 OA
BRANCH  25  27
HETATM   27  C4  UNL     1       3.121 -40.839   4.579  1.00  0.00     0.224 C 
BRANCH  27  28
HETATM   28  C3  UNL     1       2.614 -41.758   5.627  1.00  0.00     0.009 C 
HETATM   29  C2  UNL     1       3.322 -42.141   6.680  1.00  0.00    -0.032 C 
HETATM   30  C1  UNL     1       4.718 -41.685   6.929  1.00  0.00     0.036 C 
ENDBRANCH  27  28
BRANCH  27  31
HETATM   31  O1  UNL     1       3.701 -41.558   3.556  1.00  0.00    -0.304 OA
BRANCH  31  32
HETATM   32  C5  UNL     1       4.943 -41.298   2.980  1.00  0.00     0.259 C 
HETATM   33  O2  UNL     1       5.003 -40.298   2.221  1.00  0.00    -0.265 OA
BRANCH  32  34
HETATM   34  C6  UNL     1       6.138 -42.141   3.232  1.00  0.00     0.106 C 
HETATM   35  C7  UNL     1       6.274 -43.246   2.226  1.00  0.00     0.015 C 
ENDBRANCH  32  34
ENDBRANCH  31  32
ENDBRANCH  27  31
ENDBRANCH  25  27
ENDBRANCH  24  25
ENDBRANCH  23  24
BRANCH  23  36
HETATM   36  O8  UNL     1       2.341 -37.591   2.186  1.00  0.00    -0.312 OA
BRANCH  36  37
HETATM   37  C32 UNL     1       1.782 -37.867   0.914  1.00  0.00     0.255 C 
HETATM   38  C33 UNL     1       1.517 -39.225   0.434  1.00  0.00     0.126 C 
HETATM   39  O9  UNL     1       1.518 -36.872   0.196  1.00  0.00    -0.266 OA
ENDBRANCH  36  37
ENDBRANCH  23  36
ENDBRANCH  22  23
ENDBRANCH   1  22
BRANCH   2  40
HETATM   40  C15 UNL     1      -1.990 -36.939   1.384  1.00  0.00     0.186 C 
HETATM   41  O4  UNL     1      -2.642 -36.517   0.374  1.00  0.00    -0.647 OA
HETATM   42  O5  UNL     1      -1.803 -38.302   1.391  1.00  0.00    -0.647 OA
ENDBRANCH   2  40
TORSDOF 12
ENDMDL
MODEL 5
REMARK VINA RESULT: -8.495640701      1.952      2.648
REMARK  12 active torsions:
REMARK  status: ('A' for Active; 'I' for Inactive)
REMARK    1  A    between atoms: C3_3  and  C4_4 
REMARK    2  A    between atoms: C4_4  and  O1_5 
REMARK    3  A    between atoms: C4_4  and  C8_10 
REMARK    4  A    between atoms: O1_5  and  C5_6 
REMARK    5  A    between atoms: C5_6  and  C6_8 
REMARK    6  A    between atoms: C8_10  and  C9_12 
REMARK    7  A    between atoms: C9_12  and  C10_13 
REMARK    8  A    between atoms: C10_13  and  C11_14 
REMARK    9  A    between atoms: C10_13  and  O8_39 
REMARK   10  A    between atoms: C11_14  and  C12_15 
REMARK   11  A    between atoms: C13_16  and  C15_18 
REMARK   12  A    between atoms: O8_39  and  C32_40 
ROOT
HETATM    1  C12 UNL     1      -1.371 -36.231   4.656  1.00  0.00    -0.051 C 
HETATM    2  C13 UNL     1      -1.020 -34.823   4.831  1.00  0.00     0.069 C 
HETATM    3  C14 UNL     1       0.395 -34.461   5.175  1.00  0.00     0.032 C 
HETATM    4  C16 UNL     1      -1.757 -34.182   6.023  1.00  0.00     0.028 C 
HETATM    5  C17 UNL     1      -3.166 -34.555   6.032  1.00  0.00     0.045 C 
HETATM    6  C18 UNL     1      -3.252 -36.030   6.440  1.00  0.00     0.096 C 
HETATM    7  O6  UNL     1      -4.592 -36.241   6.349  1.00  0.00    -0.364 OA
HETATM    8  C19 UNL     1      -5.473 -36.774   7.083  1.00  0.00     0.064 C 
HETATM    9  C20 UNL     1      -6.773 -36.791   6.215  1.00  0.00     0.046 C 
HETATM   10  C21 UNL     1      -5.410 -38.235   7.505  1.00  0.00     0.046 C 
HETATM   11  C22 UNL     1      -5.977 -36.041   8.308  1.00  0.00     0.081 A 
HETATM   12  C23 UNL     1      -6.392 -34.621   8.139  1.00  0.00     0.128 A 
HETATM   13  C24 UNL     1      -7.691 -34.247   8.863  1.00  0.00     0.040 C 
HETATM   14  O7  UNL     1      -5.327 -34.258   9.000  1.00  0.00    -0.376 OA
HETATM   15  C25 UNL     1      -4.910 -35.547   9.199  1.00  0.00     0.154 A 
HETATM   16  C26 UNL     1      -3.548 -35.948   8.880  1.00  0.00     0.011 C 
HETATM   17  C27 UNL     1      -2.783 -36.172   7.804  1.00  0.00    -0.050 C 
HETATM   18  C28 UNL     1      -1.438 -36.591   8.242  1.00  0.00     0.046 C 
HETATM   19  C29 UNL     1      -2.645 -36.750   5.329  1.00  0.00     0.012 C 
HETATM   20  C30 UNL     1      -3.699 -36.832   4.234  1.00  0.00     0.023 C 
HETATM   21  C31 UNL     1      -2.328 -38.220   5.652  1.00  0.00     0.023 C 
ENDROOT
BRANCH   1  22
HETATM   22  C11 UNL     1      -1.078 -36.984   3.426  1.00  0.00     0.011 C 
BRANCH  22  23
HETATM   23  C10 UNL     1       0.219 -37.024   2.711  1.00  0.00     0.162 C 
BRANCH  23  24
HETATM   24  C9  UNL     1       0.748 -38.442   3.011  1.00  0.00     0.118 C 
BRANCH  24  25
HETATM   25  C8  UNL     1       1.500 -38.670   4.196  1.00  0.00     0.162 C 
HETATM   26  O3  UNL     1       1.625 -38.042   5.225  1.00  0.00    -0.295 OA
BRANCH  25  27
HETATM   27  C4  UNL     1       2.328 -39.955   4.199  1.00  0.00     0.224 C 
BRANCH  27  28
HETATM   28  C3  UNL     1       1.671 -40.996   5.027  1.00  0.00     0.009 C 
HETATM   29  C2  UNL     1       2.276 -41.648   6.010  1.00  0.00    -0.032 C 
HETATM   30  C1  UNL     1       3.694 -41.404   6.395  1.00  0.00     0.036 C 
ENDBRANCH  27  28
BRANCH  27  31
HETATM   31  O1  UNL     1       2.562 -40.435   2.929  1.00  0.00    -0.304 OA
BRANCH  31  32
HETATM   32  C5  UNL     1       3.805 -40.785   2.407  1.00  0.00     0.259 C 
HETATM   33  O2  UNL     1       3.989 -40.525   1.191  1.00  0.00    -0.265 OA
BRANCH  32  34
HETATM   34  C6  UNL     1       4.866 -41.431   3.220  1.00  0.00     0.106 C 
HETATM   35  C7  UNL     1       6.195 -41.424   2.524  1.00  0.00     0.015 C 
ENDBRANCH  32  34
ENDBRANCH  31  32
ENDBRANCH  27  31
ENDBRANCH  25  27
ENDBRANCH  24  25
ENDBRANCH  23  24
BRANCH  23  36
HETATM   36  O8  UNL     1       0.372 -36.815   1.380  1.00  0.00    -0.312 OA
BRANCH  36  37
HETATM   37  C32 UNL     1      -0.503 -36.045   0.574  1.00  0.00     0.255 C 
HETATM   38  C33 UNL     1      -1.962 -36.130   0.669  1.00  0.00     0.126 C 
HETATM   39  O9  UNL     1       0.040 -35.267  -0.248  1.00  0.00    -0.266 OA
ENDBRANCH  36  37
ENDBRANCH  23  36
ENDBRANCH  22  23
ENDBRANCH   1  22
BRANCH   2  40
HETATM   40  C15 UNL     1      -1.412 -33.921   3.690  1.00  0.00     0.186 C 
HETATM   41  O4  UNL     1      -0.577 -33.550   2.801  1.00  0.00    -0.647 OA
HETATM   42  O5  UNL     1      -2.679 -33.421   3.498  1.00  0.00    -0.647 OA
ENDBRANCH   2  40
TORSDOF 12
ENDMDL
