MODEL 1
REMARK VINA RESULT: -7.421009705      0.000      0.000
REMARK  6 active torsions:
REMARK  status: ('A' for Active; 'I' for Inactive)
REMARK    1  A    between atoms: C2_2  and  C4_5 
REMARK    2  A    between atoms: C4_5  and  N2_6 
REMARK       I    between atoms: N2_6  and  C5_8 
REMARK    3  A    between atoms: C5_8  and  C6_10 
REMARK    4  A    between atoms: C6_10  and  O2_12 
REMARK    5  A    between atoms: O2_12  and  C8_13 
REMARK    6  A    between atoms: C8_13  and  C9_15 
ROOT
HETATM    1  C1  UNL     1       8.469  30.128 -11.828  1.00  0.00     0.027 C 
HETATM    2  C2  UNL     1       7.006  29.956 -11.433  1.00  0.00     0.106 C 
HETATM    3  C3  UNL     1       6.336  31.205 -11.798  1.00  0.00     0.065 C 
HETATM    4  N1  UNL     1       5.780  32.198 -12.083  1.00  0.00    -0.197 NA
ENDROOT
BRANCH   2   5
HETATM    5  C4  UNL     1       6.924  29.714  -9.943  1.00  0.00     0.141 C 
BRANCH   5   6
HETATM    6  N2  UNL     1       7.250  28.367  -9.553  1.00  0.00    -0.358 N 
HETATM    7  C5  UNL     1       8.249  28.016  -8.622  1.00  0.00     0.246 C 
HETATM    8  O1  UNL     1       8.901  28.937  -8.095  1.00  0.00    -0.271 OA
ATOM      9  H2  UNL     1       6.719  27.609  -9.982  1.00  0.00     0.162 HD
BRANCH   7  10
HETATM   10  C6  UNL     1       8.504  26.631  -8.296  1.00  0.00     0.219 C 
HETATM   11  C7  UNL     1       9.738  26.558  -7.383  1.00  0.00     0.050 C 
BRANCH  10  12
HETATM   12  O2  UNL     1       7.481  25.950  -7.640  1.00  0.00    -0.306 OA
BRANCH  12  13
HETATM   13  C8  UNL     1       6.584  25.105  -8.261  1.00  0.00     0.263 C 
HETATM   14  O3  UNL     1       5.653  25.677  -8.888  1.00  0.00    -0.265 OA
BRANCH  13  15
HETATM   15  C9  UNL     1       6.710  23.616  -8.195  1.00  0.00     0.085 C 
HETATM   16  C10 UNL     1       5.386  22.934  -8.257  1.00  0.00     0.014 C 
HETATM   17  C11 UNL     1       5.387  21.814  -9.271  1.00  0.00     0.001 C 
HETATM   18  C12 UNL     1       6.524  20.881  -8.943  1.00  0.00     0.000 C 
HETATM   19  C13 UNL     1       7.818  21.622  -9.082  1.00  0.00     0.001 C 
HETATM   20  C14 UNL     1       7.617  23.101  -9.275  1.00  0.00     0.014 C 
ENDBRANCH  13  15
ENDBRANCH  12  13
ENDBRANCH  10  12
ENDBRANCH   7  10
ENDBRANCH   5   6
ENDBRANCH   2   5
TORSDOF 6
ENDMDL
MODEL 2
REMARK VINA RESULT: -7.416944875      1.597      2.367
REMARK  6 active torsions:
REMARK  status: ('A' for Active; 'I' for Inactive)
REMARK    1  A    between atoms: C2_2  and  C4_5 
REMARK    2  A    between atoms: C4_5  and  N2_6 
REMARK       I    between atoms: N2_6  and  C5_8 
REMARK    3  A    between atoms: C5_8  and  C6_10 
REMARK    4  A    between atoms: C6_10  and  O2_12 
REMARK    5  A    between atoms: O2_12  and  C8_13 
REMARK    6  A    between atoms: C8_13  and  C9_15 
ROOT
HETATM    1  C1  UNL     1       5.469  30.233 -11.305  1.00  0.00     0.027 C 
HETATM    2  C2  UNL     1       6.747  31.064 -11.289  1.00  0.00     0.106 C 
HETATM    3  C3  UNL     1       6.658  31.972 -12.433  1.00  0.00     0.065 C 
HETATM    4  N1  UNL     1       6.606  32.708 -13.345  1.00  0.00    -0.197 NA
ENDROOT
BRANCH   2   5
HETATM    5  C4  UNL     1       7.936  30.141 -11.423  1.00  0.00     0.141 C 
BRANCH   5   6
HETATM    6  N2  UNL     1       7.680  28.793 -10.985  1.00  0.00    -0.358 N 
HETATM    7  C5  UNL     1       8.011  28.281  -9.715  1.00  0.00     0.246 C 
HETATM    8  O1  UNL     1       8.567  29.047  -8.906  1.00  0.00    -0.271 OA
ATOM      9  H2  UNL     1       7.224  28.162 -11.644  1.00  0.00     0.162 HD
BRANCH   7  10
HETATM   10  C6  UNL     1       7.714  26.909  -9.369  1.00  0.00     0.219 C 
HETATM   11  C7  UNL     1       6.217  26.655  -9.600  1.00  0.00     0.050 C 
BRANCH  10  12
HETATM   12  O2  UNL     1       8.400  25.927 -10.080  1.00  0.00    -0.306 OA
BRANCH  12  13
HETATM   13  C8  UNL     1       8.802  24.719  -9.548  1.00  0.00     0.263 C 
HETATM   14  O3  UNL     1       9.952  24.714  -9.032  1.00  0.00    -0.265 OA
BRANCH  13  15
HETATM   15  C9  UNL     1       7.935  23.500  -9.584  1.00  0.00     0.085 C 
HETATM   16  C10 UNL     1       8.631  22.329 -10.187  1.00  0.00     0.014 C 
HETATM   17  C11 UNL     1       8.483  21.095  -9.328  1.00  0.00     0.001 C 
HETATM   18  C12 UNL     1       7.015  20.857  -9.090  1.00  0.00     0.000 C 
HETATM   19  C13 UNL     1       6.453  22.015  -8.324  1.00  0.00     0.001 C 
HETATM   20  C14 UNL     1       7.424  23.160  -8.214  1.00  0.00     0.014 C 
ENDBRANCH  13  15
ENDBRANCH  12  13
ENDBRANCH  10  12
ENDBRANCH   7  10
ENDBRANCH   5   6
ENDBRANCH   2   5
TORSDOF 6
ENDMDL
MODEL 3
REMARK VINA RESULT: -7.369439494      2.446      3.316
REMARK  6 active torsions:
REMARK  status: ('A' for Active; 'I' for Inactive)
REMARK    1  A    between atoms: C2_2  and  C4_5 
REMARK    2  A    between atoms: C4_5  and  N2_6 
REMARK       I    between atoms: N2_6  and  C5_8 
REMARK    3  A    between atoms: C5_8  and  C6_10 
REMARK    4  A    between atoms: C6_10  and  O2_12 
REMARK    5  A    between atoms: O2_12  and  C8_13 
REMARK    6  A    between atoms: C8_13  and  C9_15 
ROOT
HETATM    1  C1  UNL     1       6.695  26.931 -10.487  1.00  0.00     0.027 C 
HETATM    2  C2  UNL     1       7.443  27.993  -9.688  1.00  0.00     0.106 C 
HETATM    3  C3  UNL     1       8.053  28.889 -10.671  1.00  0.00     0.065 C 
HETATM    4  N1  UNL     1       8.550  29.619 -11.444  1.00  0.00    -0.197 NA
ENDROOT
BRANCH   2   5
HETATM    5  C4  UNL     1       8.500  27.318  -8.844  1.00  0.00     0.141 C 
BRANCH   5   6
HETATM    6  N2  UNL     1       8.801  25.971  -9.252  1.00  0.00    -0.358 N 
HETATM    7  C5  UNL     1       9.743  25.130  -8.626  1.00  0.00     0.246 C 
HETATM    8  O1  UNL     1      10.363  25.581  -7.646  1.00  0.00    -0.271 OA
ATOM      9  H2  UNL     1       8.295  25.597 -10.056  1.00  0.00     0.162 HD
BRANCH   7  10
HETATM   10  C6  UNL     1       9.977  23.789  -9.113  1.00  0.00     0.219 C 
HETATM   11  C7  UNL     1      11.440  23.412  -8.836  1.00  0.00     0.050 C 
BRANCH  10  12
HETATM   12  O2  UNL     1       9.193  22.781  -8.556  1.00  0.00    -0.306 OA
BRANCH  12  13
HETATM   13  C8  UNL     1       8.401  21.917  -9.285  1.00  0.00     0.263 C 
HETATM   14  O3  UNL     1       9.023  21.039  -9.940  1.00  0.00    -0.265 OA
BRANCH  13  15
HETATM   15  C9  UNL     1       6.908  22.018  -9.297  1.00  0.00     0.085 C 
HETATM   16  C10 UNL     1       6.280  21.235  -8.195  1.00  0.00     0.014 C 
HETATM   17  C11 UNL     1       5.258  22.057  -7.445  1.00  0.00     0.001 C 
HETATM   18  C12 UNL     1       4.260  22.593  -8.439  1.00  0.00     0.000 C 
HETATM   19  C13 UNL     1       4.967  23.506  -9.394  1.00  0.00     0.001 C 
HETATM   20  C14 UNL     1       6.463  23.452  -9.242  1.00  0.00     0.014 C 
ENDBRANCH  13  15
ENDBRANCH  12  13
ENDBRANCH  10  12
ENDBRANCH   7  10
ENDBRANCH   5   6
ENDBRANCH   2   5
TORSDOF 6
ENDMDL
MODEL 4
REMARK VINA RESULT: -7.359584207      1.659      2.144
REMARK  6 active torsions:
REMARK  status: ('A' for Active; 'I' for Inactive)
REMARK    1  A    between atoms: C2_2  and  C4_5 
REMARK    2  A    between atoms: C4_5  and  N2_6 
REMARK       I    between atoms: N2_6  and  C5_8 
REMARK    3  A    between atoms: C5_8  and  C6_10 
REMARK    4  A    between atoms: C6_10  and  O2_12 
REMARK    5  A    between atoms: O2_12  and  C8_13 
REMARK    6  A    between atoms: C8_13  and  C9_15 
ROOT
HETATM    1  C1  UNL     1       7.076  27.412 -10.715  1.00  0.00     0.027 C 
HETATM    2  C2  UNL     1       6.992  28.801 -10.091  1.00  0.00     0.106 C 
HETATM    3  C3  UNL     1       7.635  29.713 -11.037  1.00  0.00     0.065 C 
HETATM    4  N1  UNL     1       8.147  30.461 -11.782  1.00  0.00    -0.197 NA
ENDROOT
BRANCH   2   5
HETATM    5  C4  UNL     1       7.721  28.791  -8.768  1.00  0.00     0.141 C 
BRANCH   5   6
HETATM    6  N2  UNL     1       8.837  27.882  -8.724  1.00  0.00    -0.358 N 
HETATM    7  C5  UNL     1       9.097  26.973  -7.679  1.00  0.00     0.246 C 
HETATM    8  O1  UNL     1       8.304  26.950  -6.719  1.00  0.00    -0.271 OA
ATOM      9  H2  UNL     1       9.490  27.897  -9.509  1.00  0.00     0.162 HD
BRANCH   7  10
HETATM   10  C6  UNL     1      10.248  26.099  -7.725  1.00  0.00     0.219 C 
HETATM   11  C7  UNL     1      11.003  26.206  -6.392  1.00  0.00     0.050 C 
BRANCH  10  12
HETATM   12  O2  UNL     1       9.992  24.746  -7.932  1.00  0.00    -0.306 OA
BRANCH  12  13
HETATM   13  C8  UNL     1       9.117  24.254  -8.879  1.00  0.00     0.263 C 
HETATM   14  O3  UNL     1       9.196  24.793 -10.015  1.00  0.00    -0.265 OA
BRANCH  13  15
HETATM   15  C9  UNL     1       8.144  23.158  -8.577  1.00  0.00     0.085 C 
HETATM   16  C10 UNL     1       6.754  23.668  -8.408  1.00  0.00     0.014 C 
HETATM   17  C11 UNL     1       5.766  22.862  -9.218  1.00  0.00     0.001 C 
HETATM   18  C12 UNL     1       5.918  21.411  -8.841  1.00  0.00     0.000 C 
HETATM   19  C13 UNL     1       7.295  20.953  -9.215  1.00  0.00     0.001 C 
HETATM   20  C14 UNL     1       8.187  22.091  -9.633  1.00  0.00     0.014 C 
ENDBRANCH  13  15
ENDBRANCH  12  13
ENDBRANCH  10  12
ENDBRANCH   7  10
ENDBRANCH   5   6
ENDBRANCH   2   5
TORSDOF 6
ENDMDL
MODEL 5
REMARK VINA RESULT: -7.275694922      2.413      4.136
REMARK  6 active torsions:
REMARK  status: ('A' for Active; 'I' for Inactive)
REMARK    1  A    between atoms: C2_2  and  C4_5 
REMARK    2  A    between atoms: C4_5  and  N2_6 
REMARK       I    between atoms: N2_6  and  C5_8 
REMARK    3  A    between atoms: C5_8  and  C6_10 
REMARK    4  A    between atoms: C6_10  and  O2_12 
REMARK    5  A    between atoms: O2_12  and  C8_13 
REMARK    6  A    between atoms: C8_13  and  C9_15 
ROOT
HETATM    1  C1  UNL     1       8.474  27.779  -8.807  1.00  0.00     0.027 C 
HETATM    2  C2  UNL     1       7.659  27.560 -10.076  1.00  0.00     0.106 C 
HETATM    3  C3  UNL     1       7.464  28.883 -10.670  1.00  0.00     0.065 C 
HETATM    4  N1  UNL     1       7.297  29.935 -11.161  1.00  0.00    -0.197 NA
ENDROOT
BRANCH   2   5
HETATM    5  C4  UNL     1       6.334  26.932  -9.709  1.00  0.00     0.141 C 
BRANCH   5   6
HETATM    6  N2  UNL     1       6.386  25.499  -9.573  1.00  0.00    -0.358 N 
HETATM    7  C5  UNL     1       5.775  24.765  -8.537  1.00  0.00     0.246 C 
HETATM    8  O1  UNL     1       5.143  25.397  -7.671  1.00  0.00    -0.271 OA
ATOM      9  H2  UNL     1       6.904  24.977 -10.280  1.00  0.00     0.162 HD
BRANCH   7  10
HETATM   10  C6  UNL     1       5.886  23.324  -8.486  1.00  0.00     0.219 C 
HETATM   11  C7  UNL     1       4.473  22.720  -8.498  1.00  0.00     0.050 C 
BRANCH  10  12
HETATM   12  O2  UNL     1       6.588  22.718  -9.525  1.00  0.00    -0.306 OA
BRANCH  12  13
HETATM   13  C8  UNL     1       7.609  21.807  -9.347  1.00  0.00     0.263 C 
HETATM   14  O3  UNL     1       7.241  20.620  -9.139  1.00  0.00    -0.265 OA
BRANCH  13  15
HETATM   15  C9  UNL     1       9.051  22.202  -9.397  1.00  0.00     0.085 C 
HETATM   16  C10 UNL     1       9.248  23.544 -10.015  1.00  0.00     0.014 C 
HETATM   17  C11 UNL     1      10.148  24.416  -9.171  1.00  0.00     0.001 C 
HETATM   18  C12 UNL     1      11.438  23.674  -8.933  1.00  0.00     0.000 C 
HETATM   19  C13 UNL     1      11.147  22.430  -8.152  1.00  0.00     0.001 C 
HETATM   20  C14 UNL     1       9.671  22.158  -8.030  1.00  0.00     0.014 C 
ENDBRANCH  13  15
ENDBRANCH  12  13
ENDBRANCH  10  12
ENDBRANCH   7  10
ENDBRANCH   5   6
ENDBRANCH   2   5
TORSDOF 6
ENDMDL
