MODEL 1
REMARK VINA RESULT: -6.801239767      0.000      0.000
REMARK  6 active torsions:
REMARK  status: ('A' for Active; 'I' for Inactive)
REMARK    1  A    between atoms: C2_2  and  C3_3 
REMARK    2  A    between atoms: C3_3  and  C4_4 
REMARK    3  A    between atoms: C4_4  and  C5_5 
REMARK    4  A    between atoms: C5_5  and  O1_6 
REMARK    5  A    between atoms: C5_5  and  C7_8 
REMARK    6  A    between atoms: N1_11  and  N2_13 
ROOT
HETATM    1  C3  UNL     1       8.633  24.004  -9.019  1.00  0.00     0.005 C 
HETATM    2  N1  UNL     1       9.142  25.175  -8.866  1.00  0.00    -0.311 N 
ATOM      3  H1  UNL     1      10.147  25.188  -8.694  1.00  0.00     0.186 HD
ENDROOT
BRANCH   2   4
HETATM    4  N2  UNL     1       8.546  26.406  -8.898  1.00  0.00    -0.324 N 
HETATM    5  C10 UNL     1       7.993  27.083  -7.750  1.00  0.00     0.170 C 
HETATM    6  C11 UNL     1       8.434  28.493  -7.686  1.00  0.00     0.254 C 
HETATM    7  N3  UNL     1       8.745  29.090  -8.949  1.00  0.00    -0.064 N 
HETATM    8  C12 UNL     1       8.015  28.517 -10.049  1.00  0.00     0.136 C 
ATOM      9  H32 UNL     1       8.611  30.101  -8.914  1.00  0.00     0.278 HD
ATOM     10  H31 UNL     1       9.749  29.059  -9.126  1.00  0.00     0.278 HD
HETATM   11  C13 UNL     1       6.538  28.704  -9.945  1.00  0.00     0.048 C 
HETATM   12  C14 UNL     1       8.491  29.272 -11.297  1.00  0.00     0.048 C 
HETATM   13  C15 UNL     1       8.440  27.079 -10.190  1.00  0.00     0.180 C 
ENDBRANCH   2   4
BRANCH   1  14
HETATM   14  C2  UNL     1       9.597  22.881  -8.915  1.00  0.00     0.049 C 
HETATM   15  C1  UNL     1      10.967  23.292  -9.476  1.00  0.00     0.011 C 
ENDBRANCH   1  14
BRANCH   1  16
HETATM   16  C4  UNL     1       7.187  23.867  -9.266  1.00  0.00     0.086 C 
BRANCH  16  17
HETATM   17  C5  UNL     1       6.376  23.246  -8.191  1.00  0.00     0.129 C 
BRANCH  17  18
HETATM   18  O1  UNL     1       5.646  24.171  -7.488  1.00  0.00    -0.390 OA
HETATM   19  C6  UNL     1       5.075  25.178  -8.220  1.00  0.00     0.202 C 
ENDBRANCH  17  18
BRANCH  17  20
HETATM   20  C7  UNL     1       5.673  21.965  -8.513  1.00  0.00     0.007 C 
HETATM   21  C8  UNL     1       4.808  22.082  -9.752  1.00  0.00     0.012 C 
HETATM   22  C9  UNL     1       6.717  20.884  -8.868  1.00  0.00     0.012 C 
ENDBRANCH  17  20
ENDBRANCH  16  17
ENDBRANCH   1  16
TORSDOF 6
ENDMDL
MODEL 2
REMARK VINA RESULT: -6.788923022      2.026      4.618
REMARK  6 active torsions:
REMARK  status: ('A' for Active; 'I' for Inactive)
REMARK    1  A    between atoms: C2_2  and  C3_3 
REMARK    2  A    between atoms: C3_3  and  C4_4 
REMARK    3  A    between atoms: C4_4  and  C5_5 
REMARK    4  A    between atoms: C5_5  and  O1_6 
REMARK    5  A    between atoms: C5_5  and  C7_8 
REMARK    6  A    between atoms: N1_11  and  N2_13 
ROOT
HETATM    1  C3  UNL     1       7.131  24.983  -9.329  1.00  0.00     0.005 C 
HETATM    2  N1  UNL     1       8.405  25.110  -9.446  1.00  0.00    -0.311 N 
ATOM      3  H1  UNL     1       8.710  25.958  -9.923  1.00  0.00     0.186 HD
ENDROOT
BRANCH   2   4
HETATM    4  N2  UNL     1       9.415  24.286  -9.029  1.00  0.00    -0.324 N 
HETATM    5  C10 UNL     1       9.825  23.081  -9.707  1.00  0.00     0.170 C 
HETATM    6  C11 UNL     1      11.295  23.017  -9.861  1.00  0.00     0.254 C 
HETATM    7  N3  UNL     1      12.041  23.720  -8.863  1.00  0.00    -0.064 N 
HETATM    8  C12 UNL     1      11.361  23.812  -7.598  1.00  0.00     0.136 C 
ATOM      9  H32 UNL     1      12.967  23.308  -8.746  1.00  0.00     0.278 HD
ATOM     10  H31 UNL     1      12.309  24.646  -9.197  1.00  0.00     0.278 HD
HETATM   11  C13 UNL     1      11.112  22.487  -6.958  1.00  0.00     0.048 C 
HETATM   12  C14 UNL     1      12.304  24.600  -6.679  1.00  0.00     0.048 C 
HETATM   13  C15 UNL     1      10.116  24.636  -7.797  1.00  0.00     0.180 C 
ENDBRANCH   2   4
BRANCH   1  14
HETATM   14  C2  UNL     1       6.333  26.090  -9.912  1.00  0.00     0.049 C 
HETATM   15  C1  UNL     1       7.248  27.104 -10.613  1.00  0.00     0.011 C 
ENDBRANCH   1  14
BRANCH   1  16
HETATM   16  C4  UNL     1       6.578  23.792  -8.663  1.00  0.00     0.086 C 
BRANCH  16  17
HETATM   17  C5  UNL     1       5.918  22.782  -9.525  1.00  0.00     0.129 C 
BRANCH  17  18
HETATM   18  O1  UNL     1       6.772  21.773  -9.893  1.00  0.00    -0.390 OA
HETATM   19  C6  UNL     1       7.001  20.798  -8.958  1.00  0.00     0.202 C 
ENDBRANCH  17  18
BRANCH  17  20
HETATM   20  C7  UNL     1       4.530  22.362  -9.156  1.00  0.00     0.007 C 
HETATM   21  C8  UNL     1       3.739  23.491  -8.524  1.00  0.00     0.012 C 
HETATM   22  C9  UNL     1       3.746  22.007 -10.438  1.00  0.00     0.012 C 
ENDBRANCH  17  20
ENDBRANCH  16  17
ENDBRANCH   1  16
TORSDOF 6
ENDMDL
MODEL 3
REMARK VINA RESULT: -6.773895772      2.201      6.013
REMARK  6 active torsions:
REMARK  status: ('A' for Active; 'I' for Inactive)
REMARK    1  A    between atoms: C2_2  and  C3_3 
REMARK    2  A    between atoms: C3_3  and  C4_4 
REMARK    3  A    between atoms: C4_4  and  C5_5 
REMARK    4  A    between atoms: C5_5  and  O1_6 
REMARK    5  A    between atoms: C5_5  and  C7_8 
REMARK    6  A    between atoms: N1_11  and  N2_13 
ROOT
HETATM    1  C3  UNL     1       6.948  26.528  -9.583  1.00  0.00     0.005 C 
HETATM    2  N1  UNL     1       6.282  25.508  -9.994  1.00  0.00    -0.311 N 
ATOM      3  H1  UNL     1       6.057  25.515 -10.988  1.00  0.00     0.186 HD
ENDROOT
BRANCH   2   4
HETATM    4  N2  UNL     1       5.829  24.415  -9.307  1.00  0.00    -0.324 N 
HETATM    5  C10 UNL     1       4.541  24.325  -8.662  1.00  0.00     0.170 C 
HETATM    6  C11 UNL     1       3.858  23.054  -8.990  1.00  0.00     0.254 C 
HETATM    7  N3  UNL     1       4.725  21.960  -9.300  1.00  0.00    -0.064 N 
HETATM    8  C12 UNL     1       6.010  22.047  -8.657  1.00  0.00     0.136 C 
ATOM      9  H32 UNL     1       4.275  21.070  -9.087  1.00  0.00     0.278 HD
ATOM     10  H31 UNL     1       4.833  21.858 -10.309  1.00  0.00     0.278 HD
HETATM   11  C13 UNL     1       5.934  22.002  -7.167  1.00  0.00     0.048 C 
HETATM   12  C14 UNL     1       6.787  20.807  -9.119  1.00  0.00     0.048 C 
HETATM   13  C15 UNL     1       6.718  23.262  -9.196  1.00  0.00     0.180 C 
ENDBRANCH   2   4
BRANCH   1  14
HETATM   14  C2  UNL     1       7.267  27.533 -10.626  1.00  0.00     0.049 C 
HETATM   15  C1  UNL     1       6.873  28.942 -10.157  1.00  0.00     0.011 C 
ENDBRANCH   1  14
BRANCH   1  16
HETATM   16  C4  UNL     1       7.322  26.625  -8.161  1.00  0.00     0.086 C 
BRANCH  16  17
HETATM   17  C5  UNL     1       8.698  26.212  -7.796  1.00  0.00     0.129 C 
BRANCH  17  18
HETATM   18  O1  UNL     1       9.332  25.550  -8.818  1.00  0.00    -0.390 OA
HETATM   19  C6  UNL     1      10.252  24.603  -8.451  1.00  0.00     0.202 C 
ENDBRANCH  17  18
BRANCH  17  20
HETATM   20  C7  UNL     1       9.533  27.193  -7.035  1.00  0.00     0.007 C 
HETATM   21  C8  UNL     1       9.555  28.558  -7.694  1.00  0.00     0.012 C 
HETATM   22  C9  UNL     1       8.897  27.439  -5.650  1.00  0.00     0.012 C 
ENDBRANCH  17  20
ENDBRANCH  16  17
ENDBRANCH   1  16
TORSDOF 6
ENDMDL
MODEL 4
REMARK VINA RESULT: -6.742108636      3.304      5.341
REMARK  6 active torsions:
REMARK  status: ('A' for Active; 'I' for Inactive)
REMARK    1  A    between atoms: C2_2  and  C3_3 
REMARK    2  A    between atoms: C3_3  and  C4_4 
REMARK    3  A    between atoms: C4_4  and  C5_5 
REMARK    4  A    between atoms: C5_5  and  O1_6 
REMARK    5  A    between atoms: C5_5  and  C7_8 
REMARK    6  A    between atoms: N1_11  and  N2_13 
ROOT
HETATM    1  C3  UNL     1       8.604  28.547  -7.952  1.00  0.00     0.005 C 
HETATM    2  N1  UNL     1       9.523  29.390  -7.637  1.00  0.00    -0.311 N 
ATOM      3  H1  UNL     1       9.484  30.276  -8.140  1.00  0.00     0.186 HD
ENDROOT
BRANCH   2   4
HETATM    4  N2  UNL     1      10.544  29.284  -6.732  1.00  0.00    -0.324 N 
HETATM    5  C10 UNL     1      10.398  29.436  -5.305  1.00  0.00     0.170 C 
HETATM    6  C11 UNL     1      11.077  28.346  -4.570  1.00  0.00     0.254 C 
HETATM    7  N3  UNL     1      12.193  27.761  -5.247  1.00  0.00    -0.064 N 
HETATM    8  C12 UNL     1      12.855  28.666  -6.149  1.00  0.00     0.136 C 
ATOM      9  H32 UNL     1      12.857  27.369  -4.579  1.00  0.00     0.278 HD
ATOM     10  H31 UNL     1      11.916  26.907  -5.731  1.00  0.00     0.278 HD
HETATM   11  C13 UNL     1      13.459  29.849  -5.469  1.00  0.00     0.048 C 
HETATM   12  C14 UNL     1      13.999  27.859  -6.777  1.00  0.00     0.048 C 
HETATM   13  C15 UNL     1      11.885  29.021  -7.246  1.00  0.00     0.180 C 
ENDBRANCH   2   4
BRANCH   1  14
HETATM   14  C2  UNL     1       7.654  29.013  -8.992  1.00  0.00     0.049 C 
HETATM   15  C1  UNL     1       8.153  28.625 -10.392  1.00  0.00     0.011 C 
ENDBRANCH   1  14
BRANCH   1  16
HETATM   16  C4  UNL     1       8.568  27.231  -7.292  1.00  0.00     0.086 C 
BRANCH  16  17
HETATM   17  C5  UNL     1       9.402  26.158  -7.884  1.00  0.00     0.129 C 
BRANCH  17  18
HETATM   18  O1  UNL     1      10.508  25.877  -7.122  1.00  0.00    -0.390 OA
HETATM   19  C6  UNL     1      11.334  24.888  -7.589  1.00  0.00     0.202 C 
ENDBRANCH  17  18
BRANCH  17  20
HETATM   20  C7  UNL     1       8.692  24.976  -8.466  1.00  0.00     0.007 C 
HETATM   21  C8  UNL     1       7.196  25.031  -8.225  1.00  0.00     0.012 C 
HETATM   22  C9  UNL     1       8.840  24.998 -10.003  1.00  0.00     0.012 C 
ENDBRANCH  17  20
ENDBRANCH  16  17
ENDBRANCH   1  16
TORSDOF 6
ENDMDL
MODEL 5
REMARK VINA RESULT: -6.706034575      1.659      2.678
REMARK  6 active torsions:
REMARK  status: ('A' for Active; 'I' for Inactive)
REMARK    1  A    between atoms: C2_2  and  C3_3 
REMARK    2  A    between atoms: C3_3  and  C4_4 
REMARK    3  A    between atoms: C4_4  and  C5_5 
REMARK    4  A    between atoms: C5_5  and  O1_6 
REMARK    5  A    between atoms: C5_5  and  C7_8 
REMARK    6  A    between atoms: N1_11  and  N2_13 
ROOT
HETATM    1  C3  UNL     1       9.141  23.236  -9.175  1.00  0.00     0.005 C 
HETATM    2  N1  UNL     1       9.602  24.420  -9.369  1.00  0.00    -0.311 N 
ATOM      3  H1  UNL     1      10.539  24.456  -9.770  1.00  0.00     0.186 HD
ENDROOT
BRANCH   2   4
HETATM    4  N2  UNL     1       9.033  25.640  -9.123  1.00  0.00    -0.324 N 
HETATM    5  C10 UNL     1       8.212  26.369 -10.059  1.00  0.00     0.170 C 
HETATM    6  C11 UNL     1       6.976  26.871  -9.421  1.00  0.00     0.254 C 
HETATM    7  N3  UNL     1       7.075  27.117  -8.015  1.00  0.00    -0.064 N 
HETATM    8  C12 UNL     1       8.405  27.457  -7.585  1.00  0.00     0.136 C 
ATOM      9  H32 UNL     1       6.408  27.832  -7.725  1.00  0.00     0.278 HD
ATOM     10  H31 UNL     1       6.715  26.324  -7.483  1.00  0.00     0.278 HD
HETATM   11  C13 UNL     1       8.919  28.725  -8.183  1.00  0.00     0.048 C 
HETATM   12  C14 UNL     1       8.308  27.667  -6.068  1.00  0.00     0.048 C 
HETATM   13  C15 UNL     1       9.292  26.264  -7.829  1.00  0.00     0.180 C 
ENDBRANCH   2   4
BRANCH   1  14
HETATM   14  C2  UNL     1      10.054  22.134  -9.566  1.00  0.00     0.049 C 
HETATM   15  C1  UNL     1      11.518  22.593  -9.488  1.00  0.00     0.011 C 
ENDBRANCH   1  14
BRANCH   1  16
HETATM   16  C4  UNL     1       7.799  23.066  -8.593  1.00  0.00     0.086 C 
BRANCH  16  17
HETATM   17  C5  UNL     1       6.677  22.847  -9.538  1.00  0.00     0.129 C 
BRANCH  17  18
HETATM   18  O1  UNL     1       6.485  21.518  -9.820  1.00  0.00    -0.390 OA
HETATM   19  C6  UNL     1       6.651  20.644  -8.777  1.00  0.00     0.202 C 
ENDBRANCH  17  18
BRANCH  17  20
HETATM   20  C7  UNL     1       5.436  23.658  -9.333  1.00  0.00     0.007 C 
HETATM   21  C8  UNL     1       4.184  22.899  -9.728  1.00  0.00     0.012 C 
HETATM   22  C9  UNL     1       5.257  23.945  -7.826  1.00  0.00     0.012 C 
ENDBRANCH  17  20
ENDBRANCH  16  17
ENDBRANCH   1  16
TORSDOF 6
ENDMDL
