MODEL 1
REMARK VINA RESULT: -7.641411427      0.000      0.000
REMARK  6 active torsions:
REMARK  status: ('A' for Active; 'I' for Inactive)
REMARK    1  A    between atoms: C2_2  and  C3_3 
REMARK    2  A    between atoms: C3_3  and  C4_4 
REMARK    3  A    between atoms: C4_4  and  C5_5 
REMARK    4  A    between atoms: C5_5  and  O1_6 
REMARK    5  A    between atoms: O1_6  and  C6_7 
REMARK       I    between atoms: C6_7  and  N1_9 
REMARK    6  A    between atoms: N1_9  and  C7_10 
ROOT
HETATM    1  C7  UNL     1       7.556  25.735  -9.416  1.00  0.00     0.169 C 
HETATM    2  C8  UNL     1       6.069  25.581  -9.261  1.00  0.00     0.045 C 
HETATM    3  C9  UNL     1       5.535  24.224  -9.614  1.00  0.00     0.071 C 
HETATM    4  C10 UNL     1       6.430  23.109  -9.144  1.00  0.00     0.164 C 
HETATM    5  C11 UNL     1       7.854  23.321  -9.595  1.00  0.00     0.071 C 
HETATM    6  C12 UNL     1       8.361  24.557  -8.907  1.00  0.00     0.045 C 
HETATM    7  O3  UNL     1       6.378  23.072  -7.770  1.00  0.00    -0.353 OA
HETATM    8  C13 UNL     1       5.861  21.834  -7.395  1.00  0.00     0.197 C 
HETATM    9  C14 UNL     1       6.151  20.971  -8.614  1.00  0.00     0.197 C 
HETATM   10  O4  UNL     1       5.971  21.913  -9.633  1.00  0.00    -0.353 OA
ENDROOT
BRANCH   1  11
HETATM   11  N1  UNL     1       8.058  26.890  -8.890  1.00  0.00    -0.385 NA
HETATM   12  C6  UNL     1       8.563  28.047  -8.363  1.00  0.00     0.434 C 
HETATM   13  O2  UNL     1       9.583  28.189  -7.603  1.00  0.00    -0.221 OA
BRANCH  12  14
HETATM   14  O1  UNL     1       7.855  29.239  -8.709  1.00  0.00    -0.293 OA
BRANCH  14  15
HETATM   15  C5  UNL     1       7.206  29.334  -9.943  1.00  0.00     0.182 C 
BRANCH  15  16
HETATM   16  C4  UNL     1       8.138  29.454 -11.088  1.00  0.00     0.031 C 
BRANCH  16  17
HETATM   17  C3  UNL     1       7.975  30.729 -11.832  1.00  0.00     0.028 C 
BRANCH  17  18
HETATM   18  C2  UNL     1       6.615  31.266 -11.823  1.00  0.00    -0.037 C 
HETATM   19  C1  UNL     1       6.201  32.239 -12.585  1.00  0.00     0.007 C 
ENDBRANCH  17  18
ENDBRANCH  16  17
ENDBRANCH  15  16
ENDBRANCH  14  15
ENDBRANCH  12  14
ENDBRANCH   1  11
TORSDOF 6
ENDMDL
MODEL 2
REMARK VINA RESULT: -7.578295786      2.312      6.885
REMARK  6 active torsions:
REMARK  status: ('A' for Active; 'I' for Inactive)
REMARK    1  A    between atoms: C2_2  and  C3_3 
REMARK    2  A    between atoms: C3_3  and  C4_4 
REMARK    3  A    between atoms: C4_4  and  C5_5 
REMARK    4  A    between atoms: C5_5  and  O1_6 
REMARK    5  A    between atoms: O1_6  and  C6_7 
REMARK       I    between atoms: C6_7  and  N1_9 
REMARK    6  A    between atoms: N1_9  and  C7_10 
ROOT
HETATM    1  C7  UNL     1       8.455  26.653  -8.751  1.00  0.00     0.169 C 
HETATM    2  C8  UNL     1       8.041  26.365 -10.167  1.00  0.00     0.045 C 
HETATM    3  C9  UNL     1       7.118  27.380 -10.774  1.00  0.00     0.071 C 
HETATM    4  C10 UNL     1       7.484  28.791 -10.401  1.00  0.00     0.164 C 
HETATM    5  C11 UNL     1       7.632  28.943  -8.907  1.00  0.00     0.071 C 
HETATM    6  C12 UNL     1       8.804  28.103  -8.487  1.00  0.00     0.045 C 
HETATM    7  O3  UNL     1       8.673  29.100 -11.020  1.00  0.00    -0.353 OA
HETATM    8  C13 UNL     1       8.438  30.165 -11.887  1.00  0.00     0.197 C 
HETATM    9  C14 UNL     1       7.183  30.797 -11.305  1.00  0.00     0.197 C 
HETATM   10  O4  UNL     1       6.517  29.652 -10.853  1.00  0.00    -0.353 OA
ENDROOT
BRANCH   1  11
HETATM   11  N1  UNL     1       9.456  25.852  -8.285  1.00  0.00    -0.385 NA
HETATM   12  C6  UNL     1      10.460  25.048  -7.816  1.00  0.00     0.434 C 
HETATM   13  O2  UNL     1      11.430  25.368  -7.045  1.00  0.00    -0.221 OA
BRANCH  12  14
HETATM   14  O1  UNL     1      10.409  23.688  -8.247  1.00  0.00    -0.293 OA
BRANCH  14  15
HETATM   15  C5  UNL     1      10.676  23.367  -9.581  1.00  0.00     0.182 C 
BRANCH  15  16
HETATM   16  C4  UNL     1       9.490  22.865 -10.312  1.00  0.00     0.031 C 
BRANCH  16  17
HETATM   17  C3  UNL     1       8.862  21.691  -9.654  1.00  0.00     0.028 C 
BRANCH  17  18
HETATM   18  C2  UNL     1       7.400  21.699  -9.668  1.00  0.00    -0.037 C 
HETATM   19  C1  UNL     1       6.651  20.939  -8.918  1.00  0.00     0.007 C 
ENDBRANCH  17  18
ENDBRANCH  16  17
ENDBRANCH  15  16
ENDBRANCH  14  15
ENDBRANCH  12  14
ENDBRANCH   1  11
TORSDOF 6
ENDMDL
MODEL 3
REMARK VINA RESULT: -7.288991160      2.870      5.555
REMARK  6 active torsions:
REMARK  status: ('A' for Active; 'I' for Inactive)
REMARK    1  A    between atoms: C2_2  and  C3_3 
REMARK    2  A    between atoms: C3_3  and  C4_4 
REMARK    3  A    between atoms: C4_4  and  C5_5 
REMARK    4  A    between atoms: C5_5  and  O1_6 
REMARK    5  A    between atoms: O1_6  and  C6_7 
REMARK       I    between atoms: C6_7  and  N1_9 
REMARK    6  A    between atoms: N1_9  and  C7_10 
ROOT
HETATM    1  C7  UNL     1       8.499  26.943  -6.990  1.00  0.00     0.169 C 
HETATM    2  C8  UNL     1       8.192  28.077  -6.054  1.00  0.00     0.045 C 
HETATM    3  C9  UNL     1       9.181  28.262  -4.940  1.00  0.00     0.071 C 
HETATM    4  C10 UNL     1      10.603  28.060  -5.389  1.00  0.00     0.164 C 
HETATM    5  C11 UNL     1      10.768  26.748  -6.117  1.00  0.00     0.071 C 
HETATM    6  C12 UNL     1       9.959  26.834  -7.380  1.00  0.00     0.045 C 
HETATM    7  O3  UNL     1      10.937  29.100  -6.224  1.00  0.00    -0.353 OA
HETATM    8  C13 UNL     1      11.990  29.798  -5.637  1.00  0.00     0.197 C 
HETATM    9  C14 UNL     1      12.594  28.761  -4.702  1.00  0.00     0.197 C 
HETATM   10  O4  UNL     1      11.437  28.085  -4.301  1.00  0.00    -0.353 OA
ENDROOT
BRANCH   1  11
HETATM   11  N1  UNL     1       7.726  26.917  -8.113  1.00  0.00    -0.385 NA
HETATM   12  C6  UNL     1       6.949  26.891  -9.240  1.00  0.00     0.434 C 
HETATM   13  O2  UNL     1       6.528  25.868  -9.884  1.00  0.00    -0.221 OA
BRANCH  12  14
HETATM   14  O1  UNL     1       6.568  28.168  -9.753  1.00  0.00    -0.293 OA
BRANCH  14  15
HETATM   15  C5  UNL     1       7.503  29.206  -9.811  1.00  0.00     0.182 C 
BRANCH  15  16
HETATM   16  C4  UNL     1       8.246  29.255 -11.091  1.00  0.00     0.031 C 
BRANCH  16  17
HETATM   17  C3  UNL     1       8.086  30.551 -11.800  1.00  0.00     0.028 C 
BRANCH  17  18
HETATM   18  C2  UNL     1       6.741  31.120 -11.725  1.00  0.00    -0.037 C 
HETATM   19  C1  UNL     1       6.348  32.173 -12.385  1.00  0.00     0.007 C 
ENDBRANCH  17  18
ENDBRANCH  16  17
ENDBRANCH  15  16
ENDBRANCH  14  15
ENDBRANCH  12  14
ENDBRANCH   1  11
TORSDOF 6
ENDMDL
MODEL 4
REMARK VINA RESULT: -7.287524303      1.547      2.055
REMARK  6 active torsions:
REMARK  status: ('A' for Active; 'I' for Inactive)
REMARK    1  A    between atoms: C2_2  and  C3_3 
REMARK    2  A    between atoms: C3_3  and  C4_4 
REMARK    3  A    between atoms: C4_4  and  C5_5 
REMARK    4  A    between atoms: C5_5  and  O1_6 
REMARK    5  A    between atoms: O1_6  and  C6_7 
REMARK       I    between atoms: C6_7  and  N1_9 
REMARK    6  A    between atoms: N1_9  and  C7_10 
ROOT
HETATM    1  C7  UNL     1       7.096  25.091  -8.460  1.00  0.00     0.169 C 
HETATM    2  C8  UNL     1       7.430  23.934  -9.360  1.00  0.00     0.045 C 
HETATM    3  C9  UNL     1       6.605  22.701  -9.134  1.00  0.00     0.071 C 
HETATM    4  C10 UNL     1       5.158  23.014  -8.865  1.00  0.00     0.164 C 
HETATM    5  C11 UNL     1       5.012  24.034  -7.762  1.00  0.00     0.071 C 
HETATM    6  C12 UNL     1       5.612  25.318  -8.261  1.00  0.00     0.045 C 
HETATM    7  O3  UNL     1       4.605  23.501 -10.026  1.00  0.00    -0.353 OA
HETATM    8  C13 UNL     1       3.589  22.631 -10.414  1.00  0.00     0.197 C 
HETATM    9  C14 UNL     1       3.233  21.935  -9.109  1.00  0.00     0.197 C 
HETATM   10  O4  UNL     1       4.497  21.866  -8.512  1.00  0.00    -0.353 OA
ENDROOT
BRANCH   1  11
HETATM   11  N1  UNL     1       7.693  26.266  -8.814  1.00  0.00    -0.385 NA
HETATM   12  C6  UNL     1       8.292  27.445  -9.167  1.00  0.00     0.434 C 
HETATM   13  O2  UNL     1       9.087  28.166  -8.469  1.00  0.00    -0.221 OA
BRANCH  12  14
HETATM   14  O1  UNL     1       7.984  27.921 -10.478  1.00  0.00    -0.293 OA
BRANCH  14  15
HETATM   15  C5  UNL     1       7.415  29.186 -10.647  1.00  0.00     0.182 C 
BRANCH  15  16
HETATM   16  C4  UNL     1       8.198  30.066 -11.545  1.00  0.00     0.031 C 
BRANCH  16  17
HETATM   17  C3  UNL     1       7.475  31.314 -11.901  1.00  0.00     0.028 C 
BRANCH  17  18
HETATM   18  C2  UNL     1       6.020  31.222 -11.793  1.00  0.00    -0.037 C 
HETATM   19  C1  UNL     1       5.241  32.213 -11.460  1.00  0.00     0.007 C 
ENDBRANCH  17  18
ENDBRANCH  16  17
ENDBRANCH  15  16
ENDBRANCH  14  15
ENDBRANCH  12  14
ENDBRANCH   1  11
TORSDOF 6
ENDMDL
MODEL 5
REMARK VINA RESULT: -7.146701612      3.142      5.941
REMARK  6 active torsions:
REMARK  status: ('A' for Active; 'I' for Inactive)
REMARK    1  A    between atoms: C2_2  and  C3_3 
REMARK    2  A    between atoms: C3_3  and  C4_4 
REMARK    3  A    between atoms: C4_4  and  C5_5 
REMARK    4  A    between atoms: C5_5  and  O1_6 
REMARK    5  A    between atoms: O1_6  and  C6_7 
REMARK       I    between atoms: C6_7  and  N1_9 
REMARK    6  A    between atoms: N1_9  and  C7_10 
ROOT
HETATM    1  C7  UNL     1       9.476  27.509  -7.083  1.00  0.00     0.169 C 
HETATM    2  C8  UNL     1       9.871  28.952  -6.945  1.00  0.00     0.045 C 
HETATM    3  C9  UNL     1      10.877  29.231  -5.867  1.00  0.00     0.071 C 
HETATM    4  C10 UNL     1      11.949  28.178  -5.789  1.00  0.00     0.164 C 
HETATM    5  C11 UNL     1      11.353  26.794  -5.700  1.00  0.00     0.071 C 
HETATM    6  C12 UNL     1      10.632  26.535  -6.992  1.00  0.00     0.045 C 
HETATM    7  O3  UNL     1      12.727  28.278  -6.919  1.00  0.00    -0.353 OA
HETATM    8  C13 UNL     1      14.024  28.590  -6.518  1.00  0.00     0.197 C 
HETATM    9  C14 UNL     1      14.050  28.107  -5.075  1.00  0.00     0.197 C 
HETATM   10  O4  UNL     1      12.738  28.405  -4.691  1.00  0.00    -0.353 OA
ENDROOT
BRANCH   1  11
HETATM   11  N1  UNL     1       8.735  27.234  -8.195  1.00  0.00    -0.385 NA
HETATM   12  C6  UNL     1       7.993  26.956  -9.310  1.00  0.00     0.434 C 
HETATM   13  O2  UNL     1       8.130  25.981 -10.127  1.00  0.00    -0.221 OA
BRANCH  12  14
HETATM   14  O1  UNL     1       6.938  27.878  -9.589  1.00  0.00    -0.293 OA
BRANCH  14  15
HETATM   15  C5  UNL     1       7.234  29.202  -9.919  1.00  0.00     0.182 C 
BRANCH  15  16
HETATM   16  C4  UNL     1       8.174  29.328 -11.057  1.00  0.00     0.031 C 
BRANCH  16  17
HETATM   17  C3  UNL     1       8.027  30.614 -11.786  1.00  0.00     0.028 C 
BRANCH  17  18
HETATM   18  C2  UNL     1       6.670  31.157 -11.788  1.00  0.00    -0.037 C 
HETATM   19  C1  UNL     1       6.287  32.185 -12.492  1.00  0.00     0.007 C 
ENDBRANCH  17  18
ENDBRANCH  16  17
ENDBRANCH  15  16
ENDBRANCH  14  15
ENDBRANCH  12  14
ENDBRANCH   1  11
TORSDOF 6
ENDMDL
