MODEL 1
REMARK VINA RESULT: -7.204197653      0.000      0.000
REMARK  5 active torsions:
REMARK  status: ('A' for Active; 'I' for Inactive)
REMARK    1  A    between atoms: C3_4  and  O2_5 
REMARK    2  A    between atoms: C3_4  and  C13_15 
REMARK    3  A    between atoms: O2_5  and  C4_6 
REMARK    4  A    between atoms: C4_6  and  C5_7 
REMARK    5  A    between atoms: C5_7  and  C6_8 
ROOT
HETATM    1  O2  UNL     1       6.251  27.320  -9.574  1.00  0.00    -0.366 OA
ENDROOT
BRANCH   1   2
HETATM    2  C3  UNL     1       7.228  28.203  -9.906  1.00  0.00     0.178 C 
HETATM    3  C2  UNL     1       6.584  29.515 -10.425  1.00  0.00     0.163 C 
HETATM    4  C1  UNL     1       7.731  30.094 -11.165  1.00  0.00     0.262 C 
HETATM    5  O1  UNL     1       7.859  31.291 -11.503  1.00  0.00    -0.265 OA
HETATM    6  O5  UNL     1       8.654  29.094 -11.431  1.00  0.00    -0.318 OA
HETATM    7  C14 UNL     1       8.120  27.836 -11.039  1.00  0.00     0.229 C 
BRANCH   2   8
HETATM    8  C13 UNL     1       8.053  28.611  -8.735  1.00  0.00     0.212 C 
HETATM    9  O3  UNL     1       7.477  29.233  -7.775  1.00  0.00    -0.646 OA
HETATM   10  O4  UNL     1       9.383  28.333  -8.673  1.00  0.00    -0.646 OA
ENDBRANCH   2   8
ENDBRANCH   1   2
BRANCH   1  11
HETATM   11  C4  UNL     1       6.522  26.005  -9.886  1.00  0.00     0.170 C 
BRANCH  11  12
HETATM   12  C5  UNL     1       5.619  25.071  -9.063  1.00  0.00     0.031 C 
BRANCH  12  13
HETATM   13  C6  UNL     1       6.174  23.637  -9.092  1.00  0.00    -0.013 C 
HETATM   14  C7  UNL     1       7.654  23.741  -9.060  1.00  0.00     0.005 C 
HETATM   15  C8  UNL     1       8.392  22.511  -8.618  1.00  0.00     0.000 C 
HETATM   16  C9  UNL     1       7.899  21.251  -9.278  1.00  0.00     0.000 C 
HETATM   17  C10 UNL     1       6.480  20.913  -8.900  1.00  0.00     0.000 C 
HETATM   18  C11 UNL     1       6.028  21.569  -7.644  1.00  0.00     0.000 C 
HETATM   19  C12 UNL     1       5.589  22.965  -7.880  1.00  0.00     0.005 C 
ENDBRANCH  12  13
ENDBRANCH  11  12
ENDBRANCH   1  11
TORSDOF 5
ENDMDL
MODEL 2
REMARK VINA RESULT: -7.130548054      0.965      1.898
REMARK  5 active torsions:
REMARK  status: ('A' for Active; 'I' for Inactive)
REMARK    1  A    between atoms: C3_4  and  O2_5 
REMARK    2  A    between atoms: C3_4  and  C13_15 
REMARK    3  A    between atoms: O2_5  and  C4_6 
REMARK    4  A    between atoms: C4_6  and  C5_7 
REMARK    5  A    between atoms: C5_7  and  C6_8 
ROOT
HETATM    1  O2  UNL     1       6.139  27.061  -9.380  1.00  0.00    -0.366 OA
ENDROOT
BRANCH   1   2
HETATM    2  C3  UNL     1       7.154  27.883  -9.752  1.00  0.00     0.178 C 
HETATM    3  C2  UNL     1       6.573  29.244 -10.216  1.00  0.00     0.163 C 
HETATM    4  C1  UNL     1       7.715  29.759 -11.009  1.00  0.00     0.262 C 
HETATM    5  O1  UNL     1       7.906  30.950 -11.336  1.00  0.00    -0.265 OA
HETATM    6  O5  UNL     1       8.553  28.704 -11.340  1.00  0.00    -0.318 OA
HETATM    7  C14 UNL     1       7.956  27.477 -10.937  1.00  0.00     0.229 C 
BRANCH   2   8
HETATM    8  C13 UNL     1       8.066  28.214  -8.622  1.00  0.00     0.212 C 
HETATM    9  O3  UNL     1       9.166  27.565  -8.520  1.00  0.00    -0.646 OA
HETATM   10  O4  UNL     1       7.753  29.180  -7.717  1.00  0.00    -0.646 OA
ENDBRANCH   2   8
ENDBRANCH   1   2
BRANCH   1  11
HETATM   11  C4  UNL     1       6.340  25.725  -9.650  1.00  0.00     0.170 C 
BRANCH  11  12
HETATM   12  C5  UNL     1       6.632  24.961  -8.347  1.00  0.00     0.031 C 
BRANCH  12  13
HETATM   13  C6  UNL     1       7.536  23.751  -8.634  1.00  0.00    -0.013 C 
HETATM   14  C7  UNL     1       6.689  22.714  -9.275  1.00  0.00     0.005 C 
HETATM   15  C8  UNL     1       7.417  21.658 -10.055  1.00  0.00     0.000 C 
HETATM   16  C9  UNL     1       8.601  21.087  -9.321  1.00  0.00     0.000 C 
HETATM   17  C10 UNL     1       9.688  22.104  -9.090  1.00  0.00     0.000 C 
HETATM   18  C11 UNL     1       9.608  23.276 -10.003  1.00  0.00     0.000 C 
HETATM   19  C12 UNL     1       8.626  24.278  -9.526  1.00  0.00     0.005 C 
ENDBRANCH  12  13
ENDBRANCH  11  12
ENDBRANCH   1  11
TORSDOF 5
ENDMDL
MODEL 3
REMARK VINA RESULT: -7.115855619      2.953      4.581
REMARK  5 active torsions:
REMARK  status: ('A' for Active; 'I' for Inactive)
REMARK    1  A    between atoms: C3_4  and  O2_5 
REMARK    2  A    between atoms: C3_4  and  C13_15 
REMARK    3  A    between atoms: O2_5  and  C4_6 
REMARK    4  A    between atoms: C4_6  and  C5_7 
REMARK    5  A    between atoms: C5_7  and  C6_8 
ROOT
HETATM    1  O2  UNL     1       9.309  27.268  -7.632  1.00  0.00    -0.366 OA
ENDROOT
BRANCH   1   2
HETATM    2  C3  UNL     1      10.052  27.781  -6.618  1.00  0.00     0.178 C 
HETATM    3  C2  UNL     1       9.315  27.556  -5.273  1.00  0.00     0.163 C 
HETATM    4  C1  UNL     1       9.991  28.573  -4.431  1.00  0.00     0.262 C 
HETATM    5  O1  UNL     1      10.009  28.599  -3.181  1.00  0.00    -0.265 OA
HETATM    6  O5  UNL     1      10.609  29.505  -5.250  1.00  0.00    -0.318 OA
HETATM    7  C14 UNL     1      10.260  29.254  -6.606  1.00  0.00     0.229 C 
BRANCH   2   8
HETATM    8  C13 UNL     1      11.363  27.092  -6.463  1.00  0.00     0.212 C 
HETATM    9  O3  UNL     1      11.373  25.909  -5.972  1.00  0.00    -0.646 OA
HETATM   10  O4  UNL     1      12.527  27.690  -6.834  1.00  0.00    -0.646 OA
ENDBRANCH   2   8
ENDBRANCH   1   2
BRANCH   1  11
HETATM   11  C4  UNL     1       8.049  26.840  -7.275  1.00  0.00     0.170 C 
BRANCH  11  12
HETATM   12  C5  UNL     1       7.320  26.264  -8.501  1.00  0.00     0.031 C 
BRANCH  12  13
HETATM   13  C6  UNL     1       6.825  24.838  -8.200  1.00  0.00    -0.013 C 
HETATM   14  C7  UNL     1       5.342  24.881  -8.205  1.00  0.00     0.005 C 
HETATM   15  C8  UNL     1       4.645  23.566  -8.399  1.00  0.00     0.000 C 
HETATM   16  C9  UNL     1       5.205  22.463  -7.541  1.00  0.00     0.000 C 
HETATM   17  C10 UNL     1       6.627  22.115  -7.896  1.00  0.00     0.000 C 
HETATM   18  C11 UNL     1       7.022  22.552  -9.262  1.00  0.00     0.000 C 
HETATM   19  C12 UNL     1       7.409  23.983  -9.291  1.00  0.00     0.005 C 
ENDBRANCH  12  13
ENDBRANCH  11  12
ENDBRANCH   1  11
TORSDOF 5
ENDMDL
MODEL 4
REMARK VINA RESULT: -7.105835568      2.533      4.185
REMARK  5 active torsions:
REMARK  status: ('A' for Active; 'I' for Inactive)
REMARK    1  A    between atoms: C3_4  and  O2_5 
REMARK    2  A    between atoms: C3_4  and  C13_15 
REMARK    3  A    between atoms: O2_5  and  C4_6 
REMARK    4  A    between atoms: C4_6  and  C5_7 
REMARK    5  A    between atoms: C5_7  and  C6_8 
ROOT
HETATM    1  O2  UNL     1       9.804  26.238  -7.655  1.00  0.00    -0.366 OA
ENDROOT
BRANCH   1   2
HETATM    2  C3  UNL     1       9.420  27.253  -6.839  1.00  0.00     0.178 C 
HETATM    3  C2  UNL     1      10.227  27.185  -5.516  1.00  0.00     0.163 C 
HETATM    4  C1  UNL     1       9.352  27.995  -4.634  1.00  0.00     0.262 C 
HETATM    5  O1  UNL     1       9.688  28.529  -3.555  1.00  0.00    -0.265 OA
HETATM    6  O5  UNL     1       8.087  28.073  -5.196  1.00  0.00    -0.318 OA
HETATM    7  C14 UNL     1       8.019  27.231  -6.340  1.00  0.00     0.229 C 
BRANCH   2   8
HETATM    8  C13 UNL     1       9.724  28.593  -7.411  1.00  0.00     0.212 C 
HETATM    9  O3  UNL     1       8.810  29.187  -8.085  1.00  0.00    -0.646 OA
HETATM   10  O4  UNL     1      10.935  29.186  -7.228  1.00  0.00    -0.646 OA
ENDBRANCH   2   8
ENDBRANCH   1   2
BRANCH   1  11
HETATM   11  C4  UNL     1       8.859  25.840  -8.576  1.00  0.00     0.170 C 
BRANCH  11  12
HETATM   12  C5  UNL     1       9.109  24.381  -8.993  1.00  0.00     0.031 C 
BRANCH  12  13
HETATM   13  C6  UNL     1       7.931  23.495  -8.554  1.00  0.00    -0.013 C 
HETATM   14  C7  UNL     1       6.756  24.385  -8.382  1.00  0.00     0.005 C 
HETATM   15  C8  UNL     1       5.412  23.716  -8.415  1.00  0.00     0.000 C 
HETATM   16  C9  UNL     1       5.345  22.473  -7.568  1.00  0.00     0.000 C 
HETATM   17  C10 UNL     1       6.249  21.377  -8.071  1.00  0.00     0.000 C 
HETATM   18  C11 UNL     1       6.639  21.537  -9.497  1.00  0.00     0.000 C 
HETATM   19  C12 UNL     1       7.769  22.484  -9.655  1.00  0.00     0.005 C 
ENDBRANCH  12  13
ENDBRANCH  11  12
ENDBRANCH   1  11
TORSDOF 5
ENDMDL
MODEL 5
REMARK VINA RESULT: -7.073577442      3.742      5.914
REMARK  5 active torsions:
REMARK  status: ('A' for Active; 'I' for Inactive)
REMARK    1  A    between atoms: C3_4  and  O2_5 
REMARK    2  A    between atoms: C3_4  and  C13_15 
REMARK    3  A    between atoms: O2_5  and  C4_6 
REMARK    4  A    between atoms: C4_6  and  C5_7 
REMARK    5  A    between atoms: C5_7  and  C6_8 
ROOT
HETATM    1  O2  UNL     1       5.903  21.330  -9.591  1.00  0.00    -0.366 OA
ENDROOT
BRANCH   1   2
HETATM    2  C3  UNL     1       5.253  22.366  -9.001  1.00  0.00     0.178 C 
HETATM    3  C2  UNL     1       5.795  23.705  -9.565  1.00  0.00     0.163 C 
HETATM    4  C1  UNL     1       5.360  24.635  -8.495  1.00  0.00     0.262 C 
HETATM    5  O1  UNL     1       5.254  25.876  -8.598  1.00  0.00    -0.265 OA
HETATM    6  O5  UNL     1       5.084  23.910  -7.346  1.00  0.00    -0.318 OA
HETATM    7  C14 UNL     1       5.454  22.551  -7.539  1.00  0.00     0.229 C 
BRANCH   2   8
HETATM    8  C13 UNL     1       3.796  22.376  -9.308  1.00  0.00     0.212 C 
HETATM    9  O3  UNL     1       3.429  22.660 -10.503  1.00  0.00    -0.646 OA
HETATM   10  O4  UNL     1       2.868  22.089  -8.355  1.00  0.00    -0.646 OA
ENDBRANCH   2   8
ENDBRANCH   1   2
BRANCH   1  11
HETATM   11  C4  UNL     1       7.195  21.127  -9.155  1.00  0.00     0.170 C 
BRANCH  11  12
HETATM   12  C5  UNL     1       8.192  21.549 -10.247  1.00  0.00     0.031 C 
BRANCH  12  13
HETATM   13  C6  UNL     1       9.466  22.127  -9.606  1.00  0.00    -0.013 C 
HETATM   14  C7  UNL     1       9.486  23.580  -9.908  1.00  0.00     0.005 C 
HETATM   15  C8  UNL     1      10.353  24.425  -9.021  1.00  0.00     0.000 C 
HETATM   16  C9  UNL     1      11.724  23.845  -8.801  1.00  0.00     0.000 C 
HETATM   17  C10 UNL     1      11.690  22.541  -8.047  1.00  0.00     0.000 C 
HETATM   18  C11 UNL     1      10.434  22.332  -7.279  1.00  0.00     0.000 C 
HETATM   19  C12 UNL     1       9.343  21.816  -8.140  1.00  0.00     0.005 C 
ENDBRANCH  12  13
ENDBRANCH  11  12
ENDBRANCH   1  11
TORSDOF 5
ENDMDL
