MODEL 1
REMARK VINA RESULT: -7.507530051      0.000      0.000
REMARK  5 active torsions:
REMARK  status: ('A' for Active; 'I' for Inactive)
REMARK    1  A    between atoms: C2_9  and  C3_10 
REMARK    2  A    between atoms: N5_11  and  N6_13 
REMARK       I    between atoms: N6_13  and  C4_15 
REMARK    3  A    between atoms: C4_15  and  C5_17 
REMARK    4  A    between atoms: C6_20  and  N8_21 
REMARK    5  A    between atoms: C9_30  and  N11_31 
ROOT
HETATM    1  C5  UNL     1      22.217 -26.277  27.028  1.00  0.00     0.131 C 
HETATM    2  N7  UNL     1      22.865 -25.107  26.909  1.00  0.00    -0.335 N 
ATOM      3  H7  UNL     1      22.357 -24.386  26.399  1.00  0.00     0.168 HD
HETATM    4  C6  UNL     1      24.088 -24.733  27.358  1.00  0.00     0.130 C 
HETATM    5  C7  UNL     1      25.096 -25.560  27.797  1.00  0.00     0.122 A 
HETATM    6  N9  UNL     1      26.320 -25.674  28.322  1.00  0.00    -0.294 N 
ATOM      7  H9  UNL     1      26.998 -24.967  28.605  1.00  0.00     0.187 HD
HETATM    8  N10 UNL     1      26.375 -27.014  28.357  1.00  0.00    -0.296 N 
ATOM      9  H10 UNL     1      27.052 -27.716  28.653  1.00  0.00     0.187 HD
HETATM   10  C8  UNL     1      25.139 -27.019  27.828  1.00  0.00     0.110 A 
HETATM   11  C9  UNL     1      24.122 -27.853  27.401  1.00  0.00     0.104 C 
HETATM   12  C10 UNL     1      22.808 -27.533  27.120  1.00  0.00     0.109 C 
HETATM   13  N13 UNL     1      21.984 -28.664  26.902  1.00  0.00    -0.097 NA
ENDROOT
BRANCH   1  14
HETATM   14  C4  UNL     1      20.752 -26.267  27.064  1.00  0.00     0.288 C 
HETATM   15  N6  UNL     1      19.983 -26.590  28.195  1.00  0.00    -0.265 N 
ATOM     16  H6  UNL     1      20.450 -26.853  29.062  1.00  0.00     0.190 HD
HETATM   17  O1  UNL     1      20.120 -25.943  25.999  1.00  0.00    -0.264 OA
BRANCH  15  18
HETATM   18  N5  UNL     1      18.601 -26.556  28.147  1.00  0.00    -0.307 N 
HETATM   19  C3  UNL     1      17.867 -27.509  27.736  1.00  0.00     0.143 C 
ATOM     20  H5  UNL     1      18.137 -25.706  28.465  1.00  0.00     0.186 HD
BRANCH  19  21
HETATM   21  C2  UNL     1      18.432 -28.784  27.252  1.00  0.00     0.136 A 
HETATM   22  N4  UNL     1      18.810 -28.921  25.971  1.00  0.00    -0.279 N 
HETATM   23  N3  UNL     1      19.310 -30.094  25.598  1.00  0.00    -0.227 N 
ATOM     24  H4  UNL     1      18.717 -28.152  25.307  1.00  0.00     0.189 HD
HETATM   25  N2  UNL     1      19.447 -31.110  26.429  1.00  0.00    -0.223 N 
ATOM     26  H3  UNL     1      19.600 -30.214  24.628  1.00  0.00     0.210 HD
HETATM   27  N1  UNL     1      19.093 -31.038  27.705  1.00  0.00    -0.244 N 
ATOM     28  H2  UNL     1      19.841 -31.983  26.077  1.00  0.00     0.210 HD
HETATM   29  C1  UNL     1      19.246 -32.159  28.617  1.00  0.00     0.183 C 
HETATM   30  C11 UNL     1      18.581 -29.854  28.110  1.00  0.00     0.292 A 
HETATM   31  O2  UNL     1      18.224 -29.702  29.291  1.00  0.00    -0.264 OA
ENDBRANCH  19  21
ENDBRANCH  15  18
ENDBRANCH   1  14
BRANCH   4  32
HETATM   32  N8  UNL     1      24.379 -23.483  27.394  1.00  0.00    -0.384 N 
ATOM     33  H82 UNL     1      23.838 -22.948  28.074  1.00  0.00     0.157 HD
ATOM     34  H81 UNL     1      25.100 -23.128  26.766  1.00  0.00     0.157 HD
ENDBRANCH   4  32
BRANCH  11  35
HETATM   35  N11 UNL     1      24.488 -29.213  27.233  1.00  0.00    -0.303 N 
HETATM   36  N12 UNL     1      24.618 -29.963  28.238  1.00  0.00    -0.345 N 
ATOM     37 2H12 UNL     1      24.456 -29.575  29.167  1.00  0.00     0.176 HD
ATOM     38 1H12 UNL     1      24.881 -30.941  28.118  1.00  0.00     0.176 HD
ATOM     39  H11 UNL     1      24.646 -29.586  26.297  1.00  0.00     0.186 HD
ENDBRANCH  11  35
TORSDOF 5
ENDMDL
MODEL 2
REMARK VINA RESULT: -7.287000977      1.230      1.507
REMARK  5 active torsions:
REMARK  status: ('A' for Active; 'I' for Inactive)
REMARK    1  A    between atoms: C2_9  and  C3_10 
REMARK    2  A    between atoms: N5_11  and  N6_13 
REMARK       I    between atoms: N6_13  and  C4_15 
REMARK    3  A    between atoms: C4_15  and  C5_17 
REMARK    4  A    between atoms: C6_20  and  N8_21 
REMARK    5  A    between atoms: C9_30  and  N11_31 
ROOT
HETATM    1  C5  UNL     1      22.160 -26.128  26.996  1.00  0.00     0.131 C 
HETATM    2  N7  UNL     1      22.908 -25.025  26.834  1.00  0.00    -0.335 N 
ATOM      3  H7  UNL     1      22.454 -24.271  26.319  1.00  0.00     0.168 HD
HETATM    4  C6  UNL     1      24.171 -24.754  27.244  1.00  0.00     0.130 C 
HETATM    5  C7  UNL     1      25.111 -25.659  27.679  1.00  0.00     0.122 A 
HETATM    6  N9  UNL     1      26.333 -25.872  28.177  1.00  0.00    -0.294 N 
ATOM      7  H9  UNL     1      27.079 -25.223  28.428  1.00  0.00     0.187 HD
HETATM    8  N10 UNL     1      26.267 -27.210  28.243  1.00  0.00    -0.296 N 
ATOM      9  H10 UNL     1      26.886 -27.964  28.540  1.00  0.00     0.187 HD
HETATM   10  C8  UNL     1      25.023 -27.114  27.744  1.00  0.00     0.110 A 
HETATM   11  C9  UNL     1      23.924 -27.862  27.361  1.00  0.00     0.104 C 
HETATM   12  C10 UNL     1      22.637 -27.430  27.104  1.00  0.00     0.109 C 
HETATM   13  N13 UNL     1      21.710 -28.486  26.933  1.00  0.00    -0.097 NA
ENDROOT
BRANCH   1  14
HETATM   14  C4  UNL     1      20.704 -25.984  27.067  1.00  0.00     0.288 C 
HETATM   15  N6  UNL     1      19.912 -26.426  28.141  1.00  0.00    -0.265 N 
ATOM     16  H6  UNL     1      20.356 -26.882  28.938  1.00  0.00     0.190 HD
HETATM   17  O1  UNL     1      20.100 -25.419  26.090  1.00  0.00    -0.264 OA
BRANCH  15  18
HETATM   18  N5  UNL     1      18.540 -26.253  28.132  1.00  0.00    -0.307 N 
HETATM   19  C3  UNL     1      17.694 -27.184  27.959  1.00  0.00     0.143 C 
ATOM     20  H5  UNL     1      18.182 -25.309  28.274  1.00  0.00     0.186 HD
BRANCH  19  21
HETATM   21  C2  UNL     1      18.102 -28.587  27.744  1.00  0.00     0.136 A 
HETATM   22  N4  UNL     1      18.317 -29.403  28.788  1.00  0.00    -0.279 N 
HETATM   23  N3  UNL     1      18.684 -30.653  28.528  1.00  0.00    -0.227 N 
ATOM     24  H4  UNL     1      18.204 -29.075  29.747  1.00  0.00     0.189 HD
HETATM   25  N2  UNL     1      18.838 -31.113  27.300  1.00  0.00    -0.223 N 
ATOM     26  H3  UNL     1      18.852 -31.284  29.310  1.00  0.00     0.210 HD
HETATM   27  N1  UNL     1      18.640 -30.357  26.228  1.00  0.00    -0.244 N 
ATOM     28  H2  UNL     1      19.120 -32.085  27.172  1.00  0.00     0.210 HD
HETATM   29  C1  UNL     1      18.812 -30.867  24.878  1.00  0.00     0.183 C 
HETATM   30  C11 UNL     1      18.268 -29.079  26.466  1.00  0.00     0.292 A 
HETATM   31  O2  UNL     1      18.062 -28.305  25.516  1.00  0.00    -0.264 OA
ENDBRANCH  19  21
ENDBRANCH  15  18
ENDBRANCH   1  14
BRANCH   4  32
HETATM   32  N8  UNL     1      24.574 -23.535  27.244  1.00  0.00    -0.384 N 
ATOM     33  H82 UNL     1      23.846 -22.854  27.026  1.00  0.00     0.157 HD
ATOM     34  H81 UNL     1      25.553 -23.341  27.452  1.00  0.00     0.157 HD
ENDBRANCH   4  32
BRANCH  11  35
HETATM   35  N11 UNL     1      24.161 -29.253  27.218  1.00  0.00    -0.303 N 
HETATM   36  N12 UNL     1      24.151 -30.005  28.229  1.00  0.00    -0.345 N 
ATOM     37 2H12 UNL     1      23.970 -29.597  29.146  1.00  0.00     0.176 HD
ATOM     38 1H12 UNL     1      24.322 -31.006  28.126  1.00  0.00     0.176 HD
ATOM     39  H11 UNL     1      24.341 -29.645  26.294  1.00  0.00     0.186 HD
ENDBRANCH  11  35
TORSDOF 5
ENDMDL
MODEL 3
REMARK VINA RESULT: -7.227553322      4.387      6.719
REMARK  5 active torsions:
REMARK  status: ('A' for Active; 'I' for Inactive)
REMARK    1  A    between atoms: C2_9  and  C3_10 
REMARK    2  A    between atoms: N5_11  and  N6_13 
REMARK       I    between atoms: N6_13  and  C4_15 
REMARK    3  A    between atoms: C4_15  and  C5_17 
REMARK    4  A    between atoms: C6_20  and  N8_21 
REMARK    5  A    between atoms: C9_30  and  N11_31 
ROOT
HETATM    1  C5  UNL     1      16.346 -27.338  27.290  1.00  0.00     0.131 C 
HETATM    2  N7  UNL     1      15.386 -26.707  27.985  1.00  0.00    -0.335 N 
ATOM      3  H7  UNL     1      14.750 -27.322  28.492  1.00  0.00     0.168 HD
HETATM    4  C6  UNL     1      15.127 -25.384  28.121  1.00  0.00     0.130 C 
HETATM    5  C7  UNL     1      15.611 -24.362  27.336  1.00  0.00     0.122 A 
HETATM    6  N9  UNL     1      15.686 -23.047  27.108  1.00  0.00    -0.294 N 
ATOM      7  H9  UNL     1      15.285 -22.255  27.609  1.00  0.00     0.187 HD
HETATM    8  N10 UNL     1      16.456 -23.101  26.012  1.00  0.00    -0.296 N 
ATOM      9  H10 UNL     1      16.866 -22.427  25.365  1.00  0.00     0.187 HD
HETATM   10  C8  UNL     1      16.449 -24.439  26.144  1.00  0.00     0.110 A 
HETATM   11  C9  UNL     1      16.921 -25.609  25.577  1.00  0.00     0.104 C 
HETATM   12  C10 UNL     1      16.942 -26.880  26.120  1.00  0.00     0.109 C 
HETATM   13  N13 UNL     1      17.680 -27.811  25.350  1.00  0.00    -0.097 NA
ENDROOT
BRANCH   1  14
HETATM   14  C4  UNL     1      16.832 -28.630  27.779  1.00  0.00     0.288 C 
HETATM   15  N6  UNL     1      18.102 -28.842  28.341  1.00  0.00    -0.265 N 
ATOM     16  H6  UNL     1      18.751 -28.059  28.427  1.00  0.00     0.190 HD
HETATM   17  O1  UNL     1      16.055 -29.645  27.693  1.00  0.00    -0.264 OA
BRANCH  15  18
HETATM   18  N5  UNL     1      18.487 -30.096  28.779  1.00  0.00    -0.307 N 
HETATM   19  C3  UNL     1      18.974 -31.005  28.037  1.00  0.00     0.143 C 
ATOM     20  H5  UNL     1      18.370 -30.308  29.770  1.00  0.00     0.186 HD
BRANCH  19  21
HETATM   21  C2  UNL     1      19.186 -30.807  26.589  1.00  0.00     0.136 A 
HETATM   22  N4  UNL     1      18.230 -31.143  25.707  1.00  0.00    -0.279 N 
HETATM   23  N3  UNL     1      18.482 -30.942  24.419  1.00  0.00    -0.227 N 
ATOM     24  H4  UNL     1      17.342 -31.539  26.016  1.00  0.00     0.189 HD
HETATM   25  N2  UNL     1      19.619 -30.431  23.983  1.00  0.00    -0.223 N 
ATOM     26  H3  UNL     1      17.767 -31.193  23.737  1.00  0.00     0.210 HD
HETATM   27  N1  UNL     1      20.600 -30.079  24.803  1.00  0.00    -0.244 N 
ATOM     28  H2  UNL     1      19.746 -30.301  22.979  1.00  0.00     0.210 HD
HETATM   29  C1  UNL     1      21.850 -29.516  24.319  1.00  0.00     0.183 C 
HETATM   30  C11 UNL     1      20.368 -30.275  26.121  1.00  0.00     0.292 A 
HETATM   31  O2  UNL     1      21.237 -29.971  26.956  1.00  0.00    -0.264 OA
ENDBRANCH  19  21
ENDBRANCH  15  18
ENDBRANCH   1  14
BRANCH   4  32
HETATM   32  N8  UNL     1      14.352 -24.998  29.069  1.00  0.00    -0.384 N 
ATOM     33  H82 UNL     1      14.457 -25.527  29.936  1.00  0.00     0.157 HD
ATOM     34  H81 UNL     1      13.712 -24.223  28.897  1.00  0.00     0.157 HD
ENDBRANCH   4  32
BRANCH  11  35
HETATM   35  N11 UNL     1      17.450 -25.475  24.269  1.00  0.00    -0.303 N 
HETATM   36  N12 UNL     1      16.677 -25.354  23.281  1.00  0.00    -0.345 N 
ATOM     37 2H12 UNL     1      15.670 -25.355  23.441  1.00  0.00     0.176 HD
ATOM     38 1H12 UNL     1      17.058 -25.258  22.340  1.00  0.00     0.176 HD
ATOM     39  H11 UNL     1      18.460 -25.476  24.126  1.00  0.00     0.186 HD
ENDBRANCH  11  35
TORSDOF 5
ENDMDL
MODEL 4
REMARK VINA RESULT: -7.136897950      2.631      4.225
REMARK  5 active torsions:
REMARK  status: ('A' for Active; 'I' for Inactive)
REMARK    1  A    between atoms: C2_9  and  C3_10 
REMARK    2  A    between atoms: N5_11  and  N6_13 
REMARK       I    between atoms: N6_13  and  C4_15 
REMARK    3  A    between atoms: C4_15  and  C5_17 
REMARK    4  A    between atoms: C6_20  and  N8_21 
REMARK    5  A    between atoms: C9_30  and  N11_31 
ROOT
HETATM    1  C5  UNL     1      21.046 -30.229  26.710  1.00  0.00     0.131 C 
HETATM    2  N7  UNL     1      21.576 -29.515  25.703  1.00  0.00    -0.335 N 
ATOM      3  H7  UNL     1      21.082 -29.594  24.815  1.00  0.00     0.168 HD
HETATM    4  C6  UNL     1      22.663 -28.706  25.680  1.00  0.00     0.130 C 
HETATM    5  C7  UNL     1      23.670 -28.647  26.616  1.00  0.00     0.122 A 
HETATM    6  N9  UNL     1      24.798 -28.063  27.030  1.00  0.00    -0.294 N 
ATOM      7  H9  UNL     1      25.342 -27.295  26.635  1.00  0.00     0.187 HD
HETATM    8  N10 UNL     1      24.990 -28.806  28.130  1.00  0.00    -0.296 N 
ATOM      9  H10 UNL     1      25.682 -28.852  28.877  1.00  0.00     0.187 HD
HETATM   10  C8  UNL     1      23.864 -29.465  27.808  1.00  0.00     0.110 A 
HETATM   11  C9  UNL     1      23.025 -30.486  28.217  1.00  0.00     0.104 C 
HETATM   12  C10 UNL     1      21.746 -30.775  27.780  1.00  0.00     0.109 C 
HETATM   13  N13 UNL     1      21.094 -31.766  28.554  1.00  0.00    -0.097 NA
ENDROOT
BRANCH   1  14
HETATM   14  C4  UNL     1      19.602 -30.478  26.710  1.00  0.00     0.288 C 
HETATM   15  N6  UNL     1      18.719 -30.036  27.709  1.00  0.00    -0.265 N 
ATOM     16  H6  UNL     1      19.081 -29.503  28.500  1.00  0.00     0.190 HD
HETATM   17  O1  UNL     1      19.100 -31.142  25.737  1.00  0.00    -0.264 OA
BRANCH  15  18
HETATM   18  N5  UNL     1      17.366 -30.312  27.636  1.00  0.00    -0.307 N 
HETATM   19  C3  UNL     1      16.450 -29.434  27.572  1.00  0.00     0.143 C 
ATOM     20  H5  UNL     1      17.083 -31.292  27.633  1.00  0.00     0.186 HD
BRANCH  19  21
HETATM   21  C2  UNL     1      16.747 -27.988  27.570  1.00  0.00     0.136 A 
HETATM   22  N4  UNL     1      16.500 -27.239  28.658  1.00  0.00    -0.279 N 
HETATM   23  N3  UNL     1      16.788 -25.944  28.591  1.00  0.00    -0.227 N 
ATOM     24  H4  UNL     1      16.106 -27.650  29.504  1.00  0.00     0.189 HD
HETATM   25  N2  UNL     1      17.300 -25.378  27.515  1.00  0.00    -0.223 N 
ATOM     26  H3  UNL     1      16.605 -25.362  29.408  1.00  0.00     0.210 HD
HETATM   27  N1  UNL     1      17.566 -26.063  26.410  1.00  0.00    -0.244 N 
ATOM     28  H2  UNL     1      17.499 -24.378  27.533  1.00  0.00     0.210 HD
HETATM   29  C1  UNL     1      18.130 -25.437  25.227  1.00  0.00     0.183 C 
HETATM   30  C11 UNL     1      17.281 -27.384  26.451  1.00  0.00     0.292 A 
HETATM   31  O2  UNL     1      17.500 -28.099  25.458  1.00  0.00    -0.264 OA
ENDBRANCH  19  21
ENDBRANCH  15  18
ENDBRANCH   1  14
BRANCH   4  32
HETATM   32  N8  UNL     1      22.808 -27.892  24.698  1.00  0.00    -0.384 N 
ATOM     33  H82 UNL     1      22.767 -26.907  24.962  1.00  0.00     0.157 HD
ATOM     34  H81 UNL     1      22.948 -28.271  23.761  1.00  0.00     0.157 HD
ENDBRANCH   4  32
BRANCH  11  35
HETATM   35  N11 UNL     1      23.556 -31.341  29.216  1.00  0.00    -0.303 N 
HETATM   36  N12 UNL     1      23.233 -31.182  30.424  1.00  0.00    -0.345 N 
ATOM     37 2H12 UNL     1      22.586 -30.432  30.667  1.00  0.00     0.176 HD
ATOM     38 1H12 UNL     1      23.616 -31.797  31.143  1.00  0.00     0.176 HD
ATOM     39  H11 UNL     1      24.202 -32.086  28.957  1.00  0.00     0.186 HD
ENDBRANCH  11  35
TORSDOF 5
ENDMDL
MODEL 5
REMARK VINA RESULT: -7.136599906      5.303      7.605
REMARK  5 active torsions:
REMARK  status: ('A' for Active; 'I' for Inactive)
REMARK    1  A    between atoms: C2_9  and  C3_10 
REMARK    2  A    between atoms: N5_11  and  N6_13 
REMARK       I    between atoms: N6_13  and  C4_15 
REMARK    3  A    between atoms: C4_15  and  C5_17 
REMARK    4  A    between atoms: C6_20  and  N8_21 
REMARK    5  A    between atoms: C9_30  and  N11_31 
ROOT
HETATM    1  C5  UNL     1      18.665 -30.650  25.092  1.00  0.00     0.131 C 
HETATM    2  N7  UNL     1      18.517 -31.644  25.982  1.00  0.00    -0.335 N 
ATOM      3  H7  UNL     1      18.405 -32.572  25.574  1.00  0.00     0.168 HD
HETATM    4  C6  UNL     1      18.492 -31.612  27.337  1.00  0.00     0.130 C 
HETATM    5  C7  UNL     1      18.319 -30.504  28.135  1.00  0.00     0.122 A 
HETATM    6  N9  UNL     1      18.269 -29.993  29.369  1.00  0.00    -0.294 N 
ATOM      7  H9  UNL     1      18.381 -30.432  30.282  1.00  0.00     0.187 HD
HETATM    8  N10 UNL     1      18.024 -28.720  29.024  1.00  0.00    -0.296 N 
ATOM      9  H10 UNL     1      17.880 -27.839  29.516  1.00  0.00     0.187 HD
HETATM   10  C8  UNL     1      18.052 -29.124  27.743  1.00  0.00     0.110 A 
HETATM   11  C9  UNL     1      17.925 -28.677  26.440  1.00  0.00     0.104 C 
HETATM   12  C10 UNL     1      18.269 -29.329  25.270  1.00  0.00     0.109 C 
HETATM   13  N13 UNL     1      18.194 -28.504  24.121  1.00  0.00    -0.097 NA
ENDROOT
BRANCH   1  14
HETATM   14  C4  UNL     1      19.295 -30.949  23.804  1.00  0.00     0.288 C 
HETATM   15  N6  UNL     1      18.611 -31.439  22.679  1.00  0.00    -0.265 N 
ATOM     16  H6  UNL     1      17.606 -31.606  22.735  1.00  0.00     0.190 HD
HETATM   17  O1  UNL     1      20.555 -30.755  23.683  1.00  0.00    -0.264 OA
BRANCH  15  18
HETATM   18  N5  UNL     1      19.280 -31.697  21.496  1.00  0.00    -0.307 N 
HETATM   19  C3  UNL     1      19.612 -30.814  20.645  1.00  0.00     0.143 C 
ATOM     20  H5  UNL     1      19.524 -32.665  21.292  1.00  0.00     0.186 HD
BRANCH  19  21
HETATM   21  C2  UNL     1      19.308 -29.382  20.838  1.00  0.00     0.136 A 
HETATM   22  N4  UNL     1      20.257 -28.535  21.270  1.00  0.00    -0.279 N 
HETATM   23  N3  UNL     1      19.920 -27.260  21.425  1.00  0.00    -0.227 N 
ATOM     24  H4  UNL     1      21.203 -28.859  21.471  1.00  0.00     0.189 HD
HETATM   25  N2  UNL     1      18.707 -26.804  21.172  1.00  0.00    -0.223 N 
ATOM     26  H3  UNL     1      20.628 -26.604  21.753  1.00  0.00     0.210 HD
HETATM   27  N1  UNL     1      17.728 -27.589  20.744  1.00  0.00    -0.244 N 
ATOM     28  H2  UNL     1      18.516 -25.811  21.311  1.00  0.00     0.210 HD
HETATM   29  C1  UNL     1      16.394 -27.084  20.467  1.00  0.00     0.183 C 
HETATM   30  C11 UNL     1      18.045 -28.893  20.578  1.00  0.00     0.292 A 
HETATM   31  O2  UNL     1      17.184 -29.697  20.180  1.00  0.00    -0.264 OA
ENDBRANCH  19  21
ENDBRANCH  15  18
ENDBRANCH   1  14
BRANCH   4  32
HETATM   32  N8  UNL     1      18.644 -32.709  27.986  1.00  0.00    -0.384 N 
ATOM     33  H82 UNL     1      17.799 -33.037  28.456  1.00  0.00     0.157 HD
ATOM     34  H81 UNL     1      19.560 -33.158  27.986  1.00  0.00     0.157 HD
ENDBRANCH   4  32
BRANCH  11  35
HETATM   35  N11 UNL     1      17.370 -27.381  26.297  1.00  0.00    -0.303 N 
HETATM   36  N12 UNL     1      16.122 -27.214  26.369  1.00  0.00    -0.345 N 
ATOM     37 2H12 UNL     1      15.525 -28.025  26.530  1.00  0.00     0.176 HD
ATOM     38 1H12 UNL     1      15.722 -26.281  26.266  1.00  0.00     0.176 HD
ATOM     39  H11 UNL     1      17.981 -26.580  26.137  1.00  0.00     0.186 HD
ENDBRANCH  11  35
TORSDOF 5
ENDMDL
