MODEL 1
REMARK VINA RESULT: -9.689447445      0.000      0.000
REMARK  5 active torsions:
REMARK  status: ('A' for Active; 'I' for Inactive)
REMARK    1  A    between atoms: C2_3  and  C3_4 
REMARK       I    between atoms: C3_4  and  N2_6 
REMARK    2  A    between atoms: N2_6  and  C4_8 
REMARK    3  A    between atoms: C8_13  and  C9_14 
REMARK       I    between atoms: C9_14  and  N3_16 
REMARK    4  A    between atoms: N3_16  and  C10_18 
REMARK    5  A    between atoms: C19_31  and  O3_32 
ROOT
HETATM    1  C4  UNL     1       2.959  31.681  38.015  1.00  0.00     0.036 A 
HETATM    2  C5  UNL     1       3.228  31.055  39.183  1.00  0.00     0.031 A 
HETATM    3  C6  UNL     1       2.888  31.597  40.436  1.00  0.00     0.027 A 
HETATM    4  C7  UNL     1       2.249  32.822  40.465  1.00  0.00     0.050 A 
HETATM    5 CL1  UNL     1       1.803  33.537  42.017  1.00  0.00    -0.083 Cl
HETATM    6  C8  UNL     1       1.964  33.477  39.307  1.00  0.00     0.056 A 
HETATM    7  C16 UNL     1       2.307  32.928  38.098  1.00  0.00     0.048 A 
ENDROOT
BRANCH   1   8
HETATM    8  N2  UNL     1       3.271  31.169  36.749  1.00  0.00    -0.323 N 
HETATM    9  C3  UNL     1       2.619  30.131  36.063  1.00  0.00     0.258 C 
HETATM   10  O1  UNL     1       1.626  29.513  36.532  1.00  0.00    -0.267 OA
ATOM     11  H2  UNL     1       4.062  31.600  36.270  1.00  0.00     0.169 HD
BRANCH   9  12
HETATM   12  C2  UNL     1       3.058  29.681  34.719  1.00  0.00     0.059 A 
HETATM   13  C1  UNL     1       4.398  29.477  34.446  1.00  0.00     0.082 A 
HETATM   14  N1  UNL     1       5.346  29.706  35.478  1.00  0.00    -0.100 NA
HETATM   15  C20 UNL     1       4.838  29.064  33.217  1.00  0.00     0.070 A 
HETATM   16  C19 UNL     1       3.954  28.832  32.195  1.00  0.00     0.102 A 
HETATM   17 BR2  UNL     1       6.720  28.808  32.939  1.00  0.00    -0.046 Br
HETATM   18  C18 UNL     1       2.615  29.027  32.437  1.00  0.00     0.046 A 
HETATM   19  C17 UNL     1       2.182  29.447  33.691  1.00  0.00     0.041 A 
HETATM   20 BR1  UNL     1       1.384  28.708  31.028  1.00  0.00    -0.048 Br
BRANCH  16  21
HETATM   21  O3  UNL     1       4.442  28.413  30.965  1.00  0.00    -0.358 OA
ATOM     22  H3  UNL     1       4.222  28.848  30.150  1.00  0.00     0.217 HD
ENDBRANCH  16  21
ENDBRANCH   9  12
ENDBRANCH   1   8
BRANCH   6  23
HETATM   23  C9  UNL     1       1.276  34.791  39.393  1.00  0.00     0.258 C 
HETATM   24  O2  UNL     1       0.339  34.909  40.214  1.00  0.00    -0.267 OA
HETATM   25  N3  UNL     1       1.717  35.810  38.556  1.00  0.00    -0.320 N 
ATOM     26  H3  UNL     1       2.491  35.560  37.940  1.00  0.00     0.169 HD
BRANCH  25  27
HETATM   27  C10 UNL     1       1.255  37.132  38.430  1.00  0.00     0.075 A 
HETATM   28  C11 UNL     1      -0.015  37.469  38.043  1.00  0.00     0.036 A 
HETATM   29  C12 UNL     1      -0.407  38.818  37.938  1.00  0.00     0.046 A 
HETATM   30  C13 UNL     1       0.453  39.848  38.216  1.00  0.00     0.141 A 
HETATM   31  F1  UNL     1       0.031  41.129  38.101  1.00  0.00    -0.204 F 
HETATM   32  C14 UNL     1       1.732  39.521  38.607  1.00  0.00     0.113 A 
HETATM   33 CL2  UNL     1       2.862  40.811  38.972  1.00  0.00    -0.078 Cl
HETATM   34  C15 UNL     1       2.113  38.203  38.708  1.00  0.00     0.167 A 
HETATM   35  F2  UNL     1       3.371  37.896  39.092  1.00  0.00    -0.202 F 
ENDBRANCH  25  27
ENDBRANCH   6  23
TORSDOF 5
ENDMDL
MODEL 2
REMARK VINA RESULT: -9.409918766      4.232      5.185
REMARK  5 active torsions:
REMARK  status: ('A' for Active; 'I' for Inactive)
REMARK    1  A    between atoms: C2_3  and  C3_4 
REMARK       I    between atoms: C3_4  and  N2_6 
REMARK    2  A    between atoms: N2_6  and  C4_8 
REMARK    3  A    between atoms: C8_13  and  C9_14 
REMARK       I    between atoms: C9_14  and  N3_16 
REMARK    4  A    between atoms: N3_16  and  C10_18 
REMARK    5  A    between atoms: C19_31  and  O3_32 
ROOT
HETATM    1  C4  UNL     1      -0.045  31.133  38.200  1.00  0.00     0.036 A 
HETATM    2  C5  UNL     1      -0.825  31.272  37.104  1.00  0.00     0.031 A 
HETATM    3  C6  UNL     1      -1.157  32.525  36.557  1.00  0.00     0.027 A 
HETATM    4  C7  UNL     1      -0.659  33.658  37.171  1.00  0.00     0.050 A 
HETATM    5 CL1  UNL     1      -1.051  35.250  36.516  1.00  0.00    -0.083 Cl
HETATM    6  C8  UNL     1       0.128  33.551  38.276  1.00  0.00     0.056 A 
HETATM    7  C16 UNL     1       0.437  32.319  38.791  1.00  0.00     0.048 A 
ENDROOT
BRANCH   1   8
HETATM    8  N2  UNL     1       0.317  29.905  38.768  1.00  0.00    -0.323 N 
HETATM    9  C3  UNL     1       0.971  28.833  38.138  1.00  0.00     0.258 C 
HETATM   10  O1  UNL     1       1.329  28.859  36.930  1.00  0.00    -0.267 OA
ATOM     11  H2  UNL     1       0.078  29.774  39.751  1.00  0.00     0.169 HD
BRANCH   9  12
HETATM   12  C2  UNL     1       1.294  27.577  38.859  1.00  0.00     0.059 A 
HETATM   13  C1  UNL     1       2.414  27.496  39.667  1.00  0.00     0.082 A 
HETATM   14  N1  UNL     1       3.248  28.638  39.793  1.00  0.00    -0.100 NA
HETATM   15  C20 UNL     1       2.742  26.353  40.346  1.00  0.00     0.070 A 
HETATM   16  C19 UNL     1       1.962  25.230  40.251  1.00  0.00     0.102 A 
HETATM   17 BR2  UNL     1       4.318  26.342  41.443  1.00  0.00    -0.046 Br
HETATM   18  C18 UNL     1       0.843  25.281  39.455  1.00  0.00     0.046 A 
HETATM   19  C17 UNL     1       0.522  26.449  38.770  1.00  0.00     0.041 A 
HETATM   20 BR1  UNL     1      -0.243  23.731  39.318  1.00  0.00    -0.048 Br
BRANCH  16  21
HETATM   21  O3  UNL     1       2.331  24.093  40.957  1.00  0.00    -0.358 OA
ATOM     22  H3  UNL     1       3.238  23.851  41.105  1.00  0.00     0.217 HD
ENDBRANCH  16  21
ENDBRANCH   9  12
ENDBRANCH   1   8
BRANCH   6  23
HETATM   23  C9  UNL     1       0.637  34.800  38.900  1.00  0.00     0.258 C 
HETATM   24  O2  UNL     1       0.567  34.905  40.144  1.00  0.00    -0.267 OA
HETATM   25  N3  UNL     1       1.160  35.777  38.061  1.00  0.00    -0.320 N 
ATOM     26  H3  UNL     1       1.148  35.547  37.067  1.00  0.00     0.169 HD
BRANCH  25  27
HETATM   27  C10 UNL     1       1.703  37.036  38.376  1.00  0.00     0.075 A 
HETATM   28  C11 UNL     1       3.036  37.266  38.589  1.00  0.00     0.036 A 
HETATM   29  C12 UNL     1       3.508  38.556  38.902  1.00  0.00     0.046 A 
HETATM   30  C13 UNL     1       2.666  39.632  39.006  1.00  0.00     0.141 A 
HETATM   31  F1  UNL     1       3.165  40.853  39.309  1.00  0.00    -0.204 F 
HETATM   32  C14 UNL     1       1.323  39.413  38.794  1.00  0.00     0.113 A 
HETATM   33 CL2  UNL     1       0.214  40.764  38.918  1.00  0.00    -0.078 Cl
HETATM   34  C15 UNL     1       0.865  38.152  38.489  1.00  0.00     0.167 A 
HETATM   35  F2  UNL     1      -0.455  37.950  38.282  1.00  0.00    -0.202 F 
ENDBRANCH  25  27
ENDBRANCH   6  23
TORSDOF 5
ENDMDL
MODEL 3
REMARK VINA RESULT: -9.254303935      0.873      1.875
REMARK  5 active torsions:
REMARK  status: ('A' for Active; 'I' for Inactive)
REMARK    1  A    between atoms: C2_3  and  C3_4 
REMARK       I    between atoms: C3_4  and  N2_6 
REMARK    2  A    between atoms: N2_6  and  C4_8 
REMARK    3  A    between atoms: C8_13  and  C9_14 
REMARK       I    between atoms: C9_14  and  N3_16 
REMARK    4  A    between atoms: N3_16  and  C10_18 
REMARK    5  A    between atoms: C19_31  and  O3_32 
ROOT
HETATM    1  C4  UNL     1       2.701  31.652  37.783  1.00  0.00     0.036 A 
HETATM    2  C5  UNL     1       3.006  30.984  38.919  1.00  0.00     0.031 A 
HETATM    3  C6  UNL     1       2.748  31.501  40.202  1.00  0.00     0.027 A 
HETATM    4  C7  UNL     1       2.155  32.746  40.296  1.00  0.00     0.050 A 
HETATM    5 CL1  UNL     1       1.812  33.431  41.887  1.00  0.00    -0.083 Cl
HETATM    6  C8  UNL     1       1.836  33.442  39.171  1.00  0.00     0.056 A 
HETATM    7  C16 UNL     1       2.098  32.918  37.933  1.00  0.00     0.048 A 
ENDROOT
BRANCH   1   8
HETATM    8  N2  UNL     1       2.931  31.166  36.490  1.00  0.00    -0.323 N 
HETATM    9  C3  UNL     1       3.741  30.081  36.117  1.00  0.00     0.258 C 
HETATM   10  O1  UNL     1       4.381  29.382  36.947  1.00  0.00    -0.267 OA
ATOM     11  H2  UNL     1       2.457  31.658  35.732  1.00  0.00     0.169 HD
BRANCH   9  12
HETATM   12  C2  UNL     1       3.902  29.672  34.699  1.00  0.00     0.059 A 
HETATM   13  C1  UNL     1       2.798  29.395  33.916  1.00  0.00     0.082 A 
HETATM   14  N1  UNL     1       1.505  29.510  34.493  1.00  0.00    -0.100 NA
HETATM   15  C20 UNL     1       2.910  29.015  32.605  1.00  0.00     0.070 A 
HETATM   16  C19 UNL     1       4.139  28.893  32.010  1.00  0.00     0.102 A 
HETATM   17 BR2  UNL     1       1.314  28.653  31.600  1.00  0.00    -0.046 Br
HETATM   18  C18 UNL     1       5.255  29.161  32.766  1.00  0.00     0.046 A 
HETATM   19  C17 UNL     1       5.126  29.547  34.097  1.00  0.00     0.041 A 
HETATM   20 BR1  UNL     1       6.962  28.995  31.951  1.00  0.00    -0.048 Br
BRANCH  16  21
HETATM   21  O3  UNL     1       4.208  28.505  30.679  1.00  0.00    -0.358 OA
ATOM     22  H3  UNL     1       3.455  28.520  30.100  1.00  0.00     0.217 HD
ENDBRANCH  16  21
ENDBRANCH   9  12
ENDBRANCH   1   8
BRANCH   6  23
HETATM   23  C9  UNL     1       1.200  34.776  39.328  1.00  0.00     0.258 C 
HETATM   24  O2  UNL     1       0.325  34.908  40.213  1.00  0.00    -0.267 OA
HETATM   25  N3  UNL     1       1.615  35.796  38.480  1.00  0.00    -0.320 N 
ATOM     26  H3  UNL     1       2.337  35.534  37.809  1.00  0.00     0.169 HD
BRANCH  25  27
HETATM   27  C10 UNL     1       1.190  37.135  38.409  1.00  0.00     0.075 A 
HETATM   28  C11 UNL     1      -0.073  37.523  38.050  1.00  0.00     0.036 A 
HETATM   29  C12 UNL     1      -0.427  38.885  38.001  1.00  0.00     0.046 A 
HETATM   30  C13 UNL     1       0.465  39.879  38.308  1.00  0.00     0.141 A 
HETATM   31  F1  UNL     1       0.079  41.175  38.246  1.00  0.00    -0.204 F 
HETATM   32  C14 UNL     1       1.738  39.501  38.671  1.00  0.00     0.113 A 
HETATM   33 CL2  UNL     1       2.908  40.744  39.071  1.00  0.00    -0.078 Cl
HETATM   34  C15 UNL     1       2.082  38.170  38.717  1.00  0.00     0.167 A 
HETATM   35  F2  UNL     1       3.334  37.813  39.075  1.00  0.00    -0.202 F 
ENDBRANCH  25  27
ENDBRANCH   6  23
TORSDOF 5
ENDMDL
MODEL 4
REMARK VINA RESULT: -9.152741290      2.262      3.164
REMARK  5 active torsions:
REMARK  status: ('A' for Active; 'I' for Inactive)
REMARK    1  A    between atoms: C2_3  and  C3_4 
REMARK       I    between atoms: C3_4  and  N2_6 
REMARK    2  A    between atoms: N2_6  and  C4_8 
REMARK    3  A    between atoms: C8_13  and  C9_14 
REMARK       I    between atoms: C9_14  and  N3_16 
REMARK    4  A    between atoms: N3_16  and  C10_18 
REMARK    5  A    between atoms: C19_31  and  O3_32 
ROOT
HETATM    1  C4  UNL     1       0.738  32.090  35.816  1.00  0.00     0.036 A 
HETATM    2  C5  UNL     1      -0.593  31.912  35.978  1.00  0.00     0.031 A 
HETATM    3  C6  UNL     1      -1.377  32.731  36.811  1.00  0.00     0.027 A 
HETATM    4  C7  UNL     1      -0.753  33.761  37.488  1.00  0.00     0.050 A 
HETATM    5 CL1  UNL     1      -1.701  34.813  38.543  1.00  0.00    -0.083 Cl
HETATM    6  C8  UNL     1       0.585  33.966  37.346  1.00  0.00     0.056 A 
HETATM    7  C16 UNL     1       1.327  33.155  36.529  1.00  0.00     0.048 A 
ENDROOT
BRANCH   1   8
HETATM    8  N2  UNL     1       1.550  31.305  34.988  1.00  0.00    -0.323 N 
HETATM    9  C3  UNL     1       2.563  30.415  35.382  1.00  0.00     0.258 C 
HETATM   10  O1  UNL     1       2.867  30.208  36.587  1.00  0.00    -0.267 OA
ATOM     11  H2  UNL     1       1.388  31.390  33.985  1.00  0.00     0.169 HD
BRANCH   9  12
HETATM   12  C2  UNL     1       3.356  29.642  34.394  1.00  0.00     0.059 A 
HETATM   13  C1  UNL     1       2.732  28.803  33.490  1.00  0.00     0.082 A 
HETATM   14  N1  UNL     1       1.317  28.694  33.524  1.00  0.00    -0.100 NA
HETATM   15  C20 UNL     1       3.434  28.075  32.567  1.00  0.00     0.070 A 
HETATM   16  C19 UNL     1       4.801  28.152  32.501  1.00  0.00     0.102 A 
HETATM   17 BR2  UNL     1       2.474  26.937  31.353  1.00  0.00    -0.046 Br
HETATM   18  C18 UNL     1       5.448  28.978  33.388  1.00  0.00     0.046 A 
HETATM   19  C17 UNL     1       4.723  29.712  34.322  1.00  0.00     0.041 A 
HETATM   20 BR1  UNL     1       7.341  29.092  33.304  1.00  0.00    -0.048 Br
BRANCH  16  21
HETATM   21  O3  UNL     1       5.473  27.398  31.549  1.00  0.00    -0.358 OA
ATOM     22  H3  UNL     1       5.979  27.789  30.847  1.00  0.00     0.217 HD
ENDBRANCH  16  21
ENDBRANCH   9  12
ENDBRANCH   1   8
BRANCH   6  23
HETATM   23  C9  UNL     1       1.207  35.088  38.096  1.00  0.00     0.258 C 
HETATM   24  O2  UNL     1       1.605  34.864  39.261  1.00  0.00    -0.267 OA
HETATM   25  N3  UNL     1       1.310  36.318  37.457  1.00  0.00    -0.320 N 
ATOM     26  H3  UNL     1       0.940  36.345  36.507  1.00  0.00     0.169 HD
BRANCH  25  27
HETATM   27  C10 UNL     1       1.847  37.531  37.924  1.00  0.00     0.075 A 
HETATM   28  C11 UNL     1       3.115  37.669  38.420  1.00  0.00     0.036 A 
HETATM   29  C12 UNL     1       3.586  38.918  38.871  1.00  0.00     0.046 A 
HETATM   30  C13 UNL     1       2.805  40.044  38.834  1.00  0.00     0.141 A 
HETATM   31  F1  UNL     1       3.301  41.223  39.279  1.00  0.00    -0.204 F 
HETATM   32  C14 UNL     1       1.528  39.917  38.338  1.00  0.00     0.113 A 
HETATM   33 CL2  UNL     1       0.499  41.335  38.274  1.00  0.00    -0.078 Cl
HETATM   34  C15 UNL     1       1.071  38.696  37.899  1.00  0.00     0.167 A 
HETATM   35  F2  UNL     1      -0.185  38.585  37.413  1.00  0.00    -0.202 F 
ENDBRANCH  25  27
ENDBRANCH   6  23
TORSDOF 5
ENDMDL
MODEL 5
REMARK VINA RESULT: -9.055126479      4.340      5.553
REMARK  5 active torsions:
REMARK  status: ('A' for Active; 'I' for Inactive)
REMARK    1  A    between atoms: C2_3  and  C3_4 
REMARK       I    between atoms: C3_4  and  N2_6 
REMARK    2  A    between atoms: N2_6  and  C4_8 
REMARK    3  A    between atoms: C8_13  and  C9_14 
REMARK       I    between atoms: C9_14  and  N3_16 
REMARK    4  A    between atoms: N3_16  and  C10_18 
REMARK    5  A    between atoms: C19_31  and  O3_32 
ROOT
HETATM    1  C4  UNL     1       0.012  31.040  38.265  1.00  0.00     0.036 A 
HETATM    2  C5  UNL     1      -0.748  31.158  37.154  1.00  0.00     0.031 A 
HETATM    3  C6  UNL     1      -1.078  32.401  36.582  1.00  0.00     0.027 A 
HETATM    4  C7  UNL     1      -0.598  33.546  37.189  1.00  0.00     0.050 A 
HETATM    5 CL1  UNL     1      -0.986  35.126  36.503  1.00  0.00    -0.083 Cl
HETATM    6  C8  UNL     1       0.170  33.460  38.309  1.00  0.00     0.056 A 
HETATM    7  C16 UNL     1       0.476  32.238  38.848  1.00  0.00     0.048 A 
ENDROOT
BRANCH   1   8
HETATM    8  N2  UNL     1       0.370  29.822  38.857  1.00  0.00    -0.323 N 
HETATM    9  C3  UNL     1       1.472  29.011  38.539  1.00  0.00     0.258 C 
HETATM   10  O1  UNL     1       2.308  29.303  37.643  1.00  0.00    -0.267 OA
ATOM     11  H2  UNL     1      -0.238  29.487  39.604  1.00  0.00     0.169 HD
BRANCH   9  12
HETATM   12  C2  UNL     1       1.736  27.733  39.247  1.00  0.00     0.059 A 
HETATM   13  C1  UNL     1       0.916  26.637  39.052  1.00  0.00     0.082 A 
HETATM   14  N1  UNL     1      -0.183  26.757  38.161  1.00  0.00    -0.100 NA
HETATM   15  C20 UNL     1       1.129  25.444  39.689  1.00  0.00     0.070 A 
HETATM   16  C19 UNL     1       2.179  25.287  40.556  1.00  0.00     0.102 A 
HETATM   17 BR2  UNL     1      -0.067  23.980  39.350  1.00  0.00    -0.046 Br
HETATM   18  C18 UNL     1       3.011  26.360  40.770  1.00  0.00     0.046 A 
HETATM   19  C17 UNL     1       2.782  27.567  40.116  1.00  0.00     0.041 A 
HETATM   20 BR1  UNL     1       4.468  26.153  41.969  1.00  0.00    -0.048 Br
BRANCH  16  21
HETATM   21  O3  UNL     1       2.360  24.061  41.180  1.00  0.00    -0.358 OA
ATOM     22  H3  UNL     1       1.672  23.627  41.671  1.00  0.00     0.217 HD
ENDBRANCH  16  21
ENDBRANCH   9  12
ENDBRANCH   1   8
BRANCH   6  23
HETATM   23  C9  UNL     1       0.660  34.721  38.924  1.00  0.00     0.258 C 
HETATM   24  O2  UNL     1       0.572  34.841  40.166  1.00  0.00    -0.267 OA
HETATM   25  N3  UNL     1       1.188  35.691  38.079  1.00  0.00    -0.320 N 
ATOM     26  H3  UNL     1       1.192  35.448  37.089  1.00  0.00     0.169 HD
BRANCH  25  27
HETATM   27  C10 UNL     1       1.717  36.958  38.386  1.00  0.00     0.075 A 
HETATM   28  C11 UNL     1       3.044  37.201  38.616  1.00  0.00     0.036 A 
HETATM   29  C12 UNL     1       3.502  38.499  38.918  1.00  0.00     0.046 A 
HETATM   30  C13 UNL     1       2.650  39.569  38.996  1.00  0.00     0.141 A 
HETATM   31  F1  UNL     1       3.136  40.798  39.290  1.00  0.00    -0.204 F 
HETATM   32  C14 UNL     1       1.313  39.337  38.767  1.00  0.00     0.113 A 
HETATM   33 CL2  UNL     1       0.191  40.681  38.857  1.00  0.00    -0.078 Cl
HETATM   34  C15 UNL     1       0.868  38.069  38.472  1.00  0.00     0.167 A 
HETATM   35  F2  UNL     1      -0.446  37.854  38.249  1.00  0.00    -0.202 F 
ENDBRANCH  25  27
ENDBRANCH   6  23
TORSDOF 5
ENDMDL
