MODEL 1
REMARK VINA RESULT: -9.904132097      0.000      0.000
REMARK  7 active torsions:
REMARK  status: ('A' for Active; 'I' for Inactive)
REMARK    1  A    between atoms: C2_3  and  S1_4 
REMARK    2  A    between atoms: S1_4  and  C3_7 
REMARK    3  A    between atoms: C10_16  and  N2_17 
REMARK    4  A    between atoms: N2_17  and  C11_18 
REMARK    5  A    between atoms: C11_18  and  O3_19 
REMARK    6  A    between atoms: C11_18  and  C12_21 
REMARK    7  A    between atoms: C15_25  and  O4_26 
ROOT
HETATM    1  N1  UNL     1       0.667  29.184  38.192  1.00  0.00    -0.099 NA
HETATM    2  C1  UNL     1       1.174  30.531  38.114  1.00  0.00     0.091 A 
HETATM    3  C2  UNL     1       2.425  30.779  37.604  1.00  0.00     0.093 A 
HETATM    4  C9  UNL     1       2.808  32.086  37.540  1.00  0.00     0.072 A 
HETATM    5  C10 UNL     1       2.032  33.197  37.947  1.00  0.00     0.135 A 
HETATM    6  C18 UNL     1       0.798  32.911  38.450  1.00  0.00     0.098 A 
HETATM    7 CL3  UNL     1      -0.307  34.112  39.109  1.00  0.00    -0.079 Cl
HETATM    8  C19 UNL     1       0.388  31.573  38.523  1.00  0.00     0.084 A 
HETATM    9 CL4  UNL     1      -1.235  31.229  39.158  1.00  0.00    -0.080 Cl
ENDROOT
BRANCH   5  10
HETATM   10  N2  UNL     1       2.453  34.456  37.541  1.00  0.00    -0.378 NA
BRANCH  10  11
HETATM   11  C11 UNL     1       2.854  35.657  37.154  1.00  0.00     0.228 C 
BRANCH  11  12
HETATM   12  O3  UNL     1       3.662  35.901  36.112  1.00  0.00    -0.335 OA
ATOM     13  H3  UNL     1       3.710  36.724  35.639  1.00  0.00     0.220 HD
ENDBRANCH  11  12
BRANCH  11  14
HETATM   14  C12 UNL     1       2.500  36.978  37.751  1.00  0.00     0.069 A 
HETATM   15  C13 UNL     1       1.114  37.236  37.772  1.00  0.00     0.042 A 
HETATM   16  C14 UNL     1       0.563  38.361  38.344  1.00  0.00     0.045 A 
HETATM   17 BR1  UNL     1      -1.303  38.674  38.356  1.00  0.00    -0.048 Br
HETATM   18  C15 UNL     1       1.395  39.307  38.936  1.00  0.00     0.086 A 
HETATM   19  C16 UNL     1       2.737  39.069  38.919  1.00  0.00     0.081 A 
HETATM   20  C17 UNL     1       3.275  37.896  38.320  1.00  0.00     0.134 A 
HETATM   21  F1  UNL     1       4.610  37.803  38.314  1.00  0.00    -0.205 F 
BRANCH  18  22
HETATM   22  O4  UNL     1       0.823  40.438  39.503  1.00  0.00    -0.359 OA
ATOM     23  H4  UNL     1       0.768  41.233  38.985  1.00  0.00     0.217 HD
ENDBRANCH  18  22
ENDBRANCH  11  14
ENDBRANCH  10  11
ENDBRANCH   5  10
BRANCH   3  24
HETATM   24  S1  UNL     1       3.412  29.533  36.983  1.00  0.00     0.210 S 
HETATM   25  O1  UNL     1       2.568  28.247  36.925  1.00  0.00    -0.217 OA
HETATM   26  O2  UNL     1       4.563  29.179  37.944  1.00  0.00    -0.217 OA
BRANCH  24  27
HETATM   27  C3  UNL     1       4.112  29.742  35.426  1.00  0.00     0.086 A 
HETATM   28  C4  UNL     1       5.445  29.843  35.118  1.00  0.00     0.027 A 
HETATM   29  C5  UNL     1       5.841  30.005  33.811  1.00  0.00     0.025 A 
HETATM   30  C6  UNL     1       4.967  30.078  32.758  1.00  0.00     0.035 A 
HETATM   31 CL1  UNL     1       5.488  30.283  31.096  1.00  0.00    -0.084 Cl
HETATM   32  C7  UNL     1       3.628  29.975  33.085  1.00  0.00     0.049 A 
HETATM   33  C8  UNL     1       3.192  29.811  34.368  1.00  0.00     0.057 A 
HETATM   34 CL2  UNL     1       1.436  29.692  34.711  1.00  0.00    -0.083 Cl
ENDBRANCH  24  27
ENDBRANCH   3  24
TORSDOF 7
ENDMDL
MODEL 2
REMARK VINA RESULT: -9.713319430      1.463      1.704
REMARK  7 active torsions:
REMARK  status: ('A' for Active; 'I' for Inactive)
REMARK    1  A    between atoms: C2_3  and  S1_4 
REMARK    2  A    between atoms: S1_4  and  C3_7 
REMARK    3  A    between atoms: C10_16  and  N2_17 
REMARK    4  A    between atoms: N2_17  and  C11_18 
REMARK    5  A    between atoms: C11_18  and  O3_19 
REMARK    6  A    between atoms: C11_18  and  C12_21 
REMARK    7  A    between atoms: C15_25  and  O4_26 
ROOT
HETATM    1  N1  UNL     1       0.876  28.554  38.358  1.00  0.00    -0.099 NA
HETATM    2  C1  UNL     1       1.176  29.962  38.285  1.00  0.00     0.091 A 
HETATM    3  C2  UNL     1       2.368  30.396  37.759  1.00  0.00     0.093 A 
HETATM    4  C9  UNL     1       2.552  31.746  37.700  1.00  0.00     0.072 A 
HETATM    5  C10 UNL     1       1.625  32.726  38.128  1.00  0.00     0.135 A 
HETATM    6  C18 UNL     1       0.456  32.257  38.646  1.00  0.00     0.098 A 
HETATM    7 CL3  UNL     1      -0.805  33.277  39.331  1.00  0.00    -0.079 Cl
HETATM    8  C19 UNL     1       0.250  30.873  38.714  1.00  0.00     0.084 A 
HETATM    9 CL4  UNL     1      -1.293  30.287  39.369  1.00  0.00    -0.080 Cl
ENDROOT
BRANCH   5  10
HETATM   10  N2  UNL     1       1.849  34.037  37.726  1.00  0.00    -0.378 NA
BRANCH  10  11
HETATM   11  C11 UNL     1       2.061  35.286  37.343  1.00  0.00     0.228 C 
BRANCH  11  12
HETATM   12  O3  UNL     1       2.960  35.669  36.425  1.00  0.00    -0.335 OA
ATOM     13  H3  UNL     1       3.082  36.560  36.119  1.00  0.00     0.220 HD
ENDBRANCH  11  12
BRANCH  11  14
HETATM   14  C12 UNL     1       1.361  36.520  37.811  1.00  0.00     0.069 A 
HETATM   15  C13 UNL     1       2.234  37.585  38.110  1.00  0.00     0.042 A 
HETATM   16  C14 UNL     1       1.797  38.836  38.487  1.00  0.00     0.045 A 
HETATM   17 BR1  UNL     1       2.998  40.246  38.879  1.00  0.00    -0.048 Br
HETATM   18  C15 UNL     1       0.432  39.085  38.587  1.00  0.00     0.086 A 
HETATM   19  C16 UNL     1      -0.421  38.060  38.303  1.00  0.00     0.081 A 
HETATM   20  C17 UNL     1       0.062  36.779  37.915  1.00  0.00     0.134 A 
HETATM   21  F1  UNL     1      -0.870  35.838  37.719  1.00  0.00    -0.205 F 
BRANCH  18  22
HETATM   22  O4  UNL     1       0.010  40.350  38.974  1.00  0.00    -0.359 OA
ATOM     23  H4  UNL     1       0.530  40.834  39.604  1.00  0.00     0.217 HD
ENDBRANCH  18  22
ENDBRANCH  11  14
ENDBRANCH  10  11
ENDBRANCH   5  10
BRANCH   3  24
HETATM   24  S1  UNL     1       3.520  29.315  37.113  1.00  0.00     0.210 S 
HETATM   25  O1  UNL     1       2.891  27.910  37.099  1.00  0.00    -0.217 OA
HETATM   26  O2  UNL     1       4.746  29.164  38.034  1.00  0.00    -0.217 OA
BRANCH  24  27
HETATM   27  C3  UNL     1       4.121  29.608  35.529  1.00  0.00     0.086 A 
HETATM   28  C4  UNL     1       5.427  29.801  35.156  1.00  0.00     0.027 A 
HETATM   29  C5  UNL     1       5.742  30.022  33.835  1.00  0.00     0.025 A 
HETATM   30  C6  UNL     1       4.810  30.069  32.832  1.00  0.00     0.035 A 
HETATM   31 CL1  UNL     1       5.227  30.350  31.152  1.00  0.00    -0.084 Cl
HETATM   32  C7  UNL     1       3.499  29.873  33.224  1.00  0.00     0.049 A 
HETATM   33  C8  UNL     1       3.143  29.649  34.523  1.00  0.00     0.057 A 
HETATM   34 CL2  UNL     1       1.419  29.410  34.952  1.00  0.00    -0.083 Cl
ENDBRANCH  24  27
ENDBRANCH   3  24
TORSDOF 7
ENDMDL
MODEL 3
REMARK VINA RESULT: -9.431702059      4.233      8.512
REMARK  7 active torsions:
REMARK  status: ('A' for Active; 'I' for Inactive)
REMARK    1  A    between atoms: C2_3  and  S1_4 
REMARK    2  A    between atoms: S1_4  and  C3_7 
REMARK    3  A    between atoms: C10_16  and  N2_17 
REMARK    4  A    between atoms: N2_17  and  C11_18 
REMARK    5  A    between atoms: C11_18  and  O3_19 
REMARK    6  A    between atoms: C11_18  and  C12_21 
REMARK    7  A    between atoms: C15_25  and  O4_26 
ROOT
HETATM    1  N1  UNL     1       0.731  34.362  40.355  1.00  0.00    -0.099 NA
HETATM    2  C1  UNL     1       0.918  33.311  39.387  1.00  0.00     0.091 A 
HETATM    3  C2  UNL     1       0.296  33.370  38.163  1.00  0.00     0.093 A 
HETATM    4  C9  UNL     1       0.556  32.348  37.299  1.00  0.00     0.072 A 
HETATM    5  C10 UNL     1       1.407  31.246  37.553  1.00  0.00     0.135 A 
HETATM    6  C18 UNL     1       2.003  31.221  38.778  1.00  0.00     0.098 A 
HETATM    7 CL3  UNL     1       3.022  29.908  39.358  1.00  0.00    -0.079 Cl
HETATM    8  C19 UNL     1       1.746  32.263  39.679  1.00  0.00     0.084 A 
HETATM    9 CL4  UNL     1       2.557  32.222  41.258  1.00  0.00    -0.080 Cl
ENDROOT
BRANCH   5  10
HETATM   10  N2  UNL     1       1.785  30.466  36.468  1.00  0.00    -0.378 NA
BRANCH  10  11
HETATM   11  C11 UNL     1       2.147  29.721  35.434  1.00  0.00     0.228 C 
BRANCH  11  12
HETATM   12  O3  UNL     1       1.313  28.982  34.688  1.00  0.00    -0.335 OA
ATOM     13  H3  UNL     1       0.431  28.734  34.939  1.00  0.00     0.220 HD
ENDBRANCH  11  12
BRANCH  11  14
HETATM   14  C12 UNL     1       3.515  29.549  34.862  1.00  0.00     0.069 A 
HETATM   15  C13 UNL     1       3.550  28.728  33.717  1.00  0.00     0.042 A 
HETATM   16  C14 UNL     1       4.695  28.496  32.988  1.00  0.00     0.045 A 
HETATM   17 BR1  UNL     1       4.705  27.390  31.453  1.00  0.00    -0.048 Br
HETATM   18  C15 UNL     1       5.891  29.088  33.383  1.00  0.00     0.086 A 
HETATM   19  C16 UNL     1       5.869  29.882  34.491  1.00  0.00     0.081 A 
HETATM   20  C17 UNL     1       4.669  30.103  35.222  1.00  0.00     0.134 A 
HETATM   21  F1  UNL     1       4.786  30.853  36.324  1.00  0.00    -0.205 F 
BRANCH  18  22
HETATM   22  O4  UNL     1       7.038  28.839  32.640  1.00  0.00    -0.359 OA
ATOM     23  H4  UNL     1       7.105  29.205  31.765  1.00  0.00     0.217 HD
ENDBRANCH  18  22
ENDBRANCH  11  14
ENDBRANCH  10  11
ENDBRANCH   5  10
BRANCH   3  24
HETATM   24  S1  UNL     1      -0.667  34.700  37.700  1.00  0.00     0.210 S 
HETATM   25  O1  UNL     1      -2.036  34.553  38.389  1.00  0.00    -0.217 OA
HETATM   26  O2  UNL     1      -1.004  34.669  36.196  1.00  0.00    -0.217 OA
BRANCH  24  27
HETATM   27  C3  UNL     1      -0.099  36.285  38.050  1.00  0.00     0.086 A 
HETATM   28  C4  UNL     1      -0.789  37.301  38.660  1.00  0.00     0.027 A 
HETATM   29  C5  UNL     1      -0.183  38.518  38.871  1.00  0.00     0.025 A 
HETATM   30  C6  UNL     1       1.106  38.796  38.498  1.00  0.00     0.035 A 
HETATM   31 CL1  UNL     1       1.866  40.352  38.775  1.00  0.00    -0.084 Cl
HETATM   32  C7  UNL     1       1.787  37.762  37.884  1.00  0.00     0.049 A 
HETATM   33  C8  UNL     1       1.224  36.539  37.658  1.00  0.00     0.057 A 
HETATM   34 CL2  UNL     1       2.173  35.250  36.850  1.00  0.00    -0.083 Cl
ENDBRANCH  24  27
ENDBRANCH   3  24
TORSDOF 7
ENDMDL
MODEL 4
REMARK VINA RESULT: -9.314196369      3.139      3.910
REMARK  7 active torsions:
REMARK  status: ('A' for Active; 'I' for Inactive)
REMARK    1  A    between atoms: C2_3  and  S1_4 
REMARK    2  A    between atoms: S1_4  and  C3_7 
REMARK    3  A    between atoms: C10_16  and  N2_17 
REMARK    4  A    between atoms: N2_17  and  C11_18 
REMARK    5  A    between atoms: C11_18  and  O3_19 
REMARK    6  A    between atoms: C11_18  and  C12_21 
REMARK    7  A    between atoms: C15_25  and  O4_26 
ROOT
HETATM    1  N1  UNL     1      -0.009  30.257  36.314  1.00  0.00    -0.099 NA
HETATM    2  C1  UNL     1       0.454  31.572  36.680  1.00  0.00     0.091 A 
HETATM    3  C2  UNL     1       1.791  31.812  36.880  1.00  0.00     0.093 A 
HETATM    4  C9  UNL     1       2.139  33.093  37.192  1.00  0.00     0.072 A 
HETATM    5  C10 UNL     1       1.248  34.185  37.321  1.00  0.00     0.135 A 
HETATM    6  C18 UNL     1      -0.070  33.907  37.118  1.00  0.00     0.098 A 
HETATM    7 CL3  UNL     1      -1.371  35.075  37.318  1.00  0.00    -0.079 Cl
HETATM    8  C19 UNL     1      -0.446  32.596  36.797  1.00  0.00     0.084 A 
HETATM    9 CL4  UNL     1      -2.167  32.266  36.510  1.00  0.00    -0.080 Cl
ENDROOT
BRANCH   5  10
HETATM   10  N2  UNL     1       1.798  35.460  37.349  1.00  0.00    -0.378 NA
BRANCH  10  11
HETATM   11  C11 UNL     1       2.321  36.676  37.375  1.00  0.00     0.228 C 
BRANCH  11  12
HETATM   12  O3  UNL     1       3.522  37.009  36.881  1.00  0.00    -0.335 OA
ATOM     13  H3  UNL     1       4.094  36.425  36.397  1.00  0.00     0.220 HD
ENDBRANCH  11  12
BRANCH  11  14
HETATM   14  C12 UNL     1       1.712  37.924  37.923  1.00  0.00     0.069 A 
HETATM   15  C13 UNL     1       2.307  39.105  37.435  1.00  0.00     0.042 A 
HETATM   16  C14 UNL     1       1.854  40.366  37.753  1.00  0.00     0.045 A 
HETATM   17 BR1  UNL     1       2.675  41.931  37.076  1.00  0.00    -0.048 Br
HETATM   18  C15 UNL     1       0.758  40.508  38.597  1.00  0.00     0.086 A 
HETATM   19  C16 UNL     1       0.176  39.373  39.078  1.00  0.00     0.081 A 
HETATM   20  C17 UNL     1       0.668  38.084  38.730  1.00  0.00     0.134 A 
HETATM   21  F1  UNL     1       0.051  37.047  39.311  1.00  0.00    -0.205 F 
BRANCH  18  22
HETATM   22  O4  UNL     1       0.317  41.788  38.911  1.00  0.00    -0.359 OA
ATOM     23  H4  UNL     1      -0.618  41.956  38.940  1.00  0.00     0.217 HD
ENDBRANCH  18  22
ENDBRANCH  11  14
ENDBRANCH  10  11
ENDBRANCH   5  10
BRANCH   3  24
HETATM   24  S1  UNL     1       2.973  30.602  36.649  1.00  0.00     0.210 S 
HETATM   25  O1  UNL     1       4.355  31.254  36.830  1.00  0.00    -0.217 OA
HETATM   26  O2  UNL     1       2.991  30.089  35.196  1.00  0.00    -0.217 OA
BRANCH  24  27
HETATM   27  C3  UNL     1       2.936  29.216  37.666  1.00  0.00     0.086 A 
HETATM   28  C4  UNL     1       2.606  27.933  37.312  1.00  0.00     0.027 A 
HETATM   29  C5  UNL     1       2.631  26.930  38.254  1.00  0.00     0.025 A 
HETATM   30  C6  UNL     1       2.970  27.131  39.566  1.00  0.00     0.035 A 
HETATM   31 CL1  UNL     1       2.999  25.842  40.754  1.00  0.00    -0.084 Cl
HETATM   32  C7  UNL     1       3.300  28.430  39.906  1.00  0.00     0.049 A 
HETATM   33  C8  UNL     1       3.290  29.453  39.002  1.00  0.00     0.057 A 
HETATM   34 CL2  UNL     1       3.725  31.113  39.524  1.00  0.00    -0.083 Cl
ENDBRANCH  24  27
ENDBRANCH   3  24
TORSDOF 7
ENDMDL
MODEL 5
REMARK VINA RESULT: -9.301379866      4.248      8.454
REMARK  7 active torsions:
REMARK  status: ('A' for Active; 'I' for Inactive)
REMARK    1  A    between atoms: C2_3  and  S1_4 
REMARK    2  A    between atoms: S1_4  and  C3_7 
REMARK    3  A    between atoms: C10_16  and  N2_17 
REMARK    4  A    between atoms: N2_17  and  C11_18 
REMARK    5  A    between atoms: C11_18  and  O3_19 
REMARK    6  A    between atoms: C11_18  and  C12_21 
REMARK    7  A    between atoms: C15_25  and  O4_26 
ROOT
HETATM    1  N1  UNL     1       0.636  34.621  40.338  1.00  0.00    -0.099 NA
HETATM    2  C1  UNL     1       0.928  33.424  39.590  1.00  0.00     0.091 A 
HETATM    3  C2  UNL     1       0.381  33.226  38.346  1.00  0.00     0.093 A 
HETATM    4  C9  UNL     1       0.739  32.080  37.699  1.00  0.00     0.072 A 
HETATM    5  C10 UNL     1       1.620  31.091  38.196  1.00  0.00     0.135 A 
HETATM    6  C18 UNL     1       2.141  31.321  39.433  1.00  0.00     0.098 A 
HETATM    7 CL3  UNL     1       3.179  30.193  40.298  1.00  0.00    -0.079 Cl
HETATM    8  C19 UNL     1       1.783  32.493  40.113  1.00  0.00     0.084 A 
HETATM    9 CL4  UNL     1       2.496  32.783  41.713  1.00  0.00    -0.080 Cl
ENDROOT
BRANCH   5  10
HETATM   10  N2  UNL     1       2.099  30.149  37.294  1.00  0.00    -0.378 NA
BRANCH  10  11
HETATM   11  C11 UNL     1       2.556  29.251  36.435  1.00  0.00     0.228 C 
BRANCH  11  12
HETATM   12  O3  UNL     1       2.905  27.994  36.746  1.00  0.00    -0.335 OA
ATOM     13  H3  UNL     1       3.241  27.353  36.131  1.00  0.00     0.220 HD
ENDBRANCH  11  12
BRANCH  11  14
HETATM   14  C12 UNL     1       2.765  29.411  34.966  1.00  0.00     0.069 A 
HETATM   15  C13 UNL     1       4.123  29.428  34.586  1.00  0.00     0.042 A 
HETATM   16  C14 UNL     1       4.540  29.492  33.275  1.00  0.00     0.045 A 
HETATM   17 BR1  UNL     1       6.373  29.509  32.802  1.00  0.00    -0.048 Br
HETATM   18  C15 UNL     1       3.595  29.547  32.257  1.00  0.00     0.086 A 
HETATM   19  C16 UNL     1       2.279  29.535  32.612  1.00  0.00     0.081 A 
HETATM   20  C17 UNL     1       1.880  29.467  33.976  1.00  0.00     0.134 A 
HETATM   21  F1  UNL     1       0.561  29.521  34.202  1.00  0.00    -0.205 F 
BRANCH  18  22
HETATM   22  O4  UNL     1       4.034  29.617  30.940  1.00  0.00    -0.359 OA
ATOM     23  H4  UNL     1       4.604  28.933  30.610  1.00  0.00     0.217 HD
ENDBRANCH  18  22
ENDBRANCH  11  14
ENDBRANCH  10  11
ENDBRANCH   5  10
BRANCH   3  24
HETATM   24  S1  UNL     1      -0.610  34.395  37.596  1.00  0.00     0.210 S 
HETATM   25  O1  UNL     1      -2.049  34.187  38.102  1.00  0.00    -0.217 OA
HETATM   26  O2  UNL     1      -0.715  34.169  36.075  1.00  0.00    -0.217 OA
BRANCH  24  27
HETATM   27  C3  UNL     1      -0.235  36.057  37.828  1.00  0.00     0.086 A 
HETATM   28  C4  UNL     1      -1.071  37.044  38.285  1.00  0.00     0.027 A 
HETATM   29  C5  UNL     1      -0.610  38.333  38.416  1.00  0.00     0.025 A 
HETATM   30  C6  UNL     1       0.670  38.715  38.109  1.00  0.00     0.035 A 
HETATM   31 CL1  UNL     1       1.244  40.362  38.284  1.00  0.00    -0.084 Cl
HETATM   32  C7  UNL     1       1.500  37.709  37.650  1.00  0.00     0.049 A 
HETATM   33  C8  UNL     1       1.082  36.417  37.507  1.00  0.00     0.057 A 
HETATM   34 CL2  UNL     1       2.219  35.170  36.898  1.00  0.00    -0.083 Cl
ENDBRANCH  24  27
ENDBRANCH   3  24
TORSDOF 7
ENDMDL
