MODEL 1
REMARK VINA RESULT: -9.287636104      0.000      0.000
REMARK  4 active torsions:
REMARK  status: ('A' for Active; 'I' for Inactive)
REMARK    1  A    between atoms: O1_2  and  C2_3 
REMARK    2  A    between atoms: C3_4  and  N1_5 
REMARK       I    between atoms: N1_5  and  C4_7 
REMARK       I    between atoms: C4_7  and  N2_9 
REMARK    3  A    between atoms: N2_9  and  C5_11 
REMARK    4  A    between atoms: C18_28  and  C19_29 
ROOT
HETATM    1  C2  UNL     1       0.277  36.292  38.317  1.00  0.00     0.110 A 
HETATM    2  C3  UNL     1       1.295  37.265  38.464  1.00  0.00     0.070 A 
HETATM    3  C11 UNL     1       2.475  36.877  39.053  1.00  0.00     0.033 A 
HETATM    4  C12 UNL     1       2.705  35.572  39.506  1.00  0.00     0.020 A 
HETATM    5  C13 UNL     1       1.716  34.652  39.357  1.00  0.00     0.049 A 
HETATM    6  C14 UNL     1       0.531  35.034  38.770  1.00  0.00     0.063 A 
HETATM    7  C15 UNL     1      -0.687  34.237  38.568  1.00  0.00     0.185 C 
HETATM    8  O3  UNL     1      -1.696  35.033  38.621  1.00  0.00    -0.290 OA
HETATM    9  C16 UNL     1      -1.134  32.887  38.337  1.00  0.00     0.182 C 
HETATM   10 CL2  UNL     1      -2.033  32.854  36.778  1.00  0.00    -0.112 Cl
HETATM   11  C17 UNL     1      -0.166  31.796  38.306  1.00  0.00     0.032 C 
HETATM   12  C18 UNL     1       1.029  31.382  38.743  1.00  0.00     0.048 C 
HETATM   13  N3  UNL     1       1.904  32.069  39.650  1.00  0.00    -0.322 N 
ATOM     14  H3  UNL     1       2.394  31.420  40.266  1.00  0.00     0.169 HD
HETATM   15  C25 UNL     1       2.257  33.397  39.909  1.00  0.00     0.257 C 
HETATM   16  O4  UNL     1       3.185  33.610  40.745  1.00  0.00    -0.267 OA
ENDROOT
BRANCH   2  17
HETATM   17  N1  UNL     1       1.048  38.550  38.018  1.00  0.00    -0.306 N 
HETATM   18  C4  UNL     1       1.944  39.659  37.849  1.00  0.00     0.325 C 
HETATM   19  O2  UNL     1       3.163  39.545  38.121  1.00  0.00    -0.247 OA
HETATM   20  N2  UNL     1       1.476  40.890  37.377  1.00  0.00    -0.306 N 
ATOM     21  H2  UNL     1       0.477  40.931  37.170  1.00  0.00     0.171 HD
ATOM     22  H1  UNL     1       0.078  38.739  37.770  1.00  0.00     0.171 HD
BRANCH  20  23
HETATM   23  C5  UNL     1       2.184  42.065  37.151  1.00  0.00     0.075 A 
HETATM   24  C6  UNL     1       2.050  43.214  37.885  1.00  0.00     0.034 A 
HETATM   25  C7  UNL     1       2.795  44.370  37.607  1.00  0.00     0.026 A 
HETATM   26  C8  UNL     1       3.698  44.378  36.570  1.00  0.00     0.037 A 
HETATM   27 CL1  UNL     1       4.610  45.835  36.253  1.00  0.00    -0.084 Cl
HETATM   28  C9  UNL     1       3.843  43.221  35.822  1.00  0.00     0.068 A 
HETATM   29  C10 UNL     1       3.123  42.119  36.096  1.00  0.00     0.144 A 
HETATM   30  F1  UNL     1       3.259  40.982  35.369  1.00  0.00    -0.204 F 
ENDBRANCH  20  23
ENDBRANCH   2  17
BRANCH   1  31
HETATM   31  O1  UNL     1      -0.935  36.642  37.721  1.00  0.00    -0.353 OA
HETATM   32  C1  UNL     1      -1.564  37.891  38.119  1.00  0.00     0.210 C 
ENDBRANCH   1  31
BRANCH  12  33
HETATM   33  C19 UNL     1       1.460  30.067  38.319  1.00  0.00     0.052 A 
HETATM   34  C20 UNL     1       2.623  29.960  37.559  1.00  0.00     0.049 A 
HETATM   35 CL3  UNL     1       3.452  31.367  36.926  1.00  0.00    -0.083 Cl
HETATM   36  C21 UNL     1       3.168  28.717  37.205  1.00  0.00     0.026 A 
HETATM   37  C22 UNL     1       2.574  27.547  37.592  1.00  0.00     0.029 A 
HETATM   38  C23 UNL     1       1.428  27.624  38.340  1.00  0.00     0.073 A 
HETATM   39 CL4  UNL     1       0.657  26.138  38.841  1.00  0.00    -0.081 Cl
HETATM   40  C24 UNL     1       0.896  28.870  38.689  1.00  0.00     0.152 A 
HETATM   41  F2  UNL     1      -0.202  28.846  39.488  1.00  0.00    -0.203 F 
ENDBRANCH  12  33
TORSDOF 4
ENDMDL
MODEL 2
REMARK VINA RESULT: -9.096562791      2.376      3.924
REMARK  4 active torsions:
REMARK  status: ('A' for Active; 'I' for Inactive)
REMARK    1  A    between atoms: O1_2  and  C2_3 
REMARK    2  A    between atoms: C3_4  and  N1_5 
REMARK       I    between atoms: N1_5  and  C4_7 
REMARK       I    between atoms: C4_7  and  N2_9 
REMARK    3  A    between atoms: N2_9  and  C5_11 
REMARK    4  A    between atoms: C18_28  and  C19_29 
ROOT
HETATM    1  C2  UNL     1       1.291  34.292  38.044  1.00  0.00     0.110 A 
HETATM    2  C3  UNL     1       0.074  34.971  37.796  1.00  0.00     0.070 A 
HETATM    3  C11 UNL     1      -0.965  34.251  37.255  1.00  0.00     0.033 A 
HETATM    4  C12 UNL     1      -0.865  32.890  36.945  1.00  0.00     0.020 A 
HETATM    5  C13 UNL     1       0.311  32.255  37.190  1.00  0.00     0.049 A 
HETATM    6  C14 UNL     1       1.357  32.970  37.730  1.00  0.00     0.063 A 
HETATM    7  C15 UNL     1       2.725  32.515  38.012  1.00  0.00     0.185 C 
HETATM    8  O3  UNL     1       3.515  33.520  37.872  1.00  0.00    -0.290 OA
HETATM    9  C16 UNL     1       3.477  31.344  38.386  1.00  0.00     0.182 C 
HETATM   10 CL2  UNL     1       4.321  31.692  39.937  1.00  0.00    -0.112 Cl
HETATM   11  C17 UNL     1       2.797  30.062  38.536  1.00  0.00     0.032 C 
HETATM   12  C18 UNL     1       1.746  29.329  38.150  1.00  0.00     0.048 C 
HETATM   13  N3  UNL     1       0.754  29.686  37.176  1.00  0.00    -0.322 N 
ATOM     14  H3  UNL     1       0.447  28.877  36.635  1.00  0.00     0.169 HD
HETATM   15  C25 UNL     1       0.099  30.856  36.777  1.00  0.00     0.257 C 
HETATM   16  O4  UNL     1      -0.833  30.751  35.926  1.00  0.00    -0.267 OA
ENDROOT
BRANCH   2  17
HETATM   17  N1  UNL     1      -0.004  36.317  38.101  1.00  0.00    -0.306 N 
HETATM   18  C4  UNL     1       0.810  37.415  37.661  1.00  0.00     0.325 C 
HETATM   19  O2  UNL     1       1.769  37.227  36.876  1.00  0.00    -0.247 OA
HETATM   20  N2  UNL     1       0.551  38.718  38.102  1.00  0.00    -0.306 N 
ATOM     21  H2  UNL     1      -0.239  38.818  38.740  1.00  0.00     0.171 HD
ATOM     22  H1  UNL     1      -0.759  36.570  38.738  1.00  0.00     0.171 HD
BRANCH  20  23
HETATM   23  C5  UNL     1       1.222  39.895  37.789  1.00  0.00     0.075 A 
HETATM   24  C6  UNL     1       2.270  39.989  36.912  1.00  0.00     0.034 A 
HETATM   25  C7  UNL     1       2.909  41.209  36.638  1.00  0.00     0.026 A 
HETATM   26  C8  UNL     1       2.488  42.363  37.255  1.00  0.00     0.037 A 
HETATM   27 CL1  UNL     1       3.305  43.864  36.890  1.00  0.00    -0.084 Cl
HETATM   28  C9  UNL     1       1.429  42.279  38.144  1.00  0.00     0.068 A 
HETATM   29  C10 UNL     1       0.824  41.105  38.400  1.00  0.00     0.144 A 
HETATM   30  F1  UNL     1      -0.213  41.014  39.268  1.00  0.00    -0.204 F 
ENDBRANCH  20  23
ENDBRANCH   2  17
BRANCH   1  31
HETATM   31  O1  UNL     1       2.371  34.984  38.596  1.00  0.00    -0.353 OA
HETATM   32  C1  UNL     1       2.489  35.035  40.045  1.00  0.00     0.210 C 
ENDBRANCH   1  31
BRANCH  12  33
HETATM   33  C19 UNL     1       1.633  28.001  38.714  1.00  0.00     0.052 A 
HETATM   34  C20 UNL     1       0.445  27.648  39.352  1.00  0.00     0.049 A 
HETATM   35 CL3  UNL     1      -0.818  28.816  39.678  1.00  0.00    -0.083 Cl
HETATM   36  C21 UNL     1       0.214  26.347  39.825  1.00  0.00     0.026 A 
HETATM   37  C22 UNL     1       1.153  25.363  39.679  1.00  0.00     0.029 A 
HETATM   38  C23 UNL     1       2.331  25.685  39.055  1.00  0.00     0.073 A 
HETATM   39 CL4  UNL     1       3.541  24.439  38.864  1.00  0.00    -0.081 Cl
HETATM   40  C24 UNL     1       2.549  26.984  38.587  1.00  0.00     0.152 A 
HETATM   41  F2  UNL     1       3.715  27.191  37.923  1.00  0.00    -0.203 F 
ENDBRANCH  12  33
TORSDOF 4
ENDMDL
MODEL 3
REMARK VINA RESULT: -8.858810251      2.766      4.150
REMARK  4 active torsions:
REMARK  status: ('A' for Active; 'I' for Inactive)
REMARK    1  A    between atoms: O1_2  and  C2_3 
REMARK    2  A    between atoms: C3_4  and  N1_5 
REMARK       I    between atoms: N1_5  and  C4_7 
REMARK       I    between atoms: C4_7  and  N2_9 
REMARK    3  A    between atoms: N2_9  and  C5_11 
REMARK    4  A    between atoms: C18_28  and  C19_29 
ROOT
HETATM    1  C2  UNL     1       0.018  32.878  36.881  1.00  0.00     0.110 A 
HETATM    2  C3  UNL     1      -0.610  33.826  37.724  1.00  0.00     0.070 A 
HETATM    3  C11 UNL     1      -1.163  33.373  38.899  1.00  0.00     0.033 A 
HETATM    4  C12 UNL     1      -1.129  32.028  39.287  1.00  0.00     0.020 A 
HETATM    5  C13 UNL     1      -0.522  31.134  38.463  1.00  0.00     0.049 A 
HETATM    6  C14 UNL     1       0.032  31.579  37.284  1.00  0.00     0.063 A 
HETATM    7  C15 UNL     1       0.671  30.792  36.220  1.00  0.00     0.185 C 
HETATM    8  O3  UNL     1       0.460  31.392  35.102  1.00  0.00    -0.290 OA
HETATM    9  C16 UNL     1       1.440  29.594  36.002  1.00  0.00     0.182 C 
HETATM   10 CL2  UNL     1       3.005  30.064  35.245  1.00  0.00    -0.112 Cl
HETATM   11  C17 UNL     1       1.745  28.712  37.123  1.00  0.00     0.032 C 
HETATM   12  C18 UNL     1       1.340  28.295  38.328  1.00  0.00     0.048 C 
HETATM   13  N3  UNL     1       0.137  28.673  39.014  1.00  0.00    -0.322 N 
ATOM     14  H3  UNL     1      -0.254  27.895  39.547  1.00  0.00     0.169 HD
HETATM   15  C25 UNL     1      -0.638  29.830  39.142  1.00  0.00     0.257 C 
HETATM   16  O4  UNL     1      -1.607  29.806  39.957  1.00  0.00    -0.267 OA
ENDROOT
BRANCH   2  17
HETATM   17  N1  UNL     1      -0.642  35.148  37.323  1.00  0.00    -0.306 N 
HETATM   18  C4  UNL     1       0.135  36.270  37.769  1.00  0.00     0.325 C 
HETATM   19  O2  UNL     1       1.007  36.131  38.660  1.00  0.00    -0.247 OA
HETATM   20  N2  UNL     1      -0.064  37.541  37.220  1.00  0.00    -0.306 N 
ATOM     21  H2  UNL     1      -0.785  37.601  36.500  1.00  0.00     0.171 HD
ATOM     22  H1  UNL     1      -1.325  35.360  36.596  1.00  0.00     0.171 HD
BRANCH  20  23
HETATM   23  C5  UNL     1       0.585  38.734  37.521  1.00  0.00     0.075 A 
HETATM   24  C6  UNL     1      -0.019  39.841  38.056  1.00  0.00     0.034 A 
HETATM   25  C7  UNL     1       0.691  41.018  38.337  1.00  0.00     0.026 A 
HETATM   26  C8  UNL     1       2.040  41.089  38.078  1.00  0.00     0.037 A 
HETATM   27 CL1  UNL     1       2.893  42.571  38.443  1.00  0.00    -0.084 Cl
HETATM   28  C9  UNL     1       2.661  39.976  37.538  1.00  0.00     0.068 A 
HETATM   29  C10 UNL     1       1.971  38.853  37.271  1.00  0.00     0.144 A 
HETATM   30  F1  UNL     1       2.571  37.758  36.742  1.00  0.00    -0.204 F 
ENDBRANCH  20  23
ENDBRANCH   2  17
BRANCH   1  31
HETATM   31  O1  UNL     1       0.595  33.295  35.680  1.00  0.00    -0.353 OA
HETATM   32  C1  UNL     1       1.872  33.989  35.734  1.00  0.00     0.210 C 
ENDBRANCH   1  31
BRANCH  12  33
HETATM   33  C19 UNL     1       2.159  27.299  38.985  1.00  0.00     0.052 A 
HETATM   34  C20 UNL     1       3.353  27.705  39.579  1.00  0.00     0.049 A 
HETATM   35 CL3  UNL     1       3.991  29.323  39.372  1.00  0.00    -0.083 Cl
HETATM   36  C21 UNL     1       4.146  26.824  40.330  1.00  0.00     0.026 A 
HETATM   37  C22 UNL     1       3.779  25.519  40.511  1.00  0.00     0.029 A 
HETATM   38  C23 UNL     1       2.609  25.094  39.937  1.00  0.00     0.073 A 
HETATM   39 CL4  UNL     1       2.128  23.429  40.158  1.00  0.00    -0.081 Cl
HETATM   40  C24 UNL     1       1.826  25.982  39.192  1.00  0.00     0.152 A 
HETATM   41  F2  UNL     1       0.652  25.489  38.720  1.00  0.00    -0.203 F 
ENDBRANCH  12  33
TORSDOF 4
ENDMDL
MODEL 4
REMARK VINA RESULT: -8.639753874      2.476      3.829
REMARK  4 active torsions:
REMARK  status: ('A' for Active; 'I' for Inactive)
REMARK    1  A    between atoms: O1_2  and  C2_3 
REMARK    2  A    between atoms: C3_4  and  N1_5 
REMARK       I    between atoms: N1_5  and  C4_7 
REMARK       I    between atoms: C4_7  and  N2_9 
REMARK    3  A    between atoms: N2_9  and  C5_11 
REMARK    4  A    between atoms: C18_28  and  C19_29 
ROOT
HETATM    1  C2  UNL     1       2.354  33.626  38.118  1.00  0.00     0.110 A 
HETATM    2  C3  UNL     1       1.854  34.575  39.042  1.00  0.00     0.070 A 
HETATM    3  C11 UNL     1       0.802  34.200  39.843  1.00  0.00     0.033 A 
HETATM    4  C12 UNL     1       0.214  32.931  39.781  1.00  0.00     0.020 A 
HETATM    5  C13 UNL     1       0.708  32.033  38.888  1.00  0.00     0.049 A 
HETATM    6  C14 UNL     1       1.760  32.402  38.080  1.00  0.00     0.063 A 
HETATM    7  C15 UNL     1       2.404  31.630  37.008  1.00  0.00     0.185 C 
HETATM    8  O3  UNL     1       2.828  32.460  36.122  1.00  0.00    -0.290 OA
HETATM    9  C16 UNL     1       2.717  30.281  36.614  1.00  0.00     0.182 C 
HETATM   10 CL2  UNL     1       4.505  30.148  36.444  1.00  0.00    -0.112 Cl
HETATM   11  C17 UNL     1       2.272  29.161  37.436  1.00  0.00     0.032 C 
HETATM   12  C18 UNL     1       1.351  28.747  38.313  1.00  0.00     0.048 C 
HETATM   13  N3  UNL     1       0.204  29.478  38.773  1.00  0.00    -0.322 N 
ATOM     14  H3  UNL     1      -0.599  28.867  38.921  1.00  0.00     0.169 HD
HETATM   15  C25 UNL     1      -0.097  30.811  39.070  1.00  0.00     0.257 C 
HETATM   16  O4  UNL     1      -1.230  31.063  39.578  1.00  0.00    -0.267 OA
ENDROOT
BRANCH   2  17
HETATM   17  N1  UNL     1       2.441  35.826  39.085  1.00  0.00    -0.306 N 
HETATM   18  C4  UNL     1       2.060  37.050  38.438  1.00  0.00     0.325 C 
HETATM   19  O2  UNL     1       1.050  37.095  37.697  1.00  0.00    -0.247 OA
HETATM   20  N2  UNL     1       2.809  38.218  38.622  1.00  0.00    -0.306 N 
ATOM     21  H2  UNL     1       3.621  38.129  39.233  1.00  0.00     0.171 HD
ATOM     22  H1  UNL     1       3.276  35.889  39.667  1.00  0.00     0.171 HD
BRANCH  20  23
HETATM   23  C5  UNL     1       2.598  39.483  38.085  1.00  0.00     0.075 A 
HETATM   24  C6  UNL     1       2.741  39.806  36.761  1.00  0.00     0.034 A 
HETATM   25  C7  UNL     1       2.513  41.105  36.280  1.00  0.00     0.026 A 
HETATM   26  C8  UNL     1       2.132  42.105  37.143  1.00  0.00     0.037 A 
HETATM   27 CL1  UNL     1       1.857  43.710  36.508  1.00  0.00    -0.084 Cl
HETATM   28  C9  UNL     1       1.985  41.790  38.483  1.00  0.00     0.068 A 
HETATM   29  C10 UNL     1       2.206  40.542  38.935  1.00  0.00     0.144 A 
HETATM   30  F1  UNL     1       2.063  40.225  40.245  1.00  0.00    -0.204 F 
ENDBRANCH  20  23
ENDBRANCH   2  17
BRANCH   1  31
HETATM   31  O1  UNL     1       3.424  33.964  37.288  1.00  0.00    -0.353 OA
HETATM   32  C1  UNL     1       3.236  35.036  36.323  1.00  0.00     0.210 C 
ENDBRANCH   1  31
BRANCH  12  33
HETATM   33  C19 UNL     1       1.473  27.388  38.797  1.00  0.00     0.052 A 
HETATM   34  C20 UNL     1       2.641  27.021  39.462  1.00  0.00     0.049 A 
HETATM   35 CL3  UNL     1       4.036  28.076  39.540  1.00  0.00    -0.083 Cl
HETATM   36  C21 UNL     1       2.791  25.760  40.058  1.00  0.00     0.026 A 
HETATM   37  C22 UNL     1       1.789  24.829  40.010  1.00  0.00     0.029 A 
HETATM   38  C23 UNL     1       0.630  25.166  39.362  1.00  0.00     0.073 A 
HETATM   39 CL4  UNL     1      -0.659  23.987  39.290  1.00  0.00    -0.081 Cl
HETATM   40  C24 UNL     1       0.491  26.427  38.773  1.00  0.00     0.152 A 
HETATM   41  F2  UNL     1      -0.717  26.694  38.213  1.00  0.00    -0.203 F 
ENDBRANCH  12  33
TORSDOF 4
ENDMDL
MODEL 5
REMARK VINA RESULT: -8.634104868      0.742      1.055
REMARK  4 active torsions:
REMARK  status: ('A' for Active; 'I' for Inactive)
REMARK    1  A    between atoms: O1_2  and  C2_3 
REMARK    2  A    between atoms: C3_4  and  N1_5 
REMARK       I    between atoms: N1_5  and  C4_7 
REMARK       I    between atoms: C4_7  and  N2_9 
REMARK    3  A    between atoms: N2_9  and  C5_11 
REMARK    4  A    between atoms: C18_28  and  C19_29 
ROOT
HETATM    1  C2  UNL     1       0.457  36.279  38.247  1.00  0.00     0.110 A 
HETATM    2  C3  UNL     1       1.512  37.212  38.391  1.00  0.00     0.070 A 
HETATM    3  C11 UNL     1       2.667  36.786  39.005  1.00  0.00     0.033 A 
HETATM    4  C12 UNL     1       2.835  35.483  39.488  1.00  0.00     0.020 A 
HETATM    5  C13 UNL     1       1.811  34.602  39.341  1.00  0.00     0.049 A 
HETATM    6  C14 UNL     1       0.650  35.021  38.728  1.00  0.00     0.063 A 
HETATM    7  C15 UNL     1      -0.597  34.272  38.524  1.00  0.00     0.185 C 
HETATM    8  O3  UNL     1      -1.572  35.111  38.545  1.00  0.00    -0.290 OA
HETATM    9  C16 UNL     1      -1.097  32.938  38.313  1.00  0.00     0.182 C 
HETATM   10 CL2  UNL     1      -1.974  32.911  36.740  1.00  0.00    -0.112 Cl
HETATM   11  C17 UNL     1      -0.175  31.807  38.318  1.00  0.00     0.032 C 
HETATM   12  C18 UNL     1       0.995  31.352  38.780  1.00  0.00     0.048 C 
HETATM   13  N3  UNL     1       1.884  32.019  39.688  1.00  0.00    -0.322 N 
ATOM     14  H3  UNL     1       2.339  31.363  40.323  1.00  0.00     0.169 HD
HETATM   15  C25 UNL     1       2.290  33.337  39.926  1.00  0.00     0.257 C 
HETATM   16  O4  UNL     1       3.214  33.527  40.772  1.00  0.00    -0.267 OA
ENDROOT
BRANCH   2  17
HETATM   17  N1  UNL     1       1.327  38.496  37.916  1.00  0.00    -0.306 N 
HETATM   18  C4  UNL     1       2.274  39.558  37.725  1.00  0.00     0.325 C 
HETATM   19  O2  UNL     1       3.485  39.394  38.002  1.00  0.00    -0.247 OA
HETATM   20  N2  UNL     1       1.864  40.800  37.225  1.00  0.00    -0.306 N 
ATOM     21  H2  UNL     1       0.869  40.883  37.015  1.00  0.00     0.171 HD
ATOM     22  H1  UNL     1       0.366  38.726  37.662  1.00  0.00     0.171 HD
BRANCH  20  23
HETATM   23  C5  UNL     1       2.627  41.935  36.975  1.00  0.00     0.075 A 
HETATM   24  C6  UNL     1       3.766  41.961  36.215  1.00  0.00     0.034 A 
HETATM   25  C7  UNL     1       4.494  43.142  35.999  1.00  0.00     0.026 A 
HETATM   26  C8  UNL     1       4.072  44.326  36.558  1.00  0.00     0.037 A 
HETATM   27 CL1  UNL     1       5.003  45.776  36.268  1.00  0.00    -0.084 Cl
HETATM   28  C9  UNL     1       2.921  44.310  37.328  1.00  0.00     0.068 A 
HETATM   29  C10 UNL     1       2.231  43.174  37.529  1.00  0.00     0.144 A 
HETATM   30  F1  UNL     1       1.104  43.150  38.281  1.00  0.00    -0.204 F 
ENDBRANCH  20  23
ENDBRANCH   2  17
BRANCH   1  31
HETATM   31  O1  UNL     1      -0.731  36.667  37.626  1.00  0.00    -0.353 OA
HETATM   32  C1  UNL     1      -1.315  37.948  37.993  1.00  0.00     0.210 C 
ENDBRANCH   1  31
BRANCH  12  33
HETATM   33  C19 UNL     1       1.376  30.012  38.389  1.00  0.00     0.052 A 
HETATM   34  C20 UNL     1       2.557  29.839  37.669  1.00  0.00     0.049 A 
HETATM   35 CL3  UNL     1       3.472  31.195  37.046  1.00  0.00    -0.083 Cl
HETATM   36  C21 UNL     1       3.053  28.566  37.350  1.00  0.00     0.026 A 
HETATM   37  C22 UNL     1       2.392  27.431  37.734  1.00  0.00     0.029 A 
HETATM   38  C23 UNL     1       1.227  27.574  38.442  1.00  0.00     0.073 A 
HETATM   39 CL4  UNL     1       0.370  26.133  38.937  1.00  0.00    -0.081 Cl
HETATM   40  C24 UNL     1       0.744  28.848  38.756  1.00  0.00     0.152 A 
HETATM   41  F2  UNL     1      -0.379  28.889  39.518  1.00  0.00    -0.203 F 
ENDBRANCH  12  33
TORSDOF 4
ENDMDL
