MODEL 1
REMARK VINA RESULT: -9.903441303      0.000      0.000
REMARK  7 active torsions:
REMARK  status: ('A' for Active; 'I' for Inactive)
REMARK    1  A    between atoms: O1_2  and  C2_3 
REMARK    2  A    between atoms: C6_8  and  C7_9 
REMARK    3  A    between atoms: C7_9  and  C8_10 
REMARK    4  A    between atoms: C10_14  and  N2_15 
REMARK    5  A    between atoms: N2_15  and  C11_17 
REMARK    6  A    between atoms: C14_21  and  N3_22 
REMARK    7  A    between atoms: N3_22  and  C15_24 
ROOT
HETATM    1  C11 UNL     1       0.522  34.146  36.913  1.00  0.00     0.074 A 
HETATM    2  C12 UNL     1       1.836  34.493  36.575  1.00  0.00     0.058 A 
HETATM    3  C13 UNL     1       2.451  35.600  37.110  1.00  0.00     0.065 A 
HETATM    4 CL1  UNL     1       4.113  36.001  36.660  1.00  0.00    -0.082 Cl
HETATM    5  C14 UNL     1       1.784  36.428  38.015  1.00  0.00     0.094 A 
HETATM    6  C22 UNL     1       0.467  36.099  38.366  1.00  0.00     0.087 A 
HETATM    7 CL2  UNL     1      -0.393  37.144  39.504  1.00  0.00    -0.080 Cl
HETATM    8  C23 UNL     1      -0.098  34.981  37.802  1.00  0.00     0.085 A 
HETATM    9 CL3  UNL     1      -1.740  34.587  38.257  1.00  0.00    -0.080 Cl
ENDROOT
BRANCH   1  10
HETATM   10  N2  UNL     1      -0.036  32.988  36.324  1.00  0.00    -0.190 N 
ATOM     11  H2  UNL     1      -0.790  33.103  35.647  1.00  0.00     0.184 HD
BRANCH  10  12
HETATM   12  C10 UNL     1       0.366  31.784  36.605  1.00  0.00     0.685 A 
HETATM   13  N1  UNL     1       0.379  31.363  37.863  1.00  0.00    -0.201 N 
HETATM   14  C9  UNL     1       0.796  30.101  38.177  1.00  0.00     0.119 A 
ATOM     15  H1  UNL     1       0.074  31.991  38.606  1.00  0.00     0.183 HD
HETATM   16  C8  UNL     1       1.217  29.228  37.197  1.00  0.00     0.031 A 
HETATM   17  C24 UNL     1       1.188  29.709  35.878  1.00  0.00     0.267 A 
HETATM   18  N6  UNL     1       0.768  30.960  35.642  1.00  0.00    -0.155 N 
HETATM   19  O2  UNL     1       1.537  29.008  34.887  1.00  0.00    -0.267 OA
ATOM     20  H6  UNL     1       0.757  31.295  34.678  1.00  0.00     0.187 HD
BRANCH  16  21
HETATM   21  C7  UNL     1       1.741  27.876  37.412  1.00  0.00     0.089 C 
BRANCH  21  22
HETATM   22  C6  UNL     1       1.643  27.251  38.728  1.00  0.00     0.009 A 
HETATM   23  C5  UNL     1       0.452  26.549  39.000  1.00  0.00     0.124 A 
HETATM   24  C4  UNL     1       0.225  25.939  40.213  1.00  0.00     0.046 A 
HETATM   25  F1  UNL     1      -0.477  26.404  38.011  1.00  0.00    -0.205 F 
HETATM   26  C3  UNL     1       1.169  25.996  41.212  1.00  0.00     0.041 A 
HETATM   27  C2  UNL     1       2.346  26.669  40.988  1.00  0.00     0.090 A 
HETATM   28  C25 UNL     1       2.544  27.278  39.743  1.00  0.00     0.076 A 
HETATM   29 CL4  UNL     1       4.082  28.059  39.561  1.00  0.00    -0.081 Cl
BRANCH  27  30
HETATM   30  O1  UNL     1       3.307  26.731  41.998  1.00  0.00    -0.354 OA
HETATM   31  C1  UNL     1       3.555  25.548  42.753  1.00  0.00     0.210 C 
ENDBRANCH  27  30
ENDBRANCH  21  22
ENDBRANCH  16  21
ENDBRANCH  10  12
ENDBRANCH   1  10
BRANCH   5  32
HETATM   32  N3  UNL     1       2.371  37.546  38.601  1.00  0.00    -0.188 N 
ATOM     33  H3  UNL     1       2.814  37.397  39.507  1.00  0.00     0.184 HD
BRANCH  32  34
HETATM   34  C15 UNL     1       2.421  38.730  38.142  1.00  0.00     0.683 A 
HETATM   35  N4  UNL     1       2.289  39.829  38.939  1.00  0.00    -0.189 N 
HETATM   36  C16 UNL     1       2.377  40.948  38.192  1.00  0.00     0.079 A 
ATOM     37  H4  UNL     1       2.144  39.807  39.949  1.00  0.00     0.184 HD
HETATM   38  C17 UNL     1       2.313  42.301  38.460  1.00  0.00     0.032 A 
HETATM   39  C21 UNL     1       2.573  40.547  36.886  1.00  0.00     0.115 A 
HETATM   40  C18 UNL     1       2.438  43.234  37.464  1.00  0.00     0.005 A 
HETATM   41  C19 UNL     1       2.634  42.852  36.144  1.00  0.00     0.045 A 
HETATM   42  C20 UNL     1       2.696  41.498  35.903  1.00  0.00     0.145 A 
HETATM   43  F2  UNL     1       2.889  41.060  34.631  1.00  0.00    -0.204 F 
HETATM   44  N5  UNL     1       2.594  39.185  36.898  1.00  0.00    -0.186 N 
ATOM     45  H5  UNL     1       2.724  38.597  36.075  1.00  0.00     0.184 HD
ENDBRANCH  32  34
ENDBRANCH   5  32
TORSDOF 7
ENDMDL
MODEL 2
REMARK VINA RESULT: -9.497937108      3.637     11.582
REMARK  7 active torsions:
REMARK  status: ('A' for Active; 'I' for Inactive)
REMARK    1  A    between atoms: O1_2  and  C2_3 
REMARK    2  A    between atoms: C6_8  and  C7_9 
REMARK    3  A    between atoms: C7_9  and  C8_10 
REMARK    4  A    between atoms: C10_14  and  N2_15 
REMARK    5  A    between atoms: N2_15  and  C11_17 
REMARK    6  A    between atoms: C14_21  and  N3_22 
REMARK    7  A    between atoms: N3_22  and  C15_24 
ROOT
HETATM    1  C11 UNL     1       1.047  30.968  36.916  1.00  0.00     0.074 A 
HETATM    2  C12 UNL     1       2.152  30.475  36.210  1.00  0.00     0.058 A 
HETATM    3  C13 UNL     1       2.689  29.239  36.481  1.00  0.00     0.065 A 
HETATM    4 CL1  UNL     1       4.082  28.652  35.564  1.00  0.00    -0.082 Cl
HETATM    5  C14 UNL     1       2.152  28.423  37.478  1.00  0.00     0.094 A 
HETATM    6  C22 UNL     1       1.046  28.898  38.198  1.00  0.00     0.087 A 
HETATM    7 CL2  UNL     1       0.362  27.879  39.470  1.00  0.00    -0.080 Cl
HETATM    8  C23 UNL     1       0.549  30.140  37.884  1.00  0.00     0.085 A 
HETATM    9 CL3  UNL     1      -0.833  30.711  38.790  1.00  0.00    -0.080 Cl
ENDROOT
BRANCH   1  10
HETATM   10  N2  UNL     1       0.550  32.246  36.571  1.00  0.00    -0.190 N 
ATOM     11  H2  UNL     1      -0.138  32.313  35.821  1.00  0.00     0.184 HD
BRANCH  10  12
HETATM   12  C10 UNL     1       0.927  33.339  37.165  1.00  0.00     0.685 A 
HETATM   13  N1  UNL     1       1.741  34.186  36.547  1.00  0.00    -0.201 N 
HETATM   14  C9  UNL     1       2.145  35.340  37.154  1.00  0.00     0.119 A 
ATOM     15  H1  UNL     1       2.068  33.971  35.606  1.00  0.00     0.183 HD
HETATM   16  C8  UNL     1       1.723  35.659  38.426  1.00  0.00     0.031 A 
HETATM   17  C24 UNL     1       0.862  34.739  39.048  1.00  0.00     0.267 A 
HETATM   18  N6  UNL     1       0.506  33.625  38.394  1.00  0.00    -0.155 N 
HETATM   19  O2  UNL     1       0.395  34.917  40.208  1.00  0.00    -0.267 OA
ATOM     20  H6  UNL     1      -0.117  32.966  38.861  1.00  0.00     0.187 HD
BRANCH  16  21
HETATM   21  C7  UNL     1       2.133  36.832  39.203  1.00  0.00     0.089 C 
BRANCH  21  22
HETATM   22  C6  UNL     1       1.856  38.177  38.706  1.00  0.00     0.009 A 
HETATM   23  C5  UNL     1       0.498  38.536  38.597  1.00  0.00     0.124 A 
HETATM   24  C4  UNL     1       0.103  39.764  38.116  1.00  0.00     0.046 A 
HETATM   25  F1  UNL     1      -0.458  37.674  39.049  1.00  0.00    -0.205 F 
HETATM   26  C3  UNL     1       1.038  40.693  37.721  1.00  0.00     0.041 A 
HETATM   27  C2  UNL     1       2.374  40.385  37.812  1.00  0.00     0.090 A 
HETATM   28  C25 UNL     1       2.740  39.127  38.306  1.00  0.00     0.076 A 
HETATM   29 CL4  UNL     1       4.451  38.867  38.416  1.00  0.00    -0.081 Cl
BRANCH  27  30
HETATM   30  O1  UNL     1       3.327  41.322  37.412  1.00  0.00    -0.354 OA
HETATM   31  C1  UNL     1       2.890  42.407  36.596  1.00  0.00     0.210 C 
ENDBRANCH  27  30
ENDBRANCH  21  22
ENDBRANCH  16  21
ENDBRANCH  10  12
ENDBRANCH   1  10
BRANCH   5  32
HETATM   32  N3  UNL     1       2.646  27.155  37.774  1.00  0.00    -0.188 N 
ATOM     33  H3  UNL     1       2.891  26.571  36.975  1.00  0.00     0.184 HD
BRANCH  32  34
HETATM   34  C15 UNL     1       2.828  26.638  38.921  1.00  0.00     0.683 A 
HETATM   35  N4  UNL     1       2.973  25.295  39.103  1.00  0.00    -0.189 N 
HETATM   36  C16 UNL     1       3.146  25.027  40.413  1.00  0.00     0.079 A 
ATOM     37  H4  UNL     1       2.953  24.597  38.358  1.00  0.00     0.184 HD
HETATM   38  C17 UNL     1       3.334  23.875  41.151  1.00  0.00     0.032 A 
HETATM   39  C21 UNL     1       3.112  26.235  41.080  1.00  0.00     0.115 A 
HETATM   40  C18 UNL     1       3.482  23.915  42.513  1.00  0.00     0.005 A 
HETATM   41  C19 UNL     1       3.449  25.119  43.203  1.00  0.00     0.045 A 
HETATM   42  C20 UNL     1       3.263  26.253  42.444  1.00  0.00     0.145 A 
HETATM   43  F2  UNL     1       3.224  27.463  43.061  1.00  0.00    -0.204 F 
HETATM   44  N5  UNL     1       2.916  27.194  40.133  1.00  0.00    -0.186 N 
ATOM     45  H5  UNL     1       2.846  28.194  40.322  1.00  0.00     0.184 HD
ENDBRANCH  32  34
ENDBRANCH   5  32
TORSDOF 7
ENDMDL
MODEL 3
REMARK VINA RESULT: -9.397837244      3.676     11.697
REMARK  7 active torsions:
REMARK  status: ('A' for Active; 'I' for Inactive)
REMARK    1  A    between atoms: O1_2  and  C2_3 
REMARK    2  A    between atoms: C6_8  and  C7_9 
REMARK    3  A    between atoms: C7_9  and  C8_10 
REMARK    4  A    between atoms: C10_14  and  N2_15 
REMARK    5  A    between atoms: N2_15  and  C11_17 
REMARK    6  A    between atoms: C14_21  and  N3_22 
REMARK    7  A    between atoms: N3_22  and  C15_24 
ROOT
HETATM    1  C11 UNL     1       0.865  30.699  36.963  1.00  0.00     0.074 A 
HETATM    2  C12 UNL     1       0.314  29.911  37.982  1.00  0.00     0.058 A 
HETATM    3  C13 UNL     1       0.841  28.685  38.312  1.00  0.00     0.065 A 
HETATM    4 CL1  UNL     1       0.119  27.724  39.607  1.00  0.00    -0.082 Cl
HETATM    5  C14 UNL     1       1.953  28.173  37.639  1.00  0.00     0.094 A 
HETATM    6  C22 UNL     1       2.519  28.946  36.614  1.00  0.00     0.087 A 
HETATM    7 CL2  UNL     1       3.920  28.306  35.747  1.00  0.00    -0.080 Cl
HETATM    8  C23 UNL     1       1.952  30.164  36.327  1.00  0.00     0.085 A 
HETATM    9 CL3  UNL     1       2.677  31.113  35.050  1.00  0.00    -0.080 Cl
ENDROOT
BRANCH   1  10
HETATM   10  N2  UNL     1       0.268  31.951  36.689  1.00  0.00    -0.190 N 
ATOM     11  H2  UNL     1      -0.510  31.984  36.031  1.00  0.00     0.184 HD
BRANCH  10  12
HETATM   12  C10 UNL     1       0.663  33.061  37.237  1.00  0.00     0.685 A 
HETATM   13  N1  UNL     1       1.381  33.931  36.536  1.00  0.00    -0.201 N 
HETATM   14  C9  UNL     1       1.802  35.104  37.095  1.00  0.00     0.119 A 
ATOM     15  H1  UNL     1       1.619  33.721  35.568  1.00  0.00     0.183 HD
HETATM   16  C8  UNL     1       1.498  35.419  38.401  1.00  0.00     0.031 A 
HETATM   17  C24 UNL     1       0.738  34.474  39.110  1.00  0.00     0.267 A 
HETATM   18  N6  UNL     1       0.358  33.343  38.500  1.00  0.00    -0.155 N 
HETATM   19  O2  UNL     1       0.383  34.645  40.310  1.00  0.00    -0.267 OA
ATOM     20  H6  UNL     1      -0.191  32.666  39.031  1.00  0.00     0.187 HD
BRANCH  16  21
HETATM   21  C7  UNL     1       1.942  36.612  39.127  1.00  0.00     0.089 C 
BRANCH  21  22
HETATM   22  C6  UNL     1       1.708  37.941  38.570  1.00  0.00     0.009 A 
HETATM   23  C5  UNL     1       0.366  38.283  38.311  1.00  0.00     0.124 A 
HETATM   24  C4  UNL     1       0.014  39.494  37.760  1.00  0.00     0.046 A 
HETATM   25  F1  UNL     1      -0.626  37.421  38.681  1.00  0.00    -0.205 F 
HETATM   26  C3  UNL     1       0.977  40.424  37.442  1.00  0.00     0.041 A 
HETATM   27  C2  UNL     1       2.298  40.132  37.680  1.00  0.00     0.090 A 
HETATM   28  C25 UNL     1       2.621  38.890  38.241  1.00  0.00     0.076 A 
HETATM   29 CL4  UNL     1       4.313  38.652  38.536  1.00  0.00    -0.081 Cl
BRANCH  27  30
HETATM   30  O1  UNL     1       3.281  41.070  37.358  1.00  0.00    -0.354 OA
HETATM   31  C1  UNL     1       2.889  42.203  36.586  1.00  0.00     0.210 C 
ENDBRANCH  27  30
ENDBRANCH  21  22
ENDBRANCH  16  21
ENDBRANCH  10  12
ENDBRANCH   1  10
BRANCH   5  32
HETATM   32  N3  UNL     1       2.536  26.949  37.951  1.00  0.00    -0.188 N 
ATOM     33  H3  UNL     1       2.826  26.375  37.160  1.00  0.00     0.184 HD
BRANCH  32  34
HETATM   34  C15 UNL     1       2.752  26.461  39.105  1.00  0.00     0.683 A 
HETATM   35  N4  UNL     1       2.959  25.129  39.308  1.00  0.00    -0.189 N 
HETATM   36  C16 UNL     1       3.157  24.892  40.621  1.00  0.00     0.079 A 
ATOM     37  H4  UNL     1       2.963  24.418  38.576  1.00  0.00     0.184 HD
HETATM   38  C17 UNL     1       3.402  23.763  41.376  1.00  0.00     0.032 A 
HETATM   39  C21 UNL     1       3.075  26.109  41.267  1.00  0.00     0.115 A 
HETATM   40  C18 UNL     1       3.562  23.833  42.736  1.00  0.00     0.005 A 
HETATM   41  C19 UNL     1       3.482  25.046  43.405  1.00  0.00     0.045 A 
HETATM   42  C20 UNL     1       3.238  26.157  42.630  1.00  0.00     0.145 A 
HETATM   43  F2  UNL     1       3.152  27.375  43.225  1.00  0.00    -0.204 F 
HETATM   44  N5  UNL     1       2.827  27.042  40.306  1.00  0.00    -0.186 N 
ATOM     45  H5  UNL     1       2.715  28.040  40.479  1.00  0.00     0.184 HD
ENDBRANCH  32  34
ENDBRANCH   5  32
TORSDOF 7
ENDMDL
MODEL 4
REMARK VINA RESULT: -9.269206147      2.306      3.069
REMARK  7 active torsions:
REMARK  status: ('A' for Active; 'I' for Inactive)
REMARK    1  A    between atoms: O1_2  and  C2_3 
REMARK    2  A    between atoms: C6_8  and  C7_9 
REMARK    3  A    between atoms: C7_9  and  C8_10 
REMARK    4  A    between atoms: C10_14  and  N2_15 
REMARK    5  A    between atoms: N2_15  and  C11_17 
REMARK    6  A    between atoms: C14_21  and  N3_22 
REMARK    7  A    between atoms: N3_22  and  C15_24 
ROOT
HETATM    1  C11 UNL     1       1.750  32.071  37.433  1.00  0.00     0.074 A 
HETATM    2  C12 UNL     1       2.421  32.709  38.485  1.00  0.00     0.058 A 
HETATM    3  C13 UNL     1       1.958  33.883  39.030  1.00  0.00     0.065 A 
HETATM    4 CL1  UNL     1       2.832  34.654  40.359  1.00  0.00    -0.082 Cl
HETATM    5  C14 UNL     1       0.797  34.492  38.551  1.00  0.00     0.094 A 
HETATM    6  C22 UNL     1       0.110  33.870  37.497  1.00  0.00     0.087 A 
HETATM    7 CL2  UNL     1      -1.356  34.635  36.874  1.00  0.00    -0.080 Cl
HETATM    8  C23 UNL     1       0.617  32.697  36.992  1.00  0.00     0.085 A 
HETATM    9 CL3  UNL     1      -0.257  31.937  35.681  1.00  0.00    -0.080 Cl
ENDROOT
BRANCH   1  10
HETATM   10  N2  UNL     1       2.287  30.862  36.934  1.00  0.00    -0.190 N 
ATOM     11  H2  UNL     1       2.903  30.904  36.123  1.00  0.00     0.184 HD
BRANCH  10  12
HETATM   12  C10 UNL     1       2.032  29.701  37.459  1.00  0.00     0.685 A 
HETATM   13  N1  UNL     1       2.848  28.678  37.241  1.00  0.00    -0.201 N 
HETATM   14  C9  UNL     1       2.598  27.451  37.786  1.00  0.00     0.119 A 
ATOM     15  H1  UNL     1       3.674  28.809  36.657  1.00  0.00     0.183 HD
HETATM   16  C8  UNL     1       1.491  27.239  38.578  1.00  0.00     0.031 A 
HETATM   17  C24 UNL     1       0.651  28.345  38.787  1.00  0.00     0.267 A 
HETATM   18  N6  UNL     1       0.956  29.520  38.220  1.00  0.00    -0.155 N 
HETATM   19  O2  UNL     1      -0.391  28.287  39.500  1.00  0.00    -0.267 OA
ATOM     20  H6  UNL     1       0.334  30.313  38.379  1.00  0.00     0.187 HD
BRANCH  16  21
HETATM   21  C7  UNL     1       1.084  25.960  39.168  1.00  0.00     0.089 C 
BRANCH  21  22
HETATM   22  C6  UNL     1       1.962  25.272  40.110  1.00  0.00     0.009 A 
HETATM   23  C5  UNL     1       2.306  23.944  39.788  1.00  0.00     0.124 A 
HETATM   24  C4  UNL     1       3.104  23.177  40.607  1.00  0.00     0.046 A 
HETATM   25  F1  UNL     1       1.899  23.420  38.595  1.00  0.00    -0.205 F 
HETATM   26  C3  UNL     1       3.599  23.693  41.782  1.00  0.00     0.041 A 
HETATM   27  C2  UNL     1       3.290  24.985  42.133  1.00  0.00     0.090 A 
HETATM   28  C25 UNL     1       2.475  25.736  41.278  1.00  0.00     0.076 A 
HETATM   29 CL4  UNL     1       2.189  27.364  41.802  1.00  0.00    -0.081 Cl
BRANCH  27  30
HETATM   30  O1  UNL     1       3.787  25.513  43.325  1.00  0.00    -0.354 OA
HETATM   31  C1  UNL     1       3.638  24.735  44.510  1.00  0.00     0.210 C 
ENDBRANCH  27  30
ENDBRANCH  21  22
ENDBRANCH  16  21
ENDBRANCH  10  12
ENDBRANCH   1  10
BRANCH   5  32
HETATM   32  N3  UNL     1       0.276  35.668  39.083  1.00  0.00    -0.188 N 
ATOM     33  H3  UNL     1      -0.521  35.562  39.711  1.00  0.00     0.184 HD
BRANCH  32  34
HETATM   34  C15 UNL     1       0.676  36.858  38.882  1.00  0.00     0.683 A 
HETATM   35  N4  UNL     1      -0.187  37.895  38.688  1.00  0.00    -0.189 N 
HETATM   36  C16 UNL     1       0.506  39.036  38.495  1.00  0.00     0.079 A 
ATOM     37  H4  UNL     1      -1.205  37.820  38.688  1.00  0.00     0.184 HD
HETATM   38  C17 UNL     1       0.161  40.351  38.255  1.00  0.00     0.032 A 
HETATM   39  C21 UNL     1       1.845  38.712  38.571  1.00  0.00     0.115 A 
HETATM   40  C18 UNL     1       1.115  41.322  38.093  1.00  0.00     0.005 A 
HETATM   41  C19 UNL     1       2.468  41.017  38.164  1.00  0.00     0.045 A 
HETATM   42  C20 UNL     1       2.785  39.700  38.406  1.00  0.00     0.145 A 
HETATM   43  F2  UNL     1       4.092  39.338  38.491  1.00  0.00    -0.204 F 
HETATM   44  N5  UNL     1       1.906  37.372  38.809  1.00  0.00    -0.186 N 
ATOM     45  H5  UNL     1       2.769  36.839  38.917  1.00  0.00     0.184 HD
ENDBRANCH  32  34
ENDBRANCH   5  32
TORSDOF 7
ENDMDL
MODEL 5
REMARK VINA RESULT: -9.164731014      2.272      3.208
REMARK  7 active torsions:
REMARK  status: ('A' for Active; 'I' for Inactive)
REMARK    1  A    between atoms: O1_2  and  C2_3 
REMARK    2  A    between atoms: C6_8  and  C7_9 
REMARK    3  A    between atoms: C7_9  and  C8_10 
REMARK    4  A    between atoms: C10_14  and  N2_15 
REMARK    5  A    between atoms: N2_15  and  C11_17 
REMARK    6  A    between atoms: C14_21  and  N3_22 
REMARK    7  A    between atoms: N3_22  and  C15_24 
ROOT
HETATM    1  C11 UNL     1       1.682  32.098  37.449  1.00  0.00     0.074 A 
HETATM    2  C12 UNL     1       0.533  32.708  36.928  1.00  0.00     0.058 A 
HETATM    3  C13 UNL     1       0.042  33.882  37.446  1.00  0.00     0.065 A 
HETATM    4 CL1  UNL     1      -1.409  34.622  36.758  1.00  0.00    -0.082 Cl
HETATM    5  C14 UNL     1       0.670  34.516  38.520  1.00  0.00     0.094 A 
HETATM    6  C22 UNL     1       1.822  33.921  39.056  1.00  0.00     0.087 A 
HETATM    7 CL2  UNL     1       2.623  34.708  40.422  1.00  0.00    -0.080 Cl
HETATM    8  C23 UNL     1       2.270  32.748  38.499  1.00  0.00     0.085 A 
HETATM    9 CL3  UNL     1       3.709  32.027  39.181  1.00  0.00    -0.080 Cl
ENDROOT
BRANCH   1  10
HETATM   10  N2  UNL     1       2.127  30.895  36.855  1.00  0.00    -0.190 N 
ATOM     11  H2  UNL     1       2.645  30.949  35.978  1.00  0.00     0.184 HD
BRANCH  10  12
HETATM   12  C10 UNL     1       1.909  29.723  37.373  1.00  0.00     0.685 A 
HETATM   13  N1  UNL     1       2.739  28.718  37.121  1.00  0.00    -0.201 N 
HETATM   14  C9  UNL     1       2.526  27.481  37.658  1.00  0.00     0.119 A 
ATOM     15  H1  UNL     1       3.546  28.873  36.518  1.00  0.00     0.183 HD
HETATM   16  C8  UNL     1       1.444  27.237  38.475  1.00  0.00     0.031 A 
HETATM   17  C24 UNL     1       0.588  28.325  38.718  1.00  0.00     0.267 A 
HETATM   18  N6  UNL     1       0.856  29.512  38.158  1.00  0.00    -0.155 N 
HETATM   19  O2  UNL     1      -0.433  28.238  39.457  1.00  0.00    -0.267 OA
ATOM     20  H6  UNL     1       0.223  30.290  38.342  1.00  0.00     0.187 HD
BRANCH  16  21
HETATM   21  C7  UNL     1       1.077  25.945  39.060  1.00  0.00     0.089 C 
BRANCH  21  22
HETATM   22  C6  UNL     1       1.968  25.289  40.012  1.00  0.00     0.009 A 
HETATM   23  C5  UNL     1       2.342  23.964  39.709  1.00  0.00     0.124 A 
HETATM   24  C4  UNL     1       3.154  23.226  40.539  1.00  0.00     0.046 A 
HETATM   25  F1  UNL     1       1.948  23.415  38.523  1.00  0.00    -0.205 F 
HETATM   26  C3  UNL     1       3.636  23.769  41.708  1.00  0.00     0.041 A 
HETATM   27  C2  UNL     1       3.298  25.058  42.041  1.00  0.00     0.090 A 
HETATM   28  C25 UNL     1       2.469  25.779  41.174  1.00  0.00     0.076 A 
HETATM   29 CL4  UNL     1       2.147  27.408  41.676  1.00  0.00    -0.081 Cl
BRANCH  27  30
HETATM   30  O1  UNL     1       3.782  25.613  43.227  1.00  0.00    -0.354 OA
HETATM   31  C1  UNL     1       3.576  24.884  44.434  1.00  0.00     0.210 C 
ENDBRANCH  27  30
ENDBRANCH  21  22
ENDBRANCH  16  21
ENDBRANCH  10  12
ENDBRANCH   1  10
BRANCH   5  32
HETATM   32  N3  UNL     1       0.225  35.717  39.064  1.00  0.00    -0.188 N 
ATOM     33  H3  UNL     1      -0.555  35.651  39.717  1.00  0.00     0.184 HD
BRANCH  32  34
HETATM   34  C15 UNL     1       0.673  36.886  38.844  1.00  0.00     0.683 A 
HETATM   35  N4  UNL     1      -0.146  37.958  38.646  1.00  0.00    -0.189 N 
HETATM   36  C16 UNL     1       0.594  39.065  38.432  1.00  0.00     0.079 A 
ATOM     37  H4  UNL     1      -1.166  37.926  38.657  1.00  0.00     0.184 HD
HETATM   38  C17 UNL     1       0.305  40.391  38.179  1.00  0.00     0.032 A 
HETATM   39  C21 UNL     1       1.919  38.684  38.498  1.00  0.00     0.115 A 
HETATM   40  C18 UNL     1       1.298  41.317  37.996  1.00  0.00     0.005 A 
HETATM   41  C19 UNL     1       2.637  40.954  38.057  1.00  0.00     0.045 A 
HETATM   42  C20 UNL     1       2.899  39.627  38.312  1.00  0.00     0.145 A 
HETATM   43  F2  UNL     1       4.190  39.210  38.388  1.00  0.00    -0.204 F 
HETATM   44  N5  UNL     1       1.924  37.345  38.752  1.00  0.00    -0.186 N 
ATOM     45  H5  UNL     1       2.763  36.776  38.857  1.00  0.00     0.184 HD
ENDBRANCH  32  34
ENDBRANCH   5  32
TORSDOF 7
ENDMDL
