MODEL 1
REMARK VINA RESULT: -9.607025457      0.000      0.000
REMARK  10 active torsions:
REMARK  status: ('A' for Active; 'I' for Inactive)
REMARK       I    between atoms: C1_2  and  N1_3 
REMARK    1  A    between atoms: C1_2  and  C14_32 
REMARK    2  A    between atoms: N1_3  and  C2_5 
REMARK    3  A    between atoms: C2_5  and  N2_7 
REMARK    4  A    between atoms: N2_7  and  N3_9 
REMARK    5  A    between atoms: N3_9  and  C3_11 
REMARK    6  A    between atoms: C3_11  and  N4_13 
REMARK    7  A    between atoms: N4_13  and  N5_15 
REMARK    8  A    between atoms: C4_17  and  C5_18 
REMARK    9  A    between atoms: C4_17  and  C13_28 
REMARK   10  A    between atoms: C6_19  and  C7_20 
ROOT
HETATM    1  C3  UNL     1       3.509  31.738  38.875  1.00  0.00     0.205 C 
HETATM    2  S2  UNL     1       3.249  32.425  40.316  1.00  0.00    -0.038 SA
ENDROOT
BRANCH   1   3
HETATM    3  N3  UNL     1       4.231  30.544  38.772  1.00  0.00    -0.273 N 
ATOM      4  H3  UNL     1       5.248  30.540  38.690  1.00  0.00     0.189 HD
BRANCH   3   5
HETATM    5  N2  UNL     1       3.474  29.330  38.788  1.00  0.00    -0.274 N 
ATOM      6  H2  UNL     1       3.316  28.833  39.665  1.00  0.00     0.189 HD
BRANCH   5   7
HETATM    7  C2  UNL     1       2.958  28.837  37.603  1.00  0.00     0.193 C 
HETATM    8  S1  UNL     1       1.417  28.211  37.664  1.00  0.00    -0.039 SA
BRANCH   7   9
HETATM    9  N1  UNL     1       3.624  28.827  36.381  1.00  0.00    -0.298 N 
HETATM   10  C1  UNL     1       3.407  29.722  35.333  1.00  0.00     0.259 C 
HETATM   11  O1  UNL     1       2.573  30.678  35.331  1.00  0.00    -0.267 OA
ATOM     12  H1  UNL     1       4.331  28.105  36.240  1.00  0.00     0.171 HD
BRANCH  10  13
HETATM   13  C14 UNL     1       4.224  29.546  34.099  1.00  0.00     0.054 A 
HETATM   14  C15 UNL     1       5.581  29.755  34.081  1.00  0.00     0.019 A 
HETATM   15  C16 UNL     1       6.331  29.590  32.931  1.00  0.00     0.001 A 
HETATM   16  C17 UNL     1       5.641  29.202  31.798  1.00  0.00     0.002 A 
HETATM   17  C18 UNL     1       4.283  28.987  31.790  1.00  0.00     0.025 A 
HETATM   18  C19 UNL     1       3.556  29.163  32.970  1.00  0.00     0.049 A 
HETATM   19 CL6  UNL     1       1.838  28.885  32.936  1.00  0.00    -0.083 Cl
ENDBRANCH  10  13
ENDBRANCH   7   9
ENDBRANCH   5   7
ENDBRANCH   3   5
ENDBRANCH   1   3
BRANCH   1  20
HETATM   20  N4  UNL     1       2.996  32.357  37.707  1.00  0.00    -0.275 N 
ATOM     21  H4  UNL     1       3.634  32.730  37.004  1.00  0.00     0.189 HD
BRANCH  20  22
HETATM   22  N5  UNL     1       1.644  32.453  37.525  1.00  0.00    -0.298 N 
HETATM   23  C4  UNL     1       0.816  33.367  37.408  1.00  0.00     0.079 C 
ATOM     24  H5  UNL     1       1.203  31.535  37.471  1.00  0.00     0.186 HD
BRANCH  23  25
HETATM   25  C5  UNL     1       1.096  34.769  37.437  1.00  0.00     0.032 C 
HETATM   26  C6  UNL     1       1.213  35.569  38.462  1.00  0.00     0.015 C 
BRANCH  26  27
HETATM   27  C7  UNL     1       1.505  37.006  38.366  1.00  0.00    -0.014 A 
HETATM   28  C8  UNL     1       2.774  37.506  38.372  1.00  0.00     0.015 A 
HETATM   29  C9  UNL     1       3.052  38.881  38.280  1.00  0.00     0.024 A 
HETATM   30  C10 UNL     1       1.995  39.757  38.179  1.00  0.00     0.035 A 
HETATM   31 CL1  UNL     1       2.214  41.493  38.059  1.00  0.00    -0.084 Cl
HETATM   32  C11 UNL     1       0.701  39.257  38.172  1.00  0.00     0.048 A 
HETATM   33  C12 UNL     1       0.460  37.916  38.263  1.00  0.00     0.045 A 
HETATM   34 CL2  UNL     1      -1.184  37.274  38.255  1.00  0.00    -0.083 Cl
ENDBRANCH  26  27
ENDBRANCH  23  25
BRANCH  23  35
HETATM   35  C13 UNL     1      -0.628  32.961  37.217  1.00  0.00     0.232 C 
HETATM   36 CL3  UNL     1      -1.561  34.322  36.553  1.00  0.00    -0.077 Cl
HETATM   37 CL4  UNL     1      -0.737  31.559  36.130  1.00  0.00    -0.077 Cl
HETATM   38 CL5  UNL     1      -1.365  32.521  38.769  1.00  0.00    -0.077 Cl
ENDBRANCH  23  35
ENDBRANCH  20  22
ENDBRANCH   1  20
TORSDOF 10
ENDMDL
MODEL 2
REMARK VINA RESULT: -9.424382647      0.944      1.498
REMARK  10 active torsions:
REMARK  status: ('A' for Active; 'I' for Inactive)
REMARK       I    between atoms: C1_2  and  N1_3 
REMARK    1  A    between atoms: C1_2  and  C14_32 
REMARK    2  A    between atoms: N1_3  and  C2_5 
REMARK    3  A    between atoms: C2_5  and  N2_7 
REMARK    4  A    between atoms: N2_7  and  N3_9 
REMARK    5  A    between atoms: N3_9  and  C3_11 
REMARK    6  A    between atoms: C3_11  and  N4_13 
REMARK    7  A    between atoms: N4_13  and  N5_15 
REMARK    8  A    between atoms: C4_17  and  C5_18 
REMARK    9  A    between atoms: C4_17  and  C13_28 
REMARK   10  A    between atoms: C6_19  and  C7_20 
ROOT
HETATM    1  C3  UNL     1       3.458  31.954  38.834  1.00  0.00     0.205 C 
HETATM    2  S2  UNL     1       3.237  32.615  40.293  1.00  0.00    -0.038 SA
ENDROOT
BRANCH   1   3
HETATM    3  N3  UNL     1       4.231  30.797  38.683  1.00  0.00    -0.273 N 
ATOM      4  H3  UNL     1       5.235  30.844  38.515  1.00  0.00     0.189 HD
BRANCH   3   5
HETATM    5  N2  UNL     1       3.541  29.546  38.775  1.00  0.00    -0.274 N 
ATOM      6  H2  UNL     1       3.422  29.089  39.680  1.00  0.00     0.189 HD
BRANCH   5   7
HETATM    7  C2  UNL     1       3.039  28.962  37.626  1.00  0.00     0.193 C 
HETATM    8  S1  UNL     1       1.540  28.250  37.746  1.00  0.00    -0.039 SA
BRANCH   7   9
HETATM    9  N1  UNL     1       3.687  28.928  36.395  1.00  0.00    -0.298 N 
HETATM   10  C1  UNL     1       3.441  29.790  35.326  1.00  0.00     0.259 C 
HETATM   11  O1  UNL     1       2.592  30.733  35.311  1.00  0.00    -0.267 OA
ATOM     12  H1  UNL     1       4.403  28.213  36.263  1.00  0.00     0.171 HD
BRANCH  10  13
HETATM   13  C14 UNL     1       4.241  29.593  34.085  1.00  0.00     0.054 A 
HETATM   14  C15 UNL     1       5.600  29.789  34.049  1.00  0.00     0.019 A 
HETATM   15  C16 UNL     1       6.335  29.604  32.892  1.00  0.00     0.001 A 
HETATM   16  C17 UNL     1       5.629  29.209  31.772  1.00  0.00     0.002 A 
HETATM   17  C18 UNL     1       4.268  29.007  31.782  1.00  0.00     0.025 A 
HETATM   18  C19 UNL     1       3.556  29.203  32.968  1.00  0.00     0.049 A 
HETATM   19 CL6  UNL     1       1.836  28.941  32.957  1.00  0.00    -0.083 Cl
ENDBRANCH  10  13
ENDBRANCH   7   9
ENDBRANCH   5   7
ENDBRANCH   3   5
ENDBRANCH   1   3
BRANCH   1  20
HETATM   20  N4  UNL     1       2.859  32.557  37.700  1.00  0.00    -0.275 N 
ATOM     21  H4  UNL     1       3.433  33.070  37.030  1.00  0.00     0.189 HD
BRANCH  20  22
HETATM   22  N5  UNL     1       1.509  32.450  37.504  1.00  0.00    -0.298 N 
HETATM   23  C4  UNL     1       0.556  33.230  37.376  1.00  0.00     0.079 C 
ATOM     24  H5  UNL     1       1.211  31.476  37.450  1.00  0.00     0.186 HD
BRANCH  23  25
HETATM   25  C5  UNL     1       0.623  34.657  37.402  1.00  0.00     0.032 C 
HETATM   26  C6  UNL     1       0.993  35.452  38.370  1.00  0.00     0.015 C 
BRANCH  26  27
HETATM   27  C7  UNL     1       1.021  36.918  38.277  1.00  0.00    -0.014 A 
HETATM   28  C8  UNL     1       0.082  37.716  38.864  1.00  0.00     0.015 A 
HETATM   29  C9  UNL     1       0.109  39.118  38.774  1.00  0.00     0.024 A 
HETATM   30  C10 UNL     1       1.129  39.708  38.064  1.00  0.00     0.035 A 
HETATM   31 CL1  UNL     1       1.272  41.446  37.881  1.00  0.00    -0.084 Cl
HETATM   32  C11 UNL     1       2.089  38.906  37.464  1.00  0.00     0.048 A 
HETATM   33  C12 UNL     1       2.038  37.545  37.567  1.00  0.00     0.045 A 
HETATM   34 CL2  UNL     1       3.255  36.518  36.807  1.00  0.00    -0.083 Cl
ENDBRANCH  26  27
ENDBRANCH  23  25
BRANCH  23  35
HETATM   35  C13 UNL     1      -0.809  32.612  37.173  1.00  0.00     0.232 C 
HETATM   36 CL3  UNL     1      -1.411  31.945  38.708  1.00  0.00    -0.077 Cl
HETATM   37 CL4  UNL     1      -1.950  33.823  36.545  1.00  0.00    -0.077 Cl
HETATM   38 CL5  UNL     1      -0.725  31.274  36.012  1.00  0.00    -0.077 Cl
ENDBRANCH  23  35
ENDBRANCH  20  22
ENDBRANCH   1  20
TORSDOF 10
ENDMDL
MODEL 3
REMARK VINA RESULT: -9.389525431      0.942      1.258
REMARK  10 active torsions:
REMARK  status: ('A' for Active; 'I' for Inactive)
REMARK       I    between atoms: C1_2  and  N1_3 
REMARK    1  A    between atoms: C1_2  and  C14_32 
REMARK    2  A    between atoms: N1_3  and  C2_5 
REMARK    3  A    between atoms: C2_5  and  N2_7 
REMARK    4  A    between atoms: N2_7  and  N3_9 
REMARK    5  A    between atoms: N3_9  and  C3_11 
REMARK    6  A    between atoms: C3_11  and  N4_13 
REMARK    7  A    between atoms: N4_13  and  N5_15 
REMARK    8  A    between atoms: C4_17  and  C5_18 
REMARK    9  A    between atoms: C4_17  and  C13_28 
REMARK   10  A    between atoms: C6_19  and  C7_20 
ROOT
HETATM    1  C3  UNL     1       3.529  31.655  38.751  1.00  0.00     0.205 C 
HETATM    2  S2  UNL     1       3.181  32.048  40.281  1.00  0.00    -0.038 SA
ENDROOT
BRANCH   1   3
HETATM    3  N3  UNL     1       4.335  30.548  38.463  1.00  0.00    -0.273 N 
ATOM      4  H3  UNL     1       5.321  30.653  38.223  1.00  0.00     0.189 HD
BRANCH   3   5
HETATM    5  N2  UNL     1       3.709  29.262  38.523  1.00  0.00    -0.274 N 
ATOM      6  H2  UNL     1       3.770  28.698  39.371  1.00  0.00     0.189 HD
BRANCH   5   7
HETATM    7  C2  UNL     1       3.021  28.792  37.419  1.00  0.00     0.193 C 
HETATM    8  S1  UNL     1       1.536  28.096  37.707  1.00  0.00    -0.039 SA
BRANCH   7   9
HETATM    9  N1  UNL     1       3.472  28.858  36.104  1.00  0.00    -0.298 N 
HETATM   10  C1  UNL     1       3.130  29.844  35.179  1.00  0.00     0.259 C 
HETATM   11  O1  UNL     1       2.358  30.828  35.391  1.00  0.00    -0.267 OA
ATOM     12  H1  UNL     1       4.107  28.123  35.791  1.00  0.00     0.171 HD
BRANCH  10  13
HETATM   13  C14 UNL     1       3.719  29.739  33.814  1.00  0.00     0.054 A 
HETATM   14  C15 UNL     1       2.952  29.500  32.700  1.00  0.00     0.019 A 
HETATM   15  C16 UNL     1       3.508  29.404  31.437  1.00  0.00     0.001 A 
HETATM   16  C17 UNL     1       4.878  29.563  31.355  1.00  0.00     0.002 A 
HETATM   17  C18 UNL     1       5.668  29.803  32.456  1.00  0.00     0.025 A 
HETATM   18  C19 UNL     1       5.073  29.894  33.717  1.00  0.00     0.049 A 
HETATM   19 CL6  UNL     1       6.092  30.198  35.094  1.00  0.00    -0.083 Cl
ENDBRANCH  10  13
ENDBRANCH   7   9
ENDBRANCH   5   7
ENDBRANCH   3   5
ENDBRANCH   1   3
BRANCH   1  20
HETATM   20  N4  UNL     1       3.006  32.443  37.694  1.00  0.00    -0.275 N 
ATOM     21  H4  UNL     1       3.639  32.931  37.061  1.00  0.00     0.189 HD
BRANCH  20  22
HETATM   22  N5  UNL     1       1.653  32.546  37.526  1.00  0.00    -0.298 N 
HETATM   23  C4  UNL     1       0.828  33.464  37.421  1.00  0.00     0.079 C 
ATOM     24  H5  UNL     1       1.207  31.630  37.473  1.00  0.00     0.186 HD
BRANCH  23  25
HETATM   25  C5  UNL     1       1.115  34.864  37.453  1.00  0.00     0.032 C 
HETATM   26  C6  UNL     1       1.249  35.660  38.480  1.00  0.00     0.015 C 
BRANCH  26  27
HETATM   27  C7  UNL     1       1.547  37.095  38.387  1.00  0.00    -0.014 A 
HETATM   28  C8  UNL     1       2.819  37.589  38.362  1.00  0.00     0.015 A 
HETATM   29  C9  UNL     1       3.102  38.962  38.273  1.00  0.00     0.024 A 
HETATM   30  C10 UNL     1       2.047  39.845  38.208  1.00  0.00     0.035 A 
HETATM   31 CL1  UNL     1       2.272  41.580  38.095  1.00  0.00    -0.084 Cl
HETATM   32  C11 UNL     1       0.750  39.352  38.233  1.00  0.00     0.048 A 
HETATM   33  C12 UNL     1       0.504  38.012  38.320  1.00  0.00     0.045 A 
HETATM   34 CL2  UNL     1      -1.143  37.379  38.352  1.00  0.00    -0.083 Cl
ENDBRANCH  26  27
ENDBRANCH  23  25
BRANCH  23  35
HETATM   35  C13 UNL     1      -0.619  33.066  37.243  1.00  0.00     0.232 C 
HETATM   36 CL3  UNL     1      -1.555  34.436  36.601  1.00  0.00    -0.077 Cl
HETATM   37 CL4  UNL     1      -0.747  31.673  36.146  1.00  0.00    -0.077 Cl
HETATM   38 CL5  UNL     1      -1.341  32.615  38.800  1.00  0.00    -0.077 Cl
ENDBRANCH  23  35
ENDBRANCH  20  22
ENDBRANCH   1  20
TORSDOF 10
ENDMDL
MODEL 4
REMARK VINA RESULT: -9.312718067      1.301      1.710
REMARK  10 active torsions:
REMARK  status: ('A' for Active; 'I' for Inactive)
REMARK       I    between atoms: C1_2  and  N1_3 
REMARK    1  A    between atoms: C1_2  and  C14_32 
REMARK    2  A    between atoms: N1_3  and  C2_5 
REMARK    3  A    between atoms: C2_5  and  N2_7 
REMARK    4  A    between atoms: N2_7  and  N3_9 
REMARK    5  A    between atoms: N3_9  and  C3_11 
REMARK    6  A    between atoms: C3_11  and  N4_13 
REMARK    7  A    between atoms: N4_13  and  N5_15 
REMARK    8  A    between atoms: C4_17  and  C5_18 
REMARK    9  A    between atoms: C4_17  and  C13_28 
REMARK   10  A    between atoms: C6_19  and  C7_20 
ROOT
HETATM    1  C3  UNL     1       2.971  31.280  39.602  1.00  0.00     0.205 C 
HETATM    2  S2  UNL     1       4.375  32.083  39.572  1.00  0.00    -0.038 SA
ENDROOT
BRANCH   1   3
HETATM    3  N3  UNL     1       2.948  29.885  39.703  1.00  0.00    -0.273 N 
ATOM      4  H3  UNL     1       2.445  29.411  40.453  1.00  0.00     0.189 HD
BRANCH   3   5
HETATM    5  N2  UNL     1       3.666  29.155  38.702  1.00  0.00    -0.274 N 
ATOM      6  H2  UNL     1       4.686  29.172  38.684  1.00  0.00     0.189 HD
BRANCH   5   7
HETATM    7  C2  UNL     1       2.963  28.426  37.760  1.00  0.00     0.193 C 
HETATM    8  S1  UNL     1       1.878  27.306  38.342  1.00  0.00    -0.039 SA
BRANCH   7   9
HETATM    9  N1  UNL     1       3.094  28.560  36.381  1.00  0.00    -0.298 N 
HETATM   10  C1  UNL     1       3.238  29.766  35.694  1.00  0.00     0.259 C 
HETATM   11  O1  UNL     1       3.271  30.921  36.217  1.00  0.00    -0.267 OA
ATOM     12  H1  UNL     1       3.084  27.705  35.825  1.00  0.00     0.171 HD
BRANCH  10  13
HETATM   13  C14 UNL     1       3.364  29.701  34.211  1.00  0.00     0.054 A 
HETATM   14  C15 UNL     1       2.276  29.548  33.388  1.00  0.00     0.019 A 
HETATM   15  C16 UNL     1       2.402  29.488  32.012  1.00  0.00     0.001 A 
HETATM   16  C17 UNL     1       3.685  29.592  31.508  1.00  0.00     0.002 A 
HETATM   17  C18 UNL     1       4.791  29.745  32.311  1.00  0.00     0.025 A 
HETATM   18  C19 UNL     1       4.627  29.802  33.697  1.00  0.00     0.049 A 
HETATM   19 CL6  UNL     1       6.040  29.996  34.693  1.00  0.00    -0.083 Cl
ENDBRANCH  10  13
ENDBRANCH   7   9
ENDBRANCH   5   7
ENDBRANCH   3   5
ENDBRANCH   1   3
BRANCH   1  20
HETATM   20  N4  UNL     1       1.755  32.004  39.528  1.00  0.00    -0.275 N 
ATOM     21  H4  UNL     1       1.349  32.409  40.371  1.00  0.00     0.189 HD
BRANCH  20  22
HETATM   22  N5  UNL     1       1.126  32.159  38.322  1.00  0.00    -0.298 N 
HETATM   23  C4  UNL     1       0.924  33.087  37.528  1.00  0.00     0.079 C 
ATOM     24  H5  UNL     1       0.720  31.283  37.993  1.00  0.00     0.186 HD
BRANCH  23  25
HETATM   25  C5  UNL     1       1.357  34.440  37.682  1.00  0.00     0.032 C 
HETATM   26  C6  UNL     1       0.720  35.461  38.189  1.00  0.00     0.015 C 
BRANCH  26  27
HETATM   27  C7  UNL     1       1.274  36.818  38.295  1.00  0.00    -0.014 A 
HETATM   28  C8  UNL     1       2.613  37.068  38.369  1.00  0.00     0.015 A 
HETATM   29  C9  UNL     1       3.142  38.366  38.471  1.00  0.00     0.024 A 
HETATM   30  C10 UNL     1       2.267  39.428  38.496  1.00  0.00     0.035 A 
HETATM   31 CL1  UNL     1       2.805  41.093  38.620  1.00  0.00    -0.084 Cl
HETATM   32  C11 UNL     1       0.903  39.184  38.422  1.00  0.00     0.048 A 
HETATM   33  C12 UNL     1       0.417  37.912  38.323  1.00  0.00     0.045 A 
HETATM   34 CL2  UNL     1      -1.316  37.594  38.229  1.00  0.00    -0.083 Cl
ENDBRANCH  26  27
ENDBRANCH  23  25
BRANCH  23  35
HETATM   35  C13 UNL     1       0.144  32.756  36.276  1.00  0.00     0.232 C 
HETATM   36 CL3  UNL     1      -1.448  33.547  36.322  1.00  0.00    -0.077 Cl
HETATM   37 CL4  UNL     1       1.042  33.276  34.832  1.00  0.00    -0.077 Cl
HETATM   38 CL5  UNL     1      -0.137  31.008  36.156  1.00  0.00    -0.077 Cl
ENDBRANCH  23  35
ENDBRANCH  20  22
ENDBRANCH   1  20
TORSDOF 10
ENDMDL
MODEL 5
REMARK VINA RESULT: -9.254363090      1.387      1.914
REMARK  10 active torsions:
REMARK  status: ('A' for Active; 'I' for Inactive)
REMARK       I    between atoms: C1_2  and  N1_3 
REMARK    1  A    between atoms: C1_2  and  C14_32 
REMARK    2  A    between atoms: N1_3  and  C2_5 
REMARK    3  A    between atoms: C2_5  and  N2_7 
REMARK    4  A    between atoms: N2_7  and  N3_9 
REMARK    5  A    between atoms: N3_9  and  C3_11 
REMARK    6  A    between atoms: C3_11  and  N4_13 
REMARK    7  A    between atoms: N4_13  and  N5_15 
REMARK    8  A    between atoms: C4_17  and  C5_18 
REMARK    9  A    between atoms: C4_17  and  C13_28 
REMARK   10  A    between atoms: C6_19  and  C7_20 
ROOT
HETATM    1  C3  UNL     1       3.508  32.020  38.533  1.00  0.00     0.205 C 
HETATM    2  S2  UNL     1       3.648  32.549  40.056  1.00  0.00    -0.038 SA
ENDROOT
BRANCH   1   3
HETATM    3  N3  UNL     1       4.152  30.848  38.122  1.00  0.00    -0.273 N 
ATOM      4  H3  UNL     1       5.011  30.874  37.572  1.00  0.00     0.189 HD
BRANCH   3   5
HETATM    5  N2  UNL     1       3.547  29.610  38.511  1.00  0.00    -0.274 N 
ATOM      6  H2  UNL     1       3.469  29.363  39.498  1.00  0.00     0.189 HD
BRANCH   5   7
HETATM    7  C2  UNL     1       3.071  28.753  37.536  1.00  0.00     0.193 C 
HETATM    8  S1  UNL     1       2.035  27.552  38.041  1.00  0.00    -0.039 SA
BRANCH   7   9
HETATM    9  N1  UNL     1       3.389  28.821  36.183  1.00  0.00    -0.298 N 
HETATM   10  C1  UNL     1       2.963  29.813  35.300  1.00  0.00     0.259 C 
HETATM   11  O1  UNL     1       2.224  30.802  35.592  1.00  0.00    -0.267 OA
ATOM     12  H1  UNL     1       3.983  28.083  35.805  1.00  0.00     0.171 HD
BRANCH  10  13
HETATM   13  C14 UNL     1       3.412  29.711  33.883  1.00  0.00     0.054 A 
HETATM   14  C15 UNL     1       2.534  29.506  32.848  1.00  0.00     0.019 A 
HETATM   15  C16 UNL     1       2.959  29.412  31.535  1.00  0.00     0.001 A 
HETATM   16  C17 UNL     1       4.319  29.535  31.320  1.00  0.00     0.002 A 
HETATM   17  C18 UNL     1       5.219  29.739  32.340  1.00  0.00     0.025 A 
HETATM   18  C19 UNL     1       4.754  29.829  33.654  1.00  0.00     0.049 A 
HETATM   19 CL6  UNL     1       5.912  30.088  34.927  1.00  0.00    -0.083 Cl
ENDBRANCH  10  13
ENDBRANCH   7   9
ENDBRANCH   5   7
ENDBRANCH   3   5
ENDBRANCH   1   3
BRANCH   1  20
HETATM   20  N4  UNL     1       2.722  32.756  37.611  1.00  0.00    -0.275 N 
ATOM     21  H4  UNL     1       3.173  33.347  36.913  1.00  0.00     0.189 HD
BRANCH  20  22
HETATM   22  N5  UNL     1       1.358  32.671  37.659  1.00  0.00    -0.298 N 
HETATM   23  C4  UNL     1       0.409  33.467  37.673  1.00  0.00     0.079 C 
ATOM     24  H5  UNL     1       1.040  31.703  37.692  1.00  0.00     0.186 HD
BRANCH  23  25
HETATM   25  C5  UNL     1       0.501  34.892  37.637  1.00  0.00     0.032 C 
HETATM   26  C6  UNL     1       1.081  35.707  38.477  1.00  0.00     0.015 C 
BRANCH  26  27
HETATM   27  C7  UNL     1       1.110  37.168  38.333  1.00  0.00    -0.014 A 
HETATM   28  C8  UNL     1       0.183  37.989  38.906  1.00  0.00     0.015 A 
HETATM   29  C9  UNL     1       0.212  39.387  38.766  1.00  0.00     0.024 A 
HETATM   30  C10 UNL     1       1.222  39.949  38.019  1.00  0.00     0.035 A 
HETATM   31 CL1  UNL     1       1.365  41.679  37.773  1.00  0.00    -0.084 Cl
HETATM   32  C11 UNL     1       2.170  39.123  37.432  1.00  0.00     0.048 A 
HETATM   33  C12 UNL     1       2.117  37.767  37.584  1.00  0.00     0.045 A 
HETATM   34 CL2  UNL     1       3.319  36.711  36.840  1.00  0.00    -0.083 Cl
ENDBRANCH  26  27
ENDBRANCH  23  25
BRANCH  23  35
HETATM   35  C13 UNL     1      -0.980  32.872  37.733  1.00  0.00     0.232 C 
HETATM   36 CL3  UNL     1      -1.382  32.102  36.181  1.00  0.00    -0.077 Cl
HETATM   37 CL4  UNL     1      -1.087  31.682  39.049  1.00  0.00    -0.077 Cl
HETATM   38 CL5  UNL     1      -2.190  34.136  38.026  1.00  0.00    -0.077 Cl
ENDBRANCH  23  35
ENDBRANCH  20  22
ENDBRANCH   1  20
TORSDOF 10
ENDMDL
