MODEL 1
REMARK VINA RESULT: -10.964788329      0.000      0.000
REMARK  8 active torsions:
REMARK  status: ('A' for Active; 'I' for Inactive)
REMARK    1  A    between atoms: O1_2  and  C2_3 
REMARK    2  A    between atoms: C4_5  and  C5_6 
REMARK       I    between atoms: C5_6  and  N1_8 
REMARK    3  A    between atoms: N1_8  and  C6_10 
REMARK    4  A    between atoms: C13_21  and  O3_22 
REMARK    5  A    between atoms: O3_22  and  C14_23 
REMARK    6  A    between atoms: C14_23  and  C15_24 
REMARK    7  A    between atoms: C20_29  and  O4_30 
REMARK    8  A    between atoms: O4_30  and  C21_31 
ROOT
HETATM    1  C2  UNL     1     -35.296  18.037  -9.081  1.00  0.00     0.105 A 
HETATM    2  C3  UNL     1     -36.352  18.422  -8.286  1.00  0.00     0.057 A 
HETATM    3  C4  UNL     1     -37.500  18.979  -8.798  1.00  0.00     0.037 A 
HETATM    4  C12 UNL     1     -37.572  19.148 -10.186  1.00  0.00     0.057 A 
HETATM    5  C13 UNL     1     -36.540  18.776 -11.002  1.00  0.00     0.105 A 
HETATM    6  C20 UNL     1     -35.361  18.202 -10.460  1.00  0.00     0.136 A 
ENDROOT
BRANCH   3   7
HETATM    7  C5  UNL     1     -38.616  19.398  -7.949  1.00  0.00     0.256 C 
HETATM    8  O2  UNL     1     -38.851  18.691  -6.961  1.00  0.00    -0.267 OA
HETATM    9  N1  UNL     1     -39.356  20.536  -8.262  1.00  0.00    -0.320 N 
ATOM     10  H1  UNL     1     -39.067  21.035  -9.103  1.00  0.00     0.169 HD
BRANCH   9  11
HETATM   11  C6  UNL     1     -40.457  21.090  -7.565  1.00  0.00     0.080 A 
HETATM   12  C7  UNL     1     -41.767  20.859  -7.866  1.00  0.00     0.078 A 
HETATM   13  C8  UNL     1     -42.815  21.433  -7.141  1.00  0.00     0.160 A 
HETATM   14  F1  UNL     1     -44.104  21.161  -7.492  1.00  0.00    -0.203 F 
HETATM   15  C9  UNL     1     -42.525  22.261  -6.086  1.00  0.00     0.196 A 
HETATM   16  F2  UNL     1     -43.572  22.798  -5.409  1.00  0.00    -0.199 F 
HETATM   17  C10 UNL     1     -41.218  22.510  -5.762  1.00  0.00     0.198 A 
HETATM   18  F3  UNL     1     -40.987  23.338  -4.710  1.00  0.00    -0.199 F 
HETATM   19  C11 UNL     1     -40.204  21.935  -6.488  1.00  0.00     0.184 A 
HETATM   20  F4  UNL     1     -38.918  22.209  -6.135  1.00  0.00    -0.200 F 
ENDBRANCH   9  11
ENDBRANCH   3   7
BRANCH   1  21
HETATM   21  O1  UNL     1     -34.154  17.476  -8.507  1.00  0.00    -0.353 OA
HETATM   22  C1  UNL     1     -34.203  16.135  -8.092  1.00  0.00     0.210 C 
ENDBRANCH   1  21
BRANCH   5  23
HETATM   23  O3  UNL     1     -36.632  18.953 -12.358  1.00  0.00    -0.348 OA
BRANCH  23  24
HETATM   24  C14 UNL     1     -37.674  18.917 -13.231  1.00  0.00     0.180 C 
BRANCH  24  25
HETATM   25  C15 UNL     1     -38.472  20.153 -13.453  1.00  0.00     0.010 C 
HETATM   26  C16 UNL     1     -37.518  21.357 -13.378  1.00  0.00     0.007 C 
HETATM   27  C17 UNL     1     -38.356  22.505 -12.878  1.00  0.00     0.000 C 
HETATM   28  C18 UNL     1     -39.298  21.848 -11.913  1.00  0.00     0.000 C 
HETATM   29  C19 UNL     1     -39.465  20.420 -12.337  1.00  0.00     0.007 C 
ENDBRANCH  24  25
ENDBRANCH  23  24
ENDBRANCH   5  23
BRANCH   6  30
HETATM   30  O4  UNL     1     -34.404  17.857 -11.222  1.00  0.00    -0.340 OA
BRANCH  30  31
HETATM   31  C21 UNL     1     -33.402  17.503 -11.988  1.00  0.00     0.133 C 
HETATM   32  C22 UNL     1     -32.012  17.869 -11.521  1.00  0.00     0.058 C 
HETATM   33  C23 UNL     1     -31.021  16.769 -11.575  1.00  0.00     0.170 C 
HETATM   34  O5  UNL     1     -31.125  15.856 -12.571  1.00  0.00    -0.391 OA
HETATM   35  C24 UNL     1     -32.223  15.925 -13.382  1.00  0.00     0.170 C 
HETATM   36  C25 UNL     1     -33.423  16.019 -12.433  1.00  0.00     0.058 C 
ENDBRANCH  30  31
ENDBRANCH   6  30
TORSDOF 8
ENDMDL
MODEL 2
REMARK VINA RESULT: -10.852321383      4.268      9.072
REMARK  8 active torsions:
REMARK  status: ('A' for Active; 'I' for Inactive)
REMARK    1  A    between atoms: O1_2  and  C2_3 
REMARK    2  A    between atoms: C4_5  and  C5_6 
REMARK       I    between atoms: C5_6  and  N1_8 
REMARK    3  A    between atoms: N1_8  and  C6_10 
REMARK    4  A    between atoms: C13_21  and  O3_22 
REMARK    5  A    between atoms: O3_22  and  C14_23 
REMARK    6  A    between atoms: C14_23  and  C15_24 
REMARK    7  A    between atoms: C20_29  and  O4_30 
REMARK    8  A    between atoms: O4_30  and  C21_31 
ROOT
HETATM    1  C2  UNL     1     -38.370  18.878  -7.029  1.00  0.00     0.105 A 
HETATM    2  C3  UNL     1     -37.212  18.281  -7.474  1.00  0.00     0.057 A 
HETATM    3  C4  UNL     1     -36.573  18.671  -8.627  1.00  0.00     0.037 A 
HETATM    4  C12 UNL     1     -37.143  19.721  -9.358  1.00  0.00     0.057 A 
HETATM    5  C13 UNL     1     -38.293  20.333  -8.943  1.00  0.00     0.105 A 
HETATM    6  C20 UNL     1     -38.942  19.920  -7.750  1.00  0.00     0.136 A 
ENDROOT
BRANCH   3   7
HETATM    7  C5  UNL     1     -35.348  18.026  -9.103  1.00  0.00     0.256 C 
HETATM    8  O2  UNL     1     -34.698  17.392  -8.263  1.00  0.00    -0.267 OA
HETATM    9  N1  UNL     1     -34.959  18.140 -10.436  1.00  0.00    -0.320 N 
ATOM     10  H1  UNL     1     -35.577  18.691 -11.032  1.00  0.00     0.169 HD
BRANCH   9  11
HETATM   11  C6  UNL     1     -33.819  17.590 -11.071  1.00  0.00     0.080 A 
HETATM   12  C7  UNL     1     -32.529  17.904 -10.765  1.00  0.00     0.078 A 
HETATM   13  C8  UNL     1     -31.440  17.328 -11.425  1.00  0.00     0.160 A 
HETATM   14  F1  UNL     1     -30.172  17.684 -11.071  1.00  0.00    -0.203 F 
HETATM   15  C9  UNL     1     -31.670  16.410 -12.420  1.00  0.00     0.196 A 
HETATM   16  F2  UNL     1     -30.585  15.875 -13.036  1.00  0.00    -0.199 F 
HETATM   17  C10 UNL     1     -32.956  16.077 -12.748  1.00  0.00     0.198 A 
HETATM   18  F3  UNL     1     -33.127  15.165 -13.741  1.00  0.00    -0.199 F 
HETATM   19  C11 UNL     1     -34.011  16.656 -12.086  1.00  0.00     0.184 A 
HETATM   20  F4  UNL     1     -35.275  16.298 -12.442  1.00  0.00    -0.200 F 
ENDBRANCH   9  11
ENDBRANCH   3   7
BRANCH   1  21
HETATM   21  O1  UNL     1     -38.976  18.441  -5.851  1.00  0.00    -0.353 OA
HETATM   22  C1  UNL     1     -38.601  19.046  -4.640  1.00  0.00     0.210 C 
ENDBRANCH   1  21
BRANCH   5  23
HETATM   23  O3  UNL     1     -38.834  21.357  -9.676  1.00  0.00    -0.348 OA
BRANCH  23  24
HETATM   24  C14 UNL     1     -39.847  21.416 -10.580  1.00  0.00     0.180 C 
BRANCH  24  25
HETATM   25  C15 UNL     1     -39.518  21.596 -12.021  1.00  0.00     0.010 C 
HETATM   26  C16 UNL     1     -39.031  20.244 -12.571  1.00  0.00     0.007 C 
HETATM   27  C17 UNL     1     -38.072  20.583 -13.683  1.00  0.00     0.000 C 
HETATM   28  C18 UNL     1     -37.390  21.822 -13.181  1.00  0.00     0.000 C 
HETATM   29  C19 UNL     1     -38.332  22.515 -12.243  1.00  0.00     0.007 C 
ENDBRANCH  24  25
ENDBRANCH  23  24
ENDBRANCH   5  23
BRANCH   6  30
HETATM   30  O4  UNL     1     -40.010  20.493  -7.368  1.00  0.00    -0.340 OA
BRANCH  30  31
HETATM   31  C21 UNL     1     -41.123  21.071  -6.991  1.00  0.00     0.133 C 
HETATM   32  C22 UNL     1     -42.404  20.290  -7.175  1.00  0.00     0.058 C 
HETATM   33  C23 UNL     1     -43.298  20.261  -5.993  1.00  0.00     0.170 C 
HETATM   34  O5  UNL     1     -43.342  21.352  -5.192  1.00  0.00    -0.391 OA
HETATM   35  C24 UNL     1     -42.452  22.360  -5.442  1.00  0.00     0.170 C 
HETATM   36  C25 UNL     1     -41.087  21.674  -5.563  1.00  0.00     0.058 C 
ENDBRANCH  30  31
ENDBRANCH   6  30
TORSDOF 8
ENDMDL
MODEL 3
REMARK VINA RESULT: -10.678288920      0.676      1.595
REMARK  8 active torsions:
REMARK  status: ('A' for Active; 'I' for Inactive)
REMARK    1  A    between atoms: O1_2  and  C2_3 
REMARK    2  A    between atoms: C4_5  and  C5_6 
REMARK       I    between atoms: C5_6  and  N1_8 
REMARK    3  A    between atoms: N1_8  and  C6_10 
REMARK    4  A    between atoms: C13_21  and  O3_22 
REMARK    5  A    between atoms: O3_22  and  C14_23 
REMARK    6  A    between atoms: C14_23  and  C15_24 
REMARK    7  A    between atoms: C20_29  and  O4_30 
REMARK    8  A    between atoms: O4_30  and  C21_31 
ROOT
HETATM    1  C2  UNL     1     -35.200  18.038  -9.109  1.00  0.00     0.105 A 
HETATM    2  C3  UNL     1     -36.222  18.464  -8.290  1.00  0.00     0.057 A 
HETATM    3  C4  UNL     1     -37.366  19.050  -8.777  1.00  0.00     0.037 A 
HETATM    4  C12 UNL     1     -37.471  19.207 -10.164  1.00  0.00     0.057 A 
HETATM    5  C13 UNL     1     -36.473  18.795 -11.004  1.00  0.00     0.105 A 
HETATM    6  C20 UNL     1     -35.298  18.191 -10.487  1.00  0.00     0.136 A 
ENDROOT
BRANCH   3   7
HETATM    7  C5  UNL     1     -38.446  19.512  -7.903  1.00  0.00     0.256 C 
HETATM    8  O2  UNL     1     -38.993  18.651  -7.203  1.00  0.00    -0.267 OA
HETATM    9  N1  UNL     1     -38.815  20.855  -7.882  1.00  0.00    -0.320 N 
ATOM     10  H1  UNL     1     -38.291  21.468  -8.506  1.00  0.00     0.169 HD
BRANCH   9  11
HETATM   11  C6  UNL     1     -39.824  21.480  -7.109  1.00  0.00     0.080 A 
HETATM   12  C7  UNL     1     -39.599  22.218  -5.985  1.00  0.00     0.078 A 
HETATM   13  C8  UNL     1     -40.635  22.815  -5.260  1.00  0.00     0.160 A 
HETATM   14  F1  UNL     1     -40.344  23.543  -4.145  1.00  0.00    -0.203 F 
HETATM   15  C9  UNL     1     -41.929  22.656  -5.689  1.00  0.00     0.196 A 
HETATM   16  F2  UNL     1     -42.905  23.251  -4.957  1.00  0.00    -0.199 F 
HETATM   17  C10 UNL     1     -42.183  21.919  -6.814  1.00  0.00     0.198 A 
HETATM   18  F3  UNL     1     -43.482  21.793  -7.193  1.00  0.00    -0.199 F 
HETATM   19  C11 UNL     1     -41.150  21.342  -7.510  1.00  0.00     0.184 A 
HETATM   20  F4  UNL     1     -41.444  20.616  -8.624  1.00  0.00    -0.200 F 
ENDBRANCH   9  11
ENDBRANCH   3   7
BRANCH   1  21
HETATM   21  O1  UNL     1     -34.061  17.448  -8.559  1.00  0.00    -0.353 OA
HETATM   22  C1  UNL     1     -34.134  16.107  -8.148  1.00  0.00     0.210 C 
ENDBRANCH   1  21
BRANCH   5  23
HETATM   23  O3  UNL     1     -36.597  18.962 -12.358  1.00  0.00    -0.348 OA
BRANCH  23  24
HETATM   24  C14 UNL     1     -37.657  18.917 -13.207  1.00  0.00     0.180 C 
BRANCH  24  25
HETATM   25  C15 UNL     1     -38.432  20.162 -13.461  1.00  0.00     0.010 C 
HETATM   26  C16 UNL     1     -37.473  21.356 -13.320  1.00  0.00     0.007 C 
HETATM   27  C17 UNL     1     -38.328  22.508 -12.857  1.00  0.00     0.000 C 
HETATM   28  C18 UNL     1     -39.328  21.850 -11.953  1.00  0.00     0.000 C 
HETATM   29  C19 UNL     1     -39.484  20.427 -12.401  1.00  0.00     0.007 C 
ENDBRANCH  24  25
ENDBRANCH  23  24
ENDBRANCH   5  23
BRANCH   6  30
HETATM   30  O4  UNL     1     -34.373  17.809 -11.271  1.00  0.00    -0.340 OA
BRANCH  30  31
HETATM   31  C21 UNL     1     -33.404  17.429 -12.066  1.00  0.00     0.133 C 
HETATM   32  C22 UNL     1     -31.997  17.827 -11.680  1.00  0.00     0.058 C 
HETATM   33  C23 UNL     1     -30.999  16.733 -11.731  1.00  0.00     0.170 C 
HETATM   34  O5  UNL     1     -31.140  15.776 -12.680  1.00  0.00    -0.391 OA
HETATM   35  C24 UNL     1     -32.274  15.800 -13.442  1.00  0.00     0.170 C 
HETATM   36  C25 UNL     1     -33.431  15.926 -12.444  1.00  0.00     0.058 C 
ENDBRANCH  30  31
ENDBRANCH   6  30
TORSDOF 8
ENDMDL
MODEL 4
REMARK VINA RESULT: -10.549348408      4.190      9.654
REMARK  8 active torsions:
REMARK  status: ('A' for Active; 'I' for Inactive)
REMARK    1  A    between atoms: O1_2  and  C2_3 
REMARK    2  A    between atoms: C4_5  and  C5_6 
REMARK       I    between atoms: C5_6  and  N1_8 
REMARK    3  A    between atoms: N1_8  and  C6_10 
REMARK    4  A    between atoms: C13_21  and  O3_22 
REMARK    5  A    between atoms: O3_22  and  C14_23 
REMARK    6  A    between atoms: C14_23  and  C15_24 
REMARK    7  A    between atoms: C20_29  and  O4_30 
REMARK    8  A    between atoms: O4_30  and  C21_31 
ROOT
HETATM    1  C2  UNL     1     -40.409  21.349  -6.049  1.00  0.00     0.105 A 
HETATM    2  C3  UNL     1     -39.433  21.059  -6.977  1.00  0.00     0.057 A 
HETATM    3  C4  UNL     1     -39.709  20.892  -8.313  1.00  0.00     0.037 A 
HETATM    4  C12 UNL     1     -41.041  21.029  -8.720  1.00  0.00     0.057 A 
HETATM    5  C13 UNL     1     -42.032  21.316  -7.823  1.00  0.00     0.105 A 
HETATM    6  C20 UNL     1     -41.734  21.486  -6.446  1.00  0.00     0.136 A 
ENDROOT
BRANCH   3   7
HETATM    7  C5  UNL     1     -38.671  20.573  -9.295  1.00  0.00     0.256 C 
HETATM    8  O2  UNL     1     -38.360  21.477 -10.080  1.00  0.00    -0.267 OA
HETATM    9  N1  UNL     1     -38.084  19.310  -9.320  1.00  0.00    -0.320 N 
ATOM     10  H1  UNL     1     -38.426  18.648  -8.623  1.00  0.00     0.169 HD
BRANCH   9  11
HETATM   11  C6  UNL     1     -37.075  18.824 -10.187  1.00  0.00     0.080 A 
HETATM   12  C7  UNL     1     -37.224  18.636 -11.529  1.00  0.00     0.078 A 
HETATM   13  C8  UNL     1     -36.191  18.154 -12.338  1.00  0.00     0.160 A 
HETATM   14  F1  UNL     1     -36.404  17.990 -13.675  1.00  0.00    -0.203 F 
HETATM   15  C9  UNL     1     -34.978  17.857 -11.769  1.00  0.00     0.196 A 
HETATM   16  F2  UNL     1     -34.002  17.392 -12.589  1.00  0.00    -0.199 F 
HETATM   17  C10 UNL     1     -34.801  18.036 -10.423  1.00  0.00     0.198 A 
HETATM   18  F3  UNL     1     -33.582  17.725  -9.911  1.00  0.00    -0.199 F 
HETATM   19  C11 UNL     1     -35.831  18.511  -9.648  1.00  0.00     0.184 A 
HETATM   20  F4  UNL     1     -35.614  18.674  -8.313  1.00  0.00    -0.200 F 
ENDBRANCH   9  11
ENDBRANCH   3   7
BRANCH   1  21
HETATM   21  O1  UNL     1     -40.072  21.508  -4.704  1.00  0.00    -0.353 OA
HETATM   22  C1  UNL     1     -39.507  22.727  -4.296  1.00  0.00     0.210 C 
ENDBRANCH   1  21
BRANCH   5  23
HETATM   23  O3  UNL     1     -43.331  21.442  -8.244  1.00  0.00    -0.348 OA
BRANCH  23  24
HETATM   24  C14 UNL     1     -44.278  20.542  -8.618  1.00  0.00     0.180 C 
BRANCH  24  25
HETATM   25  C15 UNL     1     -44.169  19.892  -9.952  1.00  0.00     0.010 C 
HETATM   26  C16 UNL     1     -45.175  20.570 -10.896  1.00  0.00     0.007 C 
HETATM   27  C17 UNL     1     -45.567  19.512 -11.895  1.00  0.00     0.000 C 
HETATM   28  C18 UNL     1     -45.575  18.254 -11.077  1.00  0.00     0.000 C 
HETATM   29  C19 UNL     1     -44.617  18.443  -9.939  1.00  0.00     0.007 C 
ENDBRANCH  24  25
ENDBRANCH  23  24
ENDBRANCH   5  23
BRANCH   6  30
HETATM   30  O4  UNL     1     -42.658  21.753  -5.616  1.00  0.00    -0.340 OA
BRANCH  30  31
HETATM   31  C21 UNL     1     -43.628  22.029  -4.779  1.00  0.00     0.133 C 
HETATM   32  C22 UNL     1     -44.445  23.270  -5.052  1.00  0.00     0.058 C 
HETATM   33  C23 UNL     1     -45.914  23.082  -4.990  1.00  0.00     0.170 C 
HETATM   34  O5  UNL     1     -46.412  22.189  -4.100  1.00  0.00    -0.391 OA
HETATM   35  C24 UNL     1     -45.520  21.414  -3.413  1.00  0.00     0.170 C 
HETATM   36  C25 UNL     1     -44.577  20.841  -4.477  1.00  0.00     0.058 C 
ENDBRANCH  30  31
ENDBRANCH   6  30
TORSDOF 8
ENDMDL
MODEL 5
REMARK VINA RESULT: -10.475915058      4.266      9.719
REMARK  8 active torsions:
REMARK  status: ('A' for Active; 'I' for Inactive)
REMARK    1  A    between atoms: O1_2  and  C2_3 
REMARK    2  A    between atoms: C4_5  and  C5_6 
REMARK       I    between atoms: C5_6  and  N1_8 
REMARK    3  A    between atoms: N1_8  and  C6_10 
REMARK    4  A    between atoms: C13_21  and  O3_22 
REMARK    5  A    between atoms: O3_22  and  C14_23 
REMARK    6  A    between atoms: C14_23  and  C15_24 
REMARK    7  A    between atoms: C20_29  and  O4_30 
REMARK    8  A    between atoms: O4_30  and  C21_31 
ROOT
HETATM    1  C2  UNL     1     -40.110  23.093  -6.903  1.00  0.00     0.105 A 
HETATM    2  C3  UNL     1     -39.240  22.603  -7.851  1.00  0.00     0.057 A 
HETATM    3  C4  UNL     1     -39.636  21.738  -8.843  1.00  0.00     0.037 A 
HETATM    4  C12 UNL     1     -40.983  21.356  -8.868  1.00  0.00     0.057 A 
HETATM    5  C13 UNL     1     -41.871  21.824  -7.940  1.00  0.00     0.105 A 
HETATM    6  C20 UNL     1     -41.449  22.717  -6.921  1.00  0.00     0.136 A 
ENDROOT
BRANCH   3   7
HETATM    7  C5  UNL     1     -38.706  21.211  -9.843  1.00  0.00     0.256 C 
HETATM    8  O2  UNL     1     -38.360  21.992 -10.738  1.00  0.00    -0.267 OA
HETATM    9  N1  UNL     1     -38.252  19.896  -9.766  1.00  0.00    -0.320 N 
ATOM     10  H1  UNL     1     -38.611  19.349  -8.982  1.00  0.00     0.169 HD
BRANCH   9  11
HETATM   11  C6  UNL     1     -37.359  19.219 -10.632  1.00  0.00     0.080 A 
HETATM   12  C7  UNL     1     -37.521  19.101 -11.980  1.00  0.00     0.078 A 
HETATM   13  C8  UNL     1     -36.605  18.421 -12.789  1.00  0.00     0.160 A 
HETATM   14  F1  UNL     1     -36.823  18.339 -14.132  1.00  0.00    -0.203 F 
HETATM   15  C9  UNL     1     -35.498  17.850 -12.211  1.00  0.00     0.196 A 
HETATM   16  F2  UNL     1     -34.634  17.199 -13.031  1.00  0.00    -0.199 F 
HETATM   17  C10 UNL     1     -35.311  17.954 -10.859  1.00  0.00     0.198 A 
HETATM   18  F3  UNL     1     -34.201  17.369 -10.339  1.00  0.00    -0.199 F 
HETATM   19  C11 UNL     1     -36.225  18.626 -10.085  1.00  0.00     0.184 A 
HETATM   20  F4  UNL     1     -36.004  18.706  -8.744  1.00  0.00    -0.200 F 
ENDBRANCH   9  11
ENDBRANCH   3   7
BRANCH   1  21
HETATM   21  O1  UNL     1     -39.653  23.970  -5.918  1.00  0.00    -0.353 OA
HETATM   22  C1  UNL     1     -39.106  23.430  -4.742  1.00  0.00     0.210 C 
ENDBRANCH   1  21
BRANCH   5  23
HETATM   23  O3  UNL     1     -43.184  21.434  -7.982  1.00  0.00    -0.348 OA
BRANCH  23  24
HETATM   24  C14 UNL     1     -43.791  20.240  -8.211  1.00  0.00     0.180 C 
BRANCH  24  25
HETATM   25  C15 UNL     1     -44.697  20.104  -9.385  1.00  0.00     0.010 C 
HETATM   26  C16 UNL     1     -44.682  18.633  -9.831  1.00  0.00     0.007 C 
HETATM   27  C17 UNL     1     -44.949  18.659 -11.314  1.00  0.00     0.000 C 
HETATM   28  C18 UNL     1     -44.242  19.902 -11.768  1.00  0.00     0.000 C 
HETATM   29  C19 UNL     1     -44.191  20.849 -10.606  1.00  0.00     0.007 C 
ENDBRANCH  24  25
ENDBRANCH  23  24
ENDBRANCH   5  23
BRANCH   6  30
HETATM   30  O4  UNL     1     -42.278  23.150  -6.061  1.00  0.00    -0.340 OA
BRANCH  30  31
HETATM   31  C21 UNL     1     -43.115  23.596  -5.157  1.00  0.00     0.133 C 
HETATM   32  C22 UNL     1     -43.176  25.092  -4.949  1.00  0.00     0.058 C 
HETATM   33  C23 UNL     1     -44.542  25.667  -4.922  1.00  0.00     0.170 C 
HETATM   34  O5  UNL     1     -45.544  24.921  -4.396  1.00  0.00    -0.391 OA
HETATM   35  C24 UNL     1     -45.261  23.629  -4.053  1.00  0.00     0.170 C 
HETATM   36  C25 UNL     1     -44.553  23.031  -5.275  1.00  0.00     0.058 C 
ENDBRANCH  30  31
ENDBRANCH   6  30
TORSDOF 8
ENDMDL
