MODEL 1
REMARK VINA RESULT: -9.187475007      0.000      0.000
REMARK  9 active torsions:
REMARK  status: ('A' for Active; 'I' for Inactive)
REMARK    1  A    between atoms: C7_11  and  C8_12 
REMARK    2  A    between atoms: C8_12  and  C9_13 
REMARK    3  A    between atoms: C8_12  and  O3_16 
REMARK    4  A    between atoms: C8_12  and  C15_22 
REMARK    5  A    between atoms: C9_13  and  O2_14 
REMARK    6  A    between atoms: O3_16  and  C10_17 
REMARK    7  A    between atoms: C10_17  and  C11_18 
REMARK    8  A    between atoms: C11_18  and  C12_19 
REMARK    9  A    between atoms: C20_28  and  N1_29 
ROOT
HETATM    1  C8  UNL     1     -40.530  21.744  -7.433  1.00  0.00     0.139 C 
ENDROOT
BRANCH   1   2
HETATM    2  C7  UNL     1     -40.249  23.143  -7.040  1.00  0.00     0.020 A 
HETATM    3  C2  UNL     1     -38.978  23.824  -7.100  1.00  0.00    -0.010 A 
HETATM    4  C1  UNL     1     -37.898  23.211  -7.460  1.00  0.00     0.026 C 
HETATM    5  C3  UNL     1     -38.822  25.227  -6.675  1.00  0.00     0.070 A 
HETATM    6 CL1  UNL     1     -37.250  26.045  -6.764  1.00  0.00    -0.082 Cl
HETATM    7  C4  UNL     1     -39.835  25.902  -6.226  1.00  0.00     0.108 A 
HETATM    8 CL2  UNL     1     -39.605  27.585  -5.726  1.00  0.00    -0.078 Cl
HETATM    9  C5  UNL     1     -41.132  25.261  -6.138  1.00  0.00     0.217 A 
HETATM   10  O1  UNL     1     -42.096  25.931  -5.697  1.00  0.00    -0.285 OA
HETATM   11  C6  UNL     1     -41.284  23.867  -6.560  1.00  0.00     0.096 A 
HETATM   12 CL3  UNL     1     -42.850  23.170  -6.214  1.00  0.00    -0.079 Cl
ENDBRANCH   1   2
BRANCH   1  13
HETATM   13  C9  UNL     1     -40.651  20.923  -6.228  1.00  0.00     0.212 C 
BRANCH  13  14
HETATM   14  O2  UNL     1     -39.743  21.058  -5.218  1.00  0.00    -0.397 OA
ATOM     15  H2  UNL     1     -39.653  20.372  -4.567  1.00  0.00     0.209 HD
ENDBRANCH  13  14
ENDBRANCH   1  13
BRANCH   1  16
HETATM   16  O3  UNL     1     -41.808  21.868  -8.159  1.00  0.00    -0.368 OA
BRANCH  16  17
HETATM   17  C10 UNL     1     -42.472  20.708  -8.180  1.00  0.00     0.170 C 
BRANCH  17  18
HETATM   18  C11 UNL     1     -43.781  20.666  -8.859  1.00  0.00     0.030 C 
BRANCH  18  19
HETATM   19  C12 UNL     1     -43.947  20.377 -10.296  1.00  0.00    -0.021 C 
HETATM   20  C13 UNL     1     -43.075  21.425 -11.084  1.00  0.00     0.009 C 
HETATM   21  C14 UNL     1     -45.368  20.766 -10.791  1.00  0.00     0.009 C 
ENDBRANCH  18  19
ENDBRANCH  17  18
ENDBRANCH  16  17
ENDBRANCH   1  16
BRANCH   1  22
HETATM   22  C15 UNL     1     -39.679  21.225  -8.544  1.00  0.00    -0.014 A 
HETATM   23  C16 UNL     1     -39.746  21.839  -9.775  1.00  0.00     0.019 A 
HETATM   24  C17 UNL     1     -39.014  21.403 -10.855  1.00  0.00    -0.037 A 
HETATM   25  C18 UNL     1     -39.059  22.039 -12.194  1.00  0.00     0.050 C 
HETATM   26  C19 UNL     1     -38.187  20.314 -10.692  1.00  0.00     0.073 A 
HETATM   27 CL4  UNL     1     -37.236  19.737 -12.072  1.00  0.00    -0.081 Cl
HETATM   28  C20 UNL     1     -38.083  19.663  -9.482  1.00  0.00     0.125 A 
HETATM   29  C21 UNL     1     -38.852  20.148  -8.412  1.00  0.00     0.048 A 
BRANCH  28  30
HETATM   30  N1  UNL     1     -37.230  18.541  -9.322  1.00  0.00    -0.114 N 
HETATM   31  O4  UNL     1     -36.217  18.658  -8.615  1.00  0.00    -0.532 OA
HETATM   32  O5  UNL     1     -37.557  17.372  -9.953  1.00  0.00    -0.532 OA
ENDBRANCH  28  30
ENDBRANCH   1  22
TORSDOF 9
ENDMDL
MODEL 2
REMARK VINA RESULT: -8.913790330      1.635      2.155
REMARK  9 active torsions:
REMARK  status: ('A' for Active; 'I' for Inactive)
REMARK    1  A    between atoms: C7_11  and  C8_12 
REMARK    2  A    between atoms: C8_12  and  C9_13 
REMARK    3  A    between atoms: C8_12  and  O3_16 
REMARK    4  A    between atoms: C8_12  and  C15_22 
REMARK    5  A    between atoms: C9_13  and  O2_14 
REMARK    6  A    between atoms: O3_16  and  C10_17 
REMARK    7  A    between atoms: C10_17  and  C11_18 
REMARK    8  A    between atoms: C11_18  and  C12_19 
REMARK    9  A    between atoms: C20_28  and  N1_29 
ROOT
HETATM    1  C8  UNL     1     -40.937  21.858  -7.018  1.00  0.00     0.139 C 
ENDROOT
BRANCH   1   2
HETATM    2  C7  UNL     1     -40.649  23.271  -6.688  1.00  0.00     0.020 A 
HETATM    3  C2  UNL     1     -39.370  23.936  -6.754  1.00  0.00    -0.010 A 
HETATM    4  C1  UNL     1     -38.290  23.296  -7.062  1.00  0.00     0.026 C 
HETATM    5  C3  UNL     1     -39.207  25.357  -6.396  1.00  0.00     0.070 A 
HETATM    6 CL1  UNL     1     -37.626  26.154  -6.491  1.00  0.00    -0.082 Cl
HETATM    7  C4  UNL     1     -40.222  26.062  -6.001  1.00  0.00     0.108 A 
HETATM    8 CL2  UNL     1     -39.985  27.766  -5.579  1.00  0.00    -0.078 Cl
HETATM    9  C5  UNL     1     -41.527  25.440  -5.909  1.00  0.00     0.217 A 
HETATM   10  O1  UNL     1     -42.493  26.139  -5.522  1.00  0.00    -0.285 OA
HETATM   11  C6  UNL     1     -41.686  24.028  -6.265  1.00  0.00     0.096 A 
HETATM   12 CL3  UNL     1     -43.266  23.364  -5.919  1.00  0.00    -0.079 Cl
ENDBRANCH   1   2
BRANCH   1  13
HETATM   13  C9  UNL     1     -41.213  21.123  -5.783  1.00  0.00     0.212 C 
BRANCH  13  14
HETATM   14  O2  UNL     1     -40.399  21.284  -4.700  1.00  0.00    -0.397 OA
ATOM     15  H2  UNL     1     -39.798  20.591  -4.451  1.00  0.00     0.209 HD
ENDBRANCH  13  14
ENDBRANCH   1  13
BRANCH   1  16
HETATM   16  O3  UNL     1     -42.127  21.969  -7.883  1.00  0.00    -0.368 OA
BRANCH  16  17
HETATM   17  C10 UNL     1     -42.768  20.799  -7.985  1.00  0.00     0.170 C 
BRANCH  17  18
HETATM   18  C11 UNL     1     -43.989  20.743  -8.810  1.00  0.00     0.030 C 
BRANCH  18  19
HETATM   19  C12 UNL     1     -43.994  20.374 -10.239  1.00  0.00    -0.021 C 
HETATM   20  C13 UNL     1     -43.040  21.384 -10.981  1.00  0.00     0.009 C 
HETATM   21  C14 UNL     1     -45.351  20.725 -10.910  1.00  0.00     0.009 C 
ENDBRANCH  18  19
ENDBRANCH  17  18
ENDBRANCH  16  17
ENDBRANCH   1  16
BRANCH   1  22
HETATM   22  C15 UNL     1     -39.994  21.240  -7.997  1.00  0.00    -0.014 A 
HETATM   23  C16 UNL     1     -39.191  20.201  -7.582  1.00  0.00     0.019 A 
HETATM   24  C17 UNL     1     -38.279  19.598  -8.416  1.00  0.00    -0.037 A 
HETATM   25  C18 UNL     1     -37.399  18.476  -8.004  1.00  0.00     0.050 C 
HETATM   26  C19 UNL     1     -38.169  20.054  -9.710  1.00  0.00     0.073 A 
HETATM   27 CL4  UNL     1     -36.999  19.290 -10.800  1.00  0.00    -0.081 Cl
HETATM   28  C20 UNL     1     -38.948  21.092 -10.176  1.00  0.00     0.125 A 
HETATM   29  C21 UNL     1     -39.864  21.672  -9.284  1.00  0.00     0.048 A 
BRANCH  28  30
HETATM   30  N1  UNL     1     -38.830  21.557 -11.511  1.00  0.00    -0.114 N 
HETATM   31  O4  UNL     1     -39.486  20.993 -12.400  1.00  0.00    -0.532 OA
HETATM   32  O5  UNL     1     -37.995  22.611 -11.767  1.00  0.00    -0.532 OA
ENDBRANCH  28  30
ENDBRANCH   1  22
TORSDOF 9
ENDMDL
MODEL 3
REMARK VINA RESULT: -8.900974287      1.252      1.993
REMARK  9 active torsions:
REMARK  status: ('A' for Active; 'I' for Inactive)
REMARK    1  A    between atoms: C7_11  and  C8_12 
REMARK    2  A    between atoms: C8_12  and  C9_13 
REMARK    3  A    between atoms: C8_12  and  O3_16 
REMARK    4  A    between atoms: C8_12  and  C15_22 
REMARK    5  A    between atoms: C9_13  and  O2_14 
REMARK    6  A    between atoms: O3_16  and  C10_17 
REMARK    7  A    between atoms: C10_17  and  C11_18 
REMARK    8  A    between atoms: C11_18  and  C12_19 
REMARK    9  A    between atoms: C20_28  and  N1_29 
ROOT
HETATM    1  C8  UNL     1     -40.431  21.742  -7.526  1.00  0.00     0.139 C 
ENDROOT
BRANCH   1   2
HETATM    2  C7  UNL     1     -40.130  23.137  -7.138  1.00  0.00     0.020 A 
HETATM    3  C2  UNL     1     -41.080  24.171  -6.806  1.00  0.00    -0.010 A 
HETATM    4  C1  UNL     1     -42.355  23.971  -6.891  1.00  0.00     0.026 C 
HETATM    5  C3  UNL     1     -40.656  25.533  -6.433  1.00  0.00     0.070 A 
HETATM    6 CL1  UNL     1     -41.843  26.786  -6.023  1.00  0.00    -0.082 Cl
HETATM    7  C4  UNL     1     -39.398  25.850  -6.395  1.00  0.00     0.108 A 
HETATM    8 CL2  UNL     1     -38.931  27.497  -5.943  1.00  0.00    -0.078 Cl
HETATM    9  C5  UNL     1     -38.404  24.850  -6.728  1.00  0.00     0.217 A 
HETATM   10  O1  UNL     1     -37.195  25.179  -6.688  1.00  0.00    -0.285 OA
HETATM   11  C6  UNL     1     -38.828  23.498  -7.098  1.00  0.00     0.096 A 
HETATM   12 CL3  UNL     1     -37.538  22.460  -7.662  1.00  0.00    -0.079 Cl
ENDBRANCH   1   2
BRANCH   1  13
HETATM   13  C9  UNL     1     -40.532  20.920  -6.321  1.00  0.00     0.212 C 
BRANCH  13  14
HETATM   14  O2  UNL     1     -39.731  21.183  -5.247  1.00  0.00    -0.397 OA
ATOM     15  H2  UNL     1     -40.116  21.301  -4.387  1.00  0.00     0.209 HD
ENDBRANCH  13  14
ENDBRANCH   1  13
BRANCH   1  16
HETATM   16  O3  UNL     1     -41.723  21.877  -8.224  1.00  0.00    -0.368 OA
BRANCH  16  17
HETATM   17  C10 UNL     1     -42.443  20.753  -8.142  1.00  0.00     0.170 C 
BRANCH  17  18
HETATM   18  C11 UNL     1     -43.752  20.712  -8.821  1.00  0.00     0.030 C 
BRANCH  18  19
HETATM   19  C12 UNL     1     -43.922  20.379 -10.248  1.00  0.00    -0.021 C 
HETATM   20  C13 UNL     1     -43.045  21.397 -11.069  1.00  0.00     0.009 C 
HETATM   21  C14 UNL     1     -45.342  20.759 -10.753  1.00  0.00     0.009 C 
ENDBRANCH  18  19
ENDBRANCH  17  18
ENDBRANCH  16  17
ENDBRANCH   1  16
BRANCH   1  22
HETATM   22  C15 UNL     1     -39.609  21.217  -8.657  1.00  0.00    -0.014 A 
HETATM   23  C16 UNL     1     -39.646  21.875  -9.867  1.00  0.00     0.019 A 
HETATM   24  C17 UNL     1     -38.938  21.439 -10.962  1.00  0.00    -0.037 A 
HETATM   25  C18 UNL     1     -38.953  22.120 -12.280  1.00  0.00     0.050 C 
HETATM   26  C19 UNL     1     -38.168  20.304 -10.839  1.00  0.00     0.073 A 
HETATM   27 CL4  UNL     1     -37.249  19.725 -12.240  1.00  0.00    -0.081 Cl
HETATM   28  C20 UNL     1     -38.097  19.607  -9.651  1.00  0.00     0.125 A 
HETATM   29  C21 UNL     1     -38.838  20.095  -8.563  1.00  0.00     0.048 A 
BRANCH  28  30
HETATM   30  N1  UNL     1     -37.301  18.439  -9.531  1.00  0.00    -0.114 N 
HETATM   31  O4  UNL     1     -36.256  18.495  -8.865  1.00  0.00    -0.532 OA
HETATM   32  O5  UNL     1     -37.719  17.294 -10.155  1.00  0.00    -0.532 OA
ENDBRANCH  28  30
ENDBRANCH   1  22
TORSDOF 9
ENDMDL
MODEL 4
REMARK VINA RESULT: -8.514676426      2.907      6.541
REMARK  9 active torsions:
REMARK  status: ('A' for Active; 'I' for Inactive)
REMARK    1  A    between atoms: C7_11  and  C8_12 
REMARK    2  A    between atoms: C8_12  and  C9_13 
REMARK    3  A    between atoms: C8_12  and  O3_16 
REMARK    4  A    between atoms: C8_12  and  C15_22 
REMARK    5  A    between atoms: C9_13  and  O2_14 
REMARK    6  A    between atoms: O3_16  and  C10_17 
REMARK    7  A    between atoms: C10_17  and  C11_18 
REMARK    8  A    between atoms: C11_18  and  C12_19 
REMARK    9  A    between atoms: C20_28  and  N1_29 
ROOT
HETATM    1  C8  UNL     1     -39.721  21.265  -6.660  1.00  0.00     0.139 C 
ENDROOT
BRANCH   1   2
HETATM    2  C7  UNL     1     -40.972  21.209  -7.448  1.00  0.00     0.020 A 
HETATM    3  C2  UNL     1     -41.099  21.288  -8.883  1.00  0.00    -0.010 A 
HETATM    4  C1  UNL     1     -40.073  21.495  -9.643  1.00  0.00     0.026 C 
HETATM    5  C3  UNL     1     -42.408  21.221  -9.558  1.00  0.00     0.070 A 
HETATM    6 CL1  UNL     1     -42.539  21.314 -11.324  1.00  0.00    -0.082 Cl
HETATM    7  C4  UNL     1     -43.502  21.091  -8.872  1.00  0.00     0.108 A 
HETATM    8 CL2  UNL     1     -45.055  21.015  -9.720  1.00  0.00    -0.078 Cl
HETATM    9  C5  UNL     1     -43.430  21.015  -7.427  1.00  0.00     0.217 A 
HETATM   10  O1  UNL     1     -44.499  20.893  -6.784  1.00  0.00    -0.285 OA
HETATM   11  C6  UNL     1     -42.128  21.082  -6.760  1.00  0.00     0.096 A 
HETATM   12 CL3  UNL     1     -42.208  21.177  -5.015  1.00  0.00    -0.079 Cl
ENDBRANCH   1   2
BRANCH   1  13
HETATM   13  C9  UNL     1     -39.577  20.024  -5.900  1.00  0.00     0.212 C 
BRANCH  13  14
HETATM   14  O2  UNL     1     -40.167  18.878  -6.348  1.00  0.00    -0.397 OA
ATOM     15  H2  UNL     1     -39.833  18.445  -7.125  1.00  0.00     0.209 HD
ENDBRANCH  13  14
ENDBRANCH   1  13
BRANCH   1  16
HETATM   16  O3  UNL     1     -38.691  21.406  -7.706  1.00  0.00    -0.368 OA
BRANCH  16  17
HETATM   17  C10 UNL     1     -37.614  20.661  -7.436  1.00  0.00     0.170 C 
BRANCH  17  18
HETATM   18  C11 UNL     1     -36.986  19.915  -8.544  1.00  0.00     0.030 C 
BRANCH  18  19
HETATM   19  C12 UNL     1     -36.927  18.442  -8.606  1.00  0.00    -0.021 C 
HETATM   20  C13 UNL     1     -35.410  18.046  -8.763  1.00  0.00     0.009 C 
HETATM   21  C14 UNL     1     -37.496  17.909  -9.951  1.00  0.00     0.009 C 
ENDBRANCH  18  19
ENDBRANCH  17  18
ENDBRANCH  16  17
ENDBRANCH   1  16
BRANCH   1  22
HETATM   22  C15 UNL     1     -39.496  22.552  -5.936  1.00  0.00    -0.014 A 
HETATM   23  C16 UNL     1     -39.197  22.515  -4.592  1.00  0.00     0.019 A 
HETATM   24  C17 UNL     1     -39.002  23.657  -3.851  1.00  0.00    -0.037 A 
HETATM   25  C18 UNL     1     -38.679  23.657  -2.403  1.00  0.00     0.050 C 
HETATM   26  C19 UNL     1     -39.111  24.877  -4.481  1.00  0.00     0.073 A 
HETATM   27 CL4  UNL     1     -38.864  26.360  -3.543  1.00  0.00    -0.081 Cl
HETATM   28  C20 UNL     1     -39.408  24.970  -5.824  1.00  0.00     0.125 A 
HETATM   29  C21 UNL     1     -39.597  23.774  -6.535  1.00  0.00     0.048 A 
BRANCH  28  30
HETATM   30  N1  UNL     1     -39.519  26.229  -6.467  1.00  0.00    -0.114 N 
HETATM   31  O4  UNL     1     -40.644  26.737  -6.594  1.00  0.00    -0.532 OA
HETATM   32  O5  UNL     1     -38.380  26.836  -6.922  1.00  0.00    -0.532 OA
ENDBRANCH  28  30
ENDBRANCH   1  22
TORSDOF 9
ENDMDL
MODEL 5
REMARK VINA RESULT: -8.503177993      2.956      6.946
REMARK  9 active torsions:
REMARK  status: ('A' for Active; 'I' for Inactive)
REMARK    1  A    between atoms: C7_11  and  C8_12 
REMARK    2  A    between atoms: C8_12  and  C9_13 
REMARK    3  A    between atoms: C8_12  and  O3_16 
REMARK    4  A    between atoms: C8_12  and  C15_22 
REMARK    5  A    between atoms: C9_13  and  O2_14 
REMARK    6  A    between atoms: O3_16  and  C10_17 
REMARK    7  A    between atoms: C10_17  and  C11_18 
REMARK    8  A    between atoms: C11_18  and  C12_19 
REMARK    9  A    between atoms: C20_28  and  N1_29 
ROOT
HETATM    1  C8  UNL     1     -40.163  21.117  -6.408  1.00  0.00     0.139 C 
ENDROOT
BRANCH   1   2
HETATM    2  C7  UNL     1     -39.324  20.600  -7.512  1.00  0.00     0.020 A 
HETATM    3  C2  UNL     1     -39.390  20.977  -8.904  1.00  0.00    -0.010 A 
HETATM    4  C1  UNL     1     -40.288  21.798  -9.341  1.00  0.00     0.026 C 
HETATM    5  C3  UNL     1     -38.497  20.386  -9.918  1.00  0.00     0.070 A 
HETATM    6 CL1  UNL     1     -38.593  20.870 -11.621  1.00  0.00    -0.082 Cl
HETATM    7  C4  UNL     1     -37.614  19.496  -9.586  1.00  0.00     0.108 A 
HETATM    8 CL2  UNL     1     -36.560  18.811 -10.834  1.00  0.00    -0.078 Cl
HETATM    9  C5  UNL     1     -37.513  19.076  -8.203  1.00  0.00     0.217 A 
HETATM   10  O1  UNL     1     -36.654  18.212  -7.906  1.00  0.00    -0.285 OA
HETATM   11  C6  UNL     1     -38.401  19.664  -7.198  1.00  0.00     0.096 A 
HETATM   12 CL3  UNL     1     -38.301  18.924  -5.617  1.00  0.00    -0.079 Cl
ENDBRANCH   1   2
BRANCH   1  13
HETATM   13  C9  UNL     1     -41.431  20.388  -6.388  1.00  0.00     0.212 C 
BRANCH  13  14
HETATM   14  O2  UNL     1     -41.433  19.024  -6.395  1.00  0.00    -0.397 OA
ATOM     15  H2  UNL     1     -42.172  18.553  -6.762  1.00  0.00     0.209 HD
ENDBRANCH  13  14
ENDBRANCH   1  13
BRANCH   1  16
HETATM   16  O3  UNL     1     -39.334  20.836  -5.221  1.00  0.00    -0.368 OA
BRANCH  16  17
HETATM   17  C10 UNL     1     -39.908  21.299  -4.105  1.00  0.00     0.170 C 
BRANCH  17  18
HETATM   18  C11 UNL     1     -39.178  21.147  -2.831  1.00  0.00     0.030 C 
BRANCH  18  19
HETATM   19  C12 UNL     1     -38.368  22.219  -2.221  1.00  0.00    -0.021 C 
HETATM   20  C13 UNL     1     -38.886  22.409  -0.746  1.00  0.00     0.009 C 
HETATM   21  C14 UNL     1     -38.721  23.608  -2.823  1.00  0.00     0.009 C 
ENDBRANCH  18  19
ENDBRANCH  17  18
ENDBRANCH  16  17
ENDBRANCH   1  16
BRANCH   1  22
HETATM   22  C15 UNL     1     -40.216  22.606  -6.309  1.00  0.00    -0.014 A 
HETATM   23  C16 UNL     1     -41.440  23.218  -6.155  1.00  0.00     0.019 A 
HETATM   24  C17 UNL     1     -41.574  24.585  -6.082  1.00  0.00    -0.037 A 
HETATM   25  C18 UNL     1     -42.874  25.280  -5.916  1.00  0.00     0.050 C 
HETATM   26  C19 UNL     1     -40.440  25.362  -6.166  1.00  0.00     0.073 A 
HETATM   27 CL4  UNL     1     -40.592  27.126  -6.075  1.00  0.00    -0.081 Cl
HETATM   28  C20 UNL     1     -39.191  24.800  -6.321  1.00  0.00     0.125 A 
HETATM   29  C21 UNL     1     -39.110  23.400  -6.389  1.00  0.00     0.048 A 
BRANCH  28  30
HETATM   30  N1  UNL     1     -38.028  25.607  -6.407  1.00  0.00    -0.114 N 
HETATM   31  O4  UNL     1     -37.720  26.095  -7.506  1.00  0.00    -0.532 OA
HETATM   32  O5  UNL     1     -37.288  25.815  -5.275  1.00  0.00    -0.532 OA
ENDBRANCH  28  30
ENDBRANCH   1  22
TORSDOF 9
ENDMDL
