MODEL 1
REMARK VINA RESULT: -8.944960574      0.000      0.000
REMARK  10 active torsions:
REMARK  status: ('A' for Active; 'I' for Inactive)
REMARK    1  A    between atoms: C2_2  and  O1_3 
REMARK    2  A    between atoms: O1_3  and  C3_4 
REMARK    3  A    between atoms: C3_4  and  C4_6 
REMARK    4  A    between atoms: C4_6  and  C5_7 
REMARK    5  A    between atoms: C6_8  and  C7_9 
REMARK    6  A    between atoms: C7_9  and  S1_10 
REMARK    7  A    between atoms: S1_10  and  C8_11 
REMARK    8  A    between atoms: C8_11  and  C9_12 
REMARK       I    between atoms: C9_12  and  N1_14 
REMARK    9  A    between atoms: N1_14  and  C10_16 
REMARK   10  A    between atoms: C19_26  and  C20_27 
ROOT
HETATM    1  C5  UNL     1     -38.708  20.962  -7.935  1.00  0.00    -0.013 A 
HETATM    2  C6  UNL     1     -38.645  19.583  -7.698  1.00  0.00    -0.024 A 
HETATM    3  C17 UNL     1     -38.833  19.413  -6.370  1.00  0.00     0.099 A 
HETATM    4  N2  UNL     1     -39.018  20.607  -5.725  1.00  0.00    -0.360 N 
HETATM    5  C18 UNL     1     -39.242  20.734  -4.283  1.00  0.00     0.155 C 
HETATM    6  C19 UNL     1     -38.945  21.542  -6.676  1.00  0.00     0.073 A 
ENDROOT
BRANCH   2   7
HETATM    7  C7  UNL     1     -38.304  18.496  -8.733  1.00  0.00     0.119 C 
BRANCH   7   8
HETATM    8  S1  UNL     1     -36.585  18.509  -8.972  1.00  0.00    -0.131 SA
BRANCH   8   9
HETATM    9  C8  UNL     1     -35.294  17.707  -8.287  1.00  0.00     0.119 C 
BRANCH   9  10
HETATM   10  C9  UNL     1     -34.182  17.137  -9.074  1.00  0.00     0.247 C 
HETATM   11  O3  UNL     1     -33.427  16.273  -8.633  1.00  0.00    -0.268 OA
HETATM   12  N1  UNL     1     -33.944  17.578 -10.437  1.00  0.00    -0.353 N 
ATOM     13  H1  UNL     1     -34.495  18.340 -10.832  1.00  0.00     0.163 HD
BRANCH  12  14
HETATM   14  C10 UNL     1     -32.933  16.939 -11.224  1.00  0.00     0.084 C 
HETATM   15  C11 UNL     1     -31.751  17.800 -11.615  1.00  0.00     0.025 C 
HETATM   16  C12 UNL     1     -30.475  17.016 -11.423  1.00  0.00     0.002 C 
HETATM   17  C13 UNL     1     -30.208  15.987 -12.460  1.00  0.00     0.000 C 
HETATM   18  C14 UNL     1     -31.348  15.066 -12.767  1.00  0.00     0.000 C 
HETATM   19  C15 UNL     1     -32.484  15.810 -13.416  1.00  0.00     0.002 C 
HETATM   20  C16 UNL     1     -33.477  16.129 -12.316  1.00  0.00     0.025 C 
ENDBRANCH  12  14
ENDBRANCH   9  10
ENDBRANCH   8   9
ENDBRANCH   7   8
ENDBRANCH   2   7
BRANCH   1  21
HETATM   21  C4  UNL     1     -38.658  21.563  -9.244  1.00  0.00     0.152 C 
BRANCH  21  22
HETATM   22  C3  UNL     1     -39.828  21.596 -10.123  1.00  0.00     0.263 C 
HETATM   23  O2  UNL     1     -41.026  21.482  -9.872  1.00  0.00    -0.265 OA
BRANCH  22  24
HETATM   24  O1  UNL     1     -39.524  21.785 -11.492  1.00  0.00    -0.322 OA
BRANCH  24  25
HETATM   25  C2  UNL     1     -38.376  22.300 -12.018  1.00  0.00     0.174 C 
HETATM   26  C1  UNL     1     -38.010  21.947 -13.437  1.00  0.00     0.034 C 
ENDBRANCH  24  25
ENDBRANCH  22  24
ENDBRANCH  21  22
ENDBRANCH   1  21
BRANCH   6  27
HETATM   27  C20 UNL     1     -39.196  22.991  -6.487  1.00  0.00     0.231 C 
HETATM   28 CL1  UNL     1     -38.066  23.995  -7.372  1.00  0.00    -0.077 Cl
HETATM   29 CL2  UNL     1     -39.101  23.494  -4.783  1.00  0.00    -0.077 Cl
HETATM   30 CL3  UNL     1     -40.860  23.383  -7.072  1.00  0.00    -0.077 Cl
ENDBRANCH   6  27
TORSDOF 10
ENDMDL
MODEL 2
REMARK VINA RESULT: -8.932628157      4.377      9.072
REMARK  10 active torsions:
REMARK  status: ('A' for Active; 'I' for Inactive)
REMARK    1  A    between atoms: C2_2  and  O1_3 
REMARK    2  A    between atoms: O1_3  and  C3_4 
REMARK    3  A    between atoms: C3_4  and  C4_6 
REMARK    4  A    between atoms: C4_6  and  C5_7 
REMARK    5  A    between atoms: C6_8  and  C7_9 
REMARK    6  A    between atoms: C7_9  and  S1_10 
REMARK    7  A    between atoms: S1_10  and  C8_11 
REMARK    8  A    between atoms: C8_11  and  C9_12 
REMARK       I    between atoms: C9_12  and  N1_14 
REMARK    9  A    between atoms: N1_14  and  C10_16 
REMARK   10  A    between atoms: C19_26  and  C20_27 
ROOT
HETATM    1  C5  UNL     1     -37.474  19.424  -9.549  1.00  0.00    -0.013 A 
HETATM    2  C6  UNL     1     -38.178  20.540  -9.079  1.00  0.00    -0.024 A 
HETATM    3  C17 UNL     1     -38.619  21.204 -10.170  1.00  0.00     0.099 A 
HETATM    4  N2  UNL     1     -38.243  20.581 -11.331  1.00  0.00    -0.360 N 
HETATM    5  C18 UNL     1     -38.575  21.073 -12.670  1.00  0.00     0.155 C 
HETATM    6  C19 UNL     1     -37.553  19.502 -10.952  1.00  0.00     0.073 A 
ENDROOT
BRANCH   2   7
HETATM    7  C7  UNL     1     -38.309  20.980  -7.609  1.00  0.00     0.119 C 
BRANCH   7   8
HETATM    8  S1  UNL     1     -39.635  22.093  -7.503  1.00  0.00    -0.131 SA
BRANCH   8   9
HETATM    9  C8  UNL     1     -41.296  21.951  -7.505  1.00  0.00     0.119 C 
BRANCH   9  10
HETATM   10  C9  UNL     1     -42.062  21.380  -8.632  1.00  0.00     0.247 C 
HETATM   11  O3  UNL     1     -41.710  21.499  -9.803  1.00  0.00    -0.268 OA
HETATM   12  N1  UNL     1     -43.278  20.627  -8.388  1.00  0.00    -0.353 N 
ATOM     13  H1  UNL     1     -43.654  20.554  -7.443  1.00  0.00     0.163 HD
BRANCH  12  14
HETATM   14  C10 UNL     1     -43.947  19.987  -9.480  1.00  0.00     0.084 C 
HETATM   15  C11 UNL     1     -45.033  20.795 -10.160  1.00  0.00     0.025 C 
HETATM   16  C12 UNL     1     -44.902  20.649 -11.657  1.00  0.00     0.002 C 
HETATM   17  C13 UNL     1     -45.372  19.352 -12.205  1.00  0.00     0.000 C 
HETATM   18  C14 UNL     1     -44.855  18.130 -11.513  1.00  0.00     0.000 C 
HETATM   19  C15 UNL     1     -45.389  18.036 -10.110  1.00  0.00     0.002 C 
HETATM   20  C16 UNL     1     -44.317  18.599  -9.198  1.00  0.00     0.025 C 
ENDBRANCH  12  14
ENDBRANCH   9  10
ENDBRANCH   8   9
ENDBRANCH   7   8
ENDBRANCH   2   7
BRANCH   1  21
HETATM   21  C4  UNL     1     -36.927  18.394  -8.703  1.00  0.00     0.152 C 
BRANCH  21  22
HETATM   22  C3  UNL     1     -35.496  18.085  -8.689  1.00  0.00     0.263 C 
HETATM   23  O2  UNL     1     -34.517  18.818  -8.563  1.00  0.00    -0.265 OA
BRANCH  22  24
HETATM   24  O1  UNL     1     -35.194  16.713  -8.854  1.00  0.00    -0.322 OA
BRANCH  24  25
HETATM   25  C2  UNL     1     -33.963  16.127  -8.794  1.00  0.00     0.174 C 
HETATM   26  C1  UNL     1     -33.162  15.997 -10.064  1.00  0.00     0.034 C 
ENDBRANCH  24  25
ENDBRANCH  22  24
ENDBRANCH  21  22
ENDBRANCH   1  21
BRANCH   6  27
HETATM   27  C20 UNL     1     -37.034  18.445 -11.852  1.00  0.00     0.231 C 
HETATM   28 CL1  UNL     1     -35.283  18.380 -11.880  1.00  0.00    -0.077 Cl
HETATM   29 CL2  UNL     1     -37.566  18.648 -13.537  1.00  0.00    -0.077 Cl
HETATM   30 CL3  UNL     1     -37.638  16.839 -11.286  1.00  0.00    -0.077 Cl
ENDBRANCH   6  27
TORSDOF 10
ENDMDL
MODEL 3
REMARK VINA RESULT: -8.920684030      0.829      1.253
REMARK  10 active torsions:
REMARK  status: ('A' for Active; 'I' for Inactive)
REMARK    1  A    between atoms: C2_2  and  O1_3 
REMARK    2  A    between atoms: O1_3  and  C3_4 
REMARK    3  A    between atoms: C3_4  and  C4_6 
REMARK    4  A    between atoms: C4_6  and  C5_7 
REMARK    5  A    between atoms: C6_8  and  C7_9 
REMARK    6  A    between atoms: C7_9  and  S1_10 
REMARK    7  A    between atoms: S1_10  and  C8_11 
REMARK    8  A    between atoms: C8_11  and  C9_12 
REMARK       I    between atoms: C9_12  and  N1_14 
REMARK    9  A    between atoms: N1_14  and  C10_16 
REMARK   10  A    between atoms: C19_26  and  C20_27 
ROOT
HETATM    1  C5  UNL     1     -38.785  21.085  -7.371  1.00  0.00    -0.013 A 
HETATM    2  C6  UNL     1     -38.838  19.766  -6.904  1.00  0.00    -0.024 A 
HETATM    3  C17 UNL     1     -39.090  19.837  -5.578  1.00  0.00     0.099 A 
HETATM    4  N2  UNL     1     -39.207  21.134  -5.152  1.00  0.00    -0.360 N 
HETATM    5  C18 UNL     1     -39.476  21.520  -3.764  1.00  0.00     0.155 C 
HETATM    6  C19 UNL     1     -39.025  21.886  -6.240  1.00  0.00     0.073 A 
ENDROOT
BRANCH   2   7
HETATM    7  C7  UNL     1     -38.543  18.497  -7.725  1.00  0.00     0.119 C 
BRANCH   7   8
HETATM    8  S1  UNL     1     -36.891  18.578  -8.251  1.00  0.00    -0.131 SA
BRANCH   8   9
HETATM    9  C8  UNL     1     -36.131  18.782  -9.721  1.00  0.00     0.119 C 
BRANCH   9  10
HETATM   10  C9  UNL     1     -34.856  18.125 -10.074  1.00  0.00     0.247 C 
HETATM   11  O3  UNL     1     -34.057  17.724  -9.230  1.00  0.00    -0.268 OA
HETATM   12  N1  UNL     1     -34.501  17.909 -11.465  1.00  0.00    -0.353 N 
ATOM     13  H1  UNL     1     -35.092  18.281 -12.208  1.00  0.00     0.163 HD
BRANCH  12  14
HETATM   14  C10 UNL     1     -33.316  17.173 -11.789  1.00  0.00     0.084 C 
HETATM   15  C11 UNL     1     -32.079  17.998 -12.080  1.00  0.00     0.025 C 
HETATM   16  C12 UNL     1     -30.890  17.378 -11.387  1.00  0.00     0.002 C 
HETATM   17  C13 UNL     1     -30.357  16.151 -12.030  1.00  0.00     0.000 C 
HETATM   18  C14 UNL     1     -31.371  15.103 -12.367  1.00  0.00     0.000 C 
HETATM   19  C15 UNL     1     -32.307  15.582 -13.442  1.00  0.00     0.002 C 
HETATM   20  C16 UNL     1     -33.553  16.086 -12.739  1.00  0.00     0.025 C 
ENDBRANCH  12  14
ENDBRANCH   9  10
ENDBRANCH   8   9
ENDBRANCH   7   8
ENDBRANCH   2   7
BRANCH   1  21
HETATM   21  C4  UNL     1     -38.639  21.450  -8.758  1.00  0.00     0.152 C 
BRANCH  21  22
HETATM   22  C3  UNL     1     -39.783  21.493  -9.670  1.00  0.00     0.263 C 
HETATM   23  O2  UNL     1     -40.992  21.495  -9.443  1.00  0.00    -0.265 OA
BRANCH  22  24
HETATM   24  O1  UNL     1     -39.435  21.533 -11.040  1.00  0.00    -0.322 OA
BRANCH  24  25
HETATM   25  C2  UNL     1     -38.413  22.232 -11.612  1.00  0.00     0.174 C 
HETATM   26  C1  UNL     1     -38.282  22.223 -13.113  1.00  0.00     0.034 C 
ENDBRANCH  24  25
ENDBRANCH  22  24
ENDBRANCH  21  22
ENDBRANCH   1  21
BRANCH   6  27
HETATM   27  C20 UNL     1     -39.171  23.360  -6.308  1.00  0.00     0.231 C 
HETATM   28 CL1  UNL     1     -40.754  23.859  -6.868  1.00  0.00    -0.077 Cl
HETATM   29 CL2  UNL     1     -37.982  24.124  -7.389  1.00  0.00    -0.077 Cl
HETATM   30 CL3  UNL     1     -38.923  24.056  -4.659  1.00  0.00    -0.077 Cl
ENDBRANCH   6  27
TORSDOF 10
ENDMDL
MODEL 4
REMARK VINA RESULT: -8.715390592      1.218      1.804
REMARK  10 active torsions:
REMARK  status: ('A' for Active; 'I' for Inactive)
REMARK    1  A    between atoms: C2_2  and  O1_3 
REMARK    2  A    between atoms: O1_3  and  C3_4 
REMARK    3  A    between atoms: C3_4  and  C4_6 
REMARK    4  A    between atoms: C4_6  and  C5_7 
REMARK    5  A    between atoms: C6_8  and  C7_9 
REMARK    6  A    between atoms: C7_9  and  S1_10 
REMARK    7  A    between atoms: S1_10  and  C8_11 
REMARK    8  A    between atoms: C8_11  and  C9_12 
REMARK       I    between atoms: C9_12  and  N1_14 
REMARK    9  A    between atoms: N1_14  and  C10_16 
REMARK   10  A    between atoms: C19_26  and  C20_27 
ROOT
HETATM    1  C5  UNL     1     -39.319  20.957  -8.946  1.00  0.00    -0.013 A 
HETATM    2  C6  UNL     1     -38.341  19.960  -8.839  1.00  0.00    -0.024 A 
HETATM    3  C17 UNL     1     -38.247  19.651  -7.526  1.00  0.00     0.099 A 
HETATM    4  N2  UNL     1     -39.114  20.392  -6.767  1.00  0.00    -0.360 N 
HETATM    5  C18 UNL     1     -39.233  20.277  -5.311  1.00  0.00     0.155 C 
HETATM    6  C19 UNL     1     -39.763  21.179  -7.629  1.00  0.00     0.073 A 
ENDROOT
BRANCH   2   7
HETATM    7  C7  UNL     1     -37.464  19.419  -9.984  1.00  0.00     0.119 C 
BRANCH   7   8
HETATM    8  S1  UNL     1     -36.757  17.926  -9.453  1.00  0.00    -0.131 SA
BRANCH   8   9
HETATM    9  C8  UNL     1     -35.357  17.504  -8.652  1.00  0.00     0.119 C 
BRANCH   9  10
HETATM   10  C9  UNL     1     -34.144  17.015  -9.340  1.00  0.00     0.247 C 
HETATM   11  O3  UNL     1     -33.327  16.272  -8.801  1.00  0.00    -0.268 OA
HETATM   12  N1  UNL     1     -33.876  17.393 -10.715  1.00  0.00    -0.353 N 
ATOM     13  H1  UNL     1     -34.483  18.061 -11.190  1.00  0.00     0.163 HD
BRANCH  12  14
HETATM   14  C10 UNL     1     -32.757  16.824 -11.403  1.00  0.00     0.084 C 
HETATM   15  C11 UNL     1     -31.629  17.777 -11.740  1.00  0.00     0.025 C 
HETATM   16  C12 UNL     1     -30.307  17.117 -11.427  1.00  0.00     0.002 C 
HETATM   17  C13 UNL     1     -29.873  16.085 -12.402  1.00  0.00     0.000 C 
HETATM   18  C14 UNL     1     -30.900  15.056 -12.757  1.00  0.00     0.000 C 
HETATM   19  C15 UNL     1     -32.045  15.673 -13.512  1.00  0.00     0.002 C 
HETATM   20  C16 UNL     1     -33.143  15.935 -12.500  1.00  0.00     0.025 C 
ENDBRANCH  12  14
ENDBRANCH   9  10
ENDBRANCH   8   9
ENDBRANCH   7   8
ENDBRANCH   2   7
BRANCH   1  21
HETATM   21  C4  UNL     1     -39.798  21.494 -10.194  1.00  0.00     0.152 C 
BRANCH  21  22
HETATM   22  C3  UNL     1     -38.881  21.917 -11.255  1.00  0.00     0.263 C 
HETATM   23  O2  UNL     1     -37.985  22.758 -11.254  1.00  0.00    -0.265 OA
BRANCH  22  24
HETATM   24  O1  UNL     1     -39.066  21.246 -12.486  1.00  0.00    -0.322 OA
BRANCH  24  25
HETATM   25  C2  UNL     1     -38.103  20.891 -13.385  1.00  0.00     0.174 C 
HETATM   26  C1  UNL     1     -37.774  19.430 -13.554  1.00  0.00     0.034 C 
ENDBRANCH  24  25
ENDBRANCH  22  24
ENDBRANCH  21  22
ENDBRANCH   1  21
BRANCH   6  27
HETATM   27  C20 UNL     1     -40.888  22.085  -7.297  1.00  0.00     0.231 C 
HETATM   28 CL1  UNL     1     -41.715  21.626  -5.822  1.00  0.00    -0.077 Cl
HETATM   29 CL2  UNL     1     -42.123  22.153  -8.576  1.00  0.00    -0.077 Cl
HETATM   30 CL3  UNL     1     -40.251  23.762  -7.076  1.00  0.00    -0.077 Cl
ENDBRANCH   6  27
TORSDOF 10
ENDMDL
MODEL 5
REMARK VINA RESULT: -8.644457949      2.678      3.959
REMARK  10 active torsions:
REMARK  status: ('A' for Active; 'I' for Inactive)
REMARK    1  A    between atoms: C2_2  and  O1_3 
REMARK    2  A    between atoms: O1_3  and  C3_4 
REMARK    3  A    between atoms: C3_4  and  C4_6 
REMARK    4  A    between atoms: C4_6  and  C5_7 
REMARK    5  A    between atoms: C6_8  and  C7_9 
REMARK    6  A    between atoms: C7_9  and  S1_10 
REMARK    7  A    between atoms: S1_10  and  C8_11 
REMARK    8  A    between atoms: C8_11  and  C9_12 
REMARK       I    between atoms: C9_12  and  N1_14 
REMARK    9  A    between atoms: N1_14  and  C10_16 
REMARK   10  A    between atoms: C19_26  and  C20_27 
ROOT
HETATM    1  C5  UNL     1     -38.079  20.159 -10.038  1.00  0.00    -0.013 A 
HETATM    2  C6  UNL     1     -37.469  18.935  -9.733  1.00  0.00    -0.024 A 
HETATM    3  C17 UNL     1     -37.107  18.382 -10.912  1.00  0.00     0.099 A 
HETATM    4  N2  UNL     1     -37.446  19.180 -11.973  1.00  0.00    -0.360 N 
HETATM    5  C18 UNL     1     -37.181  18.837 -13.373  1.00  0.00     0.155 C 
HETATM    6  C19 UNL     1     -38.031  20.255 -11.441  1.00  0.00     0.073 A 
ENDROOT
BRANCH   2   7
HETATM    7  C7  UNL     1     -37.352  18.300  -8.335  1.00  0.00     0.119 C 
BRANCH   7   8
HETATM    8  S1  UNL     1     -35.716  17.761  -8.131  1.00  0.00    -0.131 SA
BRANCH   8   9
HETATM    9  C8  UNL     1     -34.914  16.317  -8.357  1.00  0.00     0.119 C 
BRANCH   9  10
HETATM   10  C9  UNL     1     -33.673  16.193  -9.150  1.00  0.00     0.247 C 
HETATM   11  O3  UNL     1     -32.629  15.739  -8.687  1.00  0.00    -0.268 OA
HETATM   12  N1  UNL     1     -33.649  16.598 -10.544  1.00  0.00    -0.353 N 
ATOM     13  H1  UNL     1     -34.465  17.043 -10.962  1.00  0.00     0.163 HD
BRANCH  12  14
HETATM   14  C10 UNL     1     -32.473  16.369 -11.329  1.00  0.00     0.084 C 
HETATM   15  C11 UNL     1     -31.597  17.578 -11.581  1.00  0.00     0.025 C 
HETATM   16  C12 UNL     1     -30.149  17.194 -11.391  1.00  0.00     0.002 C 
HETATM   17  C13 UNL     1     -29.559  16.399 -12.497  1.00  0.00     0.000 C 
HETATM   18  C14 UNL     1     -30.359  15.216 -12.943  1.00  0.00     0.000 C 
HETATM   19  C15 UNL     1     -31.650  15.646 -13.583  1.00  0.00     0.002 C 
HETATM   20  C16 UNL     1     -32.720  15.545 -12.514  1.00  0.00     0.025 C 
ENDBRANCH  12  14
ENDBRANCH   9  10
ENDBRANCH   8   9
ENDBRANCH   7   8
ENDBRANCH   2   7
BRANCH   1  21
HETATM   21  C4  UNL     1     -38.518  21.114  -9.052  1.00  0.00     0.152 C 
BRANCH  21  22
HETATM   22  C3  UNL     1     -39.759  20.930  -8.298  1.00  0.00     0.263 C 
HETATM   23  O2  UNL     1     -40.046  20.138  -7.403  1.00  0.00    -0.265 OA
BRANCH  22  24
HETATM   24  O1  UNL     1     -40.803  21.810  -8.669  1.00  0.00    -0.322 OA
BRANCH  24  25
HETATM   25  C2  UNL     1     -42.145  21.570  -8.607  1.00  0.00     0.174 C 
HETATM   26  C1  UNL     1     -42.880  21.244  -9.882  1.00  0.00     0.034 C 
ENDBRANCH  24  25
ENDBRANCH  22  24
ENDBRANCH  21  22
ENDBRANCH   1  21
BRANCH   6  27
HETATM   27  C20 UNL     1     -38.470  21.460 -12.184  1.00  0.00     0.231 C 
HETATM   28 CL1  UNL     1     -38.130  21.358 -13.900  1.00  0.00    -0.077 Cl
HETATM   29 CL2  UNL     1     -37.701  22.954 -11.598  1.00  0.00    -0.077 Cl
HETATM   30 CL3  UNL     1     -40.254  21.660 -11.985  1.00  0.00    -0.077 Cl
ENDBRANCH   6  27
TORSDOF 10
ENDMDL
