MODEL 1
REMARK VINA RESULT: -10.848885846      0.000      0.000
REMARK  8 active torsions:
REMARK  status: ('A' for Active; 'I' for Inactive)
REMARK    1  A    between atoms: C2_2  and  C3_3 
REMARK    2  A    between atoms: C4_4  and  O1_5 
REMARK    3  A    between atoms: O1_5  and  C5_6 
REMARK    4  A    between atoms: C5_6  and  C6_7 
REMARK    5  A    between atoms: C10_14  and  O2_15 
REMARK    6  A    between atoms: O2_15  and  C11_16 
REMARK    7  A    between atoms: C18_24  and  C19_25 
REMARK    8  A    between atoms: C18_24  and  C22_32 
ROOT
HETATM    1  C11 UNL     1     -37.862  19.513  -8.116  1.00  0.00     0.115 A 
HETATM    2  C12 UNL     1     -38.832  20.415  -8.441  1.00  0.00     0.049 A 
HETATM    3  C13 UNL     1     -40.023  20.541  -7.752  1.00  0.00    -0.032 A 
HETATM    4  C14 UNL     1     -40.231  19.708  -6.683  1.00  0.00    -0.046 A 
HETATM    5  C15 UNL     1     -39.238  18.781  -6.343  1.00  0.00     0.053 A 
HETATM    6  C16 UNL     1     -38.055  18.656  -7.028  1.00  0.00     0.150 A 
HETATM    7  F3  UNL     1     -37.165  17.743  -6.633  1.00  0.00    -0.203 F 
HETATM    8  C17 UNL     1     -41.565  20.241  -6.346  1.00  0.00     0.062 A 
HETATM    9  C18 UNL     1     -41.351  21.150  -7.512  1.00  0.00     0.053 A 
ENDROOT
BRANCH   1  10
HETATM   10  O2  UNL     1     -36.696  19.407  -8.811  1.00  0.00    -0.307 OA
BRANCH  10  11
HETATM   11  C10 UNL     1     -36.416  18.850 -10.023  1.00  0.00     0.086 A 
HETATM   12  C3  UNL     1     -35.361  18.038 -10.282  1.00  0.00     0.009 A 
HETATM   13  C4  UNL     1     -35.149  17.508 -11.555  1.00  0.00     0.079 A 
HETATM   14  C7  UNL     1     -36.026  17.818 -12.554  1.00  0.00     0.061 A 
HETATM   15  C8  UNL     1     -37.111  18.634 -12.356  1.00  0.00     0.039 A 
HETATM   16 CL1  UNL     1     -38.174  18.967 -13.706  1.00  0.00    -0.084 Cl
HETATM   17  C9  UNL     1     -37.295  19.137 -11.106  1.00  0.00     0.061 A 
BRANCH  12  18
HETATM   18  C2  UNL     1     -34.372  17.677  -9.235  1.00  0.00     0.040 C 
HETATM   19  C1  UNL     1     -34.788  16.404  -8.567  1.00  0.00     0.010 C 
ENDBRANCH  12  18
BRANCH  13  20
HETATM   20  O1  UNL     1     -34.040  16.669 -11.774  1.00  0.00    -0.345 OA
BRANCH  20  21
HETATM   21  C5  UNL     1     -32.917  17.119 -12.483  1.00  0.00     0.246 C 
BRANCH  21  22
HETATM   22  C6  UNL     1     -31.644  16.960 -11.663  1.00  0.00     0.377 C 
HETATM   23  F1  UNL     1     -31.322  18.167 -11.071  1.00  0.00    -0.212 F 
HETATM   24  F2  UNL     1     -31.852  15.970 -10.723  1.00  0.00    -0.212 F 
ENDBRANCH  21  22
ENDBRANCH  20  21
ENDBRANCH  13  20
ENDBRANCH  10  11
ENDBRANCH   1  10
BRANCH   9  25
HETATM   25  C19 UNL     1     -41.248  22.567  -7.130  1.00  0.00     0.087 C 
HETATM   26  N1  UNL     1     -42.275  23.339  -7.001  1.00  0.00    -0.377 N 
HETATM   27  C20 UNL     1     -41.916  24.667  -6.623  1.00  0.00     0.140 C 
ATOM     28  H1  UNL     1     -43.236  23.033  -7.152  1.00  0.00     0.160 HD
HETATM   29  C21 UNL     1     -40.404  24.735  -6.736  1.00  0.00     0.140 C 
HETATM   30  N2  UNL     1     -40.068  23.335  -6.841  1.00  0.00    -0.377 N 
ATOM     31  H2  UNL     1     -39.131  22.948  -6.727  1.00  0.00     0.160 HD
ENDBRANCH   9  25
BRANCH   9  32
HETATM   32  C22 UNL     1     -42.309  20.829  -8.633  1.00  0.00     0.010 C 
HETATM   33  C23 UNL     1     -43.733  20.696  -8.214  1.00  0.00     0.032 C 
HETATM   34  C24 UNL     1     -44.473  20.064  -9.405  1.00  0.00     0.168 C 
HETATM   35  O3  UNL     1     -44.407  20.973 -10.436  1.00  0.00    -0.391 OA
HETATM   36  C25 UNL     1     -43.139  21.240 -10.878  1.00  0.00     0.168 C 
HETATM   37  C26 UNL     1     -42.227  21.775  -9.795  1.00  0.00     0.032 C 
ENDBRANCH   9  32
TORSDOF 8
ENDMDL
MODEL 2
REMARK VINA RESULT: -9.752507477      4.246      6.594
REMARK  8 active torsions:
REMARK  status: ('A' for Active; 'I' for Inactive)
REMARK    1  A    between atoms: C2_2  and  C3_3 
REMARK    2  A    between atoms: C4_4  and  O1_5 
REMARK    3  A    between atoms: O1_5  and  C5_6 
REMARK    4  A    between atoms: C5_6  and  C6_7 
REMARK    5  A    between atoms: C10_14  and  O2_15 
REMARK    6  A    between atoms: O2_15  and  C11_16 
REMARK    7  A    between atoms: C18_24  and  C19_25 
REMARK    8  A    between atoms: C18_24  and  C22_32 
ROOT
HETATM    1  C11 UNL     1     -39.559  21.755  -4.963  1.00  0.00     0.115 A 
HETATM    2  C12 UNL     1     -39.633  23.103  -5.147  1.00  0.00     0.049 A 
HETATM    3  C13 UNL     1     -39.333  24.029  -4.166  1.00  0.00    -0.032 A 
HETATM    4  C14 UNL     1     -38.940  23.554  -2.942  1.00  0.00    -0.046 A 
HETATM    5  C15 UNL     1     -38.861  22.170  -2.746  1.00  0.00     0.053 A 
HETATM    6  C16 UNL     1     -39.158  21.250  -3.721  1.00  0.00     0.150 A 
HETATM    7  F3  UNL     1     -39.055  19.948  -3.445  1.00  0.00    -0.203 F 
HETATM    8  C17 UNL     1     -38.761  24.882  -2.325  1.00  0.00     0.062 A 
HETATM    9  C18 UNL     1     -39.192  25.411  -3.654  1.00  0.00     0.053 A 
ENDROOT
BRANCH   1  10
HETATM   10  O2  UNL     1     -39.860  20.862  -5.945  1.00  0.00    -0.307 OA
BRANCH  10  11
HETATM   11  C10 UNL     1     -39.290  20.631  -7.162  1.00  0.00     0.086 A 
HETATM   12  C3  UNL     1     -39.729  21.148  -8.337  1.00  0.00     0.009 A 
HETATM   13  C4  UNL     1     -39.083  20.863  -9.540  1.00  0.00     0.079 A 
HETATM   14  C7  UNL     1     -37.989  20.047  -9.526  1.00  0.00     0.061 A 
HETATM   15  C8  UNL     1     -37.498  19.493  -8.371  1.00  0.00     0.039 A 
HETATM   16 CL1  UNL     1     -36.089  18.458  -8.464  1.00  0.00    -0.084 Cl
HETATM   17  C9  UNL     1     -38.146  19.787  -7.211  1.00  0.00     0.061 A 
BRANCH  12  18
HETATM   18  C2  UNL     1     -40.919  22.034  -8.410  1.00  0.00     0.040 C 
HETATM   19  C1  UNL     1     -42.160  21.203  -8.500  1.00  0.00     0.010 C 
ENDBRANCH  12  18
BRANCH  13  20
HETATM   20  O1  UNL     1     -39.575  21.424 -10.734  1.00  0.00    -0.345 OA
BRANCH  20  21
HETATM   21  C5  UNL     1     -39.043  21.064 -11.981  1.00  0.00     0.246 C 
BRANCH  21  22
HETATM   22  C6  UNL     1     -38.439  22.266 -12.693  1.00  0.00     0.377 C 
HETATM   23  F1  UNL     1     -37.553  22.908 -11.847  1.00  0.00    -0.212 F 
HETATM   24  F2  UNL     1     -37.816  21.823 -13.843  1.00  0.00    -0.212 F 
ENDBRANCH  21  22
ENDBRANCH  20  21
ENDBRANCH  13  20
ENDBRANCH  10  11
ENDBRANCH   1  10
BRANCH   9  25
HETATM   25  C19 UNL     1     -38.133  26.154  -4.353  1.00  0.00     0.087 C 
HETATM   26  N1  UNL     1     -37.466  27.115  -3.805  1.00  0.00    -0.377 N 
HETATM   27  C20 UNL     1     -36.494  27.677  -4.685  1.00  0.00     0.140 C 
ATOM     28  H1  UNL     1     -37.616  27.435  -2.849  1.00  0.00     0.160 HD
HETATM   29  C21 UNL     1     -36.770  27.068  -6.048  1.00  0.00     0.140 C 
HETATM   30  N2  UNL     1     -37.653  25.982  -5.696  1.00  0.00    -0.377 N 
ATOM     31  H2  UNL     1     -37.899  25.206  -6.311  1.00  0.00     0.160 HD
ENDBRANCH   9  25
BRANCH   9  32
HETATM   32  C22 UNL     1     -40.534  26.095  -3.555  1.00  0.00     0.010 C 
HETATM   33  C23 UNL     1     -40.664  27.047  -2.415  1.00  0.00     0.032 C 
HETATM   34  C24 UNL     1     -42.161  27.378  -2.301  1.00  0.00     0.168 C 
HETATM   35  O3  UNL     1     -42.507  28.037  -3.457  1.00  0.00    -0.391 OA
HETATM   36  C25 UNL     1     -42.370  27.293  -4.599  1.00  0.00     0.168 C 
HETATM   37  C26 UNL     1     -40.962  26.784  -4.818  1.00  0.00     0.032 C 
ENDBRANCH   9  32
TORSDOF 8
ENDMDL
MODEL 3
REMARK VINA RESULT: -9.617184483      4.458      6.819
REMARK  8 active torsions:
REMARK  status: ('A' for Active; 'I' for Inactive)
REMARK    1  A    between atoms: C2_2  and  C3_3 
REMARK    2  A    between atoms: C4_4  and  O1_5 
REMARK    3  A    between atoms: O1_5  and  C5_6 
REMARK    4  A    between atoms: C5_6  and  C6_7 
REMARK    5  A    between atoms: C10_14  and  O2_15 
REMARK    6  A    between atoms: O2_15  and  C11_16 
REMARK    7  A    between atoms: C18_24  and  C19_25 
REMARK    8  A    between atoms: C18_24  and  C22_32 
ROOT
HETATM    1  C11 UNL     1     -39.649  21.776  -4.725  1.00  0.00     0.115 A 
HETATM    2  C12 UNL     1     -39.701  23.128  -4.888  1.00  0.00     0.049 A 
HETATM    3  C13 UNL     1     -39.334  24.033  -3.909  1.00  0.00    -0.032 A 
HETATM    4  C14 UNL     1     -38.893  23.531  -2.712  1.00  0.00    -0.046 A 
HETATM    5  C15 UNL     1     -38.836  22.143  -2.539  1.00  0.00     0.053 A 
HETATM    6  C16 UNL     1     -39.201  21.245  -3.511  1.00  0.00     0.150 A 
HETATM    7  F3  UNL     1     -39.115  19.937  -3.258  1.00  0.00    -0.203 F 
HETATM    8  C17 UNL     1     -38.654  24.846  -2.088  1.00  0.00     0.062 A 
HETATM    9  C18 UNL     1     -39.136  25.404  -3.386  1.00  0.00     0.053 A 
ENDROOT
BRANCH   1  10
HETATM   10  O2  UNL     1     -40.018  20.904  -5.703  1.00  0.00    -0.307 OA
BRANCH  10  11
HETATM   11  C10 UNL     1     -40.380  21.106  -7.002  1.00  0.00     0.086 A 
HETATM   12  C3  UNL     1     -39.524  21.408  -8.010  1.00  0.00     0.009 A 
HETATM   13  C4  UNL     1     -39.980  21.596  -9.316  1.00  0.00     0.079 A 
HETATM   14  C7  UNL     1     -41.314  21.471  -9.575  1.00  0.00     0.061 A 
HETATM   15  C8  UNL     1     -42.229  21.168  -8.598  1.00  0.00     0.039 A 
HETATM   16 CL1  UNL     1     -43.918  21.031  -9.038  1.00  0.00    -0.084 Cl
HETATM   17  C9  UNL     1     -41.759  20.989  -7.334  1.00  0.00     0.061 A 
BRANCH  12  18
HETATM   18  C2  UNL     1     -38.065  21.565  -7.782  1.00  0.00     0.040 C 
HETATM   19  C1  UNL     1     -37.415  20.218  -7.737  1.00  0.00     0.010 C 
ENDBRANCH  12  18
BRANCH  13  20
HETATM   20  O1  UNL     1     -39.053  21.908 -10.329  1.00  0.00    -0.345 OA
BRANCH  20  21
HETATM   21  C5  UNL     1     -39.249  21.483 -11.650  1.00  0.00     0.246 C 
BRANCH  21  22
HETATM   22  C6  UNL     1     -38.393  22.282 -12.622  1.00  0.00     0.377 C 
HETATM   23  F1  UNL     1     -37.445  23.002 -11.918  1.00  0.00    -0.212 F 
HETATM   24  F2  UNL     1     -37.808  21.403 -13.513  1.00  0.00    -0.212 F 
ENDBRANCH  21  22
ENDBRANCH  20  21
ENDBRANCH  13  20
ENDBRANCH  10  11
ENDBRANCH   1  10
BRANCH   9  25
HETATM   25  C19 UNL     1     -38.095  26.133  -4.126  1.00  0.00     0.087 C 
HETATM   26  N1  UNL     1     -37.324  27.012  -3.576  1.00  0.00    -0.377 N 
HETATM   27  C20 UNL     1     -36.397  27.579  -4.501  1.00  0.00     0.140 C 
ATOM     28  H1  UNL     1     -37.372  27.271  -2.591  1.00  0.00     0.160 HD
HETATM   29  C21 UNL     1     -36.826  27.087  -5.871  1.00  0.00     0.140 C 
HETATM   30  N2  UNL     1     -37.742  26.031  -5.515  1.00  0.00    -0.377 N 
ATOM     31  H2  UNL     1     -38.089  25.317  -6.156  1.00  0.00     0.160 HD
ENDBRANCH   9  25
BRANCH   9  32
HETATM   32  C22 UNL     1     -40.455  26.117  -3.213  1.00  0.00     0.010 C 
HETATM   33  C23 UNL     1     -40.465  27.157  -2.147  1.00  0.00     0.032 C 
HETATM   34  C24 UNL     1     -41.940  27.522  -1.916  1.00  0.00     0.168 C 
HETATM   35  O3  UNL     1     -42.392  28.093  -3.082  1.00  0.00    -0.391 OA
HETATM   36  C25 UNL     1     -42.374  27.259  -4.168  1.00  0.00     0.168 C 
HETATM   37  C26 UNL     1     -40.999  26.710  -4.481  1.00  0.00     0.032 C 
ENDBRANCH   9  32
TORSDOF 8
ENDMDL
MODEL 4
REMARK VINA RESULT: -9.601984159      2.889      4.702
REMARK  8 active torsions:
REMARK  status: ('A' for Active; 'I' for Inactive)
REMARK    1  A    between atoms: C2_2  and  C3_3 
REMARK    2  A    between atoms: C4_4  and  O1_5 
REMARK    3  A    between atoms: O1_5  and  C5_6 
REMARK    4  A    between atoms: C5_6  and  C6_7 
REMARK    5  A    between atoms: C10_14  and  O2_15 
REMARK    6  A    between atoms: O2_15  and  C11_16 
REMARK    7  A    between atoms: C18_24  and  C19_25 
REMARK    8  A    between atoms: C18_24  and  C22_32 
ROOT
HETATM    1  C11 UNL     1     -38.920  22.028  -8.600  1.00  0.00     0.115 A 
HETATM    2  C12 UNL     1     -39.576  22.080  -7.407  1.00  0.00     0.049 A 
HETATM    3  C13 UNL     1     -39.418  23.101  -6.489  1.00  0.00    -0.032 A 
HETATM    4  C14 UNL     1     -38.551  24.114  -6.807  1.00  0.00    -0.046 A 
HETATM    5  C15 UNL     1     -37.875  24.067  -8.032  1.00  0.00     0.053 A 
HETATM    6  C16 UNL     1     -38.032  23.052  -8.944  1.00  0.00     0.150 A 
HETATM    7  F3  UNL     1     -37.346  23.090 -10.088  1.00  0.00    -0.203 F 
HETATM    8  C17 UNL     1     -38.759  24.874  -5.560  1.00  0.00     0.062 A 
HETATM    9  C18 UNL     1     -39.703  23.774  -5.201  1.00  0.00     0.053 A 
ENDROOT
BRANCH   1  10
HETATM   10  O2  UNL     1     -39.091  21.010  -9.488  1.00  0.00    -0.307 OA
BRANCH  10  11
HETATM   11  C10 UNL     1     -38.212  20.105 -10.004  1.00  0.00     0.086 A 
HETATM   12  C3  UNL     1     -37.382  19.321  -9.270  1.00  0.00     0.009 A 
HETATM   13  C4  UNL     1     -36.513  18.416  -9.879  1.00  0.00     0.079 A 
HETATM   14  C7  UNL     1     -36.502  18.324 -11.241  1.00  0.00     0.061 A 
HETATM   15  C8  UNL     1     -37.316  19.090 -12.037  1.00  0.00     0.039 A 
HETATM   16 CL1  UNL     1     -37.223  18.893 -13.775  1.00  0.00    -0.084 Cl
HETATM   17  C9  UNL     1     -38.155  19.964 -11.419  1.00  0.00     0.061 A 
BRANCH  12  18
HETATM   18  C2  UNL     1     -37.346  19.388  -7.787  1.00  0.00     0.040 C 
HETATM   19  C1  UNL     1     -38.465  18.572  -7.219  1.00  0.00     0.010 C 
ENDBRANCH  12  18
BRANCH  13  20
HETATM   20  O1  UNL     1     -35.671  17.624  -9.075  1.00  0.00    -0.345 OA
BRANCH  20  21
HETATM   21  C5  UNL     1     -35.110  16.434  -9.561  1.00  0.00     0.246 C 
BRANCH  21  22
HETATM   22  C6  UNL     1     -33.590  16.514  -9.598  1.00  0.00     0.377 C 
HETATM   23  F1  UNL     1     -33.094  15.504 -10.402  1.00  0.00    -0.212 F 
HETATM   24  F2  UNL     1     -33.231  17.762 -10.067  1.00  0.00    -0.212 F 
ENDBRANCH  21  22
ENDBRANCH  20  21
ENDBRANCH  13  20
ENDBRANCH  10  11
ENDBRANCH   1  10
BRANCH   9  25
HETATM   25  C19 UNL     1     -41.102  24.219  -5.107  1.00  0.00     0.087 C 
HETATM   26  N1  UNL     1     -41.452  25.337  -4.564  1.00  0.00    -0.377 N 
HETATM   27  C20 UNL     1     -42.863  25.542  -4.595  1.00  0.00     0.140 C 
ATOM     28  H1  UNL     1     -40.792  26.001  -4.159  1.00  0.00     0.160 HD
HETATM   29  C21 UNL     1     -43.461  24.229  -5.067  1.00  0.00     0.140 C 
HETATM   30  N2  UNL     1     -42.289  23.551  -5.565  1.00  0.00    -0.377 N 
ATOM     31  H2  UNL     1     -42.301  22.719  -6.156  1.00  0.00     0.160 HD
ENDBRANCH   9  25
BRANCH   9  32
HETATM   32  C22 UNL     1     -39.179  22.969  -4.037  1.00  0.00     0.010 C 
HETATM   33  C23 UNL     1     -39.047  23.731  -2.764  1.00  0.00     0.032 C 
HETATM   34  C24 UNL     1     -38.215  22.848  -1.819  1.00  0.00     0.168 C 
HETATM   35  O3  UNL     1     -38.964  21.720  -1.574  1.00  0.00    -0.391 OA
HETATM   36  C25 UNL     1     -39.220  20.955  -2.680  1.00  0.00     0.168 C 
HETATM   37  C26 UNL     1     -39.947  21.706  -3.774  1.00  0.00     0.032 C 
ENDBRANCH   9  32
TORSDOF 8
ENDMDL
MODEL 5
REMARK VINA RESULT: -9.507132912      2.483      4.030
REMARK  8 active torsions:
REMARK  status: ('A' for Active; 'I' for Inactive)
REMARK    1  A    between atoms: C2_2  and  C3_3 
REMARK    2  A    between atoms: C4_4  and  O1_5 
REMARK    3  A    between atoms: O1_5  and  C5_6 
REMARK    4  A    between atoms: C5_6  and  C6_7 
REMARK    5  A    between atoms: C10_14  and  O2_15 
REMARK    6  A    between atoms: O2_15  and  C11_16 
REMARK    7  A    between atoms: C18_24  and  C19_25 
REMARK    8  A    between atoms: C18_24  and  C22_32 
ROOT
HETATM    1  C11 UNL     1     -38.413  19.848  -8.716  1.00  0.00     0.115 A 
HETATM    2  C12 UNL     1     -39.027  19.976  -7.506  1.00  0.00     0.049 A 
HETATM    3  C13 UNL     1     -39.649  21.134  -7.080  1.00  0.00    -0.032 A 
HETATM    4  C14 UNL     1     -39.643  22.209  -7.931  1.00  0.00    -0.046 A 
HETATM    5  C15 UNL     1     -39.016  22.084  -9.176  1.00  0.00     0.053 A 
HETATM    6  C16 UNL     1     -38.398  20.933  -9.599  1.00  0.00     0.150 A 
HETATM    7  F3  UNL     1     -37.824  20.904 -10.804  1.00  0.00    -0.203 F 
HETATM    8  C17 UNL     1     -40.392  23.106  -7.030  1.00  0.00     0.062 A 
HETATM    9  C18 UNL     1     -40.401  21.942  -6.094  1.00  0.00     0.053 A 
ENDROOT
BRANCH   1  10
HETATM   10  O2  UNL     1     -37.805  18.697  -9.113  1.00  0.00    -0.307 OA
BRANCH  10  11
HETATM   11  C10 UNL     1     -36.921  18.444 -10.120  1.00  0.00     0.086 A 
HETATM   12  C3  UNL     1     -35.611  18.139  -9.946  1.00  0.00     0.009 A 
HETATM   13  C4  UNL     1     -34.774  17.891 -11.035  1.00  0.00     0.079 A 
HETATM   14  C7  UNL     1     -35.292  17.959 -12.296  1.00  0.00     0.061 A 
HETATM   15  C8  UNL     1     -36.608  18.263 -12.536  1.00  0.00     0.039 A 
HETATM   16 CL1  UNL     1     -37.171  18.324 -14.193  1.00  0.00    -0.084 Cl
HETATM   17  C9  UNL     1     -37.403  18.500 -11.458  1.00  0.00     0.061 A 
BRANCH  12  18
HETATM   18  C2  UNL     1     -34.994  18.061  -8.598  1.00  0.00     0.040 C 
HETATM   19  C1  UNL     1     -34.866  16.628  -8.184  1.00  0.00     0.010 C 
ENDBRANCH  12  18
BRANCH  13  20
HETATM   20  O1  UNL     1     -33.421  17.577 -10.804  1.00  0.00    -0.345 OA
BRANCH  20  21
HETATM   21  C5  UNL     1     -32.525  17.393 -11.867  1.00  0.00     0.246 C 
BRANCH  21  22
HETATM   22  C6  UNL     1     -32.286  15.914 -12.140  1.00  0.00     0.377 C 
HETATM   23  F1  UNL     1     -32.418  15.200 -10.963  1.00  0.00    -0.212 F 
HETATM   24  F2  UNL     1     -33.191  15.496 -13.095  1.00  0.00    -0.212 F 
ENDBRANCH  21  22
ENDBRANCH  20  21
ENDBRANCH  13  20
ENDBRANCH  10  11
ENDBRANCH   1  10
BRANCH   9  25
HETATM   25  C19 UNL     1     -41.748  21.405  -5.850  1.00  0.00     0.087 C 
HETATM   26  N1  UNL     1     -42.704  22.104  -5.335  1.00  0.00    -0.377 N 
HETATM   27  C20 UNL     1     -43.914  21.360  -5.200  1.00  0.00     0.140 C 
ATOM     28  H1  UNL     1     -42.606  23.080  -5.057  1.00  0.00     0.160 HD
HETATM   29  C21 UNL     1     -43.550  19.920  -5.512  1.00  0.00     0.140 C 
HETATM   30  N2  UNL     1     -42.248  20.084  -6.113  1.00  0.00    -0.377 N 
ATOM     31  H2  UNL     1     -41.756  19.367  -6.646  1.00  0.00     0.160 HD
ENDBRANCH   9  25
BRANCH   9  32
HETATM   32  C22 UNL     1     -39.564  22.226  -4.870  1.00  0.00     0.010 C 
HETATM   33  C23 UNL     1     -39.688  23.613  -4.340  1.00  0.00     0.032 C 
HETATM   34  C24 UNL     1     -38.546  23.789  -3.325  1.00  0.00     0.168 C 
HETATM   35  O3  UNL     1     -38.793  22.908  -2.298  1.00  0.00    -0.391 OA
HETATM   36  C25 UNL     1     -38.775  21.589  -2.663  1.00  0.00     0.168 C 
HETATM   37  C26 UNL     1     -39.776  21.252  -3.747  1.00  0.00     0.032 C 
ENDBRANCH   9  32
TORSDOF 8
ENDMDL
