MODEL 1
REMARK VINA RESULT: -8.721611538      0.000      0.000
REMARK  9 active torsions:
REMARK  status: ('A' for Active; 'I' for Inactive)
REMARK    1  A    between atoms: C3_3  and  C4_4 
REMARK    2  A    between atoms: C9_11  and  S1_12 
REMARK    3  A    between atoms: S1_12  and  N1_13 
REMARK    4  A    between atoms: S1_12  and  N2_17 
REMARK    5  A    between atoms: N2_17  and  C11_19 
REMARK    6  A    between atoms: C11_19  and  C12_20 
REMARK    7  A    between atoms: C14_22  and  C15_23 
REMARK    8  A    between atoms: C15_23  and  S2_26 
REMARK    9  A    between atoms: S2_26  and  C16_27 
ROOT
HETATM    1  C1  UNL     1     -44.614  18.223  -8.642  1.00  0.00     0.012 C 
HETATM    2  C2  UNL     1     -44.378  19.386  -8.417  1.00  0.00    -0.113 C 
HETATM    3  C3  UNL     1     -44.032  20.827  -8.132  1.00  0.00     0.134 C 
ENDROOT
BRANCH   3   4
HETATM    4  C4  UNL     1     -42.904  21.172  -8.998  1.00  0.00    -0.004 A 
HETATM    5  C5  UNL     1     -43.156  21.219 -10.375  1.00  0.00     0.044 A 
HETATM    6 CL1  UNL     1     -44.818  21.067 -10.951  1.00  0.00    -0.084 Cl
HETATM    7  C6  UNL     1     -42.128  21.402 -11.275  1.00  0.00     0.048 A 
HETATM    8  C7  UNL     1     -40.843  21.541 -10.800  1.00  0.00     0.037 A 
HETATM    9 CL2  UNL     1     -39.498  21.801 -11.920  1.00  0.00    -0.084 Cl
HETATM   10  C8  UNL     1     -40.621  21.494  -9.441  1.00  0.00     0.048 A 
HETATM   11  C9  UNL     1     -41.655  21.310  -8.511  1.00  0.00     0.069 A 
BRANCH  11  12
HETATM   12  S1  UNL     1     -41.323  21.366  -6.826  1.00  0.00     0.139 S 
HETATM   13  O1  UNL     1     -42.368  22.220  -6.085  1.00  0.00    -0.223 OA
BRANCH  12  14
HETATM   14  N1  UNL     1     -41.537  19.927  -6.234  1.00  0.00    -0.341 N 
ATOM     15  H12 UNL     1     -41.948  19.141  -6.738  1.00  0.00     0.167 HD
ATOM     16  H11 UNL     1     -41.197  19.923  -5.272  1.00  0.00     0.167 HD
ENDBRANCH  12  14
BRANCH  12  17
HETATM   17  N2  UNL     1     -39.771  21.896  -6.487  1.00  0.00    -0.301 N 
HETATM   18  C10 UNL     1     -39.408  23.235  -6.707  1.00  0.00     0.167 C 
BRANCH  17  19
HETATM   19  C11 UNL     1     -38.782  20.992  -6.084  1.00  0.00     0.140 C 
BRANCH  19  20
HETATM   20  C12 UNL     1     -38.475  19.910  -7.057  1.00  0.00     0.117 A 
HETATM   21  C13 UNL     1     -37.647  20.055  -8.190  1.00  0.00     0.072 A 
HETATM   22  C14 UNL     1     -37.595  18.876  -8.858  1.00  0.00     0.084 A 
HETATM   23  N3  UNL     1     -38.389  18.037  -8.117  1.00  0.00    -0.261 N 
HETATM   24  O2  UNL     1     -38.871  18.672  -7.096  1.00  0.00    -0.236 OA
ATOM     25  H3  UNL     1     -38.573  17.058  -8.338  1.00  0.00     0.194 HD
BRANCH  22  26
HETATM   26  C15 UNL     1     -36.890  18.425 -10.090  1.00  0.00     0.205 C 
HETATM   27 CL3  UNL     1     -37.638  16.881 -10.660  1.00  0.00    -0.082 Cl
HETATM   28 CL4  UNL     1     -37.240  19.637 -11.399  1.00  0.00    -0.082 Cl
BRANCH  26  29
HETATM   29  S2  UNL     1     -35.138  18.171  -9.929  1.00  0.00    -0.121 SA
BRANCH  29  30
HETATM   30  C16 UNL     1     -34.440  16.865 -10.903  1.00  0.00     0.073 C 
HETATM   31  C17 UNL     1     -34.476  17.029 -12.387  1.00  0.00     0.016 C 
ENDBRANCH  29  30
ENDBRANCH  26  29
ENDBRANCH  22  26
ENDBRANCH  19  20
ENDBRANCH  17  19
ENDBRANCH  12  17
ENDBRANCH  11  12
ENDBRANCH   3   4
TORSDOF 9
ENDMDL
MODEL 2
REMARK VINA RESULT: -8.269756253      2.892      6.558
REMARK  9 active torsions:
REMARK  status: ('A' for Active; 'I' for Inactive)
REMARK    1  A    between atoms: C3_3  and  C4_4 
REMARK    2  A    between atoms: C9_11  and  S1_12 
REMARK    3  A    between atoms: S1_12  and  N1_13 
REMARK    4  A    between atoms: S1_12  and  N2_17 
REMARK    5  A    between atoms: N2_17  and  C11_19 
REMARK    6  A    between atoms: C11_19  and  C12_20 
REMARK    7  A    between atoms: C14_22  and  C15_23 
REMARK    8  A    between atoms: C15_23  and  S2_26 
REMARK    9  A    between atoms: S2_26  and  C16_27 
ROOT
HETATM    1  C1  UNL     1     -34.639  18.456  -9.014  1.00  0.00     0.012 C 
HETATM    2  C2  UNL     1     -35.846  18.451  -9.003  1.00  0.00    -0.113 C 
HETATM    3  C3  UNL     1     -37.355  18.498  -8.989  1.00  0.00     0.134 C 
ENDROOT
BRANCH   3   4
HETATM    4  C4  UNL     1     -37.759  19.457 -10.017  1.00  0.00    -0.004 A 
HETATM    5  C5  UNL     1     -37.649  19.039 -11.350  1.00  0.00     0.044 A 
HETATM    6 CL1  UNL     1     -37.236  17.357 -11.692  1.00  0.00    -0.084 Cl
HETATM    7  C6  UNL     1     -37.878  19.919 -12.387  1.00  0.00     0.048 A 
HETATM    8  C7  UNL     1     -38.221  21.219 -12.093  1.00  0.00     0.037 A 
HETATM    9 CL2  UNL     1     -38.546  22.374 -13.395  1.00  0.00    -0.084 Cl
HETATM   10  C8  UNL     1     -38.326  21.605 -10.775  1.00  0.00     0.048 A 
HETATM   11  C9  UNL     1     -38.097  20.724  -9.708  1.00  0.00     0.069 A 
BRANCH  11  12
HETATM   12  S1  UNL     1     -38.348  21.243  -8.089  1.00  0.00     0.139 S 
HETATM   13  O1  UNL     1     -37.267  20.674  -7.153  1.00  0.00    -0.223 OA
BRANCH  12  14
HETATM   14  N1  UNL     1     -38.109  22.794  -8.028  1.00  0.00    -0.341 N 
ATOM     15  H12 UNL     1     -37.937  23.394  -8.834  1.00  0.00     0.167 HD
ATOM     16  H11 UNL     1     -38.156  23.086  -7.051  1.00  0.00     0.167 HD
ENDBRANCH  12  14
BRANCH  12  17
HETATM   17  N2  UNL     1     -39.881  20.880  -7.520  1.00  0.00    -0.301 N 
HETATM   18  C10 UNL     1     -40.136  19.656  -6.882  1.00  0.00     0.167 C 
BRANCH  17  19
HETATM   19  C11 UNL     1     -40.954  21.742  -7.767  1.00  0.00     0.140 C 
BRANCH  19  20
HETATM   20  C12 UNL     1     -41.753  21.431  -8.984  1.00  0.00     0.117 A 
HETATM   21  C13 UNL     1     -42.899  20.608  -9.007  1.00  0.00     0.072 A 
HETATM   22  C14 UNL     1     -43.368  20.534 -10.277  1.00  0.00     0.084 A 
HETATM   23  N3  UNL     1     -42.500  21.314 -11.000  1.00  0.00    -0.261 N 
HETATM   24  O2  UNL     1     -41.592  21.807 -10.218  1.00  0.00    -0.236 OA
ATOM     25  H3  UNL     1     -42.560  21.481 -12.005  1.00  0.00     0.194 HD
BRANCH  22  26
HETATM   26  C15 UNL     1     -44.528  19.842 -10.904  1.00  0.00     0.205 C 
HETATM   27 CL3  UNL     1     -45.012  18.447  -9.861  1.00  0.00    -0.082 Cl
HETATM   28 CL4  UNL     1     -45.940  20.986 -10.857  1.00  0.00    -0.082 Cl
BRANCH  26  29
HETATM   29  S2  UNL     1     -44.269  19.241 -12.557  1.00  0.00    -0.121 SA
BRANCH  29  30
HETATM   30  C16 UNL     1     -45.720  18.765 -13.456  1.00  0.00     0.073 C 
HETATM   31  C17 UNL     1     -45.515  18.026 -14.737  1.00  0.00     0.016 C 
ENDBRANCH  29  30
ENDBRANCH  26  29
ENDBRANCH  22  26
ENDBRANCH  19  20
ENDBRANCH  17  19
ENDBRANCH  12  17
ENDBRANCH  11  12
ENDBRANCH   3   4
TORSDOF 9
ENDMDL
MODEL 3
REMARK VINA RESULT: -8.138962654      3.629      6.608
REMARK  9 active torsions:
REMARK  status: ('A' for Active; 'I' for Inactive)
REMARK    1  A    between atoms: C3_3  and  C4_4 
REMARK    2  A    between atoms: C9_11  and  S1_12 
REMARK    3  A    between atoms: S1_12  and  N1_13 
REMARK    4  A    between atoms: S1_12  and  N2_17 
REMARK    5  A    between atoms: N2_17  and  C11_19 
REMARK    6  A    between atoms: C11_19  and  C12_20 
REMARK    7  A    between atoms: C14_22  and  C15_23 
REMARK    8  A    between atoms: C15_23  and  S2_26 
REMARK    9  A    between atoms: S2_26  and  C16_27 
ROOT
HETATM    1  C1  UNL     1     -38.367  18.503  -5.335  1.00  0.00     0.012 C 
HETATM    2  C2  UNL     1     -38.979  18.961  -6.270  1.00  0.00    -0.113 C 
HETATM    3  C3  UNL     1     -39.762  19.571  -7.408  1.00  0.00     0.134 C 
ENDROOT
BRANCH   3   4
HETATM    4  C4  UNL     1     -39.448  21.001  -7.418  1.00  0.00    -0.004 A 
HETATM    5  C5  UNL     1     -38.118  21.353  -7.681  1.00  0.00     0.044 A 
HETATM    6 CL1  UNL     1     -36.977  20.099  -8.173  1.00  0.00    -0.084 Cl
HETATM    7  C6  UNL     1     -37.702  22.664  -7.580  1.00  0.00     0.048 A 
HETATM    8  C7  UNL     1     -38.616  23.627  -7.217  1.00  0.00     0.037 A 
HETATM    9 CL2  UNL     1     -38.128  25.324  -7.098  1.00  0.00    -0.084 Cl
HETATM   10  C8  UNL     1     -39.919  23.256  -6.967  1.00  0.00     0.048 A 
HETATM   11  C9  UNL     1     -40.360  21.928  -7.066  1.00  0.00     0.069 A 
BRANCH  11  12
HETATM   12  S1  UNL     1     -42.021  21.549  -6.842  1.00  0.00     0.139 S 
HETATM   13  O1  UNL     1     -42.195  20.402  -5.830  1.00  0.00    -0.223 OA
BRANCH  12  14
HETATM   14  N1  UNL     1     -42.713  22.770  -6.137  1.00  0.00    -0.341 N 
ATOM     15  H12 UNL     1     -42.310  23.703  -6.051  1.00  0.00     0.167 HD
ATOM     16  H11 UNL     1     -43.622  22.465  -5.789  1.00  0.00     0.167 HD
ENDBRANCH  12  14
BRANCH  12  17
HETATM   17  N2  UNL     1     -42.807  21.200  -8.279  1.00  0.00    -0.301 N 
HETATM   18  C10 UNL     1     -42.245  21.572  -9.511  1.00  0.00     0.167 C 
BRANCH  17  19
HETATM   19  C11 UNL     1     -44.084  20.630  -8.272  1.00  0.00     0.140 C 
BRANCH  19  20
HETATM   20  C12 UNL     1     -44.611  20.231  -9.605  1.00  0.00     0.117 A 
HETATM   21  C13 UNL     1     -44.693  18.902 -10.073  1.00  0.00     0.072 A 
HETATM   22  C14 UNL     1     -45.210  18.904 -11.327  1.00  0.00     0.084 A 
HETATM   23  N3  UNL     1     -45.434  20.232 -11.595  1.00  0.00    -0.261 N 
HETATM   24  O2  UNL     1     -45.077  20.953 -10.580  1.00  0.00    -0.236 OA
ATOM     25  H3  UNL     1     -45.824  20.596 -12.464  1.00  0.00     0.194 HD
BRANCH  22  26
HETATM   26  C15 UNL     1     -45.536  17.829 -12.305  1.00  0.00     0.205 C 
HETATM   27 CL3  UNL     1     -44.685  16.312 -11.812  1.00  0.00    -0.082 Cl
HETATM   28 CL4  UNL     1     -47.308  17.457 -12.140  1.00  0.00    -0.082 Cl
BRANCH  26  29
HETATM   29  S2  UNL     1     -45.126  18.174 -13.999  1.00  0.00    -0.121 SA
BRANCH  29  30
HETATM   30  C16 UNL     1     -43.400  18.186 -14.404  1.00  0.00     0.073 C 
HETATM   31  C17 UNL     1     -42.931  17.189 -15.412  1.00  0.00     0.016 C 
ENDBRANCH  29  30
ENDBRANCH  26  29
ENDBRANCH  22  26
ENDBRANCH  19  20
ENDBRANCH  17  19
ENDBRANCH  12  17
ENDBRANCH  11  12
ENDBRANCH   3   4
TORSDOF 9
ENDMDL
MODEL 4
REMARK VINA RESULT: -8.103091942      1.537      1.680
REMARK  9 active torsions:
REMARK  status: ('A' for Active; 'I' for Inactive)
REMARK    1  A    between atoms: C3_3  and  C4_4 
REMARK    2  A    between atoms: C9_11  and  S1_12 
REMARK    3  A    between atoms: S1_12  and  N1_13 
REMARK    4  A    between atoms: S1_12  and  N2_17 
REMARK    5  A    between atoms: N2_17  and  C11_19 
REMARK    6  A    between atoms: C11_19  and  C12_20 
REMARK    7  A    between atoms: C14_22  and  C15_23 
REMARK    8  A    between atoms: C15_23  and  S2_26 
REMARK    9  A    between atoms: S2_26  and  C16_27 
ROOT
HETATM    1  C1  UNL     1     -43.029  18.852  -6.836  1.00  0.00     0.012 C 
HETATM    2  C2  UNL     1     -42.978  20.033  -7.082  1.00  0.00    -0.113 C 
HETATM    3  C3  UNL     1     -42.861  21.506  -7.392  1.00  0.00     0.134 C 
ENDROOT
BRANCH   3   4
HETATM    4  C4  UNL     1     -41.968  21.627  -8.544  1.00  0.00    -0.004 A 
HETATM    5  C5  UNL     1     -42.520  21.359  -9.804  1.00  0.00     0.044 A 
HETATM    6 CL1  UNL     1     -44.261  21.101  -9.941  1.00  0.00    -0.084 Cl
HETATM    7  C6  UNL     1     -41.725  21.317 -10.929  1.00  0.00     0.048 A 
HETATM    8  C7  UNL     1     -40.373  21.544 -10.798  1.00  0.00     0.037 A 
HETATM    9 CL2  UNL     1     -39.321  21.522 -12.221  1.00  0.00    -0.084 Cl
HETATM   10  C8  UNL     1     -39.854  21.809  -9.550  1.00  0.00     0.048 A 
HETATM   11  C9  UNL     1     -40.648  21.857  -8.395  1.00  0.00     0.069 A 
BRANCH  11  12
HETATM   12  S1  UNL     1     -39.954  22.294  -6.885  1.00  0.00     0.139 S 
HETATM   13  O1  UNL     1     -38.656  23.097  -7.087  1.00  0.00    -0.223 OA
BRANCH  12  14
HETATM   14  N1  UNL     1     -40.914  23.318  -6.180  1.00  0.00    -0.341 N 
ATOM     15  H12 UNL     1     -40.803  24.331  -6.194  1.00  0.00     0.167 HD
ATOM     16  H11 UNL     1     -41.655  22.793  -5.715  1.00  0.00     0.167 HD
ENDBRANCH  12  14
BRANCH  12  17
HETATM   17  N2  UNL     1     -39.691  20.977  -5.885  1.00  0.00    -0.301 N 
HETATM   18  C10 UNL     1     -39.502  21.153  -4.504  1.00  0.00     0.167 C 
BRANCH  17  19
HETATM   19  C11 UNL     1     -39.546  19.693  -6.421  1.00  0.00     0.140 C 
BRANCH  19  20
HETATM   20  C12 UNL     1     -38.413  19.525  -7.370  1.00  0.00     0.117 A 
HETATM   21  C13 UNL     1     -38.416  18.659  -8.484  1.00  0.00     0.072 A 
HETATM   22  C14 UNL     1     -37.223  18.748  -9.122  1.00  0.00     0.084 A 
HETATM   23  N3  UNL     1     -36.519  19.669  -8.385  1.00  0.00    -0.261 N 
HETATM   24  O2  UNL     1     -37.241  20.086  -7.394  1.00  0.00    -0.236 OA
ATOM     25  H3  UNL     1     -35.568  19.978  -8.589  1.00  0.00     0.194 HD
BRANCH  22  26
HETATM   26  C15 UNL     1     -36.656  18.099 -10.336  1.00  0.00     0.205 C 
HETATM   27 CL3  UNL     1     -37.691  16.685 -10.781  1.00  0.00    -0.082 Cl
HETATM   28 CL4  UNL     1     -36.831  19.270 -11.716  1.00  0.00    -0.082 Cl
BRANCH  26  29
HETATM   29  S2  UNL     1     -34.974  17.541 -10.202  1.00  0.00    -0.121 SA
BRANCH  29  30
HETATM   30  C16 UNL     1     -33.971  17.712 -11.653  1.00  0.00     0.073 C 
HETATM   31  C17 UNL     1     -34.046  16.616 -12.665  1.00  0.00     0.016 C 
ENDBRANCH  29  30
ENDBRANCH  26  29
ENDBRANCH  22  26
ENDBRANCH  19  20
ENDBRANCH  17  19
ENDBRANCH  12  17
ENDBRANCH  11  12
ENDBRANCH   3   4
TORSDOF 9
ENDMDL
MODEL 5
REMARK VINA RESULT: -8.021465242      3.644      5.096
REMARK  9 active torsions:
REMARK  status: ('A' for Active; 'I' for Inactive)
REMARK    1  A    between atoms: C3_3  and  C4_4 
REMARK    2  A    between atoms: C9_11  and  S1_12 
REMARK    3  A    between atoms: S1_12  and  N1_13 
REMARK    4  A    between atoms: S1_12  and  N2_17 
REMARK    5  A    between atoms: N2_17  and  C11_19 
REMARK    6  A    between atoms: C11_19  and  C12_20 
REMARK    7  A    between atoms: C14_22  and  C15_23 
REMARK    8  A    between atoms: C15_23  and  S2_26 
REMARK    9  A    between atoms: S2_26  and  C16_27 
ROOT
HETATM    1  C1  UNL     1     -38.803  19.018  -7.407  1.00  0.00     0.012 C 
HETATM    2  C2  UNL     1     -38.846  20.125  -7.887  1.00  0.00    -0.113 C 
HETATM    3  C3  UNL     1     -38.912  21.488  -8.534  1.00  0.00     0.134 C 
ENDROOT
BRANCH   3   4
HETATM    4  C4  UNL     1     -40.165  21.538  -9.288  1.00  0.00    -0.004 A 
HETATM    5  C5  UNL     1     -41.352  21.525  -8.543  1.00  0.00     0.044 A 
HETATM    6 CL1  UNL     1     -41.264  21.653  -6.784  1.00  0.00    -0.084 Cl
HETATM    7  C6  UNL     1     -42.577  21.435  -9.168  1.00  0.00     0.048 A 
HETATM    8  C7  UNL     1     -42.620  21.359 -10.542  1.00  0.00     0.037 A 
HETATM    9 CL2  UNL     1     -44.173  21.265 -11.385  1.00  0.00    -0.084 Cl
HETATM   10  C8  UNL     1     -41.440  21.377 -11.253  1.00  0.00     0.048 A 
HETATM   11  C9  UNL     1     -40.185  21.469 -10.633  1.00  0.00     0.069 A 
BRANCH  11  12
HETATM   12  S1  UNL     1     -38.758  21.592 -11.584  1.00  0.00     0.139 S 
HETATM   13  O1  UNL     1     -39.000  22.456 -12.834  1.00  0.00    -0.223 OA
BRANCH  12  14
HETATM   14  N1  UNL     1     -37.694  22.411 -10.770  1.00  0.00    -0.341 N 
ATOM     15  H12 UNL     1     -36.691  22.411 -10.951  1.00  0.00     0.167 HD
ATOM     16  H11 UNL     1     -38.182  22.934 -10.042  1.00  0.00     0.167 HD
ENDBRANCH  12  14
BRANCH  12  17
HETATM   17  N2  UNL     1     -38.127  20.098 -12.004  1.00  0.00    -0.301 N 
HETATM   18  C10 UNL     1     -38.380  19.545 -13.270  1.00  0.00     0.167 C 
BRANCH  17  19
HETATM   19  C11 UNL     1     -37.431  19.330 -11.065  1.00  0.00     0.140 C 
BRANCH  19  20
HETATM   20  C12 UNL     1     -36.308  18.521 -11.612  1.00  0.00     0.117 A 
HETATM   21  C13 UNL     1     -35.146  18.167 -10.895  1.00  0.00     0.072 A 
HETATM   22  C14 UNL     1     -34.332  17.439 -11.699  1.00  0.00     0.084 A 
HETATM   23  N3  UNL     1     -35.016  17.362 -12.887  1.00  0.00    -0.261 N 
HETATM   24  O2  UNL     1     -36.142  17.995 -12.790  1.00  0.00    -0.236 OA
ATOM     25  H3  UNL     1     -34.687  16.878 -13.722  1.00  0.00     0.194 HD
BRANCH  22  26
HETATM   26  C15 UNL     1     -33.005  16.792 -11.501  1.00  0.00     0.205 C 
HETATM   27 CL3  UNL     1     -31.793  18.062 -11.068  1.00  0.00    -0.082 Cl
HETATM   28 CL4  UNL     1     -33.127  15.728 -10.032  1.00  0.00    -0.082 Cl
BRANCH  26  29
HETATM   29  S2  UNL     1     -32.379  15.872 -12.887  1.00  0.00    -0.121 SA
BRANCH  29  30
HETATM   30  C16 UNL     1     -30.811  15.077 -12.659  1.00  0.00     0.073 C 
HETATM   31  C17 UNL     1     -29.592  15.930 -12.784  1.00  0.00     0.016 C 
ENDBRANCH  29  30
ENDBRANCH  26  29
ENDBRANCH  22  26
ENDBRANCH  19  20
ENDBRANCH  17  19
ENDBRANCH  12  17
ENDBRANCH  11  12
ENDBRANCH   3   4
TORSDOF 9
ENDMDL
