MODEL 1
REMARK VINA RESULT: -9.898493317      0.000      0.000
REMARK  9 active torsions:
REMARK  status: ('A' for Active; 'I' for Inactive)
REMARK    1  A    between atoms: C2_2  and  C3_3 
REMARK    2  A    between atoms: C4_7  and  C5_8 
REMARK    3  A    between atoms: C5_8  and  N3_9 
REMARK    4  A    between atoms: N3_9  and  C6_10 
REMARK    5  A    between atoms: N3_9  and  C9_13 
REMARK    6  A    between atoms: C12_16  and  C13_17 
REMARK    7  A    between atoms: C13_17  and  O1_20 
REMARK    8  A    between atoms: C19_27  and  C20_28 
REMARK    9  A    between atoms: C20_28  and  C21_29 
ROOT
HETATM    1  C3  UNL     1     -38.308  20.110 -10.875  1.00  0.00     0.040 A 
HETATM    2  N1  UNL     1     -38.789  21.027  -9.962  1.00  0.00    -0.295 N 
ATOM      3  H1  UNL     1     -39.130  21.962 -10.187  1.00  0.00     0.187 HD
HETATM    4  N2  UNL     1     -38.738  20.500  -8.752  1.00  0.00    -0.241 N 
HETATM    5  C4  UNL     1     -39.133  21.036  -7.581  1.00  0.00     0.075 A 
HETATM    6  C12 UNL     1     -39.011  20.247  -6.392  1.00  0.00     0.024 A 
HETATM    7  C16 UNL     1     -38.501  18.996  -6.505  1.00  0.00     0.018 A 
HETATM    8  C17 UNL     1     -38.254  18.058  -5.406  1.00  0.00     0.069 C 
HETATM    9  N4  UNL     1     -38.124  18.540  -7.756  1.00  0.00    -0.344 N 
ATOM     10  H4  UNL     1     -37.741  17.598  -7.834  1.00  0.00     0.167 HD
HETATM   11  C18 UNL     1     -38.237  19.270  -8.858  1.00  0.00     0.140 A 
HETATM   12  C19 UNL     1     -37.947  18.994 -10.223  1.00  0.00     0.035 A 
ENDROOT
BRANCH  12  13
HETATM   13  C20 UNL     1     -37.320  17.749 -10.585  1.00  0.00     0.032 C 
BRANCH  13  14
HETATM   14  C21 UNL     1     -35.910  17.522 -10.507  1.00  0.00     0.010 A 
HETATM   15  C22 UNL     1     -35.337  16.841  -9.419  1.00  0.00     0.060 A 
HETATM   16  C23 UNL     1     -33.993  16.620  -9.306  1.00  0.00     0.159 A 
HETATM   17  F1  UNL     1     -33.427  15.966  -8.260  1.00  0.00    -0.203 F 
HETATM   18  C24 UNL     1     -33.167  17.082 -10.302  1.00  0.00     0.196 A 
HETATM   19  F2  UNL     1     -31.817  16.911 -10.279  1.00  0.00    -0.199 F 
HETATM   20  C25 UNL     1     -33.683  17.752 -11.387  1.00  0.00     0.197 A 
HETATM   21  F3  UNL     1     -32.838  18.211 -12.381  1.00  0.00    -0.199 F 
HETATM   22  C26 UNL     1     -35.038  17.959 -11.470  1.00  0.00     0.168 A 
HETATM   23  F4  UNL     1     -35.529  18.603 -12.581  1.00  0.00    -0.202 F 
ENDBRANCH  13  14
ENDBRANCH  12  13
BRANCH   1  24
HETATM   24  C2  UNL     1     -38.340  20.468 -12.297  1.00  0.00     0.055 C 
HETATM   25  C1  UNL     1     -38.373  21.958 -12.569  1.00  0.00     0.011 C 
ENDBRANCH   1  24
BRANCH   5  26
HETATM   26  C5  UNL     1     -39.818  22.325  -7.494  1.00  0.00     0.333 C 
BRANCH  26  27
HETATM   27  N3  UNL     1     -41.259  22.178  -7.220  1.00  0.00     0.101 N 
BRANCH  27  28
HETATM   28  C6  UNL     1     -41.762  21.278  -8.233  1.00  0.00     0.216 C 
HETATM   29  C7  UNL     1     -42.318  22.020  -9.441  1.00  0.00     0.042 C 
HETATM   30  C8  UNL     1     -42.784  20.281  -7.793  1.00  0.00     0.042 C 
ENDBRANCH  27  28
BRANCH  27  31
HETATM   31  C9  UNL     1     -41.847  23.463  -7.163  1.00  0.00     0.216 C 
HETATM   32  C10 UNL     1     -40.731  24.481  -6.883  1.00  0.00     0.042 C 
HETATM   33  C11 UNL     1     -42.858  23.700  -6.091  1.00  0.00     0.042 C 
ENDBRANCH  27  31
ENDBRANCH  26  27
ENDBRANCH   5  26
BRANCH   6  34
HETATM   34  C13 UNL     1     -39.347  20.862  -5.114  1.00  0.00     0.081 C 
HETATM   35  C14 UNL     1     -38.984  22.299  -4.939  1.00  0.00     0.051 C 
HETATM   36  C15 UNL     1     -38.915  20.083  -3.855  1.00  0.00     0.051 C 
BRANCH  34  37
HETATM   37  O1  UNL     1     -40.781  20.749  -4.942  1.00  0.00    -0.386 OA
ATOM     38  H1  UNL     1     -41.085  21.558  -4.548  1.00  0.00     0.211 HD
ENDBRANCH  34  37
ENDBRANCH   6  34
TORSDOF 9
ENDMDL
MODEL 2
REMARK VINA RESULT: -9.840910295      0.664      1.639
REMARK  9 active torsions:
REMARK  status: ('A' for Active; 'I' for Inactive)
REMARK    1  A    between atoms: C2_2  and  C3_3 
REMARK    2  A    between atoms: C4_7  and  C5_8 
REMARK    3  A    between atoms: C5_8  and  N3_9 
REMARK    4  A    between atoms: N3_9  and  C6_10 
REMARK    5  A    between atoms: N3_9  and  C9_13 
REMARK    6  A    between atoms: C12_16  and  C13_17 
REMARK    7  A    between atoms: C13_17  and  O1_20 
REMARK    8  A    between atoms: C19_27  and  C20_28 
REMARK    9  A    between atoms: C20_28  and  C21_29 
ROOT
HETATM    1  C3  UNL     1     -38.033  19.888 -11.113  1.00  0.00     0.040 A 
HETATM    2  N1  UNL     1     -38.584  20.793 -10.228  1.00  0.00    -0.295 N 
ATOM      3  H1  UNL     1     -38.956  21.710 -10.475  1.00  0.00     0.187 HD
HETATM    4  N2  UNL     1     -38.552  20.281  -9.011  1.00  0.00    -0.241 N 
HETATM    5  C4  UNL     1     -39.010  20.810  -7.860  1.00  0.00     0.075 A 
HETATM    6  C12 UNL     1     -38.895  20.039  -6.659  1.00  0.00     0.024 A 
HETATM    7  C16 UNL     1     -38.329  18.811  -6.740  1.00  0.00     0.018 A 
HETATM    8  C17 UNL     1     -38.081  17.895  -5.623  1.00  0.00     0.069 C 
HETATM    9  N4  UNL     1     -37.890  18.358  -7.972  1.00  0.00    -0.344 N 
ATOM     10  H4  UNL     1     -37.465  17.433  -8.027  1.00  0.00     0.167 HD
HETATM   11  C18 UNL     1     -37.997  19.072  -9.086  1.00  0.00     0.140 A 
HETATM   12  C19 UNL     1     -37.648  18.795 -10.437  1.00  0.00     0.035 A 
ENDROOT
BRANCH  12  13
HETATM   13  C20 UNL     1     -36.957  17.575 -10.763  1.00  0.00     0.032 C 
BRANCH  13  14
HETATM   14  C21 UNL     1     -35.535  17.432 -10.707  1.00  0.00     0.010 A 
HETATM   15  C22 UNL     1     -34.699  18.050 -11.653  1.00  0.00     0.060 A 
HETATM   16  C23 UNL     1     -33.338  17.923 -11.637  1.00  0.00     0.159 A 
HETATM   17  F1  UNL     1     -32.521  18.513 -12.545  1.00  0.00    -0.203 F 
HETATM   18  C24 UNL     1     -32.763  17.158 -10.651  1.00  0.00     0.196 A 
HETATM   19  F2  UNL     1     -31.419  16.971 -10.552  1.00  0.00    -0.199 F 
HETATM   20  C25 UNL     1     -33.542  16.536  -9.703  1.00  0.00     0.197 A 
HETATM   21  F3  UNL     1     -32.947  15.769  -8.717  1.00  0.00    -0.199 F 
HETATM   22  C26 UNL     1     -34.906  16.683  -9.748  1.00  0.00     0.168 A 
HETATM   23  F4  UNL     1     -35.656  16.075  -8.768  1.00  0.00    -0.202 F 
ENDBRANCH  13  14
ENDBRANCH  12  13
BRANCH   1  24
HETATM   24  C2  UNL     1     -38.032  20.231 -12.540  1.00  0.00     0.055 C 
HETATM   25  C1  UNL     1     -38.395  21.670 -12.841  1.00  0.00     0.011 C 
ENDBRANCH   1  24
BRANCH   5  26
HETATM   26  C5  UNL     1     -39.751  22.070  -7.811  1.00  0.00     0.333 C 
BRANCH  26  27
HETATM   27  N3  UNL     1     -41.175  21.871  -7.484  1.00  0.00     0.101 N 
BRANCH  27  28
HETATM   28  C6  UNL     1     -41.706  21.033  -8.535  1.00  0.00     0.216 C 
HETATM   29  C7  UNL     1     -42.047  21.825  -9.790  1.00  0.00     0.042 C 
HETATM   30  C8  UNL     1     -42.889  20.191  -8.185  1.00  0.00     0.042 C 
ENDBRANCH  27  28
BRANCH  27  31
HETATM   31  C9  UNL     1     -41.785  23.136  -7.311  1.00  0.00     0.216 C 
HETATM   32  C10 UNL     1     -40.679  24.152  -6.988  1.00  0.00     0.042 C 
HETATM   33  C11 UNL     1     -42.764  23.268  -6.193  1.00  0.00     0.042 C 
ENDBRANCH  27  31
ENDBRANCH  26  27
ENDBRANCH   5  26
BRANCH   6  34
HETATM   34  C13 UNL     1     -39.301  20.652  -5.400  1.00  0.00     0.081 C 
HETATM   35  C14 UNL     1     -38.991  22.101  -5.223  1.00  0.00     0.051 C 
HETATM   36  C15 UNL     1     -38.894  19.896  -4.119  1.00  0.00     0.051 C 
BRANCH  34  37
HETATM   37  O1  UNL     1     -40.736  20.494  -5.283  1.00  0.00    -0.386 OA
ATOM     38  H1  UNL     1     -40.915  20.155  -4.414  1.00  0.00     0.211 HD
ENDBRANCH  34  37
ENDBRANCH   6  34
TORSDOF 9
ENDMDL
MODEL 3
REMARK VINA RESULT: -9.707722402      1.307      2.326
REMARK  9 active torsions:
REMARK  status: ('A' for Active; 'I' for Inactive)
REMARK    1  A    between atoms: C2_2  and  C3_3 
REMARK    2  A    between atoms: C4_7  and  C5_8 
REMARK    3  A    between atoms: C5_8  and  N3_9 
REMARK    4  A    between atoms: N3_9  and  C6_10 
REMARK    5  A    between atoms: N3_9  and  C9_13 
REMARK    6  A    between atoms: C12_16  and  C13_17 
REMARK    7  A    between atoms: C13_17  and  O1_20 
REMARK    8  A    between atoms: C19_27  and  C20_28 
REMARK    9  A    between atoms: C20_28  and  C21_29 
ROOT
HETATM    1  C3  UNL     1     -37.650  19.064 -11.504  1.00  0.00     0.040 A 
HETATM    2  N1  UNL     1     -38.338  20.029 -10.796  1.00  0.00    -0.295 N 
ATOM      3  H1  UNL     1     -38.778  20.857 -11.199  1.00  0.00     0.187 HD
HETATM    4  N2  UNL     1     -38.336  19.709  -9.515  1.00  0.00    -0.241 N 
HETATM    5  C4  UNL     1     -38.913  20.355  -8.482  1.00  0.00     0.075 A 
HETATM    6  C12 UNL     1     -38.803  19.786  -7.173  1.00  0.00     0.024 A 
HETATM    7  C16 UNL     1     -38.120  18.623  -7.037  1.00  0.00     0.018 A 
HETATM    8  C17 UNL     1     -37.858  17.914  -5.781  1.00  0.00     0.069 C 
HETATM    9  N4  UNL     1     -37.564  18.040  -8.162  1.00  0.00    -0.344 N 
ATOM     10  H4  UNL     1     -37.051  17.165  -8.053  1.00  0.00     0.167 HD
HETATM   11  C18 UNL     1     -37.666  18.566  -9.375  1.00  0.00     0.140 A 
HETATM   12  C19 UNL     1     -37.208  18.128 -10.650  1.00  0.00     0.035 A 
ENDROOT
BRANCH  12  13
HETATM   13  C20 UNL     1     -36.386  16.950 -10.750  1.00  0.00     0.032 C 
BRANCH  13  14
HETATM   14  C21 UNL     1     -34.956  16.980 -10.736  1.00  0.00     0.010 A 
HETATM   15  C22 UNL     1     -34.232  17.770 -11.645  1.00  0.00     0.060 A 
HETATM   16  C23 UNL     1     -32.866  17.811 -11.669  1.00  0.00     0.159 A 
HETATM   17  F1  UNL     1     -32.155  18.569 -12.542  1.00  0.00    -0.203 F 
HETATM   18  C24 UNL     1     -32.172  17.046 -10.763  1.00  0.00     0.196 A 
HETATM   19  F2  UNL     1     -30.812  17.019 -10.709  1.00  0.00    -0.199 F 
HETATM   20  C25 UNL     1     -32.839  16.258  -9.854  1.00  0.00     0.197 A 
HETATM   21  F3  UNL     1     -32.125  15.494  -8.948  1.00  0.00    -0.199 F 
HETATM   22  C26 UNL     1     -34.211  16.239  -9.857  1.00  0.00     0.168 A 
HETATM   23  F4  UNL     1     -34.852  15.467  -8.916  1.00  0.00    -0.202 F 
ENDBRANCH  13  14
ENDBRANCH  12  13
BRANCH   1  24
HETATM   24  C2  UNL     1     -37.590  19.189 -12.965  1.00  0.00     0.055 C 
HETATM   25  C1  UNL     1     -37.894  20.577 -13.489  1.00  0.00     0.011 C 
ENDBRANCH   1  24
BRANCH   5  26
HETATM   26  C5  UNL     1     -39.770  21.525  -8.664  1.00  0.00     0.333 C 
BRANCH  26  27
HETATM   27  N3  UNL     1     -41.148  21.159  -9.040  1.00  0.00     0.101 N 
BRANCH  27  28
HETATM   28  C6  UNL     1     -41.399  21.814 -10.304  1.00  0.00     0.216 C 
HETATM   29  C7  UNL     1     -42.657  21.294 -10.986  1.00  0.00     0.042 C 
HETATM   30  C8  UNL     1     -40.288  21.789 -11.303  1.00  0.00     0.042 C 
ENDBRANCH  27  28
BRANCH  27  31
HETATM   31  C9  UNL     1     -42.015  21.486  -7.972  1.00  0.00     0.216 C 
HETATM   32  C10 UNL     1     -43.363  20.794  -8.230  1.00  0.00     0.042 C 
HETATM   33  C11 UNL     1     -42.355  22.928  -7.792  1.00  0.00     0.042 C 
ENDBRANCH  27  31
ENDBRANCH  26  27
ENDBRANCH   5  26
BRANCH   6  34
HETATM   34  C13 UNL     1     -39.343  20.534  -6.044  1.00  0.00     0.081 C 
HETATM   35  C14 UNL     1     -39.236  22.021  -6.106  1.00  0.00     0.051 C 
HETATM   36  C15 UNL     1     -38.899  20.061  -4.645  1.00  0.00     0.051 C 
BRANCH  34  37
HETATM   37  O1  UNL     1     -40.749  20.200  -5.936  1.00  0.00    -0.386 OA
ATOM     38  H1  UNL     1     -41.170  20.479  -6.740  1.00  0.00     0.211 HD
ENDBRANCH  34  37
ENDBRANCH   6  34
TORSDOF 9
ENDMDL
MODEL 4
REMARK VINA RESULT: -9.419736459      1.020      1.549
REMARK  9 active torsions:
REMARK  status: ('A' for Active; 'I' for Inactive)
REMARK    1  A    between atoms: C2_2  and  C3_3 
REMARK    2  A    between atoms: C4_7  and  C5_8 
REMARK    3  A    between atoms: C5_8  and  N3_9 
REMARK    4  A    between atoms: N3_9  and  C6_10 
REMARK    5  A    between atoms: N3_9  and  C9_13 
REMARK    6  A    between atoms: C12_16  and  C13_17 
REMARK    7  A    between atoms: C13_17  and  O1_20 
REMARK    8  A    between atoms: C19_27  and  C20_28 
REMARK    9  A    between atoms: C20_28  and  C21_29 
ROOT
HETATM    1  C3  UNL     1     -38.274  20.117 -10.385  1.00  0.00     0.040 A 
HETATM    2  N1  UNL     1     -38.792  21.095  -9.559  1.00  0.00    -0.295 N 
ATOM      3  H1  UNL     1     -39.133  22.007  -9.864  1.00  0.00     0.187 HD
HETATM    4  N2  UNL     1     -38.775  20.661  -8.312  1.00  0.00    -0.241 N 
HETATM    5  C4  UNL     1     -39.211  21.278  -7.197  1.00  0.00     0.075 A 
HETATM    6  C12 UNL     1     -39.120  20.582  -5.949  1.00  0.00     0.024 A 
HETATM    7  C16 UNL     1     -38.597  19.332  -5.952  1.00  0.00     0.018 A 
HETATM    8  C17 UNL     1     -38.377  18.481  -4.779  1.00  0.00     0.069 C 
HETATM    9  N4  UNL     1     -38.176  18.787  -7.153  1.00  0.00    -0.344 N 
ATOM     10  H4  UNL     1     -37.783  17.846  -7.148  1.00  0.00     0.167 HD
HETATM   11  C18 UNL     1     -38.261  19.432  -8.309  1.00  0.00     0.140 A 
HETATM   12  C19 UNL     1     -37.925  19.057  -9.641  1.00  0.00     0.035 A 
ENDROOT
BRANCH  12  13
HETATM   13  C20 UNL     1     -37.277  17.795  -9.888  1.00  0.00     0.032 C 
BRANCH  13  14
HETATM   14  C21 UNL     1     -35.998  17.673 -10.516  1.00  0.00     0.010 A 
HETATM   15  C22 UNL     1     -35.856  17.062 -11.774  1.00  0.00     0.060 A 
HETATM   16  C23 UNL     1     -34.648  16.916 -12.396  1.00  0.00     0.159 A 
HETATM   17  F1  UNL     1     -34.497  16.326 -13.610  1.00  0.00    -0.203 F 
HETATM   18  C24 UNL     1     -33.524  17.389 -11.764  1.00  0.00     0.196 A 
HETATM   19  F2  UNL     1     -32.277  17.290 -12.302  1.00  0.00    -0.199 F 
HETATM   20  C25 UNL     1     -33.615  17.996 -10.533  1.00  0.00     0.197 A 
HETATM   21  F3  UNL     1     -32.473  18.468  -9.909  1.00  0.00    -0.199 F 
HETATM   22  C26 UNL     1     -34.843  18.126  -9.934  1.00  0.00     0.168 A 
HETATM   23  F4  UNL     1     -34.909  18.766  -8.718  1.00  0.00    -0.202 F 
ENDBRANCH  13  14
ENDBRANCH  12  13
BRANCH   1  24
HETATM   24  C2  UNL     1     -38.265  20.368 -11.831  1.00  0.00     0.055 C 
HETATM   25  C1  UNL     1     -38.610  21.789 -12.224  1.00  0.00     0.011 C 
ENDBRANCH   1  24
BRANCH   5  26
HETATM   26  C5  UNL     1     -39.908  22.563  -7.229  1.00  0.00     0.333 C 
BRANCH  26  27
HETATM   27  N3  UNL     1     -41.359  22.420  -7.007  1.00  0.00     0.101 N 
BRANCH  27  28
HETATM   28  C6  UNL     1     -41.811  21.450  -7.979  1.00  0.00     0.216 C 
HETATM   29  C7  UNL     1     -42.287  22.104  -9.270  1.00  0.00     0.042 C 
HETATM   30  C8  UNL     1     -42.868  20.495  -7.529  1.00  0.00     0.042 C 
ENDBRANCH  27  28
BRANCH  27  31
HETATM   31  C9  UNL     1     -41.959  23.700  -7.061  1.00  0.00     0.216 C 
HETATM   32  C10 UNL     1     -40.851  24.747  -6.870  1.00  0.00     0.042 C 
HETATM   33  C11 UNL     1     -42.971  24.019  -6.013  1.00  0.00     0.042 C 
ENDBRANCH  27  31
ENDBRANCH  26  27
ENDBRANCH   5  26
BRANCH   6  34
HETATM   34  C13 UNL     1     -39.501  21.287  -4.732  1.00  0.00     0.081 C 
HETATM   35  C14 UNL     1     -39.192  22.745  -4.671  1.00  0.00     0.051 C 
HETATM   36  C15 UNL     1     -39.067  20.630  -3.406  1.00  0.00     0.051 C 
BRANCH  34  37
HETATM   37  O1  UNL     1     -40.934  21.136  -4.574  1.00  0.00    -0.386 OA
ATOM     38  H1  UNL     1     -41.296  22.002  -4.427  1.00  0.00     0.211 HD
ENDBRANCH  34  37
ENDBRANCH   6  34
TORSDOF 9
ENDMDL
MODEL 5
REMARK VINA RESULT: -9.358026783      2.284      4.821
REMARK  9 active torsions:
REMARK  status: ('A' for Active; 'I' for Inactive)
REMARK    1  A    between atoms: C2_2  and  C3_3 
REMARK    2  A    between atoms: C4_7  and  C5_8 
REMARK    3  A    between atoms: C5_8  and  N3_9 
REMARK    4  A    between atoms: N3_9  and  C6_10 
REMARK    5  A    between atoms: N3_9  and  C9_13 
REMARK    6  A    between atoms: C12_16  and  C13_17 
REMARK    7  A    between atoms: C13_17  and  O1_20 
REMARK    8  A    between atoms: C19_27  and  C20_28 
REMARK    9  A    between atoms: C20_28  and  C21_29 
ROOT
HETATM    1  C3  UNL     1     -35.293  17.508  -8.932  1.00  0.00     0.040 A 
HETATM    2  N1  UNL     1     -36.097  18.574  -8.578  1.00  0.00    -0.295 N 
ATOM      3  H1  UNL     1     -36.225  18.929  -7.630  1.00  0.00     0.187 HD
HETATM    4  N2  UNL     1     -36.673  19.059  -9.663  1.00  0.00    -0.241 N 
HETATM    5  C4  UNL     1     -37.507  20.111  -9.777  1.00  0.00     0.075 A 
HETATM    6  C12 UNL     1     -37.977  20.472 -11.080  1.00  0.00     0.024 A 
HETATM    7  C16 UNL     1     -37.559  19.735 -12.138  1.00  0.00     0.018 A 
HETATM    8  C17 UNL     1     -37.963  19.916 -13.535  1.00  0.00     0.069 C 
HETATM    9  N4  UNL     1     -36.701  18.673 -11.913  1.00  0.00    -0.344 N 
ATOM     10  H4  UNL     1     -36.389  18.122 -12.713  1.00  0.00     0.167 HD
HETATM   11  C18 UNL     1     -36.264  18.338 -10.706  1.00  0.00     0.140 A 
HETATM   12  C19 UNL     1     -35.371  17.324 -10.259  1.00  0.00     0.035 A 
ENDROOT
BRANCH  12  13
HETATM   13  C20 UNL     1     -34.854  16.361 -11.195  1.00  0.00     0.032 C 
BRANCH  13  14
HETATM   14  C21 UNL     1     -33.497  16.347 -11.647  1.00  0.00     0.010 A 
HETATM   15  C22 UNL     1     -32.475  16.976 -10.915  1.00  0.00     0.060 A 
HETATM   16  C23 UNL     1     -31.171  16.993 -11.325  1.00  0.00     0.159 A 
HETATM   17  F1  UNL     1     -30.176  17.598 -10.628  1.00  0.00    -0.203 F 
HETATM   18  C24 UNL     1     -30.847  16.368 -12.504  1.00  0.00     0.196 A 
HETATM   19  F2  UNL     1     -29.577  16.332 -12.995  1.00  0.00    -0.199 F 
HETATM   20  C25 UNL     1     -31.813  15.738 -13.253  1.00  0.00     0.197 A 
HETATM   21  F3  UNL     1     -31.469  15.112 -14.438  1.00  0.00    -0.199 F 
HETATM   22  C26 UNL     1     -33.114  15.739 -12.814  1.00  0.00     0.168 A 
HETATM   23  F4  UNL     1     -34.054  15.074 -13.566  1.00  0.00    -0.202 F 
ENDBRANCH  13  14
ENDBRANCH  12  13
BRANCH   1  24
HETATM   24  C2  UNL     1     -34.501  16.861  -7.880  1.00  0.00     0.055 C 
HETATM   25  C1  UNL     1     -35.017  15.504  -7.450  1.00  0.00     0.011 C 
ENDBRANCH   1  24
BRANCH   5  26
HETATM   26  C5  UNL     1     -37.832  20.986  -8.652  1.00  0.00     0.333 C 
BRANCH  26  27
HETATM   27  N3  UNL     1     -39.179  20.726  -8.110  1.00  0.00     0.101 N 
BRANCH  27  28
HETATM   28  C6  UNL     1     -39.471  21.837  -7.232  1.00  0.00     0.216 C 
HETATM   29  C7  UNL     1     -40.747  22.567  -7.629  1.00  0.00     0.042 C 
HETATM   30  C8  UNL     1     -38.391  22.855  -7.061  1.00  0.00     0.042 C 
ENDBRANCH  27  28
BRANCH  27  31
HETATM   31  C9  UNL     1     -39.197  19.436  -7.529  1.00  0.00     0.216 C 
HETATM   32  C10 UNL     1     -40.606  19.193  -6.966  1.00  0.00     0.042 C 
HETATM   33  C11 UNL     1     -38.280  19.199  -6.376  1.00  0.00     0.042 C 
ENDBRANCH  27  31
ENDBRANCH  26  27
ENDBRANCH   5  26
BRANCH   6  34
HETATM   34  C13 UNL     1     -38.956  21.547 -11.192  1.00  0.00     0.081 C 
HETATM   35  C14 UNL     1     -40.356  21.230 -10.787  1.00  0.00     0.051 C 
HETATM   36  C15 UNL     1     -38.984  22.299 -12.538  1.00  0.00     0.051 C 
BRANCH  34  37
HETATM   37  O1  UNL     1     -38.496  22.640 -10.358  1.00  0.00    -0.386 OA
ATOM     38  H1  UNL     1     -38.757  23.449 -10.780  1.00  0.00     0.211 HD
ENDBRANCH  34  37
ENDBRANCH   6  34
TORSDOF 9
ENDMDL
