MODEL 1
REMARK VINA RESULT: -9.107909213      0.000      0.000
REMARK  9 active torsions:
REMARK  status: ('A' for Active; 'I' for Inactive)
REMARK    1  A    between atoms: C2_2  and  C3_3 
REMARK    2  A    between atoms: C3_3  and  C4_4 
REMARK    3  A    between atoms: C4_4  and  C5_5 
REMARK    4  A    between atoms: C5_5  and  N2_10 
REMARK    5  A    between atoms: N1_6  and  O1_8 
REMARK    6  A    between atoms: C10_18  and  S1_19 
REMARK    7  A    between atoms: S1_19  and  C11_20 
REMARK    8  A    between atoms: C11_20  and  C12_21 
REMARK       I    between atoms: C12_21  and  N3_23 
REMARK    9  A    between atoms: N3_23  and  C14_25 
ROOT
HETATM    1  C4  UNL     1     -41.366  21.652  -7.620  1.00  0.00     0.040 C 
HETATM    2  C7  UNL     1     -40.899  22.737  -6.714  1.00  0.00     0.025 C 
HETATM    3  C8  UNL     1     -39.436  23.000  -6.638  1.00  0.00     0.081 C 
HETATM    4  C9  UNL     1     -38.690  22.610  -7.836  1.00  0.00     0.140 C 
HETATM    5  O2  UNL     1     -37.869  23.346  -8.372  1.00  0.00    -0.297 OA
HETATM    6  C10 UNL     1     -38.957  21.270  -8.400  1.00  0.00     0.118 C 
HETATM    7  C20 UNL     1     -40.336  20.777  -8.247  1.00  0.00     0.040 C 
ENDROOT
BRANCH   6   8
HETATM    8  S1  UNL     1     -37.810  20.137  -7.523  1.00  0.00    -0.147 SA
BRANCH   8   9
HETATM    9  C11 UNL     1     -37.668  18.540  -8.288  1.00  0.00     0.177 C 
BRANCH   9  10
HETATM   10  C12 UNL     1     -36.412  18.352  -9.016  1.00  0.00     0.233 C 
HETATM   11  O3  UNL     1     -35.420  19.041  -8.556  1.00  0.00    -0.272 OA
HETATM   12  N3  UNL     1     -36.121  17.553 -10.112  1.00  0.00    -0.320 N 
HETATM   13  C13 UNL     1     -37.142  16.915 -10.894  1.00  0.00     0.159 C 
BRANCH  12  14
HETATM   14  C14 UNL     1     -34.769  17.350 -10.562  1.00  0.00     0.058 A 
HETATM   15  C15 UNL     1     -34.272  17.936 -11.677  1.00  0.00     0.033 A 
HETATM   16  C16 UNL     1     -32.966  17.739 -12.113  1.00  0.00     0.026 A 
HETATM   17  C17 UNL     1     -32.147  16.917 -11.382  1.00  0.00     0.035 A 
HETATM   18 CL1  UNL     1     -30.469  16.587 -11.827  1.00  0.00    -0.084 Cl
HETATM   19  C18 UNL     1     -32.629  16.301 -10.231  1.00  0.00     0.050 A 
HETATM   20  C19 UNL     1     -33.915  16.515  -9.830  1.00  0.00     0.062 A 
HETATM   21 CL2  UNL     1     -34.589  15.772  -8.395  1.00  0.00    -0.082 Cl
ENDBRANCH  12  14
ENDBRANCH   9  10
ENDBRANCH   8   9
ENDBRANCH   6   8
BRANCH   1  22
HETATM   22  C3  UNL     1     -42.242  22.284  -8.710  1.00  0.00     0.044 C 
BRANCH  22  23
HETATM   23  C2  UNL     1     -42.442  21.474  -9.897  1.00  0.00    -0.036 C 
HETATM   24  C1  UNL     1     -43.663  21.091 -10.242  1.00  0.00     0.007 C 
ENDBRANCH  22  23
ENDBRANCH   1  22
BRANCH   1  25
HETATM   25  C5  UNL     1     -42.270  20.728  -6.877  1.00  0.00     0.290 C 
HETATM   26  N1  UNL     1     -41.853  19.522  -6.749  1.00  0.00    -0.244 N 
ATOM     27  H1  UNL     1     -40.946  19.317  -7.169  1.00  0.00     0.195 HD
BRANCH  26  28
HETATM   28  O1  UNL     1     -42.463  18.492  -6.131  1.00  0.00    -0.288 OA
ATOM     29  H1  UNL     1     -42.212  17.576  -6.130  1.00  0.00     0.244 HD
ENDBRANCH  26  28
BRANCH  25  30
HETATM   30  N2  UNL     1     -43.518  21.041  -6.308  1.00  0.00     0.296 N 
HETATM   31  C6  UNL     1     -43.589  20.756  -4.893  1.00  0.00     0.375 C 
HETATM   32  F1  UNL     1     -44.517  20.276  -6.875  1.00  0.00     0.020 F 
HETATM   33  F2  UNL     1     -43.851  22.355  -6.434  1.00  0.00     0.020 F 
ENDBRANCH  25  30
ENDBRANCH   1  25
TORSDOF 9
ENDMDL
MODEL 2
REMARK VINA RESULT: -8.751334982      1.905      2.580
REMARK  9 active torsions:
REMARK  status: ('A' for Active; 'I' for Inactive)
REMARK    1  A    between atoms: C2_2  and  C3_3 
REMARK    2  A    between atoms: C3_3  and  C4_4 
REMARK    3  A    between atoms: C4_4  and  C5_5 
REMARK    4  A    between atoms: C5_5  and  N2_10 
REMARK    5  A    between atoms: N1_6  and  O1_8 
REMARK    6  A    between atoms: C10_18  and  S1_19 
REMARK    7  A    between atoms: S1_19  and  C11_20 
REMARK    8  A    between atoms: C11_20  and  C12_21 
REMARK       I    between atoms: C12_21  and  N3_23 
REMARK    9  A    between atoms: N3_23  and  C14_25 
ROOT
HETATM    1  C4  UNL     1     -42.055  21.176  -7.864  1.00  0.00     0.040 C 
HETATM    2  C7  UNL     1     -42.043  19.976  -6.982  1.00  0.00     0.025 C 
HETATM    3  C8  UNL     1     -40.730  19.344  -6.684  1.00  0.00     0.081 C 
HETATM    4  C9  UNL     1     -39.587  20.254  -6.776  1.00  0.00     0.140 C 
HETATM    5  O2  UNL     1     -38.722  20.319  -5.909  1.00  0.00    -0.297 OA
HETATM    6  C10 UNL     1     -39.497  21.118  -7.972  1.00  0.00     0.118 C 
HETATM    7  C20 UNL     1     -40.782  21.555  -8.541  1.00  0.00     0.040 C 
ENDROOT
BRANCH   6   8
HETATM    8  S1  UNL     1     -38.590  20.125  -9.222  1.00  0.00    -0.147 SA
BRANCH   8   9
HETATM    9  C11 UNL     1     -37.684  18.766  -8.525  1.00  0.00     0.177 C 
BRANCH   9  10
HETATM   10  C12 UNL     1     -36.402  18.519  -9.187  1.00  0.00     0.233 C 
HETATM   11  O3  UNL     1     -35.421  19.225  -8.729  1.00  0.00    -0.272 OA
HETATM   12  N3  UNL     1     -36.077  17.651 -10.219  1.00  0.00    -0.320 N 
HETATM   13  C13 UNL     1     -37.073  16.976 -11.002  1.00  0.00     0.159 C 
BRANCH  12  14
HETATM   14  C14 UNL     1     -34.710  17.406 -10.598  1.00  0.00     0.058 A 
HETATM   15  C15 UNL     1     -34.143  17.964 -11.693  1.00  0.00     0.033 A 
HETATM   16  C16 UNL     1     -32.822  17.726 -12.061  1.00  0.00     0.026 A 
HETATM   17  C17 UNL     1     -32.063  16.892 -11.281  1.00  0.00     0.035 A 
HETATM   18 CL1  UNL     1     -30.375  16.511 -11.638  1.00  0.00    -0.084 Cl
HETATM   19  C18 UNL     1     -32.619  16.304 -10.149  1.00  0.00     0.050 A 
HETATM   20  C19 UNL     1     -33.918  16.557  -9.815  1.00  0.00     0.062 A 
HETATM   21 CL2  UNL     1     -34.682  15.851  -8.407  1.00  0.00    -0.082 Cl
ENDBRANCH  12  14
ENDBRANCH   9  10
ENDBRANCH   8   9
ENDBRANCH   6   8
BRANCH   1  22
HETATM   22  C3  UNL     1     -42.581  22.364  -7.046  1.00  0.00     0.044 C 
BRANCH  22  23
HETATM   23  C2  UNL     1     -42.934  22.067  -5.670  1.00  0.00    -0.036 C 
HETATM   24  C1  UNL     1     -44.084  22.498  -5.172  1.00  0.00     0.007 C 
ENDBRANCH  22  23
ENDBRANCH   1  22
BRANCH   1  25
HETATM   25  C5  UNL     1     -43.045  20.987  -8.962  1.00  0.00     0.290 C 
HETATM   26  N1  UNL     1     -42.699  21.439 -10.110  1.00  0.00    -0.244 N 
ATOM     27  H1  UNL     1     -41.782  21.883 -10.157  1.00  0.00     0.195 HD
BRANCH  26  28
HETATM   28  O1  UNL     1     -43.395  21.402 -11.263  1.00  0.00    -0.288 OA
ATOM     29  H1  UNL     1     -43.714  22.133 -11.780  1.00  0.00     0.244 HD
ENDBRANCH  26  28
BRANCH  25  30
HETATM   30  N2  UNL     1     -44.305  20.369  -8.867  1.00  0.00     0.296 N 
HETATM   31  C6  UNL     1     -44.347  19.057  -9.472  1.00  0.00     0.375 C 
HETATM   32  F1  UNL     1     -45.260  21.101  -9.542  1.00  0.00     0.020 F 
HETATM   33  F2  UNL     1     -44.722  20.192  -7.583  1.00  0.00     0.020 F 
ENDBRANCH  25  30
ENDBRANCH   1  25
TORSDOF 9
ENDMDL
MODEL 3
REMARK VINA RESULT: -8.611116255      1.958      2.265
REMARK  9 active torsions:
REMARK  status: ('A' for Active; 'I' for Inactive)
REMARK    1  A    between atoms: C2_2  and  C3_3 
REMARK    2  A    between atoms: C3_3  and  C4_4 
REMARK    3  A    between atoms: C4_4  and  C5_5 
REMARK    4  A    between atoms: C5_5  and  N2_10 
REMARK    5  A    between atoms: N1_6  and  O1_8 
REMARK    6  A    between atoms: C10_18  and  S1_19 
REMARK    7  A    between atoms: S1_19  and  C11_20 
REMARK    8  A    between atoms: C11_20  and  C12_21 
REMARK       I    between atoms: C12_21  and  N3_23 
REMARK    9  A    between atoms: N3_23  and  C14_25 
ROOT
HETATM    1  C4  UNL     1     -40.666  21.234  -7.359  1.00  0.00     0.040 C 
HETATM    2  C7  UNL     1     -40.214  22.543  -7.907  1.00  0.00     0.025 C 
HETATM    3  C8  UNL     1     -39.014  22.554  -8.787  1.00  0.00     0.081 C 
HETATM    4  C9  UNL     1     -38.765  21.289  -9.483  1.00  0.00     0.140 C 
HETATM    5  O2  UNL     1     -38.516  21.233 -10.682  1.00  0.00    -0.297 OA
HETATM    6  C10 UNL     1     -38.824  20.047  -8.684  1.00  0.00     0.118 C 
HETATM    7  C20 UNL     1     -39.785  20.050  -7.570  1.00  0.00     0.040 C 
ENDROOT
BRANCH   6   8
HETATM    8  S1  UNL     1     -37.128  19.818  -8.018  1.00  0.00    -0.147 SA
BRANCH   8   9
HETATM    9  C11 UNL     1     -36.528  18.153  -8.165  1.00  0.00     0.177 C 
BRANCH   9  10
HETATM   10  C12 UNL     1     -35.333  18.037  -9.004  1.00  0.00     0.233 C 
HETATM   11  O3  UNL     1     -34.308  18.690  -8.565  1.00  0.00    -0.272 OA
HETATM   12  N3  UNL     1     -35.129  17.338 -10.185  1.00  0.00    -0.320 N 
HETATM   13  C13 UNL     1     -36.209  16.763 -10.936  1.00  0.00     0.159 C 
BRANCH  12  14
HETATM   14  C14 UNL     1     -33.817  17.183 -10.754  1.00  0.00     0.058 A 
HETATM   15  C15 UNL     1     -33.418  17.845 -11.866  1.00  0.00     0.033 A 
HETATM   16  C16 UNL     1     -32.150  17.695 -12.418  1.00  0.00     0.026 A 
HETATM   17  C17 UNL     1     -31.267  16.841 -11.811  1.00  0.00     0.035 A 
HETATM   18 CL1  UNL     1     -29.628  16.563 -12.411  1.00  0.00    -0.084 Cl
HETATM   19  C18 UNL     1     -31.647  16.146 -10.667  1.00  0.00     0.050 A 
HETATM   20  C19 UNL     1     -32.899  16.315 -10.149  1.00  0.00     0.062 A 
HETATM   21 CL2  UNL     1     -33.446  15.474  -8.715  1.00  0.00    -0.082 Cl
ENDBRANCH  12  14
ENDBRANCH   9  10
ENDBRANCH   8   9
ENDBRANCH   6   8
BRANCH   1  22
HETATM   22  C3  UNL     1     -42.068  20.943  -7.913  1.00  0.00     0.044 C 
BRANCH  22  23
HETATM   23  C2  UNL     1     -42.505  21.809  -8.992  1.00  0.00    -0.036 C 
HETATM   24  C1  UNL     1     -42.672  21.319 -10.212  1.00  0.00     0.007 C 
ENDBRANCH  22  23
ENDBRANCH   1  22
BRANCH   1  25
HETATM   25  C5  UNL     1     -40.842  21.339  -5.883  1.00  0.00     0.290 C 
HETATM   26  N1  UNL     1     -41.985  20.976  -5.429  1.00  0.00    -0.244 N 
ATOM     27  H1  UNL     1     -42.659  20.654  -6.124  1.00  0.00     0.195 HD
BRANCH  26  28
HETATM   28  O1  UNL     1     -42.408  20.969  -4.150  1.00  0.00    -0.288 OA
ATOM     29  H1  UNL     1     -43.297  21.049  -3.825  1.00  0.00     0.244 HD
ENDBRANCH  26  28
BRANCH  25  30
HETATM   30  N2  UNL     1     -39.892  21.788  -4.947  1.00  0.00     0.296 N 
HETATM   31  C6  UNL     1     -40.148  23.127  -4.469  1.00  0.00     0.375 C 
HETATM   32  F1  UNL     1     -38.637  21.850  -5.518  1.00  0.00     0.020 F 
HETATM   33  F2  UNL     1     -39.824  21.008  -3.833  1.00  0.00     0.020 F 
ENDBRANCH  25  30
ENDBRANCH   1  25
TORSDOF 9
ENDMDL
MODEL 4
REMARK VINA RESULT: -8.581650669      2.308      3.309
REMARK  9 active torsions:
REMARK  status: ('A' for Active; 'I' for Inactive)
REMARK    1  A    between atoms: C2_2  and  C3_3 
REMARK    2  A    between atoms: C3_3  and  C4_4 
REMARK    3  A    between atoms: C4_4  and  C5_5 
REMARK    4  A    between atoms: C5_5  and  N2_10 
REMARK    5  A    between atoms: N1_6  and  O1_8 
REMARK    6  A    between atoms: C10_18  and  S1_19 
REMARK    7  A    between atoms: S1_19  and  C11_20 
REMARK    8  A    between atoms: C11_20  and  C12_21 
REMARK       I    between atoms: C12_21  and  N3_23 
REMARK    9  A    between atoms: N3_23  and  C14_25 
ROOT
HETATM    1  C4  UNL     1     -42.499  21.144  -7.622  1.00  0.00     0.040 C 
HETATM    2  C7  UNL     1     -42.120  19.813  -7.072  1.00  0.00     0.025 C 
HETATM    3  C8  UNL     1     -40.719  19.625  -6.607  1.00  0.00     0.081 C 
HETATM    4  C9  UNL     1     -40.050  20.859  -6.191  1.00  0.00     0.140 C 
HETATM    5  O2  UNL     1     -39.420  20.949  -5.143  1.00  0.00    -0.297 OA
HETATM    6  C10 UNL     1     -40.155  22.029  -7.089  1.00  0.00     0.118 C 
HETATM    7  C20 UNL     1     -41.412  22.140  -7.846  1.00  0.00     0.040 C 
ENDROOT
BRANCH   6   8
HETATM    8  S1  UNL     1     -38.754  21.866  -8.263  1.00  0.00    -0.147 SA
BRANCH   8   9
HETATM    9  C11 UNL     1     -39.087  20.766  -9.617  1.00  0.00     0.177 C 
BRANCH   9  10
HETATM   10  C12 UNL     1     -37.974  19.866  -9.924  1.00  0.00     0.233 C 
HETATM   11  O3  UNL     1     -37.454  20.041 -11.095  1.00  0.00    -0.272 OA
HETATM   12  N3  UNL     1     -37.392  18.864  -9.161  1.00  0.00    -0.320 N 
HETATM   13  C13 UNL     1     -37.988  18.373  -7.950  1.00  0.00     0.159 C 
BRANCH  12  14
HETATM   14  C14 UNL     1     -36.169  18.221  -9.564  1.00  0.00     0.058 A 
HETATM   15  C15 UNL     1     -34.956  18.596  -9.096  1.00  0.00     0.033 A 
HETATM   16  C16 UNL     1     -33.773  17.976  -9.487  1.00  0.00     0.026 A 
HETATM   17  C17 UNL     1     -33.840  16.941 -10.383  1.00  0.00     0.035 A 
HETATM   18 CL1  UNL     1     -32.413  16.070 -10.956  1.00  0.00    -0.084 Cl
HETATM   19  C18 UNL     1     -35.073  16.532 -10.881  1.00  0.00     0.050 A 
HETATM   20  C19 UNL     1     -36.215  17.161 -10.479  1.00  0.00     0.062 A 
HETATM   21 CL2  UNL     1     -37.799  16.702 -11.065  1.00  0.00    -0.082 Cl
ENDBRANCH  12  14
ENDBRANCH   9  10
ENDBRANCH   8   9
ENDBRANCH   6   8
BRANCH   1  22
HETATM   22  C3  UNL     1     -43.576  21.749  -6.710  1.00  0.00     0.044 C 
BRANCH  22  23
HETATM   23  C2  UNL     1     -43.766  21.076  -5.439  1.00  0.00    -0.036 C 
HETATM   24  C1  UNL     1     -44.931  21.155  -4.813  1.00  0.00     0.007 C 
ENDBRANCH  22  23
ENDBRANCH   1  22
BRANCH   1  25
HETATM   25  C5  UNL     1     -43.158  20.974  -8.948  1.00  0.00     0.290 C 
HETATM   26  N1  UNL     1     -42.570  21.533  -9.940  1.00  0.00    -0.244 N 
ATOM     27  H1  UNL     1     -41.711  22.038  -9.723  1.00  0.00     0.195 HD
BRANCH  26  28
HETATM   28  O1  UNL     1     -42.944  21.537 -11.235  1.00  0.00    -0.288 OA
ATOM     29  H1  UNL     1     -43.735  21.176 -11.618  1.00  0.00     0.244 HD
ENDBRANCH  26  28
BRANCH  25  30
HETATM   30  N2  UNL     1     -44.345  20.269  -9.218  1.00  0.00     0.296 N 
HETATM   31  C6  UNL     1     -44.248  19.405 -10.373  1.00  0.00     0.375 C 
HETATM   32  F1  UNL     1     -45.373  21.140  -9.514  1.00  0.00     0.020 F 
HETATM   33  F2  UNL     1     -44.738  19.465  -8.193  1.00  0.00     0.020 F 
ENDBRANCH  25  30
ENDBRANCH   1  25
TORSDOF 9
ENDMDL
MODEL 5
REMARK VINA RESULT: -8.497163096      4.501      7.096
REMARK  9 active torsions:
REMARK  status: ('A' for Active; 'I' for Inactive)
REMARK    1  A    between atoms: C2_2  and  C3_3 
REMARK    2  A    between atoms: C3_3  and  C4_4 
REMARK    3  A    between atoms: C4_4  and  C5_5 
REMARK    4  A    between atoms: C5_5  and  N2_10 
REMARK    5  A    between atoms: N1_6  and  O1_8 
REMARK    6  A    between atoms: C10_18  and  S1_19 
REMARK    7  A    between atoms: S1_19  and  C11_20 
REMARK    8  A    between atoms: C11_20  and  C12_21 
REMARK       I    between atoms: C12_21  and  N3_23 
REMARK    9  A    between atoms: N3_23  and  C14_25 
ROOT
HETATM    1  C4  UNL     1     -45.146  18.358 -11.668  1.00  0.00     0.040 C 
HETATM    2  C7  UNL     1     -45.687  19.714 -11.962  1.00  0.00     0.025 C 
HETATM    3  C8  UNL     1     -45.403  20.803 -10.990  1.00  0.00     0.081 C 
HETATM    4  C9  UNL     1     -44.187  20.604 -10.199  1.00  0.00     0.140 C 
HETATM    5  O2  UNL     1     -43.350  21.486 -10.040  1.00  0.00    -0.297 OA
HETATM    6  C10 UNL     1     -43.986  19.278  -9.578  1.00  0.00     0.118 C 
HETATM    7  C20 UNL     1     -44.519  18.133 -10.334  1.00  0.00     0.040 C 
ENDROOT
BRANCH   6   8
HETATM    8  S1  UNL     1     -44.828  19.371  -7.949  1.00  0.00    -0.147 SA
BRANCH   8   9
HETATM    9  C11 UNL     1     -43.833  20.115  -6.679  1.00  0.00     0.177 C 
BRANCH   9  10
HETATM   10  C12 UNL     1     -42.410  19.788  -6.787  1.00  0.00     0.233 C 
HETATM   11  O3  UNL     1     -42.148  18.523  -6.743  1.00  0.00    -0.272 OA
HETATM   12  N3  UNL     1     -41.307  20.617  -6.931  1.00  0.00    -0.320 N 
HETATM   13  C13 UNL     1     -41.384  22.040  -6.757  1.00  0.00     0.159 C 
BRANCH  12  14
HETATM   14  C14 UNL     1     -40.000  20.092  -7.223  1.00  0.00     0.058 A 
HETATM   15  C15 UNL     1     -39.317  19.304  -6.359  1.00  0.00     0.033 A 
HETATM   16  C16 UNL     1     -38.052  18.797  -6.641  1.00  0.00     0.026 A 
HETATM   17  C17 UNL     1     -37.473  19.108  -7.843  1.00  0.00     0.035 A 
HETATM   18 CL1  UNL     1     -35.874  18.527  -8.322  1.00  0.00    -0.084 Cl
HETATM   19  C18 UNL     1     -38.150  19.916  -8.752  1.00  0.00     0.050 A 
HETATM   20  C19 UNL     1     -39.389  20.398  -8.446  1.00  0.00     0.062 A 
HETATM   21 CL2  UNL     1     -40.298  21.420  -9.539  1.00  0.00    -0.082 Cl
ENDBRANCH  12  14
ENDBRANCH   9  10
ENDBRANCH   8   9
ENDBRANCH   6   8
BRANCH   1  22
HETATM   22  C3  UNL     1     -44.151  17.989 -12.776  1.00  0.00     0.044 C 
BRANCH  22  23
HETATM   23  C2  UNL     1     -44.532  18.394 -14.117  1.00  0.00    -0.036 C 
HETATM   24  C1  UNL     1     -44.316  17.584 -15.143  1.00  0.00     0.007 C 
ENDBRANCH  22  23
ENDBRANCH   1  22
BRANCH   1  25
HETATM   25  C5  UNL     1     -46.237  17.346 -11.767  1.00  0.00     0.290 C 
HETATM   26  N1  UNL     1     -47.356  17.775 -12.223  1.00  0.00    -0.244 N 
ATOM     27  H1  UNL     1     -47.387  18.764 -12.472  1.00  0.00     0.195 HD
BRANCH  26  28
HETATM   28  O1  UNL     1     -48.496  17.082 -12.415  1.00  0.00    -0.288 OA
ATOM     29  H1  UNL     1     -49.268  17.346 -12.902  1.00  0.00     0.244 HD
ENDBRANCH  26  28
BRANCH  25  30
HETATM   30  N2  UNL     1     -46.164  15.986 -11.416  1.00  0.00     0.296 N 
HETATM   31  C6  UNL     1     -46.414  15.094 -12.525  1.00  0.00     0.375 C 
HETATM   32  F1  UNL     1     -47.129  15.671 -10.482  1.00  0.00     0.020 F 
HETATM   33  F2  UNL     1     -44.948  15.623 -10.923  1.00  0.00     0.020 F 
ENDBRANCH  25  30
ENDBRANCH   1  25
TORSDOF 9
ENDMDL
