MODEL 1
REMARK VINA RESULT: -7.086423042      0.000      0.000
REMARK  20 active torsions:
REMARK  status: ('A' for Active; 'I' for Inactive)
REMARK    1  A    between atoms: C3_3  and  O1_4 
REMARK    2  A    between atoms: C5_8  and  O3_9 
REMARK    3  A    between atoms: C9_14  and  C11_16 
REMARK    4  A    between atoms: C11_16  and  C12_17 
REMARK    5  A    between atoms: C12_17  and  O4_18 
REMARK    6  A    between atoms: C12_17  and  C13_20 
REMARK    7  A    between atoms: C13_20  and  C15_22 
REMARK    8  A    between atoms: C15_22  and  C16_23 
REMARK    9  A    between atoms: C16_23  and  C17_24 
REMARK   10  A    between atoms: C17_24  and  C18_25 
REMARK   11  A    between atoms: C17_24  and  C25_34 
REMARK   12  A    between atoms: C18_25  and  O5_26 
REMARK   13  A    between atoms: C18_25  and  C19_28 
REMARK   14  A    between atoms: C20_29  and  C21_30 
REMARK   15  A    between atoms: C21_30  and  C22_31 
REMARK   16  A    between atoms: C22_31  and  C23_32 
REMARK   17  A    between atoms: C25_34  and  C27_36 
REMARK   18  A    between atoms: C27_36  and  C28_37 
REMARK   19  A    between atoms: C28_37  and  O6_38 
REMARK   20  A    between atoms: C29_40  and  O7_41 
ROOT
HETATM    1  C12 UNL     1      15.975  39.465 -12.903  1.00  0.00     0.044 C 
ENDROOT
BRANCH   1   2
HETATM    2  C11 UNL     1      15.053  38.617 -13.659  1.00  0.00     0.018 C 
BRANCH   2   3
HETATM    3  C9  UNL     1      15.105  37.163 -13.641  1.00  0.00     0.012 C 
HETATM    4  C8  UNL     1      13.657  36.644 -13.911  1.00  0.00     0.025 C 
HETATM    5  C7  UNL     1      14.262  35.469 -14.649  1.00  0.00     0.038 C 
HETATM    6  C6  UNL     1      13.484  35.154 -15.848  1.00  0.00     0.080 C 
HETATM    7  C29 UNL     1      15.486  36.344 -14.831  1.00  0.00     0.098 C 
HETATM    8  C4  UNL     1      13.291  36.204 -16.851  1.00  0.00     0.167 C 
HETATM    9  C5  UNL     1      14.069  34.427 -16.994  1.00  0.00     0.264 C 
HETATM   10  C3  UNL     1      14.413  37.182 -17.029  1.00  0.00     0.179 C 
HETATM   11  O2  UNL     1      13.341  35.243 -17.860  1.00  0.00    -0.352 OA
HETATM   12  C2  UNL     1      15.583  36.875 -16.172  1.00  0.00    -0.023 C 
HETATM   13  C1  UNL     1      16.790  37.084 -16.725  1.00  0.00     0.020 C 
HETATM   14  C10 UNL     1      15.555  36.485 -12.367  1.00  0.00     0.023 C 
BRANCH  10  15
HETATM   15  O1  UNL     1      14.834  37.244 -18.366  1.00  0.00    -0.389 OA
ATOM     16  H1  UNL     1      14.317  36.634 -18.879  1.00  0.00     0.210 HD
ENDBRANCH  10  15
BRANCH   9  17
HETATM   17  O3  UNL     1      13.557  33.113 -17.140  1.00  0.00    -0.371 OA
ATOM     18  H3  UNL     1      13.457  32.959 -18.073  1.00  0.00     0.212 HD
ENDBRANCH   9  17
BRANCH   7  19
HETATM   19  O7  UNL     1      16.618  35.531 -14.563  1.00  0.00    -0.384 OA
ATOM     20  H7  UNL     1      16.343  34.751 -14.095  1.00  0.00     0.211 HD
ENDBRANCH   7  19
ENDBRANCH   2   3
ENDBRANCH   1   2
BRANCH   1  21
HETATM   21  O4  UNL     1      17.136  38.957 -12.421  1.00  0.00    -0.365 OA
ATOM     22  H4  UNL     1      17.485  39.258 -11.590  1.00  0.00     0.217 HD
ENDBRANCH   1  21
BRANCH   1  23
HETATM   23  C13 UNL     1      15.275  40.377 -11.867  1.00  0.00     0.038 C 
HETATM   24  C14 UNL     1      15.569  41.777 -12.335  1.00  0.00     0.017 C 
BRANCH  23  25
HETATM   25  C15 UNL     1      15.882  40.069 -10.501  1.00  0.00     0.011 C 
BRANCH  25  26
HETATM   26  C16 UNL     1      14.848  39.879  -9.468  1.00  0.00     0.009 C 
BRANCH  26  27
HETATM   27  C17 UNL     1      13.433  39.594  -9.997  1.00  0.00     0.022 C 
BRANCH  27  28
HETATM   28  C18 UNL     1      12.679  40.868  -9.640  1.00  0.00     0.145 C 
BRANCH  28  29
HETATM   29  O5  UNL     1      11.559  40.402  -8.890  1.00  0.00    -0.391 OA
ATOM     30  H5  UNL     1      11.556  40.957  -8.120  1.00  0.00     0.210 HD
ENDBRANCH  28  29
BRANCH  28  31
HETATM   31  C19 UNL     1      13.444  41.850  -8.872  1.00  0.00     0.001 C 
HETATM   32  C20 UNL     1      13.334  42.054  -7.577  1.00  0.00    -0.028 C 
BRANCH  32  33
HETATM   33  C21 UNL     1      14.140  43.067  -6.871  1.00  0.00     0.027 C 
BRANCH  33  34
HETATM   34  C22 UNL     1      14.834  43.966  -7.873  1.00  0.00     0.003 C 
BRANCH  34  35
HETATM   35  C23 UNL     1      16.345  43.770  -7.799  1.00  0.00    -0.004 C 
HETATM   36  C24 UNL     1      16.807  43.420  -9.195  1.00  0.00     0.005 C 
ENDBRANCH  34  35
ENDBRANCH  33  34
ENDBRANCH  32  33
ENDBRANCH  28  31
ENDBRANCH  27  28
BRANCH  27  37
HETATM   37  C25 UNL     1      12.913  38.359  -9.383  1.00  0.00    -0.010 C 
HETATM   38  C26 UNL     1      12.927  37.157 -10.287  1.00  0.00     0.010 C 
BRANCH  37  39
HETATM   39  C27 UNL     1      13.460  37.961  -8.050  1.00  0.00     0.031 C 
BRANCH  39  40
HETATM   40  C28 UNL     1      12.438  37.893  -6.951  1.00  0.00     0.164 C 
BRANCH  40  41
HETATM   41  O6  UNL     1      11.136  37.827  -7.453  1.00  0.00    -0.401 OA
ATOM     42  H6  UNL     1      10.764  36.958  -7.359  1.00  0.00     0.209 HD
ENDBRANCH  40  41
ENDBRANCH  39  40
ENDBRANCH  37  39
ENDBRANCH  27  37
ENDBRANCH  26  27
ENDBRANCH  25  26
ENDBRANCH  23  25
ENDBRANCH   1  23
TORSDOF 20
ENDMDL
MODEL 2
REMARK VINA RESULT: -7.062848383      2.445      9.210
REMARK  20 active torsions:
REMARK  status: ('A' for Active; 'I' for Inactive)
REMARK    1  A    between atoms: C3_3  and  O1_4 
REMARK    2  A    between atoms: C5_8  and  O3_9 
REMARK    3  A    between atoms: C9_14  and  C11_16 
REMARK    4  A    between atoms: C11_16  and  C12_17 
REMARK    5  A    between atoms: C12_17  and  O4_18 
REMARK    6  A    between atoms: C12_17  and  C13_20 
REMARK    7  A    between atoms: C13_20  and  C15_22 
REMARK    8  A    between atoms: C15_22  and  C16_23 
REMARK    9  A    between atoms: C16_23  and  C17_24 
REMARK   10  A    between atoms: C17_24  and  C18_25 
REMARK   11  A    between atoms: C17_24  and  C25_34 
REMARK   12  A    between atoms: C18_25  and  O5_26 
REMARK   13  A    between atoms: C18_25  and  C19_28 
REMARK   14  A    between atoms: C20_29  and  C21_30 
REMARK   15  A    between atoms: C21_30  and  C22_31 
REMARK   16  A    between atoms: C22_31  and  C23_32 
REMARK   17  A    between atoms: C25_34  and  C27_36 
REMARK   18  A    between atoms: C27_36  and  C28_37 
REMARK   19  A    between atoms: C28_37  and  O6_38 
REMARK   20  A    between atoms: C29_40  and  O7_41 
ROOT
HETATM    1  C12 UNL     1      13.878  39.459  -9.422  1.00  0.00     0.044 C 
ENDROOT
BRANCH   1   2
HETATM    2  C11 UNL     1      13.348  40.501 -10.302  1.00  0.00     0.018 C 
BRANCH   2   3
HETATM    3  C9  UNL     1      12.860  41.784  -9.819  1.00  0.00     0.012 C 
HETATM    4  C8  UNL     1      13.222  41.877  -8.302  1.00  0.00     0.025 C 
HETATM    5  C7  UNL     1      13.420  43.366  -8.484  1.00  0.00     0.038 C 
HETATM    6  C6  UNL     1      14.582  43.830  -7.726  1.00  0.00     0.080 C 
HETATM    7  C29 UNL     1      13.634  43.056  -9.952  1.00  0.00     0.098 C 
HETATM    8  C4  UNL     1      15.884  43.215  -7.995  1.00  0.00     0.167 C 
HETATM    9  C5  UNL     1      15.305  45.070  -8.080  1.00  0.00     0.264 C 
HETATM   10  C3  UNL     1      16.146  42.781  -9.406  1.00  0.00     0.179 C 
HETATM   11  O2  UNL     1      16.507  44.439  -7.758  1.00  0.00    -0.352 OA
HETATM   12  C2  UNL     1      15.030  43.109 -10.325  1.00  0.00    -0.023 C 
HETATM   13  C1  UNL     1      15.379  43.512 -11.557  1.00  0.00     0.020 C 
HETATM   14  C10 UNL     1      11.376  42.057  -9.905  1.00  0.00     0.023 C 
BRANCH  10  15
HETATM   15  O1  UNL     1      17.327  43.347  -9.907  1.00  0.00    -0.389 OA
ATOM     16  H1  UNL     1      17.827  43.707  -9.184  1.00  0.00     0.210 HD
ENDBRANCH  10  15
BRANCH   9  17
HETATM   17  O3  UNL     1      15.122  46.111  -7.134  1.00  0.00    -0.371 OA
ATOM     18  H3  UNL     1      14.444  45.821  -6.535  1.00  0.00     0.212 HD
ENDBRANCH   9  17
BRANCH   7  19
HETATM   19  O7  UNL     1      12.911  44.030 -10.689  1.00  0.00    -0.384 OA
ATOM     20  H7  UNL     1      13.417  44.833 -10.730  1.00  0.00     0.211 HD
ENDBRANCH   7  19
ENDBRANCH   2   3
ENDBRANCH   1   2
BRANCH   1  21
HETATM   21  O4  UNL     1      15.203  39.169  -9.421  1.00  0.00    -0.365 OA
ATOM     22  H4  UNL     1      15.807  39.679  -8.894  1.00  0.00     0.217 HD
ENDBRANCH   1  21
BRANCH   1  23
HETATM   23  C13 UNL     1      13.011  38.178  -9.382  1.00  0.00     0.038 C 
HETATM   24  C14 UNL     1      12.717  37.966  -7.920  1.00  0.00     0.017 C 
BRANCH  23  25
HETATM   25  C15 UNL     1      13.836  37.047  -9.990  1.00  0.00     0.011 C 
BRANCH  25  26
HETATM   26  C16 UNL     1      13.147  36.410 -11.126  1.00  0.00     0.009 C 
BRANCH  26  27
HETATM   27  C17 UNL     1      13.701  36.766 -12.516  1.00  0.00     0.022 C 
BRANCH  27  28
HETATM   28  C18 UNL     1      13.688  35.424 -13.235  1.00  0.00     0.145 C 
BRANCH  28  29
HETATM   29  O5  UNL     1      12.871  34.602 -12.404  1.00  0.00    -0.391 OA
ATOM     30  H5  UNL     1      12.039  34.576 -12.860  1.00  0.00     0.210 HD
ENDBRANCH  28  29
BRANCH  28  31
HETATM   31  C19 UNL     1      13.172  35.454 -14.602  1.00  0.00     0.001 C 
HETATM   32  C20 UNL     1      13.909  35.484 -15.692  1.00  0.00    -0.028 C 
BRANCH  32  33
HETATM   33  C21 UNL     1      13.315  35.513 -17.041  1.00  0.00     0.027 C 
BRANCH  33  34
HETATM   34  C22 UNL     1      13.741  34.286 -17.820  1.00  0.00     0.003 C 
BRANCH  34  35
HETATM   35  C23 UNL     1      15.147  33.861 -17.406  1.00  0.00    -0.004 C 
HETATM   36  C24 UNL     1      15.259  32.384 -17.704  1.00  0.00     0.005 C 
ENDBRANCH  34  35
ENDBRANCH  33  34
ENDBRANCH  32  33
ENDBRANCH  28  31
ENDBRANCH  27  28
BRANCH  27  37
HETATM   37  C25 UNL     1      15.026  37.396 -12.376  1.00  0.00    -0.010 C 
HETATM   38  C26 UNL     1      16.179  36.529 -12.798  1.00  0.00     0.010 C 
BRANCH  37  39
HETATM   39  C27 UNL     1      15.213  38.759 -12.960  1.00  0.00     0.031 C 
BRANCH  39  40
HETATM   40  C28 UNL     1      16.600  39.317 -12.812  1.00  0.00     0.164 C 
BRANCH  40  41
HETATM   41  O6  UNL     1      16.854  39.741 -11.506  1.00  0.00    -0.401 OA
ATOM     42  H6  UNL     1      17.379  40.532 -11.486  1.00  0.00     0.209 HD
ENDBRANCH  40  41
ENDBRANCH  39  40
ENDBRANCH  37  39
ENDBRANCH  27  37
ENDBRANCH  26  27
ENDBRANCH  25  26
ENDBRANCH  23  25
ENDBRANCH   1  23
TORSDOF 20
ENDMDL
MODEL 3
REMARK VINA RESULT: -6.995238575      3.653      6.369
REMARK  20 active torsions:
REMARK  status: ('A' for Active; 'I' for Inactive)
REMARK    1  A    between atoms: C3_3  and  O1_4 
REMARK    2  A    between atoms: C5_8  and  O3_9 
REMARK    3  A    between atoms: C9_14  and  C11_16 
REMARK    4  A    between atoms: C11_16  and  C12_17 
REMARK    5  A    between atoms: C12_17  and  O4_18 
REMARK    6  A    between atoms: C12_17  and  C13_20 
REMARK    7  A    between atoms: C13_20  and  C15_22 
REMARK    8  A    between atoms: C15_22  and  C16_23 
REMARK    9  A    between atoms: C16_23  and  C17_24 
REMARK   10  A    between atoms: C17_24  and  C18_25 
REMARK   11  A    between atoms: C17_24  and  C25_34 
REMARK   12  A    between atoms: C18_25  and  O5_26 
REMARK   13  A    between atoms: C18_25  and  C19_28 
REMARK   14  A    between atoms: C20_29  and  C21_30 
REMARK   15  A    between atoms: C21_30  and  C22_31 
REMARK   16  A    between atoms: C22_31  and  C23_32 
REMARK   17  A    between atoms: C25_34  and  C27_36 
REMARK   18  A    between atoms: C27_36  and  C28_37 
REMARK   19  A    between atoms: C28_37  and  O6_38 
REMARK   20  A    between atoms: C29_40  and  O7_41 
ROOT
HETATM    1  C12 UNL     1      14.309  38.806 -10.514  1.00  0.00     0.044 C 
ENDROOT
BRANCH   1   2
HETATM    2  C11 UNL     1      13.954  38.886 -11.931  1.00  0.00     0.018 C 
BRANCH   2   3
HETATM    3  C9  UNL     1      14.773  39.567 -12.924  1.00  0.00     0.012 C 
HETATM    4  C8  UNL     1      13.960  39.591 -14.258  1.00  0.00     0.025 C 
HETATM    5  C7  UNL     1      14.581  40.937 -14.562  1.00  0.00     0.038 C 
HETATM    6  C6  UNL     1      13.593  41.840 -15.154  1.00  0.00     0.080 C 
HETATM    7  C29 UNL     1      14.813  41.054 -13.069  1.00  0.00     0.098 C 
HETATM    8  C4  UNL     1      12.366  42.122 -14.406  1.00  0.00     0.167 C 
HETATM    9  C5  UNL     1      13.742  43.310 -15.099  1.00  0.00     0.264 C 
HETATM   10  C3  UNL     1      12.480  42.156 -12.912  1.00  0.00     0.179 C 
HETATM   11  O2  UNL     1      12.365  43.423 -14.907  1.00  0.00    -0.352 OA
HETATM   12  C2  UNL     1      13.868  41.947 -12.437  1.00  0.00    -0.023 C 
HETATM   13  C1  UNL     1      14.244  42.677 -11.374  1.00  0.00     0.020 C 
HETATM   14  C10 UNL     1      16.115  38.966 -13.270  1.00  0.00     0.023 C 
BRANCH  10  15
HETATM   15  O1  UNL     1      11.998  43.364 -12.387  1.00  0.00    -0.389 OA
ATOM     16  H1  UNL     1      12.709  43.995 -12.366  1.00  0.00     0.210 HD
ENDBRANCH  10  15
BRANCH   9  17
HETATM   17  O3  UNL     1      14.029  43.888 -16.361  1.00  0.00    -0.371 OA
ATOM     18  H3  UNL     1      14.915  44.227 -16.313  1.00  0.00     0.212 HD
ENDBRANCH   9  17
BRANCH   7  19
HETATM   19  O7  UNL     1      16.128  41.558 -12.894  1.00  0.00    -0.384 OA
ATOM     20  H7  UNL     1      16.498  41.203 -12.094  1.00  0.00     0.211 HD
ENDBRANCH   7  19
ENDBRANCH   2   3
ENDBRANCH   1   2
BRANCH   1  21
HETATM   21  O4  UNL     1      15.415  39.435 -10.046  1.00  0.00    -0.365 OA
ATOM     22  H4  UNL     1      16.087  38.948  -9.585  1.00  0.00     0.217 HD
ENDBRANCH   1  21
BRANCH   1  23
HETATM   23  C13 UNL     1      14.161  37.387  -9.915  1.00  0.00     0.038 C 
HETATM   24  C14 UNL     1      13.093  36.732 -10.751  1.00  0.00     0.017 C 
BRANCH  23  25
HETATM   25  C15 UNL     1      13.752  37.547  -8.453  1.00  0.00     0.011 C 
BRANCH  25  26
HETATM   26  C16 UNL     1      12.471  38.260  -8.312  1.00  0.00     0.009 C 
BRANCH  26  27
HETATM   27  C17 UNL     1      12.431  39.332  -7.210  1.00  0.00     0.022 C 
BRANCH  27  28
HETATM   28  C18 UNL     1      11.023  39.186  -6.651  1.00  0.00     0.145 C 
BRANCH  28  29
HETATM   29  O5  UNL     1      10.543  37.985  -7.252  1.00  0.00    -0.391 OA
ATOM     30  H5  UNL     1       9.602  38.034  -7.134  1.00  0.00     0.210 HD
ENDBRANCH  28  29
BRANCH  28  31
HETATM   31  C19 UNL     1      10.936  39.107  -5.193  1.00  0.00     0.001 C 
HETATM   32  C20 UNL     1      10.092  38.352  -4.523  1.00  0.00    -0.028 C 
BRANCH  32  33
HETATM   33  C21 UNL     1      10.062  38.326  -3.049  1.00  0.00     0.027 C 
BRANCH  33  34
HETATM   34  C22 UNL     1       9.456  37.024  -2.568  1.00  0.00     0.003 C 
BRANCH  34  35
HETATM   35  C23 UNL     1       9.486  36.961  -1.043  1.00  0.00    -0.004 C 
HETATM   36  C24 UNL     1      10.251  38.177  -0.574  1.00  0.00     0.005 C 
ENDBRANCH  34  35
ENDBRANCH  33  34
ENDBRANCH  32  33
ENDBRANCH  28  31
ENDBRANCH  27  28
BRANCH  27  37
HETATM   37  C25 UNL     1      12.748  40.651  -7.789  1.00  0.00    -0.010 C 
HETATM   38  C26 UNL     1      11.923  41.022  -8.989  1.00  0.00     0.010 C 
BRANCH  37  39
HETATM   39  C27 UNL     1      12.800  41.823  -6.862  1.00  0.00     0.031 C 
BRANCH  39  40
HETATM   40  C28 UNL     1      13.977  42.732  -7.071  1.00  0.00     0.164 C 
BRANCH  40  41
HETATM   41  O6  UNL     1      14.239  43.512  -5.943  1.00  0.00    -0.401 OA
ATOM     42  H6  UNL     1      13.441  43.762  -5.491  1.00  0.00     0.209 HD
ENDBRANCH  40  41
ENDBRANCH  39  40
ENDBRANCH  37  39
ENDBRANCH  27  37
ENDBRANCH  26  27
ENDBRANCH  25  26
ENDBRANCH  23  25
ENDBRANCH   1  23
TORSDOF 20
ENDMDL
MODEL 4
REMARK VINA RESULT: -6.971102997      1.840      3.602
REMARK  20 active torsions:
REMARK  status: ('A' for Active; 'I' for Inactive)
REMARK    1  A    between atoms: C3_3  and  O1_4 
REMARK    2  A    between atoms: C5_8  and  O3_9 
REMARK    3  A    between atoms: C9_14  and  C11_16 
REMARK    4  A    between atoms: C11_16  and  C12_17 
REMARK    5  A    between atoms: C12_17  and  O4_18 
REMARK    6  A    between atoms: C12_17  and  C13_20 
REMARK    7  A    between atoms: C13_20  and  C15_22 
REMARK    8  A    between atoms: C15_22  and  C16_23 
REMARK    9  A    between atoms: C16_23  and  C17_24 
REMARK   10  A    between atoms: C17_24  and  C18_25 
REMARK   11  A    between atoms: C17_24  and  C25_34 
REMARK   12  A    between atoms: C18_25  and  O5_26 
REMARK   13  A    between atoms: C18_25  and  C19_28 
REMARK   14  A    between atoms: C20_29  and  C21_30 
REMARK   15  A    between atoms: C21_30  and  C22_31 
REMARK   16  A    between atoms: C22_31  and  C23_32 
REMARK   17  A    between atoms: C25_34  and  C27_36 
REMARK   18  A    between atoms: C27_36  and  C28_37 
REMARK   19  A    between atoms: C28_37  and  O6_38 
REMARK   20  A    between atoms: C29_40  and  O7_41 
ROOT
HETATM    1  C12 UNL     1      13.222  37.776 -10.121  1.00  0.00     0.044 C 
ENDROOT
BRANCH   1   2
HETATM    2  C11 UNL     1      13.342  37.587 -11.566  1.00  0.00     0.018 C 
BRANCH   2   3
HETATM    3  C9  UNL     1      14.319  36.699 -12.179  1.00  0.00     0.012 C 
HETATM    4  C8  UNL     1      13.669  36.118 -13.475  1.00  0.00     0.025 C 
HETATM    5  C7  UNL     1      15.042  36.123 -14.114  1.00  0.00     0.038 C 
HETATM    6  C6  UNL     1      14.960  36.552 -15.511  1.00  0.00     0.080 C 
HETATM    7  C29 UNL     1      15.403  37.179 -13.089  1.00  0.00     0.098 C 
HETATM    8  C4  UNL     1      14.372  37.860 -15.807  1.00  0.00     0.167 C 
HETATM    9  C5  UNL     1      16.122  37.122 -16.225  1.00  0.00     0.264 C 
HETATM   10  C3  UNL     1      14.593  38.944 -14.795  1.00  0.00     0.179 C 
HETATM   11  O2  UNL     1      15.266  38.018 -16.865  1.00  0.00    -0.352 OA
HETATM   12  C2  UNL     1      15.440  38.506 -13.660  1.00  0.00    -0.023 C 
HETATM   13  C1  UNL     1      16.308  39.416 -13.187  1.00  0.00     0.020 C 
HETATM   14  C10 UNL     1      14.789  35.503 -11.382  1.00  0.00     0.023 C 
BRANCH  10  15
HETATM   15  O1  UNL     1      15.168  40.083 -15.377  1.00  0.00    -0.389 OA
ATOM     16  H1  UNL     1      15.387  39.888 -16.281  1.00  0.00     0.210 HD
ENDBRANCH  10  15
BRANCH   9  17
HETATM   17  O3  UNL     1      16.637  36.260 -17.226  1.00  0.00    -0.371 OA
ATOM     18  H3  UNL     1      16.963  35.486 -16.782  1.00  0.00     0.212 HD
ENDBRANCH   9  17
BRANCH   7  19
HETATM   19  O7  UNL     1      16.689  36.845 -12.588  1.00  0.00    -0.384 OA
ATOM     20  H7  UNL     1      16.628  36.666 -11.657  1.00  0.00     0.211 HD
ENDBRANCH   7  19
ENDBRANCH   2   3
ENDBRANCH   1   2
BRANCH   1  21
HETATM   21  O4  UNL     1      12.258  37.130  -9.421  1.00  0.00    -0.365 OA
ATOM     22  H4  UNL     1      12.180  37.253  -8.482  1.00  0.00     0.217 HD
ENDBRANCH   1  21
BRANCH   1  23
HETATM   23  C13 UNL     1      13.365  39.250  -9.672  1.00  0.00     0.038 C 
HETATM   24  C14 UNL     1      14.833  39.552  -9.825  1.00  0.00     0.017 C 
BRANCH  23  25
HETATM   25  C15 UNL     1      12.891  39.338  -8.224  1.00  0.00     0.011 C 
BRANCH  25  26
HETATM   26  C16 UNL     1      12.149  40.583  -7.961  1.00  0.00     0.009 C 
BRANCH  26  27
HETATM   27  C17 UNL     1      12.826  41.871  -8.457  1.00  0.00     0.022 C 
BRANCH  27  28
HETATM   28  C18 UNL     1      13.165  42.592  -7.160  1.00  0.00     0.145 C 
BRANCH  28  29
HETATM   29  O5  UNL     1      13.021  41.583  -6.163  1.00  0.00    -0.391 OA
ATOM     30  H5  UNL     1      13.881  41.536  -5.763  1.00  0.00     0.210 HD
ENDBRANCH  28  29
BRANCH  28  31
HETATM   31  C19 UNL     1      14.500  43.186  -7.107  1.00  0.00     0.001 C 
HETATM   32  C20 UNL     1      15.312  43.324  -8.133  1.00  0.00    -0.028 C 
BRANCH  32  33
HETATM   33  C21 UNL     1      16.648  43.934  -8.002  1.00  0.00     0.027 C 
BRANCH  33  34
HETATM   34  C22 UNL     1      17.469  43.651  -9.243  1.00  0.00     0.003 C 
BRANCH  34  35
HETATM   35  C23 UNL     1      16.776  42.599 -10.104  1.00  0.00    -0.004 C 
HETATM   36  C24 UNL     1      17.860  41.684 -10.626  1.00  0.00     0.005 C 
ENDBRANCH  34  35
ENDBRANCH  33  34
ENDBRANCH  32  33
ENDBRANCH  28  31
ENDBRANCH  27  28
BRANCH  27  37
HETATM   37  C25 UNL     1      11.915  42.593  -9.363  1.00  0.00    -0.010 C 
HETATM   38  C26 UNL     1      12.414  42.731 -10.775  1.00  0.00     0.010 C 
BRANCH  37  39
HETATM   39  C27 UNL     1      10.484  42.160  -9.402  1.00  0.00     0.031 C 
BRANCH  39  40
HETATM   40  C28 UNL     1       9.502  43.270  -9.644  1.00  0.00     0.164 C 
BRANCH  40  41
HETATM   41  O6  UNL     1       8.485  42.884 -10.520  1.00  0.00    -0.401 OA
ATOM     42  H6  UNL     1       8.116  43.626 -10.984  1.00  0.00     0.209 HD
ENDBRANCH  40  41
ENDBRANCH  39  40
ENDBRANCH  37  39
ENDBRANCH  27  37
ENDBRANCH  26  27
ENDBRANCH  25  26
ENDBRANCH  23  25
ENDBRANCH   1  23
TORSDOF 20
ENDMDL
MODEL 5
REMARK VINA RESULT: -6.965366966      3.053      8.852
REMARK  20 active torsions:
REMARK  status: ('A' for Active; 'I' for Inactive)
REMARK    1  A    between atoms: C3_3  and  O1_4 
REMARK    2  A    between atoms: C5_8  and  O3_9 
REMARK    3  A    between atoms: C9_14  and  C11_16 
REMARK    4  A    between atoms: C11_16  and  C12_17 
REMARK    5  A    between atoms: C12_17  and  O4_18 
REMARK    6  A    between atoms: C12_17  and  C13_20 
REMARK    7  A    between atoms: C13_20  and  C15_22 
REMARK    8  A    between atoms: C15_22  and  C16_23 
REMARK    9  A    between atoms: C16_23  and  C17_24 
REMARK   10  A    between atoms: C17_24  and  C18_25 
REMARK   11  A    between atoms: C17_24  and  C25_34 
REMARK   12  A    between atoms: C18_25  and  O5_26 
REMARK   13  A    between atoms: C18_25  and  C19_28 
REMARK   14  A    between atoms: C20_29  and  C21_30 
REMARK   15  A    between atoms: C21_30  and  C22_31 
REMARK   16  A    between atoms: C22_31  and  C23_32 
REMARK   17  A    between atoms: C25_34  and  C27_36 
REMARK   18  A    between atoms: C27_36  and  C28_37 
REMARK   19  A    between atoms: C28_37  and  O6_38 
REMARK   20  A    between atoms: C29_40  and  O7_41 
ROOT
HETATM    1  C12 UNL     1      11.380  40.071  -7.200  1.00  0.00     0.044 C 
ENDROOT
BRANCH   1   2
HETATM    2  C11 UNL     1      11.680  40.852  -8.400  1.00  0.00     0.018 C 
BRANCH   2   3
HETATM    3  C9  UNL     1      12.306  42.166  -8.364  1.00  0.00     0.012 C 
HETATM    4  C8  UNL     1      12.345  42.701  -9.831  1.00  0.00     0.025 C 
HETATM    5  C7  UNL     1      12.144  44.097  -9.281  1.00  0.00     0.038 C 
HETATM    6  C6  UNL     1      11.225  44.859 -10.128  1.00  0.00     0.080 C 
HETATM    7  C29 UNL     1      11.555  43.421  -8.059  1.00  0.00     0.098 C 
HETATM    8  C4  UNL     1       9.883  44.321 -10.364  1.00  0.00     0.167 C 
HETATM    9  C5  UNL     1      10.466  46.019  -9.615  1.00  0.00     0.264 C 
HETATM   10  C3  UNL     1       9.260  43.547  -9.241  1.00  0.00     0.179 C 
HETATM   11  O2  UNL     1       9.371  45.617 -10.381  1.00  0.00    -0.352 OA
HETATM   12  C2  UNL     1      10.113  43.505  -8.029  1.00  0.00    -0.023 C 
HETATM   13  C1  UNL     1       9.470  43.589  -6.853  1.00  0.00     0.020 C 
HETATM   14  C10 UNL     1      13.726  42.262  -7.853  1.00  0.00     0.023 C 
BRANCH  10  15
HETATM   15  O1  UNL     1       8.004  44.066  -8.894  1.00  0.00    -0.389 OA
ATOM     16  H1  UNL     1       7.464  44.113  -9.675  1.00  0.00     0.210 HD
ENDBRANCH  10  15
BRANCH   9  17
HETATM   17  O3  UNL     1      10.910  47.255 -10.150  1.00  0.00    -0.371 OA
ATOM     18  H3  UNL     1      11.181  47.792  -9.415  1.00  0.00     0.212 HD
ENDBRANCH   9  17
BRANCH   7  19
HETATM   19  O7  UNL     1      12.089  44.084  -6.923  1.00  0.00    -0.384 OA
ATOM     20  H7  UNL     1      12.865  44.570  -7.178  1.00  0.00     0.211 HD
ENDBRANCH   7  19
ENDBRANCH   2   3
ENDBRANCH   1   2
BRANCH   1  21
HETATM   21  O4  UNL     1      11.780  40.506  -5.979  1.00  0.00    -0.365 OA
ATOM     22  H4  UNL     1      12.016  39.885  -5.301  1.00  0.00     0.217 HD
ENDBRANCH   1  21
BRANCH   1  23
HETATM   23  C13 UNL     1      11.616  38.551  -7.372  1.00  0.00     0.038 C 
HETATM   24  C14 UNL     1      11.463  37.986  -5.985  1.00  0.00     0.017 C 
BRANCH  23  25
HETATM   25  C15 UNL     1      13.022  38.365  -7.936  1.00  0.00     0.011 C 
BRANCH  25  26
HETATM   26  C16 UNL     1      13.008  37.668  -9.233  1.00  0.00     0.009 C 
BRANCH  26  27
HETATM   27  C17 UNL     1      14.264  37.862 -10.099  1.00  0.00     0.022 C 
BRANCH  27  28
HETATM   28  C18 UNL     1      14.353  39.377 -10.225  1.00  0.00     0.145 C 
BRANCH  28  29
HETATM   29  O5  UNL     1      15.735  39.655 -10.014  1.00  0.00    -0.391 OA
ATOM     30  H5  UNL     1      15.938  39.193  -9.210  1.00  0.00     0.210 HD
ENDBRANCH  28  29
BRANCH  28  31
HETATM   31  C19 UNL     1      13.904  39.924 -11.505  1.00  0.00     0.001 C 
HETATM   32  C20 UNL     1      14.664  40.568 -12.364  1.00  0.00    -0.028 C 
BRANCH  32  33
HETATM   33  C21 UNL     1      14.138  41.093 -13.638  1.00  0.00     0.027 C 
BRANCH  33  34
HETATM   34  C22 UNL     1      13.711  39.947 -14.531  1.00  0.00     0.003 C 
BRANCH  34  35
HETATM   35  C23 UNL     1      14.909  39.061 -14.862  1.00  0.00    -0.004 C 
HETATM   36  C24 UNL     1      14.359  37.692 -15.189  1.00  0.00     0.005 C 
ENDBRANCH  34  35
ENDBRANCH  33  34
ENDBRANCH  32  33
ENDBRANCH  28  31
ENDBRANCH  27  28
BRANCH  27  37
HETATM   37  C25 UNL     1      14.110  37.130 -11.369  1.00  0.00    -0.010 C 
HETATM   38  C26 UNL     1      15.372  36.493 -11.881  1.00  0.00     0.010 C 
BRANCH  37  39
HETATM   39  C27 UNL     1      12.998  36.135 -11.468  1.00  0.00     0.031 C 
BRANCH  39  40
HETATM   40  C28 UNL     1      13.116  35.180 -12.621  1.00  0.00     0.164 C 
BRANCH  40  41
HETATM   41  O6  UNL     1      12.928  33.855 -12.222  1.00  0.00    -0.401 OA
ATOM     42  H6  UNL     1      12.160  33.757 -11.671  1.00  0.00     0.209 HD
ENDBRANCH  40  41
ENDBRANCH  39  40
ENDBRANCH  37  39
ENDBRANCH  27  37
ENDBRANCH  26  27
ENDBRANCH  25  26
ENDBRANCH  23  25
ENDBRANCH   1  23
TORSDOF 20
ENDMDL
