MODEL 1
REMARK VINA RESULT: -8.301141795      0.000      0.000
REMARK  18 active torsions:
REMARK  status: ('A' for Active; 'I' for Inactive)
REMARK    1  A    between atoms: C2_2  and  C3_3 
REMARK    2  A    between atoms: C3_3  and  C4_4 
REMARK    3  A    between atoms: C4_4  and  C6_6 
REMARK    4  A    between atoms: C6_6  and  C7_7 
REMARK    5  A    between atoms: C7_7  and  C8_8 
REMARK    6  A    between atoms: C8_8  and  C9_9 
REMARK    7  A    between atoms: C9_9  and  C12_12 
REMARK    8  A    between atoms: C13_13  and  C14_14 
REMARK    9  A    between atoms: C14_14  and  C15_15 
REMARK   10  A    between atoms: C15_15  and  O1_16 
REMARK   11  A    between atoms: C15_15  and  C16_18 
REMARK   12  A    between atoms: C16_18  and  C18_20 
REMARK   13  A    between atoms: C18_20  and  C19_21 
REMARK   14  A    between atoms: C19_21  and  C20_22 
REMARK   15  A    between atoms: C21_23  and  O2_24 
REMARK   16  A    between atoms: C22_26  and  O3_27 
REMARK   17  A    between atoms: C23_29  and  O4_30 
REMARK   18  A    between atoms: C24_32  and  O5_33 
ROOT
HETATM    1  C20 UNL     1      13.758  37.571 -11.025  1.00  0.00     0.049 C 
HETATM    2  C21 UNL     1      13.768  36.080 -11.061  1.00  0.00     0.156 C 
HETATM    3  C22 UNL     1      13.323  35.530 -12.406  1.00  0.00     0.178 C 
HETATM    4  C23 UNL     1      14.282  35.903 -13.484  1.00  0.00     0.180 C 
HETATM    5  C24 UNL     1      13.933  37.301 -13.936  1.00  0.00     0.179 C 
HETATM    6  C25 UNL     1      14.696  38.359 -13.241  1.00  0.00     0.087 C 
HETATM    7  C26 UNL     1      16.038  38.659 -13.899  1.00  0.00     0.044 C 
HETATM    8  N1  UNL     1      13.943  39.594 -13.266  1.00  0.00    -0.323 N 
ATOM      9  H1  UNL     1      13.315  39.914 -14.004  1.00  0.00     0.165 HD
HETATM   10  C27 UNL     1      14.250  40.262 -12.073  1.00  0.00     0.361 C 
HETATM   11  O6  UNL     1      13.791  41.393 -11.761  1.00  0.00    -0.238 OA
HETATM   12  O7  UNL     1      15.133  39.456 -11.325  1.00  0.00    -0.295 OA
HETATM   13  C28 UNL     1      14.952  38.102 -11.787  1.00  0.00     0.170 C 
ENDROOT
BRANCH   1  14
HETATM   14  C19 UNL     1      13.957  38.039  -9.588  1.00  0.00     0.010 C 
BRANCH  14  15
HETATM   15  C18 UNL     1      12.770  37.941  -8.724  1.00  0.00     0.007 C 
BRANCH  15  16
HETATM   16  C16 UNL     1      12.605  38.914  -7.618  1.00  0.00     0.011 C 
HETATM   17  C17 UNL     1      12.689  40.373  -8.049  1.00  0.00     0.012 C 
BRANCH  16  18
HETATM   18  C15 UNL     1      11.350  38.782  -6.781  1.00  0.00     0.125 C 
BRANCH  18  19
HETATM   19  C14 UNL     1      11.542  38.049  -5.495  1.00  0.00     0.059 C 
BRANCH  19  20
HETATM   20  C13 UNL     1      10.533  38.160  -4.452  1.00  0.00    -0.027 C 
HETATM   21  C12 UNL     1      10.718  38.349  -3.188  1.00  0.00    -0.022 C 
BRANCH  21  22
HETATM   22  C9  UNL     1       9.617  38.441  -2.215  1.00  0.00    -0.030 C 
HETATM   23  C10 UNL     1       9.100  36.989  -1.986  1.00  0.00     0.019 C 
HETATM   24  C11 UNL     1      10.150  38.842  -0.855  1.00  0.00     0.019 C 
BRANCH  22  25
HETATM   25  C8  UNL     1       8.446  39.194  -2.692  1.00  0.00     0.013 C 
BRANCH  25  26
HETATM   26  C7  UNL     1       8.448  40.657  -2.744  1.00  0.00     0.001 C 
BRANCH  26  27
HETATM   27  C6  UNL     1       7.384  41.230  -3.612  1.00  0.00     0.004 C 
BRANCH  27  28
HETATM   28  C4  UNL     1       6.952  42.614  -3.126  1.00  0.00    -0.019 C 
HETATM   29  C5  UNL     1       5.436  42.641  -3.153  1.00  0.00     0.010 C 
BRANCH  28  30
HETATM   30  C3  UNL     1       7.459  42.797  -1.728  1.00  0.00     0.004 C 
BRANCH  30  31
HETATM   31  C2  UNL     1       7.488  44.231  -1.290  1.00  0.00    -0.004 C 
HETATM   32  C1  UNL     1       6.614  44.401  -0.043  1.00  0.00     0.005 C 
ENDBRANCH  30  31
ENDBRANCH  28  30
ENDBRANCH  27  28
ENDBRANCH  26  27
ENDBRANCH  25  26
ENDBRANCH  22  25
ENDBRANCH  21  22
ENDBRANCH  19  20
ENDBRANCH  18  19
BRANCH  18  33
HETATM   33  O1  UNL     1      10.424  37.996  -7.527  1.00  0.00    -0.395 OA
ATOM     34  H1  UNL     1       9.570  38.206  -7.167  1.00  0.00     0.210 HD
ENDBRANCH  18  33
ENDBRANCH  16  18
ENDBRANCH  15  16
ENDBRANCH  14  15
ENDBRANCH   1  14
BRANCH   2  35
HETATM   35  O2  UNL     1      15.075  35.633 -10.860  1.00  0.00    -0.392 OA
ATOM     36  H2  UNL     1      15.250  34.917 -11.459  1.00  0.00     0.210 HD
ENDBRANCH   2  35
BRANCH   3  37
HETATM   37  O3  UNL     1      13.267  34.145 -12.277  1.00  0.00    -0.390 OA
ATOM     38  H3  UNL     1      12.850  33.812 -13.063  1.00  0.00     0.210 HD
ENDBRANCH   3  37
BRANCH   4  39
HETATM   39  O4  UNL     1      15.607  35.733 -13.176  1.00  0.00    -0.390 OA
ATOM     40  H4  UNL     1      16.196  36.383 -13.540  1.00  0.00     0.210 HD
ENDBRANCH   4  39
BRANCH   5  41
HETATM   41  O5  UNL     1      14.149  37.394 -15.301  1.00  0.00    -0.390 OA
ATOM     42  H5  UNL     1      13.382  37.061 -15.753  1.00  0.00     0.210 HD
ENDBRANCH   5  41
TORSDOF 18
ENDMDL
MODEL 2
REMARK VINA RESULT: -7.904227692      4.044      7.513
REMARK  18 active torsions:
REMARK  status: ('A' for Active; 'I' for Inactive)
REMARK    1  A    between atoms: C2_2  and  C3_3 
REMARK    2  A    between atoms: C3_3  and  C4_4 
REMARK    3  A    between atoms: C4_4  and  C6_6 
REMARK    4  A    between atoms: C6_6  and  C7_7 
REMARK    5  A    between atoms: C7_7  and  C8_8 
REMARK    6  A    between atoms: C8_8  and  C9_9 
REMARK    7  A    between atoms: C9_9  and  C12_12 
REMARK    8  A    between atoms: C13_13  and  C14_14 
REMARK    9  A    between atoms: C14_14  and  C15_15 
REMARK   10  A    between atoms: C15_15  and  O1_16 
REMARK   11  A    between atoms: C15_15  and  C16_18 
REMARK   12  A    between atoms: C16_18  and  C18_20 
REMARK   13  A    between atoms: C18_20  and  C19_21 
REMARK   14  A    between atoms: C19_21  and  C20_22 
REMARK   15  A    between atoms: C21_23  and  O2_24 
REMARK   16  A    between atoms: C22_26  and  O3_27 
REMARK   17  A    between atoms: C23_29  and  O4_30 
REMARK   18  A    between atoms: C24_32  and  O5_33 
ROOT
HETATM    1  C20 UNL     1      13.723  37.705 -11.215  1.00  0.00     0.049 C 
HETATM    2  C21 UNL     1      13.689  36.216 -11.136  1.00  0.00     0.156 C 
HETATM    3  C22 UNL     1      13.254  35.577 -12.444  1.00  0.00     0.178 C 
HETATM    4  C23 UNL     1      14.245  35.838 -13.526  1.00  0.00     0.180 C 
HETATM    5  C24 UNL     1      13.947  37.206 -14.093  1.00  0.00     0.179 C 
HETATM    6  C25 UNL     1      14.728  38.293 -13.464  1.00  0.00     0.087 C 
HETATM    7  C26 UNL     1      16.091  38.503 -14.113  1.00  0.00     0.044 C 
HETATM    8  N1  UNL     1      14.013  39.542 -13.600  1.00  0.00    -0.323 N 
ATOM      9  H1  UNL     1      13.409  39.822 -14.374  1.00  0.00     0.165 HD
HETATM   10  C27 UNL     1      14.316  40.292 -12.456  1.00  0.00     0.361 C 
HETATM   11  O6  UNL     1      13.885  41.457 -12.241  1.00  0.00    -0.238 OA
HETATM   12  O7  UNL     1      15.160  39.521 -11.629  1.00  0.00    -0.295 OA
HETATM   13  C28 UNL     1      14.947  38.142 -11.990  1.00  0.00     0.170 C 
ENDROOT
BRANCH   1  14
HETATM   14  C19 UNL     1      13.908  38.277  -9.814  1.00  0.00     0.010 C 
BRANCH  14  15
HETATM   15  C18 UNL     1      12.968  37.774  -8.800  1.00  0.00     0.007 C 
BRANCH  15  16
HETATM   16  C16 UNL     1      12.104  38.739  -8.080  1.00  0.00     0.011 C 
HETATM   17  C17 UNL     1      12.126  38.590  -6.563  1.00  0.00     0.012 C 
BRANCH  16  18
HETATM   18  C15 UNL     1      12.338  40.206  -8.372  1.00  0.00     0.125 C 
BRANCH  18  19
HETATM   19  C14 UNL     1      12.766  41.009  -7.189  1.00  0.00     0.059 C 
BRANCH  19  20
HETATM   20  C13 UNL     1      13.581  42.198  -7.389  1.00  0.00    -0.027 C 
HETATM   21  C12 UNL     1      14.269  42.520  -8.434  1.00  0.00    -0.022 C 
BRANCH  21  22
HETATM   22  C9  UNL     1      15.067  43.754  -8.527  1.00  0.00    -0.030 C 
HETATM   23  C10 UNL     1      14.916  44.276  -9.987  1.00  0.00     0.019 C 
HETATM   24  C11 UNL     1      14.436  44.852  -7.695  1.00  0.00     0.019 C 
BRANCH  22  25
HETATM   25  C8  UNL     1      16.513  43.558  -8.337  1.00  0.00     0.013 C 
BRANCH  25  26
HETATM   26  C7  UNL     1      17.402  44.679  -8.030  1.00  0.00     0.001 C 
BRANCH  26  27
HETATM   27  C6  UNL     1      18.706  44.628  -8.746  1.00  0.00     0.004 C 
BRANCH  27  28
HETATM   28  C4  UNL     1      18.575  43.918 -10.094  1.00  0.00    -0.019 C 
HETATM   29  C5  UNL     1      18.530  44.996 -11.161  1.00  0.00     0.010 C 
BRANCH  28  30
HETATM   30  C3  UNL     1      19.777  43.043 -10.278  1.00  0.00     0.004 C 
BRANCH  30  31
HETATM   31  C2  UNL     1      19.468  41.748 -10.969  1.00  0.00    -0.004 C 
HETATM   32  C1  UNL     1      17.984  41.413 -10.784  1.00  0.00     0.005 C 
ENDBRANCH  30  31
ENDBRANCH  28  30
ENDBRANCH  27  28
ENDBRANCH  26  27
ENDBRANCH  25  26
ENDBRANCH  22  25
ENDBRANCH  21  22
ENDBRANCH  19  20
ENDBRANCH  18  19
BRANCH  18  33
HETATM   33  O1  UNL     1      11.090  40.763  -8.773  1.00  0.00    -0.395 OA
ATOM     34  H1  UNL     1      10.703  40.120  -9.355  1.00  0.00     0.210 HD
ENDBRANCH  18  33
ENDBRANCH  16  18
ENDBRANCH  15  16
ENDBRANCH  14  15
ENDBRANCH   1  14
BRANCH   2  35
HETATM   35  O2  UNL     1      14.977  35.749 -10.873  1.00  0.00    -0.392 OA
ATOM     36  H2  UNL     1      14.934  35.111 -10.171  1.00  0.00     0.210 HD
ENDBRANCH   2  35
BRANCH   3  37
HETATM   37  O3  UNL     1      13.154  34.208 -12.211  1.00  0.00    -0.390 OA
ATOM     38  H3  UNL     1      12.282  33.946 -12.480  1.00  0.00     0.210 HD
ENDBRANCH   3  37
BRANCH   4  39
HETATM   39  O4  UNL     1      15.558  35.654 -13.178  1.00  0.00    -0.390 OA
ATOM     40  H4  UNL     1      15.923  36.319 -12.605  1.00  0.00     0.210 HD
ENDBRANCH   4  39
BRANCH   5  41
HETATM   41  O5  UNL     1      14.192  37.187 -15.455  1.00  0.00    -0.390 OA
ATOM     42  H5  UNL     1      14.314  38.080 -15.756  1.00  0.00     0.210 HD
ENDBRANCH   5  41
TORSDOF 18
ENDMDL
MODEL 3
REMARK VINA RESULT: -7.902677443      4.123      7.809
REMARK  18 active torsions:
REMARK  status: ('A' for Active; 'I' for Inactive)
REMARK    1  A    between atoms: C2_2  and  C3_3 
REMARK    2  A    between atoms: C3_3  and  C4_4 
REMARK    3  A    between atoms: C4_4  and  C6_6 
REMARK    4  A    between atoms: C6_6  and  C7_7 
REMARK    5  A    between atoms: C7_7  and  C8_8 
REMARK    6  A    between atoms: C8_8  and  C9_9 
REMARK    7  A    between atoms: C9_9  and  C12_12 
REMARK    8  A    between atoms: C13_13  and  C14_14 
REMARK    9  A    between atoms: C14_14  and  C15_15 
REMARK   10  A    between atoms: C15_15  and  O1_16 
REMARK   11  A    between atoms: C15_15  and  C16_18 
REMARK   12  A    between atoms: C16_18  and  C18_20 
REMARK   13  A    between atoms: C18_20  and  C19_21 
REMARK   14  A    between atoms: C19_21  and  C20_22 
REMARK   15  A    between atoms: C21_23  and  O2_24 
REMARK   16  A    between atoms: C22_26  and  O3_27 
REMARK   17  A    between atoms: C23_29  and  O4_30 
REMARK   18  A    between atoms: C24_32  and  O5_33 
ROOT
HETATM    1  C20 UNL     1      13.823  37.740 -11.239  1.00  0.00     0.049 C 
HETATM    2  C21 UNL     1      13.823  36.251 -11.148  1.00  0.00     0.156 C 
HETATM    3  C22 UNL     1      13.342  35.593 -12.430  1.00  0.00     0.178 C 
HETATM    4  C23 UNL     1      14.276  35.865 -13.558  1.00  0.00     0.180 C 
HETATM    5  C24 UNL     1      13.924  37.223 -14.120  1.00  0.00     0.179 C 
HETATM    6  C25 UNL     1      14.710  38.330 -13.536  1.00  0.00     0.087 C 
HETATM    7  C26 UNL     1      16.037  38.563 -14.249  1.00  0.00     0.044 C 
HETATM    8  N1  UNL     1      13.963  39.564 -13.648  1.00  0.00    -0.323 N 
ATOM      9  H1  UNL     1      13.319  39.825 -14.395  1.00  0.00     0.165 HD
HETATM   10  C27 UNL     1      14.303  40.329 -12.524  1.00  0.00     0.361 C 
HETATM   11  O6  UNL     1      13.858  41.486 -12.299  1.00  0.00    -0.238 OA
HETATM   12  O7  UNL     1      15.200  39.582 -11.732  1.00  0.00    -0.295 OA
HETATM   13  C28 UNL     1      15.000  38.196 -12.072  1.00  0.00     0.170 C 
ENDROOT
BRANCH   1  14
HETATM   14  C19 UNL     1      14.059  38.327  -9.852  1.00  0.00     0.010 C 
BRANCH  14  15
HETATM   15  C18 UNL     1      13.091  37.919  -8.822  1.00  0.00     0.007 C 
BRANCH  15  16
HETATM   16  C16 UNL     1      12.172  38.936  -8.257  1.00  0.00     0.011 C 
HETATM   17  C17 UNL     1      12.144  38.979  -6.734  1.00  0.00     0.012 C 
BRANCH  16  18
HETATM   18  C15 UNL     1      12.370  40.362  -8.726  1.00  0.00     0.125 C 
BRANCH  18  19
HETATM   19  C14 UNL     1      12.988  41.263  -7.709  1.00  0.00     0.059 C 
BRANCH  19  20
HETATM   20  C13 UNL     1      14.059  42.163  -8.109  1.00  0.00    -0.027 C 
HETATM   21  C12 UNL     1      14.874  42.033  -9.102  1.00  0.00    -0.022 C 
BRANCH  21  22
HETATM   22  C9  UNL     1      15.931  43.008  -9.414  1.00  0.00    -0.030 C 
HETATM   23  C10 UNL     1      17.065  42.224 -10.141  1.00  0.00     0.019 C 
HETATM   24  C11 UNL     1      15.451  43.986 -10.467  1.00  0.00     0.019 C 
BRANCH  22  25
HETATM   25  C8  UNL     1      16.575  43.605  -8.233  1.00  0.00     0.013 C 
BRANCH  25  26
HETATM   26  C7  UNL     1      17.030  44.996  -8.232  1.00  0.00     0.001 C 
BRANCH  26  27
HETATM   27  C6  UNL     1      18.485  45.154  -7.961  1.00  0.00     0.004 C 
BRANCH  27  28
HETATM   28  C4  UNL     1      19.322  44.823  -9.197  1.00  0.00    -0.019 C 
HETATM   29  C5  UNL     1      18.893  45.780 -10.293  1.00  0.00     0.010 C 
BRANCH  28  30
HETATM   30  C3  UNL     1      20.766  45.029  -8.852  1.00  0.00     0.004 C 
BRANCH  30  31
HETATM   31  C2  UNL     1      21.533  43.747  -8.717  1.00  0.00    -0.004 C 
HETATM   32  C1  UNL     1      21.151  42.803  -9.862  1.00  0.00     0.005 C 
ENDBRANCH  30  31
ENDBRANCH  28  30
ENDBRANCH  27  28
ENDBRANCH  26  27
ENDBRANCH  25  26
ENDBRANCH  22  25
ENDBRANCH  21  22
ENDBRANCH  19  20
ENDBRANCH  18  19
BRANCH  18  33
HETATM   33  O1  UNL     1      11.079  40.909  -8.978  1.00  0.00    -0.395 OA
ATOM     34  H1  UNL     1      10.492  40.444  -8.395  1.00  0.00     0.210 HD
ENDBRANCH  18  33
ENDBRANCH  16  18
ENDBRANCH  15  16
ENDBRANCH  14  15
ENDBRANCH   1  14
BRANCH   2  35
HETATM   35  O2  UNL     1      15.132  35.813 -10.941  1.00  0.00    -0.392 OA
ATOM     36  H2  UNL     1      15.434  36.138 -10.101  1.00  0.00     0.210 HD
ENDBRANCH   2  35
BRANCH   3  37
HETATM   37  O3  UNL     1      13.282  34.224 -12.182  1.00  0.00    -0.390 OA
ATOM     38  H3  UNL     1      12.995  33.811 -12.988  1.00  0.00     0.210 HD
ENDBRANCH   3  37
BRANCH   4  39
HETATM   39  O4  UNL     1      15.607  35.712 -13.269  1.00  0.00    -0.390 OA
ATOM     40  H4  UNL     1      16.004  34.911 -13.591  1.00  0.00     0.210 HD
ENDBRANCH   4  39
BRANCH   5  41
HETATM   41  O5  UNL     1      14.106  37.197 -15.492  1.00  0.00    -0.390 OA
ATOM     42  H5  UNL     1      14.965  37.552 -15.692  1.00  0.00     0.210 HD
ENDBRANCH   5  41
TORSDOF 18
ENDMDL
MODEL 4
REMARK VINA RESULT: -7.896719398      4.110      8.277
REMARK  18 active torsions:
REMARK  status: ('A' for Active; 'I' for Inactive)
REMARK    1  A    between atoms: C2_2  and  C3_3 
REMARK    2  A    between atoms: C3_3  and  C4_4 
REMARK    3  A    between atoms: C4_4  and  C6_6 
REMARK    4  A    between atoms: C6_6  and  C7_7 
REMARK    5  A    between atoms: C7_7  and  C8_8 
REMARK    6  A    between atoms: C8_8  and  C9_9 
REMARK    7  A    between atoms: C9_9  and  C12_12 
REMARK    8  A    between atoms: C13_13  and  C14_14 
REMARK    9  A    between atoms: C14_14  and  C15_15 
REMARK   10  A    between atoms: C15_15  and  O1_16 
REMARK   11  A    between atoms: C15_15  and  C16_18 
REMARK   12  A    between atoms: C16_18  and  C18_20 
REMARK   13  A    between atoms: C18_20  and  C19_21 
REMARK   14  A    between atoms: C19_21  and  C20_22 
REMARK   15  A    between atoms: C21_23  and  O2_24 
REMARK   16  A    between atoms: C22_26  and  O3_27 
REMARK   17  A    between atoms: C23_29  and  O4_30 
REMARK   18  A    between atoms: C24_32  and  O5_33 
ROOT
HETATM    1  C20 UNL     1      13.786  37.689 -11.157  1.00  0.00     0.049 C 
HETATM    2  C21 UNL     1      13.742  36.199 -11.097  1.00  0.00     0.156 C 
HETATM    3  C22 UNL     1      13.266  35.581 -12.400  1.00  0.00     0.178 C 
HETATM    4  C23 UNL     1      14.227  35.849 -13.507  1.00  0.00     0.180 C 
HETATM    5  C24 UNL     1      13.923  37.227 -14.046  1.00  0.00     0.179 C 
HETATM    6  C25 UNL     1      14.730  38.300 -13.426  1.00  0.00     0.087 C 
HETATM    7  C26 UNL     1      16.075  38.509 -14.112  1.00  0.00     0.044 C 
HETATM    8  N1  UNL     1      14.021  39.556 -13.525  1.00  0.00    -0.323 N 
ATOM      9  H1  UNL     1      13.397  39.851 -14.277  1.00  0.00     0.165 HD
HETATM   10  C27 UNL     1      14.362  40.288 -12.379  1.00  0.00     0.361 C 
HETATM   11  O6  UNL     1      13.946  41.452 -12.137  1.00  0.00    -0.238 OA
HETATM   12  O7  UNL     1      15.224  39.500 -11.588  1.00  0.00    -0.295 OA
HETATM   13  C28 UNL     1      14.990  38.127 -11.961  1.00  0.00     0.170 C 
ENDROOT
BRANCH   1  14
HETATM   14  C19 UNL     1      14.015  38.240  -9.754  1.00  0.00     0.010 C 
BRANCH  14  15
HETATM   15  C18 UNL     1      12.953  37.943  -8.779  1.00  0.00     0.007 C 
BRANCH  15  16
HETATM   16  C16 UNL     1      12.095  39.049  -8.293  1.00  0.00     0.011 C 
HETATM   17  C17 UNL     1      12.149  39.268  -6.786  1.00  0.00     0.012 C 
BRANCH  16  18
HETATM   18  C15 UNL     1      12.309  40.404  -8.935  1.00  0.00     0.125 C 
BRANCH  18  19
HETATM   19  C14 UNL     1      13.222  41.307  -8.174  1.00  0.00     0.059 C 
BRANCH  19  20
HETATM   20  C13 UNL     1      14.430  41.804  -8.813  1.00  0.00    -0.027 C 
HETATM   21  C12 UNL     1      15.124  42.846  -8.495  1.00  0.00    -0.022 C 
BRANCH  21  22
HETATM   22  C9  UNL     1      16.336  43.262  -9.219  1.00  0.00    -0.030 C 
HETATM   23  C10 UNL     1      15.875  44.250 -10.333  1.00  0.00     0.019 C 
HETATM   24  C11 UNL     1      17.211  44.121  -8.329  1.00  0.00     0.019 C 
BRANCH  22  25
HETATM   25  C8  UNL     1      17.022  42.173  -9.933  1.00  0.00     0.013 C 
BRANCH  25  26
HETATM   26  C7  UNL     1      17.942  42.445 -11.038  1.00  0.00     0.001 C 
BRANCH  26  27
HETATM   27  C6  UNL     1      19.338  41.994 -10.785  1.00  0.00     0.004 C 
BRANCH  27  28
HETATM   28  C4  UNL     1      20.327  43.156 -10.883  1.00  0.00    -0.019 C 
HETATM   29  C5  UNL     1      19.587  44.315 -11.524  1.00  0.00     0.010 C 
BRANCH  28  30
HETATM   30  C3  UNL     1      20.767  43.513  -9.496  1.00  0.00     0.004 C 
BRANCH  30  31
HETATM   31  C2  UNL     1      21.948  42.717  -9.025  1.00  0.00    -0.004 C 
HETATM   32  C1  UNL     1      22.955  42.573 -10.170  1.00  0.00     0.005 C 
ENDBRANCH  30  31
ENDBRANCH  28  30
ENDBRANCH  27  28
ENDBRANCH  26  27
ENDBRANCH  25  26
ENDBRANCH  22  25
ENDBRANCH  21  22
ENDBRANCH  19  20
ENDBRANCH  18  19
BRANCH  18  33
HETATM   33  O1  UNL     1      11.049  41.069  -8.950  1.00  0.00    -0.395 OA
ATOM     34  H1  UNL     1      10.400  40.376  -8.969  1.00  0.00     0.210 HD
ENDBRANCH  18  33
ENDBRANCH  16  18
ENDBRANCH  15  16
ENDBRANCH  14  15
ENDBRANCH   1  14
BRANCH   2  35
HETATM   35  O2  UNL     1      15.034  35.719 -10.877  1.00  0.00    -0.392 OA
ATOM     36  H2  UNL     1      15.657  36.338 -11.240  1.00  0.00     0.210 HD
ENDBRANCH   2  35
BRANCH   3  37
HETATM   37  O3  UNL     1      13.162  34.210 -12.182  1.00  0.00    -0.390 OA
ATOM     38  H3  UNL     1      13.839  33.796 -12.704  1.00  0.00     0.210 HD
ENDBRANCH   3  37
BRANCH   4  39
HETATM   39  O4  UNL     1      15.547  35.652 -13.199  1.00  0.00    -0.390 OA
ATOM     40  H4  UNL     1      15.719  35.357 -12.312  1.00  0.00     0.210 HD
ENDBRANCH   4  39
BRANCH   5  41
HETATM   41  O5  UNL     1      14.128  37.224 -15.415  1.00  0.00    -0.390 OA
ATOM     42  H5  UNL     1      13.641  37.945 -15.798  1.00  0.00     0.210 HD
ENDBRANCH   5  41
TORSDOF 18
ENDMDL
MODEL 5
REMARK VINA RESULT: -7.846031288      3.950      5.857
REMARK  18 active torsions:
REMARK  status: ('A' for Active; 'I' for Inactive)
REMARK    1  A    between atoms: C2_2  and  C3_3 
REMARK    2  A    between atoms: C3_3  and  C4_4 
REMARK    3  A    between atoms: C4_4  and  C6_6 
REMARK    4  A    between atoms: C6_6  and  C7_7 
REMARK    5  A    between atoms: C7_7  and  C8_8 
REMARK    6  A    between atoms: C8_8  and  C9_9 
REMARK    7  A    between atoms: C9_9  and  C12_12 
REMARK    8  A    between atoms: C13_13  and  C14_14 
REMARK    9  A    between atoms: C14_14  and  C15_15 
REMARK   10  A    between atoms: C15_15  and  O1_16 
REMARK   11  A    between atoms: C15_15  and  C16_18 
REMARK   12  A    between atoms: C16_18  and  C18_20 
REMARK   13  A    between atoms: C18_20  and  C19_21 
REMARK   14  A    between atoms: C19_21  and  C20_22 
REMARK   15  A    between atoms: C21_23  and  O2_24 
REMARK   16  A    between atoms: C22_26  and  O3_27 
REMARK   17  A    between atoms: C23_29  and  O4_30 
REMARK   18  A    between atoms: C24_32  and  O5_33 
ROOT
HETATM    1  C20 UNL     1      13.868  37.783 -11.272  1.00  0.00     0.049 C 
HETATM    2  C21 UNL     1      13.810  36.296 -11.155  1.00  0.00     0.156 C 
HETATM    3  C22 UNL     1      13.300  35.635 -12.424  1.00  0.00     0.178 C 
HETATM    4  C23 UNL     1      14.242  35.850 -13.559  1.00  0.00     0.180 C 
HETATM    5  C24 UNL     1      13.943  37.211 -14.144  1.00  0.00     0.179 C 
HETATM    6  C25 UNL     1      14.773  38.296 -13.580  1.00  0.00     0.087 C 
HETATM    7  C26 UNL     1      16.106  38.463 -14.300  1.00  0.00     0.044 C 
HETATM    8  N1  UNL     1      14.076  39.556 -13.713  1.00  0.00    -0.323 N 
ATOM      9  H1  UNL     1      13.441  39.829 -14.464  1.00  0.00     0.165 HD
HETATM   10  C27 UNL     1      14.448  40.327 -12.603  1.00  0.00     0.361 C 
HETATM   11  O6  UNL     1      14.050  41.504 -12.398  1.00  0.00    -0.238 OA
HETATM   12  O7  UNL     1      15.317  39.559 -11.800  1.00  0.00    -0.295 OA
HETATM   13  C28 UNL     1      15.061  38.176 -12.115  1.00  0.00     0.170 C 
ENDROOT
BRANCH   1  14
HETATM   14  C19 UNL     1      14.131  38.384  -9.896  1.00  0.00     0.010 C 
BRANCH  14  15
HETATM   15  C18 UNL     1      13.413  37.744  -8.782  1.00  0.00     0.007 C 
BRANCH  15  16
HETATM   16  C16 UNL     1      12.286  38.467  -8.146  1.00  0.00     0.011 C 
HETATM   17  C17 UNL     1      12.193  38.277  -6.636  1.00  0.00     0.012 C 
BRANCH  16  18
HETATM   18  C15 UNL     1      12.208  39.957  -8.400  1.00  0.00     0.125 C 
BRANCH  18  19
HETATM   19  C14 UNL     1      12.925  40.792  -7.391  1.00  0.00     0.059 C 
BRANCH  19  20
HETATM   20  C13 UNL     1      13.834  41.834  -7.843  1.00  0.00    -0.027 C 
HETATM   21  C12 UNL     1      14.542  41.855  -8.923  1.00  0.00    -0.022 C 
BRANCH  21  22
HETATM   22  C9  UNL     1      15.438  42.966  -9.280  1.00  0.00    -0.030 C 
HETATM   23  C10 UNL     1      15.918  43.603  -7.941  1.00  0.00     0.019 C 
HETATM   24  C11 UNL     1      16.717  42.435  -9.894  1.00  0.00     0.019 C 
BRANCH  22  25
HETATM   25  C8  UNL     1      14.784  44.063 -10.013  1.00  0.00     0.013 C 
BRANCH  25  26
HETATM   26  C7  UNL     1      14.692  45.410  -9.448  1.00  0.00     0.001 C 
BRANCH  26  27
HETATM   27  C6  UNL     1      13.300  45.929  -9.352  1.00  0.00     0.004 C 
BRANCH  27  28
HETATM   28  C4  UNL     1      12.388  44.948  -8.615  1.00  0.00    -0.019 C 
HETATM   29  C5  UNL     1      12.313  45.410  -7.172  1.00  0.00     0.010 C 
BRANCH  28  30
HETATM   30  C3  UNL     1      11.034  44.997  -9.257  1.00  0.00     0.004 C 
BRANCH  30  31
HETATM   31  C2  UNL     1      10.468  43.640  -9.551  1.00  0.00    -0.004 C 
HETATM   32  C1  UNL     1      11.358  42.926 -10.573  1.00  0.00     0.005 C 
ENDBRANCH  30  31
ENDBRANCH  28  30
ENDBRANCH  27  28
ENDBRANCH  26  27
ENDBRANCH  25  26
ENDBRANCH  22  25
ENDBRANCH  21  22
ENDBRANCH  19  20
ENDBRANCH  18  19
BRANCH  18  33
HETATM   33  O1  UNL     1      10.838  40.334  -8.294  1.00  0.00    -0.395 OA
ATOM     34  H1  UNL     1      10.432  40.033  -9.098  1.00  0.00     0.210 HD
ENDBRANCH  18  33
ENDBRANCH  16  18
ENDBRANCH  15  16
ENDBRANCH  14  15
ENDBRANCH   1  14
BRANCH   2  35
HETATM   35  O2  UNL     1      15.100  35.810 -10.942  1.00  0.00    -0.392 OA
ATOM     36  H2  UNL     1      15.438  36.181 -10.135  1.00  0.00     0.210 HD
ENDBRANCH   2  35
BRANCH   3  37
HETATM   37  O3  UNL     1      13.186  34.274 -12.152  1.00  0.00    -0.390 OA
ATOM     38  H3  UNL     1      12.437  34.171 -11.577  1.00  0.00     0.210 HD
ENDBRANCH   3  37
BRANCH   4  39
HETATM   39  O4  UNL     1      15.566  35.649 -13.269  1.00  0.00    -0.390 OA
ATOM     40  H4  UNL     1      16.180  36.089 -13.846  1.00  0.00     0.210 HD
ENDBRANCH   4  39
BRANCH   5  41
HETATM   41  O5  UNL     1      14.121  37.154 -15.515  1.00  0.00    -0.390 OA
ATOM     42  H5  UNL     1      13.292  36.927 -15.921  1.00  0.00     0.210 HD
ENDBRANCH   5  41
TORSDOF 18
ENDMDL
