MODEL 1
REMARK VINA RESULT: -8.447546128      0.000      0.000
REMARK  16 active torsions:
REMARK  status: ('A' for Active; 'I' for Inactive)
REMARK    1  A    between atoms: N2_6  and  O1_7 
REMARK    2  A    between atoms: C7_15  and  N5_16 
REMARK    3  A    between atoms: C10_26  and  N8_27 
REMARK    4  A    between atoms: N8_27  and  C11_28 
REMARK    5  A    between atoms: C11_28  and  C12_29 
REMARK    6  A    between atoms: C12_29  and  C13_30 
REMARK    7  A    between atoms: C13_30  and  C14_31 
REMARK    8  A    between atoms: C14_31  and  C15_32 
REMARK    9  A    between atoms: C15_32  and  C16_33 
REMARK   10  A    between atoms: C16_33  and  C17_34 
REMARK   11  A    between atoms: C17_34  and  C18_35 
REMARK   12  A    between atoms: C18_35  and  C19_36 
REMARK   13  A    between atoms: C19_36  and  C20_37 
REMARK   14  A    between atoms: C20_37  and  N9_38 
REMARK   15  A    between atoms: N9_38  and  C21_41 
REMARK   16  A    between atoms: C21_41  and  C22_42 
ROOT
HETATM    1  N1  UNL     1      12.404  42.632 -11.144  1.00  0.00    -0.191 NA
HETATM    2  C1  UNL     1      12.802  41.663 -10.690  1.00  0.00     0.100 C 
HETATM    3  C2  UNL     1      13.293  40.428 -10.225  1.00  0.00     0.063 A 
HETATM    4  C3  UNL     1      14.064  39.644 -11.127  1.00  0.00     0.043 A 
HETATM    5  C4  UNL     1      14.434  38.360 -10.839  1.00  0.00     0.126 A 
HETATM    6  N2  UNL     1      14.062  37.817  -9.674  1.00  0.00    -0.218 N 
HETATM    7  C5  UNL     1      13.325  38.545  -8.784  1.00  0.00     0.149 A 
HETATM    8  N3  UNL     1      12.959  37.901  -7.680  1.00  0.00    -0.325 N 
ATOM      9  H3  UNL     1      13.272  36.940  -7.539  1.00  0.00     0.169 HD
HETATM   10  C6  UNL     1      12.193  38.475  -6.750  1.00  0.00     0.140 A 
HETATM   11  N4  UNL     1      11.793  37.764  -5.681  1.00  0.00    -0.176 N 
ATOM     12  H4  UNL     1      12.113  36.804  -5.552  1.00  0.00     0.186 HD
HETATM   13  C7  UNL     1      10.973  38.328  -4.792  1.00  0.00     0.679 A 
HETATM   14  N6  UNL     1      10.531  39.573  -4.923  1.00  0.00    -0.176 N 
ATOM     15  H6  UNL     1       9.904  39.970  -4.223  1.00  0.00     0.186 HD
HETATM   16  C8  UNL     1      10.922  40.326  -6.002  1.00  0.00     0.132 A 
HETATM   17  N7  UNL     1      10.371  41.464  -6.143  1.00  0.00    -0.384 N 
ATOM     18  H71 UNL     1      10.662  42.023  -6.944  1.00  0.00     0.157 HD
ATOM     19  H72 UNL     1       9.740  41.859  -5.446  1.00  0.00     0.157 HD
HETATM   20  C9  UNL     1      11.768  39.796  -6.936  1.00  0.00     0.094 A 
HETATM   21  C10 UNL     1      12.146  40.517  -8.089  1.00  0.00     0.133 A 
HETATM   22  C27 UNL     1      12.943  39.850  -9.054  1.00  0.00     0.072 A 
ENDROOT
BRANCH  21  23
HETATM   23  N8  UNL     1      12.085  41.740  -8.105  1.00  0.00    -0.446 NA
BRANCH  23  24
HETATM   24  C11 UNL     1      12.226  43.068  -7.946  1.00  0.00     0.218 C 
BRANCH  24  25
HETATM   25  C12 UNL     1      13.466  43.475  -7.082  1.00  0.00     0.033 C 
BRANCH  25  26
HETATM   26  C13 UNL     1      14.665  42.942  -7.837  1.00  0.00     0.002 C 
BRANCH  26  27
HETATM   27  C14 UNL     1      15.809  43.907  -7.839  1.00  0.00     0.000 C 
BRANCH  27  28
HETATM   28  C15 UNL     1      16.873  43.549  -8.860  1.00  0.00     0.000 C 
BRANCH  28  29
HETATM   29  C16 UNL     1      16.383  42.424  -9.768  1.00  0.00     0.000 C 
BRANCH  29  30
HETATM   30  C17 UNL     1      17.583  41.998 -10.613  1.00  0.00     0.000 C 
BRANCH  30  31
HETATM   31  C18 UNL     1      17.524  40.536 -10.941  1.00  0.00     0.002 C 
BRANCH  31  32
HETATM   32  C19 UNL     1      18.160  40.283 -12.275  1.00  0.00     0.027 C 
BRANCH  32  33
HETATM   33  C20 UNL     1      17.314  39.372 -13.094  1.00  0.00     0.232 C 
BRANCH  33  34
HETATM   34  N9  UNL     1      17.365  38.042 -12.454  1.00  0.00    -0.070 N 
ATOM     35  H92 UNL     1      18.200  37.901 -11.887  1.00  0.00     0.277 HD
ATOM     36  H91 UNL     1      16.680  37.929 -11.705  1.00  0.00     0.277 HD
BRANCH  34  37
HETATM   37  C21 UNL     1      17.218  37.057 -13.522  1.00  0.00     0.289 C 
BRANCH  37  38
HETATM   38  C22 UNL     1      15.844  36.496 -13.400  1.00  0.00     0.034 A 
HETATM   39  C23 UNL     1      14.939  36.891 -14.380  1.00  0.00     0.027 A 
HETATM   40  C24 UNL     1      13.648  36.380 -14.288  1.00  0.00     0.003 A 
HETATM   41  C25 UNL     1      13.323  35.531 -13.267  1.00  0.00     0.017 A 
HETATM   42  C26 UNL     1      14.247  35.175 -12.334  1.00  0.00     0.088 A 
HETATM   43  N10 UNL     1      15.517  35.665 -12.406  1.00  0.00    -0.368 N 
ATOM     44  H10 UNL     1      16.212  35.401 -11.707  1.00  0.00     0.165 HD
ENDBRANCH  37  38
ENDBRANCH  34  37
ENDBRANCH  33  34
ENDBRANCH  32  33
ENDBRANCH  31  32
ENDBRANCH  30  31
ENDBRANCH  29  30
ENDBRANCH  28  29
ENDBRANCH  27  28
ENDBRANCH  26  27
ENDBRANCH  25  26
ENDBRANCH  24  25
ENDBRANCH  23  24
ENDBRANCH  21  23
BRANCH   6  45
HETATM   45  O1  UNL     1      14.440  36.525  -9.404  1.00  0.00    -0.282 OA
ATOM     46  H1  UNL     1      13.763  35.876  -9.258  1.00  0.00     0.245 HD
ENDBRANCH   6  45
BRANCH  13  47
HETATM   47  N5  UNL     1      10.608  37.623  -3.777  1.00  0.00    -0.234 N 
ATOM     48  H52 UNL     1      10.712  36.608  -3.801  1.00  0.00     0.174 HD
ATOM     49  H51 UNL     1      10.221  38.113  -2.970  1.00  0.00     0.174 HD
ENDBRANCH  13  47
TORSDOF 16
ENDMDL
MODEL 2
REMARK VINA RESULT: -8.212337672      2.214      8.424
REMARK  16 active torsions:
REMARK  status: ('A' for Active; 'I' for Inactive)
REMARK    1  A    between atoms: N2_6  and  O1_7 
REMARK    2  A    between atoms: C7_15  and  N5_16 
REMARK    3  A    between atoms: C10_26  and  N8_27 
REMARK    4  A    between atoms: N8_27  and  C11_28 
REMARK    5  A    between atoms: C11_28  and  C12_29 
REMARK    6  A    between atoms: C12_29  and  C13_30 
REMARK    7  A    between atoms: C13_30  and  C14_31 
REMARK    8  A    between atoms: C14_31  and  C15_32 
REMARK    9  A    between atoms: C15_32  and  C16_33 
REMARK   10  A    between atoms: C16_33  and  C17_34 
REMARK   11  A    between atoms: C17_34  and  C18_35 
REMARK   12  A    between atoms: C18_35  and  C19_36 
REMARK   13  A    between atoms: C19_36  and  C20_37 
REMARK   14  A    between atoms: C20_37  and  N9_38 
REMARK   15  A    between atoms: N9_38  and  C21_41 
REMARK   16  A    between atoms: C21_41  and  C22_42 
ROOT
HETATM    1  N1  UNL     1      12.870  37.214  -9.577  1.00  0.00    -0.191 NA
HETATM    2  C1  UNL     1      13.217  37.078 -10.658  1.00  0.00     0.100 C 
HETATM    3  C2  UNL     1      13.617  36.812 -11.980  1.00  0.00     0.063 A 
HETATM    4  C3  UNL     1      12.955  35.759 -12.669  1.00  0.00     0.043 A 
HETATM    5  C4  UNL     1      13.384  35.303 -13.884  1.00  0.00     0.126 A 
HETATM    6  N2  UNL     1      14.462  35.860 -14.448  1.00  0.00    -0.218 N 
HETATM    7  C5  UNL     1      15.119  36.875 -13.814  1.00  0.00     0.149 A 
HETATM    8  N3  UNL     1      16.209  37.326 -14.429  1.00  0.00    -0.325 N 
ATOM      9  H3  UNL     1      16.468  36.931 -15.333  1.00  0.00     0.169 HD
HETATM   10  C6  UNL     1      16.975  38.280 -13.895  1.00  0.00     0.140 A 
HETATM   11  N4  UNL     1      18.103  38.658 -14.521  1.00  0.00    -0.176 N 
ATOM     12  H4  UNL     1      18.351  38.256 -15.425  1.00  0.00     0.186 HD
HETATM   13  C7  UNL     1      18.896  39.565 -13.946  1.00  0.00     0.679 A 
HETATM   14  N6  UNL     1      18.612  40.113 -12.770  1.00  0.00    -0.176 N 
ATOM     15  H6  UNL     1      19.243  40.802 -12.361  1.00  0.00     0.186 HD
HETATM   16  C8  UNL     1      17.467  39.750 -12.107  1.00  0.00     0.132 A 
HETATM   17  N7  UNL     1      17.309  40.210 -10.931  1.00  0.00    -0.384 N 
ATOM     18  H71 UNL     1      16.458  39.939 -10.439  1.00  0.00     0.157 HD
ATOM     19  H72 UNL     1      17.942  40.895 -10.519  1.00  0.00     0.157 HD
HETATM   20  C9  UNL     1      16.618  38.831 -12.659  1.00  0.00     0.094 A 
HETATM   21  C10 UNL     1      15.462  38.388 -11.982  1.00  0.00     0.133 A 
HETATM   22  C27 UNL     1      14.697  37.356 -12.584  1.00  0.00     0.072 A 
ENDROOT
BRANCH  21  23
HETATM   23  N8  UNL     1      14.955  39.074 -11.104  1.00  0.00    -0.446 NA
BRANCH  23  24
HETATM   24  C11 UNL     1      14.395  40.023 -10.332  1.00  0.00     0.218 C 
BRANCH  24  25
HETATM   25  C12 UNL     1      13.789  41.220 -11.139  1.00  0.00     0.033 C 
BRANCH  25  26
HETATM   26  C13 UNL     1      14.056  42.444 -10.289  1.00  0.00     0.002 C 
BRANCH  26  27
HETATM   27  C14 UNL     1      15.025  42.166  -9.184  1.00  0.00     0.000 C 
BRANCH  27  28
HETATM   28  C15 UNL     1      14.641  42.848  -7.884  1.00  0.00     0.000 C 
BRANCH  28  29
HETATM   29  C16 UNL     1      13.144  42.694  -7.625  1.00  0.00     0.000 C 
BRANCH  29  30
HETATM   30  C17 UNL     1      12.971  41.383  -6.857  1.00  0.00     0.000 C 
BRANCH  30  31
HETATM   31  C18 UNL     1      11.935  40.511  -7.500  1.00  0.00     0.002 C 
BRANCH  31  32
HETATM   32  C19 UNL     1      11.273  39.653  -6.464  1.00  0.00     0.027 C 
BRANCH  32  33
HETATM   33  C20 UNL     1      11.833  38.274  -6.490  1.00  0.00     0.232 C 
BRANCH  33  34
HETATM   34  N9  UNL     1      11.487  37.640  -5.203  1.00  0.00    -0.070 N 
ATOM     35  H92 UNL     1      11.392  36.627  -5.266  1.00  0.00     0.277 HD
ATOM     36  H91 UNL     1      12.253  37.655  -4.528  1.00  0.00     0.277 HD
BRANCH  34  37
HETATM   37  C21 UNL     1      10.280  38.304  -4.719  1.00  0.00     0.289 C 
BRANCH  37  38
HETATM   38  C22 UNL     1      10.278  38.158  -3.236  1.00  0.00     0.034 A 
HETATM   39  C23 UNL     1       9.259  37.375  -2.705  1.00  0.00     0.027 A 
HETATM   40  C24 UNL     1       9.236  37.223  -1.322  1.00  0.00     0.003 A 
HETATM   41  C25 UNL     1      10.189  37.833  -0.555  1.00  0.00     0.017 A 
HETATM   42  C26 UNL     1      11.166  38.591  -1.126  1.00  0.00     0.088 A 
HETATM   43  N10 UNL     1      11.206  38.751  -2.479  1.00  0.00    -0.368 N 
ATOM     44  H10 UNL     1      11.936  39.318  -2.909  1.00  0.00     0.165 HD
ENDBRANCH  37  38
ENDBRANCH  34  37
ENDBRANCH  33  34
ENDBRANCH  32  33
ENDBRANCH  31  32
ENDBRANCH  30  31
ENDBRANCH  29  30
ENDBRANCH  28  29
ENDBRANCH  27  28
ENDBRANCH  26  27
ENDBRANCH  25  26
ENDBRANCH  24  25
ENDBRANCH  23  24
ENDBRANCH  21  23
BRANCH   6  45
HETATM   45  O1  UNL     1      14.881  35.386 -15.667  1.00  0.00    -0.282 OA
ATOM     46  H1  UNL     1      15.674  35.747 -16.045  1.00  0.00     0.245 HD
ENDBRANCH   6  45
BRANCH  13  47
HETATM   47  N5  UNL     1      19.970  39.910 -14.570  1.00  0.00    -0.234 N 
ATOM     48  H52 UNL     1      20.817  39.351 -14.465  1.00  0.00     0.174 HD
ATOM     49  H51 UNL     1      19.935  40.744 -15.156  1.00  0.00     0.174 HD
ENDBRANCH  13  47
TORSDOF 16
ENDMDL
MODEL 3
REMARK VINA RESULT: -7.858974796      0.941      1.271
REMARK  16 active torsions:
REMARK  status: ('A' for Active; 'I' for Inactive)
REMARK    1  A    between atoms: N2_6  and  O1_7 
REMARK    2  A    between atoms: C7_15  and  N5_16 
REMARK    3  A    between atoms: C10_26  and  N8_27 
REMARK    4  A    between atoms: N8_27  and  C11_28 
REMARK    5  A    between atoms: C11_28  and  C12_29 
REMARK    6  A    between atoms: C12_29  and  C13_30 
REMARK    7  A    between atoms: C13_30  and  C14_31 
REMARK    8  A    between atoms: C14_31  and  C15_32 
REMARK    9  A    between atoms: C15_32  and  C16_33 
REMARK   10  A    between atoms: C16_33  and  C17_34 
REMARK   11  A    between atoms: C17_34  and  C18_35 
REMARK   12  A    between atoms: C18_35  and  C19_36 
REMARK   13  A    between atoms: C19_36  and  C20_37 
REMARK   14  A    between atoms: C20_37  and  N9_38 
REMARK   15  A    between atoms: N9_38  and  C21_41 
REMARK   16  A    between atoms: C21_41  and  C22_42 
ROOT
HETATM    1  N1  UNL     1      12.684  42.449 -11.515  1.00  0.00    -0.191 NA
HETATM    2  C1  UNL     1      13.046  41.472 -11.046  1.00  0.00     0.100 C 
HETATM    3  C2  UNL     1      13.488  40.227 -10.562  1.00  0.00     0.063 A 
HETATM    4  C3  UNL     1      14.213  39.392 -11.457  1.00  0.00     0.043 A 
HETATM    5  C4  UNL     1      14.531  38.100 -11.148  1.00  0.00     0.126 A 
HETATM    6  N2  UNL     1      14.151  37.596  -9.968  1.00  0.00    -0.218 N 
HETATM    7  C5  UNL     1      13.456  38.372  -9.085  1.00  0.00     0.149 A 
HETATM    8  N3  UNL     1      13.076  37.766  -7.964  1.00  0.00    -0.325 N 
ATOM      9  H3  UNL     1      13.349  36.796  -7.807  1.00  0.00     0.169 HD
HETATM   10  C6  UNL     1      12.347  38.392  -7.037  1.00  0.00     0.140 A 
HETATM   11  N4  UNL     1      11.930  37.719  -5.949  1.00  0.00    -0.176 N 
ATOM     12  H4  UNL     1      12.210  36.749  -5.804  1.00  0.00     0.186 HD
HETATM   13  C7  UNL     1      11.146  38.335  -5.062  1.00  0.00     0.679 A 
HETATM   14  N6  UNL     1      10.757  39.596  -5.213  1.00  0.00    -0.176 N 
ATOM     15  H6  UNL     1      10.156  40.033  -4.514  1.00  0.00     0.186 HD
HETATM   16  C8  UNL     1      11.167  40.310  -6.311  1.00  0.00     0.132 A 
HETATM   17  N7  UNL     1      10.664  41.468  -6.469  1.00  0.00    -0.384 N 
ATOM     18  H71 UNL     1      10.968  41.998  -7.285  1.00  0.00     0.157 HD
ATOM     19  H72 UNL     1      10.058  41.903  -5.773  1.00  0.00     0.157 HD
HETATM   20  C9  UNL     1      11.978  39.726  -7.244  1.00  0.00     0.094 A 
HETATM   21  C10 UNL     1      12.373  40.407  -8.415  1.00  0.00     0.133 A 
HETATM   22  C27 UNL     1      13.128  39.688  -9.377  1.00  0.00     0.072 A 
ENDROOT
BRANCH  21  23
HETATM   23  N8  UNL     1      12.363  41.631  -8.455  1.00  0.00    -0.446 NA
BRANCH  23  24
HETATM   24  C11 UNL     1      12.569  42.954  -8.331  1.00  0.00     0.218 C 
BRANCH  24  25
HETATM   25  C12 UNL     1      13.711  43.327  -7.327  1.00  0.00     0.033 C 
BRANCH  25  26
HETATM   26  C13 UNL     1      14.992  42.898  -8.010  1.00  0.00     0.002 C 
BRANCH  26  27
HETATM   27  C14 UNL     1      16.087  43.903  -7.842  1.00  0.00     0.000 C 
BRANCH  27  28
HETATM   28  C15 UNL     1      16.846  44.162  -9.130  1.00  0.00     0.000 C 
BRANCH  28  29
HETATM   29  C16 UNL     1      17.109  42.850  -9.865  1.00  0.00     0.000 C 
BRANCH  29  30
HETATM   30  C17 UNL     1      18.592  42.853 -10.236  1.00  0.00     0.000 C 
BRANCH  30  31
HETATM   31  C18 UNL     1      18.986  41.570 -10.906  1.00  0.00     0.002 C 
BRANCH  31  32
HETATM   32  C19 UNL     1      17.781  40.695 -11.085  1.00  0.00     0.027 C 
BRANCH  32  33
HETATM   33  C20 UNL     1      17.661  40.256 -12.503  1.00  0.00     0.232 C 
BRANCH  33  34
HETATM   34  N9  UNL     1      17.666  38.780 -12.501  1.00  0.00    -0.070 N 
ATOM     35  H92 UNL     1      18.372  38.381 -11.882  1.00  0.00     0.277 HD
ATOM     36  H91 UNL     1      16.849  38.375 -12.041  1.00  0.00     0.277 HD
BRANCH  34  37
HETATM   37  C21 UNL     1      17.812  38.358 -13.891  1.00  0.00     0.289 C 
BRANCH  37  38
HETATM   38  C22 UNL     1      16.483  37.842 -14.323  1.00  0.00     0.034 A 
HETATM   39  C23 UNL     1      16.208  36.520 -13.987  1.00  0.00     0.027 A 
HETATM   40  C24 UNL     1      14.972  36.016 -14.379  1.00  0.00     0.003 A 
HETATM   41  C25 UNL     1      14.097  36.812 -15.063  1.00  0.00     0.017 A 
HETATM   42  C26 UNL     1      14.416  38.100 -15.367  1.00  0.00     0.088 A 
HETATM   43  N10 UNL     1      15.621  38.614 -14.992  1.00  0.00    -0.368 N 
ATOM     44  H10 UNL     1      15.863  39.579 -15.219  1.00  0.00     0.165 HD
ENDBRANCH  37  38
ENDBRANCH  34  37
ENDBRANCH  33  34
ENDBRANCH  32  33
ENDBRANCH  31  32
ENDBRANCH  30  31
ENDBRANCH  29  30
ENDBRANCH  28  29
ENDBRANCH  27  28
ENDBRANCH  26  27
ENDBRANCH  25  26
ENDBRANCH  24  25
ENDBRANCH  23  24
ENDBRANCH  21  23
BRANCH   6  45
HETATM   45  O1  UNL     1      14.476  36.294  -9.676  1.00  0.00    -0.282 OA
ATOM     46  H1  UNL     1      14.972  36.117  -8.886  1.00  0.00     0.245 HD
ENDBRANCH   6  45
BRANCH  13  47
HETATM   47  N5  UNL     1      10.764  37.667  -4.029  1.00  0.00    -0.234 N 
ATOM     48  H52 UNL     1      10.004  36.991  -4.116  1.00  0.00     0.174 HD
ATOM     49  H51 UNL     1      11.242  37.841  -3.144  1.00  0.00     0.174 HD
ENDBRANCH  13  47
TORSDOF 16
ENDMDL
MODEL 4
REMARK VINA RESULT: -7.625885999      3.214      7.979
REMARK  16 active torsions:
REMARK  status: ('A' for Active; 'I' for Inactive)
REMARK    1  A    between atoms: N2_6  and  O1_7 
REMARK    2  A    between atoms: C7_15  and  N5_16 
REMARK    3  A    between atoms: C10_26  and  N8_27 
REMARK    4  A    between atoms: N8_27  and  C11_28 
REMARK    5  A    between atoms: C11_28  and  C12_29 
REMARK    6  A    between atoms: C12_29  and  C13_30 
REMARK    7  A    between atoms: C13_30  and  C14_31 
REMARK    8  A    between atoms: C14_31  and  C15_32 
REMARK    9  A    between atoms: C15_32  and  C16_33 
REMARK   10  A    between atoms: C16_33  and  C17_34 
REMARK   11  A    between atoms: C17_34  and  C18_35 
REMARK   12  A    between atoms: C18_35  and  C19_36 
REMARK   13  A    between atoms: C19_36  and  C20_37 
REMARK   14  A    between atoms: C20_37  and  N9_38 
REMARK   15  A    between atoms: N9_38  and  C21_41 
REMARK   16  A    between atoms: C21_41  and  C22_42 
ROOT
HETATM    1  N1  UNL     1      14.443  40.052 -15.227  1.00  0.00    -0.191 NA
HETATM    2  C1  UNL     1      14.317  39.136 -14.556  1.00  0.00     0.100 C 
HETATM    3  C2  UNL     1      14.115  37.962 -13.807  1.00  0.00     0.063 A 
HETATM    4  C3  UNL     1      14.046  36.732 -14.518  1.00  0.00     0.043 A 
HETATM    5  C4  UNL     1      13.677  35.564 -13.912  1.00  0.00     0.126 A 
HETATM    6  N2  UNL     1      13.369  35.570 -12.610  1.00  0.00    -0.218 N 
HETATM    7  C5  UNL     1      13.429  36.734 -11.898  1.00  0.00     0.149 A 
HETATM    8  N3  UNL     1      13.052  36.648 -10.626  1.00  0.00    -0.325 N 
ATOM      9  H3  UNL     1      12.786  35.739 -10.247  1.00  0.00     0.169 HD
HETATM   10  C6  UNL     1      13.013  37.718  -9.830  1.00  0.00     0.140 A 
HETATM   11  N4  UNL     1      12.562  37.596  -8.568  1.00  0.00    -0.176 N 
ATOM     12  H4  UNL     1      12.299  36.681  -8.201  1.00  0.00     0.186 HD
HETATM   13  C7  UNL     1      12.464  38.684  -7.802  1.00  0.00     0.679 A 
HETATM   14  N6  UNL     1      12.794  39.894  -8.240  1.00  0.00    -0.176 N 
ATOM     15  H6  UNL     1      12.704  40.703  -7.625  1.00  0.00     0.186 HD
HETATM   16  C8  UNL     1      13.259  40.052  -9.522  1.00  0.00     0.132 A 
HETATM   17  N7  UNL     1      13.440  41.244  -9.928  1.00  0.00    -0.384 N 
ATOM     18  H71 UNL     1      13.784  41.361 -10.880  1.00  0.00     0.157 HD
ATOM     19  H72 UNL     1      13.345  42.054  -9.315  1.00  0.00     0.157 HD
HETATM   20  C9  UNL     1      13.385  38.966 -10.343  1.00  0.00     0.094 A 
HETATM   21  C10 UNL     1      13.803  39.095 -11.685  1.00  0.00     0.133 A 
HETATM   22  C27 UNL     1      13.805  37.929 -12.492  1.00  0.00     0.072 A 
ENDROOT
BRANCH  21  23
HETATM   23  N8  UNL     1      14.447  40.073 -12.044  1.00  0.00    -0.446 NA
BRANCH  23  24
HETATM   24  C11 UNL     1      15.337  41.058 -12.255  1.00  0.00     0.218 C 
BRANCH  24  25
HETATM   25  C12 UNL     1      16.830  40.606 -12.113  1.00  0.00     0.033 C 
BRANCH  25  26
HETATM   26  C13 UNL     1      17.199  40.911 -10.677  1.00  0.00     0.002 C 
BRANCH  26  27
HETATM   27  C14 UNL     1      18.154  42.058 -10.569  1.00  0.00     0.000 C 
BRANCH  27  28
HETATM   28  C15 UNL     1      17.584  43.220  -9.777  1.00  0.00     0.000 C 
BRANCH  28  29
HETATM   29  C16 UNL     1      16.221  42.850  -9.196  1.00  0.00     0.000 C 
BRANCH  29  30
HETATM   30  C17 UNL     1      16.052  43.685  -7.927  1.00  0.00     0.000 C 
BRANCH  30  31
HETATM   31  C18 UNL     1      14.856  43.239  -7.140  1.00  0.00     0.002 C 
BRANCH  31  32
HETATM   32  C19 UNL     1      13.649  44.028  -7.551  1.00  0.00     0.027 C 
BRANCH  32  33
HETATM   33  C20 UNL     1      13.919  45.489  -7.450  1.00  0.00     0.232 C 
BRANCH  33  34
HETATM   34  N9  UNL     1      13.834  45.848  -6.021  1.00  0.00    -0.070 N 
ATOM     35  H92 UNL     1      13.157  45.286  -5.505  1.00  0.00     0.277 HD
ATOM     36  H91 UNL     1      14.660  45.574  -5.487  1.00  0.00     0.277 HD
BRANCH  34  37
HETATM   37  C21 UNL     1      13.559  47.281  -5.963  1.00  0.00     0.289 C 
BRANCH  37  38
HETATM   38  C22 UNL     1      13.570  47.660  -4.523  1.00  0.00     0.034 A 
HETATM   39  C23 UNL     1      13.125  46.686  -3.635  1.00  0.00     0.027 A 
HETATM   40  C24 UNL     1      13.126  47.017  -2.284  1.00  0.00     0.003 A 
HETATM   41  C25 UNL     1      13.552  48.253  -1.886  1.00  0.00     0.017 A 
HETATM   42  C26 UNL     1      13.978  49.171  -2.796  1.00  0.00     0.088 A 
HETATM   43  N10 UNL     1      13.985  48.867  -4.125  1.00  0.00    -0.368 N 
ATOM     44  H10 UNL     1      14.303  49.553  -4.809  1.00  0.00     0.165 HD
ENDBRANCH  37  38
ENDBRANCH  34  37
ENDBRANCH  33  34
ENDBRANCH  32  33
ENDBRANCH  31  32
ENDBRANCH  30  31
ENDBRANCH  29  30
ENDBRANCH  28  29
ENDBRANCH  27  28
ENDBRANCH  26  27
ENDBRANCH  25  26
ENDBRANCH  24  25
ENDBRANCH  23  24
ENDBRANCH  21  23
BRANCH   6  45
HETATM   45  O1  UNL     1      12.997  34.387 -12.020  1.00  0.00    -0.282 OA
ATOM     46  H1  UNL     1      12.666  34.409 -11.130  1.00  0.00     0.245 HD
ENDBRANCH   6  45
BRANCH  13  47
HETATM   47  N5  UNL     1      12.031  38.536  -6.597  1.00  0.00    -0.234 N 
ATOM     48  H52 UNL     1      11.795  39.358  -6.040  1.00  0.00     0.174 HD
ATOM     49  H51 UNL     1      11.940  37.586  -6.236  1.00  0.00     0.174 HD
ENDBRANCH  13  47
TORSDOF 16
ENDMDL
MODEL 5
REMARK VINA RESULT: -7.598653372      2.188      4.410
REMARK  16 active torsions:
REMARK  status: ('A' for Active; 'I' for Inactive)
REMARK    1  A    between atoms: N2_6  and  O1_7 
REMARK    2  A    between atoms: C7_15  and  N5_16 
REMARK    3  A    between atoms: C10_26  and  N8_27 
REMARK    4  A    between atoms: N8_27  and  C11_28 
REMARK    5  A    between atoms: C11_28  and  C12_29 
REMARK    6  A    between atoms: C12_29  and  C13_30 
REMARK    7  A    between atoms: C13_30  and  C14_31 
REMARK    8  A    between atoms: C14_31  and  C15_32 
REMARK    9  A    between atoms: C15_32  and  C16_33 
REMARK   10  A    between atoms: C16_33  and  C17_34 
REMARK   11  A    between atoms: C17_34  and  C18_35 
REMARK   12  A    between atoms: C18_35  and  C19_36 
REMARK   13  A    between atoms: C19_36  and  C20_37 
REMARK   14  A    between atoms: C20_37  and  N9_38 
REMARK   15  A    between atoms: N9_38  and  C21_41 
REMARK   16  A    between atoms: C21_41  and  C22_42 
ROOT
HETATM    1  N1  UNL     1      12.646  42.542 -11.528  1.00  0.00    -0.191 NA
HETATM    2  C1  UNL     1      13.018  41.564 -11.068  1.00  0.00     0.100 C 
HETATM    3  C2  UNL     1      13.474  40.319 -10.596  1.00  0.00     0.063 A 
HETATM    4  C3  UNL     1      14.208  39.501 -11.499  1.00  0.00     0.043 A 
HETATM    5  C4  UNL     1      14.539  38.209 -11.202  1.00  0.00     0.126 A 
HETATM    6  N2  UNL     1      14.165  37.690 -10.027  1.00  0.00    -0.218 N 
HETATM    7  C5  UNL     1      13.462  38.451  -9.137  1.00  0.00     0.149 A 
HETATM    8  N3  UNL     1      13.089  37.830  -8.021  1.00  0.00    -0.325 N 
ATOM      9  H3  UNL     1      13.373  36.861  -7.874  1.00  0.00     0.169 HD
HETATM   10  C6  UNL     1      12.354  38.439  -7.088  1.00  0.00     0.140 A 
HETATM   11  N4  UNL     1      11.944  37.752  -6.007  1.00  0.00    -0.176 N 
ATOM     12  H4  UNL     1      12.235  36.783  -5.871  1.00  0.00     0.186 HD
HETATM   13  C7  UNL     1      11.154  38.351  -5.114  1.00  0.00     0.679 A 
HETATM   14  N6  UNL     1      10.752  39.609  -5.253  1.00  0.00    -0.176 N 
ATOM     15  H6  UNL     1      10.146  40.033  -4.549  1.00  0.00     0.186 HD
HETATM   16  C8  UNL     1      11.153  40.338  -6.344  1.00  0.00     0.132 A 
HETATM   17  N7  UNL     1      10.638  41.492  -6.490  1.00  0.00    -0.384 N 
ATOM     18  H71 UNL     1      10.937  42.033  -7.301  1.00  0.00     0.157 HD
ATOM     19  H72 UNL     1      10.028  41.914  -5.790  1.00  0.00     0.157 HD
HETATM   20  C9  UNL     1      11.970  39.771  -7.283  1.00  0.00     0.094 A 
HETATM   21  C10 UNL     1      12.357  40.468  -8.447  1.00  0.00     0.133 A 
HETATM   22  C27 UNL     1      13.120  39.765  -9.416  1.00  0.00     0.072 A 
ENDROOT
BRANCH  21  23
HETATM   23  N8  UNL     1      12.335  41.691  -8.476  1.00  0.00    -0.446 NA
BRANCH  23  24
HETATM   24  C11 UNL     1      12.421  43.016  -8.256  1.00  0.00     0.218 C 
BRANCH  24  25
HETATM   25  C12 UNL     1      13.570  43.423  -7.275  1.00  0.00     0.033 C 
BRANCH  25  26
HETATM   26  C13 UNL     1      14.833  42.855  -7.888  1.00  0.00     0.002 C 
BRANCH  26  27
HETATM   27  C14 UNL     1      15.959  43.839  -7.879  1.00  0.00     0.000 C 
BRANCH  27  28
HETATM   28  C15 UNL     1      17.022  43.520  -8.915  1.00  0.00     0.000 C 
BRANCH  28  29
HETATM   29  C16 UNL     1      16.375  43.010 -10.201  1.00  0.00     0.000 C 
BRANCH  29  30
HETATM   30  C17 UNL     1      17.034  41.666 -10.511  1.00  0.00     0.000 C 
BRANCH  30  31
HETATM   31  C18 UNL     1      17.161  41.454 -11.991  1.00  0.00     0.002 C 
BRANCH  31  32
HETATM   32  C19 UNL     1      18.080  40.301 -12.265  1.00  0.00     0.027 C 
BRANCH  32  33
HETATM   33  C20 UNL     1      19.107  40.680 -13.274  1.00  0.00     0.232 C 
BRANCH  33  34
HETATM   34  N9  UNL     1      19.716  41.945 -12.818  1.00  0.00    -0.070 N 
ATOM     35  H92 UNL     1      19.558  42.722 -13.459  1.00  0.00     0.277 HD
ATOM     36  H91 UNL     1      19.245  42.350 -12.008  1.00  0.00     0.277 HD
BRANCH  34  37
HETATM   37  C21 UNL     1      21.131  41.670 -12.583  1.00  0.00     0.289 C 
BRANCH  37  38
HETATM   38  C22 UNL     1      21.470  42.271 -11.263  1.00  0.00     0.034 A 
HETATM   39  C23 UNL     1      20.452  42.989 -10.644  1.00  0.00     0.027 A 
HETATM   40  C24 UNL     1      20.745  43.559  -9.409  1.00  0.00     0.003 A 
HETATM   41  C25 UNL     1      21.987  43.400  -8.862  1.00  0.00     0.017 A 
HETATM   42  C26 UNL     1      22.949  42.686  -9.510  1.00  0.00     0.088 A 
HETATM   43  N10 UNL     1      22.682  42.119 -10.721  1.00  0.00    -0.368 N 
ATOM     44  H10 UNL     1      23.401  41.584 -11.209  1.00  0.00     0.165 HD
ENDBRANCH  37  38
ENDBRANCH  34  37
ENDBRANCH  33  34
ENDBRANCH  32  33
ENDBRANCH  31  32
ENDBRANCH  30  31
ENDBRANCH  29  30
ENDBRANCH  28  29
ENDBRANCH  27  28
ENDBRANCH  26  27
ENDBRANCH  25  26
ENDBRANCH  24  25
ENDBRANCH  23  24
ENDBRANCH  21  23
BRANCH   6  45
HETATM   45  O1  UNL     1      14.504  36.389  -9.748  1.00  0.00    -0.282 OA
ATOM     46  H1  UNL     1      15.400  36.113  -9.896  1.00  0.00     0.245 HD
ENDBRANCH   6  45
BRANCH  13  47
HETATM   47  N5  UNL     1      10.779  37.669  -4.087  1.00  0.00    -0.234 N 
ATOM     48  H52 UNL     1      11.313  36.847  -3.803  1.00  0.00     0.174 HD
ATOM     49  H51 UNL     1       9.946  37.979  -3.586  1.00  0.00     0.174 HD
ENDBRANCH  13  47
TORSDOF 16
ENDMDL
