MODEL 1
REMARK VINA RESULT: -8.140528341      0.000      0.000
REMARK  19 active torsions:
REMARK  status: ('A' for Active; 'I' for Inactive)
REMARK    1  A    between atoms: C2_2  and  C3_3 
REMARK    2  A    between atoms: C3_3  and  C4_4 
REMARK    3  A    between atoms: C4_4  and  C5_5 
REMARK    4  A    between atoms: C5_5  and  C6_6 
REMARK    5  A    between atoms: C6_6  and  C7_7 
REMARK    6  A    between atoms: C7_7  and  C8_8 
REMARK    7  A    between atoms: C12_16  and  C13_17 
REMARK    8  A    between atoms: C13_17  and  O1_18 
REMARK    9  A    between atoms: C13_17  and  N3_20 
REMARK   10  A    between atoms: N3_20  and  C14_21 
REMARK   11  A    between atoms: N3_20  and  C17_26 
REMARK   12  A    between atoms: C14_21  and  C15_22 
REMARK   13  A    between atoms: C15_22  and  C16_23 
REMARK   14  A    between atoms: C16_23  and  O2_24 
REMARK   15  A    between atoms: C17_26  and  C18_27 
REMARK   16  A    between atoms: C21_30  and  C22_31 
REMARK   17  A    between atoms: C22_31  and  N4_32 
REMARK   18  A    between atoms: C22_31  and  N5_36 
REMARK   19  A    between atoms: C25_46  and  N8_47 
ROOT
HETATM    1  N3  UNL     1      14.278  38.127 -11.070  1.00  0.00    -0.357 N 
ENDROOT
BRANCH   1   2
HETATM    2  C13 UNL     1      14.039  38.244  -9.692  1.00  0.00     0.148 C 
BRANCH   2   3
HETATM    3  C12 UNL     1      13.146  39.038  -8.908  1.00  0.00     0.016 A 
HETATM    4  C11 UNL     1      12.874  40.357  -9.326  1.00  0.00     0.018 A 
HETATM    5  C10 UNL     1      12.053  41.213  -8.653  1.00  0.00     0.033 A 
HETATM    6  C9  UNL     1      11.431  40.830  -7.505  1.00  0.00     0.060 A 
HETATM    7  N2  UNL     1      10.598  41.428  -6.620  1.00  0.00    -0.300 N 
HETATM    8  C28 UNL     1      11.652  39.559  -7.044  1.00  0.00     0.017 A 
HETATM    9  N1  UNL     1      10.284  40.617  -5.640  1.00  0.00    -0.304 N 
ATOM     10  H2  UNL     1      10.258  42.386  -6.705  1.00  0.00     0.187 HD
HETATM   11  C8  UNL     1      10.930  39.427  -5.875  1.00  0.00     0.038 A 
ATOM     12  H1  UNL     1       9.674  40.828  -4.850  1.00  0.00     0.186 HD
HETATM   13  C27 UNL     1      12.505  38.686  -7.752  1.00  0.00     0.031 A 
BRANCH  11  14
HETATM   14  C7  UNL     1      10.823  38.208  -5.061  1.00  0.00     0.059 C 
BRANCH  14  15
HETATM   15  C6  UNL     1      10.370  38.441  -3.665  1.00  0.00     0.006 C 
BRANCH  15  16
HETATM   16  C5  UNL     1       9.338  37.536  -3.100  1.00  0.00     0.000 C 
BRANCH  16  17
HETATM   17  C4  UNL     1       9.813  36.947  -1.779  1.00  0.00     0.000 C 
BRANCH  17  18
HETATM   18  C3  UNL     1       8.680  36.462  -0.934  1.00  0.00    -0.000 C 
BRANCH  18  19
HETATM   19  C2  UNL     1       8.559  37.139   0.389  1.00  0.00    -0.005 C 
HETATM   20  C1  UNL     1       9.602  38.258   0.420  1.00  0.00     0.005 C 
ENDBRANCH  18  19
ENDBRANCH  17  18
ENDBRANCH  16  17
ENDBRANCH  15  16
ENDBRANCH  14  15
ENDBRANCH  11  14
ENDBRANCH   2   3
BRANCH   2  21
HETATM   21  O1  UNL     1      14.805  37.449  -8.948  1.00  0.00    -0.346 OA
ATOM     22  H1  UNL     1      15.231  36.769  -9.458  1.00  0.00     0.219 HD
ENDBRANCH   2  21
ENDBRANCH   1   2
BRANCH   1  23
HETATM   23  C14 UNL     1      13.289  37.253 -11.760  1.00  0.00     0.127 C 
BRANCH  23  24
HETATM   24  C15 UNL     1      13.553  35.818 -11.521  1.00  0.00     0.046 C 
BRANCH  24  25
HETATM   25  C16 UNL     1      13.121  34.953 -12.685  1.00  0.00     0.165 C 
BRANCH  25  26
HETATM   26  O2  UNL     1      12.896  33.640 -12.311  1.00  0.00    -0.401 OA
ATOM     27  H2  UNL     1      12.264  33.208 -12.873  1.00  0.00     0.209 HD
ENDBRANCH  25  26
ENDBRANCH  24  25
ENDBRANCH  23  24
ENDBRANCH   1  23
BRANCH   1  28
HETATM   28  C17 UNL     1      15.339  38.708 -11.881  1.00  0.00     0.164 C 
BRANCH  28  29
HETATM   29  C18 UNL     1      14.706  39.278 -13.069  1.00  0.00    -0.024 A 
HETATM   30  C19 UNL     1      13.857  40.393 -12.987  1.00  0.00     0.010 A 
HETATM   31  C20 UNL     1      13.247  40.963 -14.080  1.00  0.00     0.014 A 
HETATM   32  C21 UNL     1      13.451  40.448 -15.319  1.00  0.00     0.026 A 
HETATM   33  C23 UNL     1      14.271  39.361 -15.438  1.00  0.00     0.057 A 
HETATM   34  N6  UNL     1      14.461  38.858 -16.672  1.00  0.00    -0.351 N 
HETATM   35  C26 UNL     1      14.908  38.756 -14.346  1.00  0.00     0.043 A 
HETATM   36  C24 UNL     1      15.254  37.791 -16.839  1.00  0.00     0.182 A 
ATOM     37  H6  UNL     1      14.004  39.287 -17.476  1.00  0.00     0.166 HD
HETATM   38  N7  UNL     1      15.877  37.190 -15.816  1.00  0.00    -0.338 N 
HETATM   39  C25 UNL     1      15.713  37.664 -14.543  1.00  0.00     0.113 A 
ATOM     40  H7  UNL     1      16.472  36.379 -15.986  1.00  0.00     0.168 HD
BRANCH  32  41
HETATM   41  C22 UNL     1      12.808  41.036 -16.526  1.00  0.00     0.413 C 
BRANCH  41  42
HETATM   42  N4  UNL     1      11.381  41.237 -16.298  1.00  0.00    -0.046 N 
ATOM     43  H43 UNL     1      10.839  40.405 -16.531  1.00  0.00     0.277 HD
ATOM     44  H42 UNL     1      11.158  41.290 -15.304  1.00  0.00     0.277 HD
ATOM     45  H41 UNL     1      11.050  42.058 -16.804  1.00  0.00     0.277 HD
ENDBRANCH  41  42
BRANCH  41  46
HETATM   46  N5  UNL     1      13.359  42.344 -16.832  1.00  0.00    -0.046 N 
ATOM     47  H53 UNL     1      13.562  42.442 -17.827  1.00  0.00     0.277 HD
ATOM     48  H52 UNL     1      12.656  43.077 -16.743  1.00  0.00     0.277 HD
ATOM     49  H51 UNL     1      14.180  42.543 -16.261  1.00  0.00     0.277 HD
ENDBRANCH  41  46
ENDBRANCH  32  41
BRANCH  39  50
HETATM   50  N8  UNL     1      16.294  37.098 -13.557  1.00  0.00    -0.385 N 
ATOM     51  H82 UNL     1      16.712  36.174 -13.662  1.00  0.00     0.157 HD
ATOM     52  H81 UNL     1      16.353  37.563 -12.651  1.00  0.00     0.157 HD
ENDBRANCH  39  50
ENDBRANCH  28  29
ENDBRANCH   1  28
TORSDOF 19
ENDMDL
MODEL 2
REMARK VINA RESULT: -8.111557753      3.209      8.909
REMARK  19 active torsions:
REMARK  status: ('A' for Active; 'I' for Inactive)
REMARK    1  A    between atoms: C2_2  and  C3_3 
REMARK    2  A    between atoms: C3_3  and  C4_4 
REMARK    3  A    between atoms: C4_4  and  C5_5 
REMARK    4  A    between atoms: C5_5  and  C6_6 
REMARK    5  A    between atoms: C6_6  and  C7_7 
REMARK    6  A    between atoms: C7_7  and  C8_8 
REMARK    7  A    between atoms: C12_16  and  C13_17 
REMARK    8  A    between atoms: C13_17  and  O1_18 
REMARK    9  A    between atoms: C13_17  and  N3_20 
REMARK   10  A    between atoms: N3_20  and  C14_21 
REMARK   11  A    between atoms: N3_20  and  C17_26 
REMARK   12  A    between atoms: C14_21  and  C15_22 
REMARK   13  A    between atoms: C15_22  and  C16_23 
REMARK   14  A    between atoms: C16_23  and  O2_24 
REMARK   15  A    between atoms: C17_26  and  C18_27 
REMARK   16  A    between atoms: C21_30  and  C22_31 
REMARK   17  A    between atoms: C22_31  and  N4_32 
REMARK   18  A    between atoms: C22_31  and  N5_36 
REMARK   19  A    between atoms: C25_46  and  N8_47 
ROOT
HETATM    1  N3  UNL     1      13.180  38.671  -9.046  1.00  0.00    -0.357 N 
ENDROOT
BRANCH   1   2
HETATM    2  C13 UNL     1      13.880  37.559  -9.540  1.00  0.00     0.148 C 
BRANCH   2   3
HETATM    3  C12 UNL     1      14.077  37.016 -10.847  1.00  0.00     0.016 A 
HETATM    4  C11 UNL     1      13.040  36.255 -11.424  1.00  0.00     0.018 A 
HETATM    5  C10 UNL     1      13.119  35.675 -12.656  1.00  0.00     0.033 A 
HETATM    6  C9  UNL     1      14.236  35.803 -13.421  1.00  0.00     0.060 A 
HETATM    7  N2  UNL     1      14.623  35.349 -14.637  1.00  0.00    -0.300 N 
HETATM    8  C28 UNL     1      15.282  36.532 -12.919  1.00  0.00     0.017 A 
HETATM    9  N1  UNL     1      15.838  35.747 -14.928  1.00  0.00    -0.304 N 
ATOM     10  H2  UNL     1      14.045  34.774 -15.249  1.00  0.00     0.187 HD
HETATM   11  C8  UNL     1      16.284  36.497 -13.867  1.00  0.00     0.038 A 
ATOM     12  H1  UNL     1      16.355  35.538 -15.782  1.00  0.00     0.186 HD
HETATM   13  C27 UNL     1      15.185  37.124 -11.642  1.00  0.00     0.031 A 
BRANCH  11  14
HETATM   14  C7  UNL     1      17.577  37.191 -13.781  1.00  0.00     0.059 C 
BRANCH  14  15
HETATM   15  C6  UNL     1      17.519  38.639 -14.110  1.00  0.00     0.006 C 
BRANCH  15  16
HETATM   16  C5  UNL     1      17.556  39.616 -12.993  1.00  0.00     0.000 C 
BRANCH  16  17
HETATM   17  C4  UNL     1      16.437  40.637 -13.142  1.00  0.00     0.000 C 
BRANCH  17  18
HETATM   18  C3  UNL     1      15.322  40.137 -14.002  1.00  0.00    -0.000 C 
BRANCH  18  19
HETATM   19  C2  UNL     1      13.996  40.074 -13.325  1.00  0.00    -0.005 C 
HETATM   20  C1  UNL     1      13.487  41.512 -13.195  1.00  0.00     0.005 C 
ENDBRANCH  18  19
ENDBRANCH  17  18
ENDBRANCH  16  17
ENDBRANCH  15  16
ENDBRANCH  14  15
ENDBRANCH  11  14
ENDBRANCH   2   3
BRANCH   2  21
HETATM   21  O1  UNL     1      14.493  36.851  -8.594  1.00  0.00    -0.346 OA
ATOM     22  H1  UNL     1      15.320  36.487  -8.888  1.00  0.00     0.219 HD
ENDBRANCH   2  21
ENDBRANCH   1   2
BRANCH   1  23
HETATM   23  C14 UNL     1      12.915  38.588  -7.582  1.00  0.00     0.127 C 
BRANCH  23  24
HETATM   24  C15 UNL     1      11.496  38.852  -7.259  1.00  0.00     0.046 C 
BRANCH  24  25
HETATM   25  C16 UNL     1      11.120  38.359  -5.879  1.00  0.00     0.165 C 
BRANCH  25  26
HETATM   26  O2  UNL     1      11.547  37.062  -5.649  1.00  0.00    -0.401 OA
ATOM     27  H2  UNL     1      11.175  36.695  -4.856  1.00  0.00     0.209 HD
ENDBRANCH  25  26
ENDBRANCH  24  25
ENDBRANCH  23  24
ENDBRANCH   1  23
BRANCH   1  28
HETATM   28  C17 UNL     1      12.680  39.841  -9.753  1.00  0.00     0.164 C 
BRANCH  28  29
HETATM   29  C18 UNL     1      13.667  40.905  -9.572  1.00  0.00    -0.024 A 
HETATM   30  C19 UNL     1      15.040  40.672  -9.752  1.00  0.00     0.010 A 
HETATM   31  C20 UNL     1      15.999  41.645  -9.598  1.00  0.00     0.014 A 
HETATM   32  C21 UNL     1      15.640  42.908  -9.255  1.00  0.00     0.026 A 
HETATM   33  C23 UNL     1      14.311  43.172  -9.070  1.00  0.00     0.057 A 
HETATM   34  N6  UNL     1      13.969  44.427  -8.726  1.00  0.00    -0.351 N 
HETATM   35  C26 UNL     1      13.308  42.205  -9.218  1.00  0.00     0.043 A 
HETATM   36  C24 UNL     1      12.680  44.734  -8.531  1.00  0.00     0.182 A 
ATOM     37  H6  UNL     1      14.688  45.142  -8.613  1.00  0.00     0.166 HD
HETATM   38  N7  UNL     1      11.697  43.832  -8.664  1.00  0.00    -0.338 N 
HETATM   39  C25 UNL     1      11.996  42.544  -9.012  1.00  0.00     0.113 A 
ATOM     40  H7  UNL     1      10.727  44.107  -8.507  1.00  0.00     0.168 HD
BRANCH  32  41
HETATM   41  C22 UNL     1      16.648  43.988  -9.078  1.00  0.00     0.413 C 
BRANCH  41  42
HETATM   42  N4  UNL     1      16.855  44.267  -7.661  1.00  0.00    -0.046 N 
ATOM     43  H43 UNL     1      16.586  45.221  -7.419  1.00  0.00     0.277 HD
ATOM     44  H42 UNL     1      16.187  43.768  -7.074  1.00  0.00     0.277 HD
ATOM     45  H41 UNL     1      17.818  44.066  -7.393  1.00  0.00     0.277 HD
ENDBRANCH  41  42
BRANCH  41  46
HETATM   46  N5  UNL     1      17.942  43.593  -9.607  1.00  0.00    -0.046 N 
ATOM     47  H53 UNL     1      17.860  43.208 -10.549  1.00  0.00     0.277 HD
ATOM     48  H52 UNL     1      18.523  44.403  -9.819  1.00  0.00     0.277 HD
ATOM     49  H51 UNL     1      18.417  42.945  -8.978  1.00  0.00     0.277 HD
ENDBRANCH  41  46
ENDBRANCH  32  41
BRANCH  39  50
HETATM   50  N8  UNL     1      11.072  41.671  -9.136  1.00  0.00    -0.385 N 
ATOM     51  H82 UNL     1      10.789  41.343 -10.059  1.00  0.00     0.157 HD
ATOM     52  H81 UNL     1      10.607  41.285  -8.315  1.00  0.00     0.157 HD
ENDBRANCH  39  50
ENDBRANCH  28  29
ENDBRANCH   1  28
TORSDOF 19
ENDMDL
MODEL 3
REMARK VINA RESULT: -8.089108281      2.107      3.073
REMARK  19 active torsions:
REMARK  status: ('A' for Active; 'I' for Inactive)
REMARK    1  A    between atoms: C2_2  and  C3_3 
REMARK    2  A    between atoms: C3_3  and  C4_4 
REMARK    3  A    between atoms: C4_4  and  C5_5 
REMARK    4  A    between atoms: C5_5  and  C6_6 
REMARK    5  A    between atoms: C6_6  and  C7_7 
REMARK    6  A    between atoms: C7_7  and  C8_8 
REMARK    7  A    between atoms: C12_16  and  C13_17 
REMARK    8  A    between atoms: C13_17  and  O1_18 
REMARK    9  A    between atoms: C13_17  and  N3_20 
REMARK   10  A    between atoms: N3_20  and  C14_21 
REMARK   11  A    between atoms: N3_20  and  C17_26 
REMARK   12  A    between atoms: C14_21  and  C15_22 
REMARK   13  A    between atoms: C15_22  and  C16_23 
REMARK   14  A    between atoms: C16_23  and  O2_24 
REMARK   15  A    between atoms: C17_26  and  C18_27 
REMARK   16  A    between atoms: C21_30  and  C22_31 
REMARK   17  A    between atoms: C22_31  and  N4_32 
REMARK   18  A    between atoms: C22_31  and  N5_36 
REMARK   19  A    between atoms: C25_46  and  N8_47 
ROOT
HETATM    1  N3  UNL     1      14.288  38.173 -11.065  1.00  0.00    -0.357 N 
ENDROOT
BRANCH   1   2
HETATM    2  C13 UNL     1      14.022  38.234  -9.688  1.00  0.00     0.148 C 
BRANCH   2   3
HETATM    3  C12 UNL     1      13.131  39.015  -8.888  1.00  0.00     0.016 A 
HETATM    4  C11 UNL     1      12.843  40.334  -9.294  1.00  0.00     0.018 A 
HETATM    5  C10 UNL     1      12.022  41.178  -8.604  1.00  0.00     0.033 A 
HETATM    6  C9  UNL     1      11.418  40.782  -7.452  1.00  0.00     0.060 A 
HETATM    7  N2  UNL     1      10.590  41.366  -6.552  1.00  0.00    -0.300 N 
HETATM    8  C28 UNL     1      11.655  39.509  -7.003  1.00  0.00     0.017 A 
HETATM    9  N1  UNL     1      10.295  40.545  -5.574  1.00  0.00    -0.304 N 
ATOM     10  H2  UNL     1      10.241  42.321  -6.626  1.00  0.00     0.187 HD
HETATM   11  C8  UNL     1      10.949  39.362  -5.826  1.00  0.00     0.038 A 
ATOM     12  H1  UNL     1       9.693  40.745  -4.775  1.00  0.00     0.186 HD
HETATM   13  C27 UNL     1      12.508  38.649  -7.727  1.00  0.00     0.031 A 
BRANCH  11  14
HETATM   14  C7  UNL     1      10.863  38.137  -5.019  1.00  0.00     0.059 C 
BRANCH  14  15
HETATM   15  C6  UNL     1      10.388  38.351  -3.627  1.00  0.00     0.006 C 
BRANCH  15  16
HETATM   16  C5  UNL     1       9.264  37.519  -3.132  1.00  0.00     0.000 C 
BRANCH  16  17
HETATM   17  C4  UNL     1       9.594  36.938  -1.764  1.00  0.00     0.000 C 
BRANCH  17  18
HETATM   18  C3  UNL     1      10.311  37.915  -0.890  1.00  0.00    -0.000 C 
BRANCH  18  19
HETATM   19  C2  UNL     1       9.570  38.305   0.343  1.00  0.00    -0.005 C 
HETATM   20  C1  UNL     1       8.447  37.284   0.537  1.00  0.00     0.005 C 
ENDBRANCH  18  19
ENDBRANCH  17  18
ENDBRANCH  16  17
ENDBRANCH  15  16
ENDBRANCH  14  15
ENDBRANCH  11  14
ENDBRANCH   2   3
BRANCH   2  21
HETATM   21  O1  UNL     1      14.752  37.388  -8.966  1.00  0.00    -0.346 OA
ATOM     22  H1  UNL     1      15.215  36.755  -9.502  1.00  0.00     0.219 HD
ENDBRANCH   2  21
ENDBRANCH   1   2
BRANCH   1  23
HETATM   23  C14 UNL     1      13.370  37.254 -11.794  1.00  0.00     0.127 C 
BRANCH  23  24
HETATM   24  C15 UNL     1      13.899  35.874 -11.857  1.00  0.00     0.046 C 
BRANCH  24  25
HETATM   25  C16 UNL     1      13.058  34.976 -12.738  1.00  0.00     0.165 C 
BRANCH  25  26
HETATM   26  O2  UNL     1      12.956  33.691 -12.236  1.00  0.00    -0.401 OA
ATOM     27  H2  UNL     1      12.427  33.128 -12.788  1.00  0.00     0.209 HD
ENDBRANCH  25  26
ENDBRANCH  24  25
ENDBRANCH  23  24
ENDBRANCH   1  23
BRANCH   1  28
HETATM   28  C17 UNL     1      15.318  38.847 -11.843  1.00  0.00     0.164 C 
BRANCH  28  29
HETATM   29  C18 UNL     1      14.819  40.190 -12.139  1.00  0.00    -0.024 A 
HETATM   30  C19 UNL     1      13.734  40.398 -13.005  1.00  0.00     0.010 A 
HETATM   31  C20 UNL     1      13.232  41.643 -13.304  1.00  0.00     0.014 A 
HETATM   32  C21 UNL     1      13.787  42.751 -12.754  1.00  0.00     0.026 A 
HETATM   33  C23 UNL     1      14.848  42.588 -11.906  1.00  0.00     0.057 A 
HETATM   34  N6  UNL     1      15.391  43.697 -11.371  1.00  0.00    -0.351 N 
HETATM   35  C26 UNL     1      15.384  41.336 -11.579  1.00  0.00     0.043 A 
HETATM   36  C24 UNL     1      16.434  43.588 -10.536  1.00  0.00     0.182 A 
ATOM     37  H6  UNL     1      15.012  44.616 -11.600  1.00  0.00     0.166 HD
HETATM   38  N7  UNL     1      16.970  42.406 -10.205  1.00  0.00    -0.338 N 
HETATM   39  C25 UNL     1      16.452  41.252 -10.724  1.00  0.00     0.113 A 
ATOM     40  H7  UNL     1      17.764  42.367  -9.565  1.00  0.00     0.168 HD
BRANCH  32  41
HETATM   41  C22 UNL     1      13.273  44.115 -13.054  1.00  0.00     0.413 C 
BRANCH  41  42
HETATM   42  N4  UNL     1      13.225  44.338 -14.495  1.00  0.00    -0.046 N 
ATOM     43  H43 UNL     1      14.158  44.442 -14.894  1.00  0.00     0.277 HD
ATOM     44  H42 UNL     1      12.936  43.500 -15.000  1.00  0.00     0.277 HD
ATOM     45  H41 UNL     1      12.628  45.136 -14.714  1.00  0.00     0.277 HD
ENDBRANCH  41  42
BRANCH  41  46
HETATM   46  N5  UNL     1      11.913  44.283 -12.571  1.00  0.00    -0.046 N 
ATOM     47  H53 UNL     1      11.571  43.438 -12.113  1.00  0.00     0.277 HD
ATOM     48  H52 UNL     1      11.874  44.919 -11.775  1.00  0.00     0.277 HD
ATOM     49  H51 UNL     1      11.289  44.582 -13.320  1.00  0.00     0.277 HD
ENDBRANCH  41  46
ENDBRANCH  32  41
BRANCH  39  50
HETATM   50  N8  UNL     1      16.956  40.118 -10.424  1.00  0.00    -0.385 N 
ATOM     51  H82 UNL     1      16.356  39.333 -10.173  1.00  0.00     0.157 HD
ATOM     52  H81 UNL     1      17.967  39.978 -10.436  1.00  0.00     0.157 HD
ENDBRANCH  39  50
ENDBRANCH  28  29
ENDBRANCH   1  28
TORSDOF 19
ENDMDL
MODEL 4
REMARK VINA RESULT: -8.067877558      2.823      8.862
REMARK  19 active torsions:
REMARK  status: ('A' for Active; 'I' for Inactive)
REMARK    1  A    between atoms: C2_2  and  C3_3 
REMARK    2  A    between atoms: C3_3  and  C4_4 
REMARK    3  A    between atoms: C4_4  and  C5_5 
REMARK    4  A    between atoms: C5_5  and  C6_6 
REMARK    5  A    between atoms: C6_6  and  C7_7 
REMARK    6  A    between atoms: C7_7  and  C8_8 
REMARK    7  A    between atoms: C12_16  and  C13_17 
REMARK    8  A    between atoms: C13_17  and  O1_18 
REMARK    9  A    between atoms: C13_17  and  N3_20 
REMARK   10  A    between atoms: N3_20  and  C14_21 
REMARK   11  A    between atoms: N3_20  and  C17_26 
REMARK   12  A    between atoms: C14_21  and  C15_22 
REMARK   13  A    between atoms: C15_22  and  C16_23 
REMARK   14  A    between atoms: C16_23  and  O2_24 
REMARK   15  A    between atoms: C17_26  and  C18_27 
REMARK   16  A    between atoms: C21_30  and  C22_31 
REMARK   17  A    between atoms: C22_31  and  N4_32 
REMARK   18  A    between atoms: C22_31  and  N5_36 
REMARK   19  A    between atoms: C25_46  and  N8_47 
ROOT
HETATM    1  N3  UNL     1      12.967  38.929  -8.904  1.00  0.00    -0.357 N 
ENDROOT
BRANCH   1   2
HETATM    2  C13 UNL     1      13.653  37.908  -9.579  1.00  0.00     0.148 C 
BRANCH   2   3
HETATM    3  C12 UNL     1      13.661  37.449 -10.933  1.00  0.00     0.016 A 
HETATM    4  C11 UNL     1      13.295  36.112 -11.193  1.00  0.00     0.018 A 
HETATM    5  C10 UNL     1      13.280  35.559 -12.440  1.00  0.00     0.033 A 
HETATM    6  C9  UNL     1      13.628  36.287 -13.534  1.00  0.00     0.060 A 
HETATM    7  N2  UNL     1      13.732  36.034 -14.861  1.00  0.00    -0.300 N 
HETATM    8  C28 UNL     1      13.993  37.595 -13.350  1.00  0.00     0.017 A 
HETATM    9  N1  UNL     1      14.136  37.095 -15.517  1.00  0.00    -0.304 N 
ATOM     10  H2  UNL     1      13.523  35.136 -15.295  1.00  0.00     0.187 HD
HETATM   11  C8  UNL     1      14.310  38.100 -14.595  1.00  0.00     0.038 A 
ATOM     12  H1  UNL     1      14.292  37.163 -16.523  1.00  0.00     0.186 HD
HETATM   13  C27 UNL     1      14.004  38.152 -12.054  1.00  0.00     0.031 A 
BRANCH  11  14
HETATM   14  C7  UNL     1      14.702  39.485 -14.889  1.00  0.00     0.059 C 
BRANCH  14  15
HETATM   15  C6  UNL     1      13.676  40.272 -15.621  1.00  0.00     0.006 C 
BRANCH  15  16
HETATM   16  C5  UNL     1      12.871  41.259 -14.859  1.00  0.00     0.000 C 
BRANCH  16  17
HETATM   17  C4  UNL     1      13.497  41.518 -13.496  1.00  0.00     0.000 C 
BRANCH  17  18
HETATM   18  C3  UNL     1      12.597  42.303 -12.598  1.00  0.00    -0.000 C 
BRANCH  18  19
HETATM   19  C2  UNL     1      13.059  43.692 -12.317  1.00  0.00    -0.005 C 
HETATM   20  C1  UNL     1      14.565  43.729 -12.583  1.00  0.00     0.005 C 
ENDBRANCH  18  19
ENDBRANCH  17  18
ENDBRANCH  16  17
ENDBRANCH  15  16
ENDBRANCH  14  15
ENDBRANCH  11  14
ENDBRANCH   2   3
BRANCH   2  21
HETATM   21  O1  UNL     1      14.474  37.211  -8.797  1.00  0.00    -0.346 OA
ATOM     22  H1  UNL     1      14.473  37.519  -7.898  1.00  0.00     0.219 HD
ENDBRANCH   2  21
ENDBRANCH   1   2
BRANCH   1  23
HETATM   23  C14 UNL     1      12.794  38.653  -7.451  1.00  0.00     0.127 C 
BRANCH  23  24
HETATM   24  C15 UNL     1      11.457  39.055  -6.963  1.00  0.00     0.046 C 
BRANCH  24  25
HETATM   25  C16 UNL     1      11.071  38.337  -5.689  1.00  0.00     0.165 C 
BRANCH  25  26
HETATM   26  O2  UNL     1      11.514  37.027  -5.667  1.00  0.00    -0.401 OA
ATOM     27  H2  UNL     1      10.949  36.463  -5.151  1.00  0.00     0.209 HD
ENDBRANCH  25  26
ENDBRANCH  24  25
ENDBRANCH  23  24
ENDBRANCH   1  23
BRANCH   1  28
HETATM   28  C17 UNL     1      12.403  40.168  -9.422  1.00  0.00     0.164 C 
BRANCH  28  29
HETATM   29  C18 UNL     1      13.435  41.195  -9.291  1.00  0.00    -0.024 A 
HETATM   30  C19 UNL     1      14.780  40.931  -9.596  1.00  0.00     0.010 A 
HETATM   31  C20 UNL     1      15.779  41.870  -9.491  1.00  0.00     0.014 A 
HETATM   32  C21 UNL     1      15.490  43.129  -9.074  1.00  0.00     0.026 A 
HETATM   33  C23 UNL     1      14.191  43.423  -8.767  1.00  0.00     0.057 A 
HETATM   34  N6  UNL     1      13.919  44.674  -8.350  1.00  0.00    -0.351 N 
HETATM   35  C26 UNL     1      13.149  42.491  -8.862  1.00  0.00     0.043 A 
HETATM   36  C24 UNL     1      12.661  45.009  -8.034  1.00  0.00     0.182 A 
ATOM     37  H6  UNL     1      14.667  45.363  -8.276  1.00  0.00     0.166 HD
HETATM   38  N7  UNL     1      11.643  44.142  -8.114  1.00  0.00    -0.338 N 
HETATM   39  C25 UNL     1      11.870  42.859  -8.532  1.00  0.00     0.113 A 
ATOM     40  H7  UNL     1      10.699  44.437  -7.865  1.00  0.00     0.168 HD
BRANCH  32  41
HETATM   41  C22 UNL     1      16.543  44.172  -8.947  1.00  0.00     0.413 C 
BRANCH  41  42
HETATM   42  N4  UNL     1      16.887  44.384  -7.545  1.00  0.00    -0.046 N 
ATOM     43  H43 UNL     1      17.004  45.374  -7.329  1.00  0.00     0.277 HD
ATOM     44  H42 UNL     1      16.100  44.186  -6.927  1.00  0.00     0.277 HD
ATOM     45  H41 UNL     1      17.712  43.841  -7.293  1.00  0.00     0.277 HD
ENDBRANCH  41  42
BRANCH  41  46
HETATM   46  N5  UNL     1      17.770  43.765  -9.609  1.00  0.00    -0.046 N 
ATOM     47  H53 UNL     1      17.771  42.767  -9.818  1.00  0.00     0.277 HD
ATOM     48  H52 UNL     1      17.819  44.124 -10.562  1.00  0.00     0.277 HD
ATOM     49  H51 UNL     1      18.590  44.034  -9.066  1.00  0.00     0.277 HD
ENDBRANCH  41  46
ENDBRANCH  32  41
BRANCH  39  50
HETATM   50  N8  UNL     1      10.912  42.018  -8.606  1.00  0.00    -0.385 N 
ATOM     51  H82 UNL     1      10.748  41.351  -7.852  1.00  0.00     0.157 HD
ATOM     52  H81 UNL     1      10.294  42.004  -9.417  1.00  0.00     0.157 HD
ENDBRANCH  39  50
ENDBRANCH  28  29
ENDBRANCH   1  28
TORSDOF 19
ENDMDL
MODEL 5
REMARK VINA RESULT: -8.036696234      3.233      7.150
REMARK  19 active torsions:
REMARK  status: ('A' for Active; 'I' for Inactive)
REMARK    1  A    between atoms: C2_2  and  C3_3 
REMARK    2  A    between atoms: C3_3  and  C4_4 
REMARK    3  A    between atoms: C4_4  and  C5_5 
REMARK    4  A    between atoms: C5_5  and  C6_6 
REMARK    5  A    between atoms: C6_6  and  C7_7 
REMARK    6  A    between atoms: C7_7  and  C8_8 
REMARK    7  A    between atoms: C12_16  and  C13_17 
REMARK    8  A    between atoms: C13_17  and  O1_18 
REMARK    9  A    between atoms: C13_17  and  N3_20 
REMARK   10  A    between atoms: N3_20  and  C14_21 
REMARK   11  A    between atoms: N3_20  and  C17_26 
REMARK   12  A    between atoms: C14_21  and  C15_22 
REMARK   13  A    between atoms: C15_22  and  C16_23 
REMARK   14  A    between atoms: C16_23  and  O2_24 
REMARK   15  A    between atoms: C17_26  and  C18_27 
REMARK   16  A    between atoms: C21_30  and  C22_31 
REMARK   17  A    between atoms: C22_31  and  N4_32 
REMARK   18  A    between atoms: C22_31  and  N5_36 
REMARK   19  A    between atoms: C25_46  and  N8_47 
ROOT
HETATM    1  N3  UNL     1      13.582  38.996  -9.342  1.00  0.00    -0.357 N 
ENDROOT
BRANCH   1   2
HETATM    2  C13 UNL     1      13.317  40.349  -9.081  1.00  0.00     0.148 C 
BRANCH   2   3
HETATM    3  C12 UNL     1      14.128  41.454  -8.675  1.00  0.00     0.016 A 
HETATM    4  C11 UNL     1      13.794  42.132  -7.484  1.00  0.00     0.018 A 
HETATM    5  C10 UNL     1      14.482  43.208  -7.004  1.00  0.00     0.033 A 
HETATM    6  C9  UNL     1      15.560  43.702  -7.668  1.00  0.00     0.060 A 
HETATM    7  N2  UNL     1      16.418  44.733  -7.473  1.00  0.00    -0.300 N 
HETATM    8  C28 UNL     1      15.939  43.088  -8.833  1.00  0.00     0.017 A 
HETATM    9  N1  UNL     1      17.304  44.803  -8.436  1.00  0.00    -0.304 N 
ATOM     10  H2  UNL     1      16.378  45.373  -6.680  1.00  0.00     0.187 HD
HETATM   11  C8  UNL     1      17.033  43.779  -9.312  1.00  0.00     0.038 A 
ATOM     12  H1  UNL     1      18.055  45.489  -8.520  1.00  0.00     0.186 HD
HETATM   13  C27 UNL     1      15.216  41.977  -9.316  1.00  0.00     0.031 A 
BRANCH  11  14
HETATM   14  C7  UNL     1      17.809  43.441 -10.513  1.00  0.00     0.059 C 
BRANCH  14  15
HETATM   15  C6  UNL     1      18.913  42.473 -10.279  1.00  0.00     0.006 C 
BRANCH  15  16
HETATM   16  C5  UNL     1      19.147  41.415 -11.292  1.00  0.00     0.000 C 
BRANCH  16  17
HETATM   17  C4  UNL     1      17.863  40.645 -11.565  1.00  0.00     0.000 C 
BRANCH  17  18
HETATM   18  C3  UNL     1      17.778  40.163 -12.977  1.00  0.00    -0.000 C 
BRANCH  18  19
HETATM   19  C2  UNL     1      17.826  38.682 -13.131  1.00  0.00    -0.005 C 
HETATM   20  C1  UNL     1      17.700  38.379 -14.626  1.00  0.00     0.005 C 
ENDBRANCH  18  19
ENDBRANCH  17  18
ENDBRANCH  16  17
ENDBRANCH  15  16
ENDBRANCH  14  15
ENDBRANCH  11  14
ENDBRANCH   2   3
BRANCH   2  21
HETATM   21  O1  UNL     1      12.039  40.683  -9.244  1.00  0.00    -0.346 OA
ATOM     22  H1  UNL     1      11.471  39.926  -9.327  1.00  0.00     0.219 HD
ENDBRANCH   2  21
ENDBRANCH   1   2
BRANCH   1  23
HETATM   23  C14 UNL     1      12.585  38.078  -8.725  1.00  0.00     0.127 C 
BRANCH  23  24
HETATM   24  C15 UNL     1      12.775  37.951  -7.264  1.00  0.00     0.046 C 
BRANCH  24  25
HETATM   25  C16 UNL     1      11.546  38.365  -6.487  1.00  0.00     0.165 C 
BRANCH  25  26
HETATM   26  O2  UNL     1      10.373  38.075  -7.161  1.00  0.00    -0.401 OA
ATOM     27  H2  UNL     1      10.344  37.176  -7.467  1.00  0.00     0.209 HD
ENDBRANCH  25  26
ENDBRANCH  24  25
ENDBRANCH  23  24
ENDBRANCH   1  23
BRANCH   1  28
HETATM   28  C17 UNL     1      14.676  38.392 -10.091  1.00  0.00     0.164 C 
BRANCH  28  29
HETATM   29  C18 UNL     1      14.434  38.677 -11.505  1.00  0.00    -0.024 A 
HETATM   30  C19 UNL     1      14.239  39.988 -11.969  1.00  0.00     0.010 A 
HETATM   31  C20 UNL     1      14.015  40.298 -13.289  1.00  0.00     0.014 A 
HETATM   32  C21 UNL     1      13.974  39.315 -14.223  1.00  0.00     0.026 A 
HETATM   33  C23 UNL     1      14.159  38.025 -13.809  1.00  0.00     0.057 A 
HETATM   34  N6  UNL     1      14.111  37.059 -14.745  1.00  0.00    -0.351 N 
HETATM   35  C26 UNL     1      14.389  37.673 -12.472  1.00  0.00     0.043 A 
HETATM   36  C24 UNL     1      14.284  35.779 -14.387  1.00  0.00     0.182 A 
ATOM     37  H6  UNL     1      13.944  37.300 -15.722  1.00  0.00     0.166 HD
HETATM   38  N7  UNL     1      14.505  35.410 -13.118  1.00  0.00    -0.338 N 
HETATM   39  C25 UNL     1      14.561  36.356 -12.132  1.00  0.00     0.113 A 
ATOM     40  H7  UNL     1      14.631  34.424 -12.887  1.00  0.00     0.168 HD
BRANCH  32  41
HETATM   41  C22 UNL     1      13.734  39.611 -15.661  1.00  0.00     0.413 C 
BRANCH  41  42
HETATM   42  N4  UNL     1      12.725  40.655 -15.807  1.00  0.00    -0.046 N 
ATOM     43  H43 UNL     1      12.948  41.479 -15.250  1.00  0.00     0.277 HD
ATOM     44  H42 UNL     1      12.753  41.084 -16.732  1.00  0.00     0.277 HD
ATOM     45  H41 UNL     1      11.798  40.290 -15.588  1.00  0.00     0.277 HD
ENDBRANCH  41  42
BRANCH  41  46
HETATM   46  N5  UNL     1      14.935  40.115 -16.303  1.00  0.00    -0.046 N 
ATOM     47  H53 UNL     1      15.190  41.038 -15.950  1.00  0.00     0.277 HD
ATOM     48  H52 UNL     1      15.763  39.600 -16.005  1.00  0.00     0.277 HD
ATOM     49  H51 UNL     1      14.840  40.116 -17.318  1.00  0.00     0.277 HD
ENDBRANCH  41  46
ENDBRANCH  32  41
BRANCH  39  50
HETATM   50  N8  UNL     1      14.763  36.020 -10.917  1.00  0.00    -0.385 N 
ATOM     51  H82 UNL     1      15.685  35.708 -10.611  1.00  0.00     0.157 HD
ATOM     52  H81 UNL     1      14.008  36.063 -10.232  1.00  0.00     0.157 HD
ENDBRANCH  39  50
ENDBRANCH  28  29
ENDBRANCH   1  28
TORSDOF 19
ENDMDL
