MODEL 1
REMARK VINA RESULT: -5.713660815      0.000      0.000
REMARK  12 active torsions:
REMARK  status: ('A' for Active; 'I' for Inactive)
REMARK    1  A    between atoms: C3_3  and  N1_4 
REMARK    2  A    between atoms: N1_4  and  C4_7 
REMARK    3  A    between atoms: C5_8  and  O1_9 
REMARK    4  A    between atoms: C6_12  and  O3_13 
REMARK    5  A    between atoms: O3_13  and  C7_14 
REMARK    6  A    between atoms: C8_15  and  N2_16 
REMARK    7  A    between atoms: C10_21  and  N3_22 
REMARK    8  A    between atoms: C11_26  and  O4_27 
REMARK    9  A    between atoms: O4_27  and  C12_28 
REMARK   10  A    between atoms: C19_35  and  O5_36 
REMARK   11  A    between atoms: C20_38  and  N4_39 
REMARK   12  A    between atoms: C21_43  and  O6_44 
ROOT
HETATM    1  C1  UNL     1       4.338 -33.521  -3.819  1.00  0.00     0.013 C 
HETATM    2  C2  UNL     1       4.765 -34.424  -4.502  1.00  0.00    -0.090 C 
HETATM    3  C3  UNL     1       5.281 -35.547  -5.321  1.00  0.00     0.325 C 
ENDROOT
BRANCH   3   4
HETATM    4  N1  UNL     1       4.295 -36.573  -5.420  1.00  0.00    -0.054 N 
ATOM      5  H12 UNL     1       4.698 -37.485  -5.205  1.00  0.00     0.278 HD
ATOM      6  H11 UNL     1       3.621 -36.504  -4.658  1.00  0.00     0.278 HD
BRANCH   4   7
HETATM    7  C4  UNL     1       3.613 -36.596  -6.719  1.00  0.00     0.272 C 
HETATM    8  C5  UNL     1       2.222 -36.124  -6.500  1.00  0.00     0.293 C 
HETATM    9  O2  UNL     1       1.355 -36.383  -7.555  1.00  0.00    -0.327 OA
HETATM   10  C6  UNL     1       2.031 -37.047  -8.604  1.00  0.00     0.296 C 
HETATM   11  C20 UNL     1       2.547 -38.341  -8.066  1.00  0.00     0.269 C 
HETATM   12  C21 UNL     1       3.797 -37.966  -7.253  1.00  0.00     0.191 C 
BRANCH   8  13
HETATM   13  O1  UNL     1       1.727 -36.517  -5.263  1.00  0.00    -0.369 OA
ATOM     14  H1  UNL     1       1.696 -37.462  -5.175  1.00  0.00     0.212 HD
ENDBRANCH   8  13
BRANCH  10  15
HETATM   15  O3  UNL     1       1.324 -37.059  -9.759  1.00  0.00    -0.349 OA
BRANCH  15  16
HETATM   16  C7  UNL     1      -0.044 -36.810  -9.610  1.00  0.00     0.186 C 
HETATM   17  C8  UNL     1      -0.694 -38.079 -10.112  1.00  0.00     0.217 C 
HETATM   18  C9  UNL     1      -2.105 -37.891 -10.563  1.00  0.00     0.071 C 
HETATM   19  C10 UNL     1      -2.714 -36.602 -10.141  1.00  0.00     0.217 C 
HETATM   20  C11 UNL     1      -1.892 -35.472 -10.682  1.00  0.00     0.183 C 
HETATM   21  C19 UNL     1      -0.432 -35.598 -10.355  1.00  0.00     0.180 C 
BRANCH  17  22
HETATM   22  N2  UNL     1       0.108 -38.667 -11.167  1.00  0.00    -0.072 N 
ATOM     23  H23 UNL     1      -0.464 -39.168 -11.847  1.00  0.00     0.274 HD
ATOM     24  H22 UNL     1       0.496 -37.959 -11.790  1.00  0.00     0.274 HD
ATOM     25  H21 UNL     1       0.833 -39.262 -10.766  1.00  0.00     0.274 HD
ENDBRANCH  17  22
BRANCH  19  26
HETATM   26  N3  UNL     1      -2.858 -36.572  -8.715  1.00  0.00    -0.072 N 
ATOM     27  H33 UNL     1      -2.088 -37.046  -8.243  1.00  0.00     0.274 HD
ATOM     28  H32 UNL     1      -2.712 -35.637  -8.335  1.00  0.00     0.274 HD
ATOM     29  H31 UNL     1      -3.765 -36.956  -8.448  1.00  0.00     0.274 HD
ENDBRANCH  19  26
BRANCH  20  30
HETATM   30  O4  UNL     1      -2.120 -35.305 -12.052  1.00  0.00    -0.376 OA
BRANCH  30  31
HETATM   31  C12 UNL     1      -1.118 -34.552 -12.670  1.00  0.00     0.122 C 
HETATM   32  C13 UNL     1      -0.385 -35.426 -13.659  1.00  0.00     0.032 C 
HETATM   33  C14 UNL     1      -1.270 -35.973 -14.734  1.00  0.00     0.002 C 
HETATM   34  C15 UNL     1      -1.832 -34.802 -15.529  1.00  0.00     0.000 C 
HETATM   35  C16 UNL     1      -3.141 -34.336 -14.961  1.00  0.00     0.000 C 
HETATM   36  C17 UNL     1      -2.999 -33.357 -13.845  1.00  0.00     0.002 C 
HETATM   37  C18 UNL     1      -1.619 -33.275 -13.250  1.00  0.00     0.032 C 
ENDBRANCH  30  31
ENDBRANCH  20  30
BRANCH  21  38
HETATM   38  O5  UNL     1      -0.111 -34.409  -9.659  1.00  0.00    -0.390 OA
ATOM     39  H5  UNL     1      -0.137 -34.522  -8.716  1.00  0.00     0.210 HD
ENDBRANCH  21  38
ENDBRANCH  15  16
ENDBRANCH  10  15
BRANCH  11  40
HETATM   40  N4  UNL     1       2.912 -39.329  -9.023  1.00  0.00    -0.068 N 
ATOM     41  H43 UNL     1       2.142 -39.987  -9.145  1.00  0.00     0.275 HD
ATOM     42  H42 UNL     1       2.948 -38.909  -9.951  1.00  0.00     0.275 HD
ATOM     43  H41 UNL     1       3.776 -39.841  -8.844  1.00  0.00     0.275 HD
ENDBRANCH  11  40
BRANCH  12  44
HETATM   44  O6  UNL     1       4.869 -38.158  -8.092  1.00  0.00    -0.386 OA
HETATM   45  C22 UNL     1       5.967 -38.745  -7.484  1.00  0.00     0.202 C 
ENDBRANCH  12  44
ENDBRANCH   4   7
ENDBRANCH   3   4
TORSDOF 12
ENDMDL
MODEL 2
REMARK VINA RESULT: -5.690057729      2.475      8.433
REMARK  12 active torsions:
REMARK  status: ('A' for Active; 'I' for Inactive)
REMARK    1  A    between atoms: C3_3  and  N1_4 
REMARK    2  A    between atoms: N1_4  and  C4_7 
REMARK    3  A    between atoms: C5_8  and  O1_9 
REMARK    4  A    between atoms: C6_12  and  O3_13 
REMARK    5  A    between atoms: O3_13  and  C7_14 
REMARK    6  A    between atoms: C8_15  and  N2_16 
REMARK    7  A    between atoms: C10_21  and  N3_22 
REMARK    8  A    between atoms: C11_26  and  O4_27 
REMARK    9  A    between atoms: O4_27  and  C12_28 
REMARK   10  A    between atoms: C19_35  and  O5_36 
REMARK   11  A    between atoms: C20_38  and  N4_39 
REMARK   12  A    between atoms: C21_43  and  O6_44 
ROOT
HETATM    1  C1  UNL     1      -1.659 -34.451 -18.343  1.00  0.00     0.013 C 
HETATM    2  C2  UNL     1      -2.167 -34.567 -17.251  1.00  0.00    -0.090 C 
HETATM    3  C3  UNL     1      -2.801 -34.729 -15.922  1.00  0.00     0.325 C 
ENDROOT
BRANCH   3   4
HETATM    4  N1  UNL     1      -2.738 -36.094 -15.512  1.00  0.00    -0.054 N 
ATOM      5  H12 UNL     1      -3.566 -36.604 -15.818  1.00  0.00     0.278 HD
ATOM      6  H11 UNL     1      -2.026 -36.599 -16.040  1.00  0.00     0.278 HD
BRANCH   4   7
HETATM    7  C4  UNL     1      -2.528 -36.256 -14.069  1.00  0.00     0.272 C 
HETATM    8  C5  UNL     1      -3.618 -37.125 -13.556  1.00  0.00     0.293 C 
HETATM    9  O2  UNL     1      -3.753 -37.121 -12.173  1.00  0.00    -0.327 OA
HETATM   10  C6  UNL     1      -2.793 -36.269 -11.581  1.00  0.00     0.296 C 
HETATM   11  C20 UNL     1      -3.027 -34.889 -12.099  1.00  0.00     0.269 C 
HETATM   12  C21 UNL     1      -2.425 -34.886 -13.515  1.00  0.00     0.191 C 
BRANCH   8  13
HETATM   13  O1  UNL     1      -4.814 -36.917 -14.233  1.00  0.00    -0.369 OA
ATOM     14  H1  UNL     1      -4.797 -37.289 -15.107  1.00  0.00     0.212 HD
ENDBRANCH   8  13
BRANCH  10  15
HETATM   15  O3  UNL     1      -2.684 -36.451 -10.244  1.00  0.00    -0.349 OA
BRANCH  15  16
HETATM   16  C7  UNL     1      -2.030 -37.627  -9.865  1.00  0.00     0.186 C 
HETATM   17  C8  UNL     1      -2.806 -38.092  -8.653  1.00  0.00     0.217 C 
HETATM   18  C9  UNL     1      -2.025 -38.992  -7.752  1.00  0.00     0.071 C 
HETATM   19  C10 UNL     1      -0.776 -39.525  -8.354  1.00  0.00     0.217 C 
HETATM   20  C11 UNL     1       0.104 -38.379  -8.752  1.00  0.00     0.183 C 
HETATM   21  C19 UNL     1      -0.603 -37.363  -9.602  1.00  0.00     0.180 C 
BRANCH  17  22
HETATM   22  N2  UNL     1      -3.318 -36.951  -7.921  1.00  0.00    -0.072 N 
ATOM     23  H23 UNL     1      -3.508 -37.177  -6.945  1.00  0.00     0.274 HD
ATOM     24  H22 UNL     1      -2.602 -36.240  -7.773  1.00  0.00     0.274 HD
ATOM     25  H21 UNL     1      -4.140 -36.572  -8.392  1.00  0.00     0.274 HD
ENDBRANCH  17  22
BRANCH  19  26
HETATM   26  N3  UNL     1      -1.093 -40.406  -9.440  1.00  0.00    -0.072 N 
ATOM     27  H33 UNL     1      -0.719 -41.344  -9.293  1.00  0.00     0.274 HD
ATOM     28  H32 UNL     1      -2.085 -40.642  -9.464  1.00  0.00     0.274 HD
ATOM     29  H31 UNL     1      -0.775 -40.001 -10.321  1.00  0.00     0.274 HD
ENDBRANCH  19  26
BRANCH  20  30
HETATM   30  O4  UNL     1       0.710 -37.807  -7.629  1.00  0.00    -0.376 OA
BRANCH  30  31
HETATM   31  C12 UNL     1       1.952 -38.381  -7.344  1.00  0.00     0.122 C 
HETATM   32  C13 UNL     1       2.940 -37.968  -8.408  1.00  0.00     0.032 C 
HETATM   33  C14 UNL     1       3.134 -36.487  -8.493  1.00  0.00     0.002 C 
HETATM   34  C15 UNL     1       3.704 -36.005  -7.166  1.00  0.00     0.000 C 
HETATM   35  C16 UNL     1       2.612 -35.611  -6.214  1.00  0.00     0.000 C 
HETATM   36  C17 UNL     1       2.059 -36.749  -5.427  1.00  0.00     0.002 C 
HETATM   37  C18 UNL     1       2.415 -38.113  -5.954  1.00  0.00     0.032 C 
ENDBRANCH  30  31
ENDBRANCH  20  30
BRANCH  21  38
HETATM   38  O5  UNL     1       0.162 -37.288 -10.790  1.00  0.00    -0.390 OA
ATOM     39  H5  UNL     1      -0.267 -37.712 -11.524  1.00  0.00     0.210 HD
ENDBRANCH  21  38
ENDBRANCH  15  16
ENDBRANCH  10  15
BRANCH  11  40
HETATM   40  N4  UNL     1      -2.444 -33.822 -11.360  1.00  0.00    -0.068 N 
ATOM     41  H43 UNL     1      -1.565 -34.133 -10.948  1.00  0.00     0.275 HD
ATOM     42  H42 UNL     1      -2.107 -33.106 -12.002  1.00  0.00     0.275 HD
ATOM     43  H41 UNL     1      -3.027 -33.392 -10.641  1.00  0.00     0.275 HD
ENDBRANCH  11  40
BRANCH  12  44
HETATM   44  O6  UNL     1      -1.158 -34.369 -13.389  1.00  0.00    -0.386 OA
HETATM   45  C22 UNL     1      -0.145 -35.285 -13.620  1.00  0.00     0.202 C 
ENDBRANCH  12  44
ENDBRANCH   4   7
ENDBRANCH   3   4
TORSDOF 12
ENDMDL
MODEL 3
REMARK VINA RESULT: -5.684602189      6.489     10.025
REMARK  12 active torsions:
REMARK  status: ('A' for Active; 'I' for Inactive)
REMARK    1  A    between atoms: C3_3  and  N1_4 
REMARK    2  A    between atoms: N1_4  and  C4_7 
REMARK    3  A    between atoms: C5_8  and  O1_9 
REMARK    4  A    between atoms: C6_12  and  O3_13 
REMARK    5  A    between atoms: O3_13  and  C7_14 
REMARK    6  A    between atoms: C8_15  and  N2_16 
REMARK    7  A    between atoms: C10_21  and  N3_22 
REMARK    8  A    between atoms: C11_26  and  O4_27 
REMARK    9  A    between atoms: O4_27  and  C12_28 
REMARK   10  A    between atoms: C19_35  and  O5_36 
REMARK   11  A    between atoms: C20_38  and  N4_39 
REMARK   12  A    between atoms: C21_43  and  O6_44 
ROOT
HETATM    1  C1  UNL     1      -2.037 -33.216 -12.386  1.00  0.00     0.013 C 
HETATM    2  C2  UNL     1      -2.341 -33.306 -13.554  1.00  0.00    -0.090 C 
HETATM    3  C3  UNL     1      -2.693 -33.433 -14.987  1.00  0.00     0.325 C 
ENDROOT
BRANCH   3   4
HETATM    4  N1  UNL     1      -2.698 -34.807 -15.371  1.00  0.00    -0.054 N 
ATOM      5  H12 UNL     1      -3.369 -35.337 -14.814  1.00  0.00     0.278 HD
ATOM      6  H11 UNL     1      -3.116 -34.925 -16.294  1.00  0.00     0.278 HD
BRANCH   4   7
HETATM    7  C4  UNL     1      -1.370 -35.427 -15.317  1.00  0.00     0.272 C 
HETATM    8  C5  UNL     1      -0.859 -35.506 -16.709  1.00  0.00     0.293 C 
HETATM    9  O2  UNL     1       0.237 -36.346 -16.872  1.00  0.00    -0.327 OA
HETATM   10  C6  UNL     1       0.604 -36.931 -15.639  1.00  0.00     0.296 C 
HETATM   11  C20 UNL     1      -0.557 -37.731 -15.150  1.00  0.00     0.269 C 
HETATM   12  C21 UNL     1      -1.542 -36.698 -14.576  1.00  0.00     0.191 C 
BRANCH   8  13
HETATM   13  O1  UNL     1      -1.877 -35.735 -17.627  1.00  0.00    -0.369 OA
ATOM     14  H1  UNL     1      -1.542 -36.023 -18.467  1.00  0.00     0.212 HD
ENDBRANCH   8  13
BRANCH  10  15
HETATM   15  O3  UNL     1       1.825 -37.515 -15.678  1.00  0.00    -0.349 OA
BRANCH  15  16
HETATM   16  C7  UNL     1       2.000 -38.435 -16.715  1.00  0.00     0.186 C 
HETATM   17  C8  UNL     1       2.427 -39.699 -16.002  1.00  0.00     0.217 C 
HETATM   18  C9  UNL     1       3.181 -40.651 -16.871  1.00  0.00     0.071 C 
HETATM   19  C10 UNL     1       3.094 -40.352 -18.324  1.00  0.00     0.217 C 
HETATM   20  C11 UNL     1       3.619 -38.971 -18.573  1.00  0.00     0.183 C 
HETATM   21  C19 UNL     1       2.984 -37.933 -17.693  1.00  0.00     0.180 C 
BRANCH  17  22
HETATM   22  N2  UNL     1       3.193 -39.367 -14.817  1.00  0.00    -0.072 N 
ATOM     23  H23 UNL     1       4.187 -39.268 -15.021  1.00  0.00     0.274 HD
ATOM     24  H22 UNL     1       3.010 -38.416 -14.498  1.00  0.00     0.274 HD
ATOM     25  H21 UNL     1       3.021 -40.056 -14.084  1.00  0.00     0.274 HD
ENDBRANCH  17  22
BRANCH  19  26
HETATM   26  N3  UNL     1       1.749 -40.543 -18.783  1.00  0.00    -0.072 N 
ATOM     27  H33 UNL     1       1.185 -41.061 -18.108  1.00  0.00     0.274 HD
ATOM     28  H32 UNL     1       1.218 -39.672 -18.784  1.00  0.00     0.274 HD
ATOM     29  H31 UNL     1       1.754 -40.989 -19.700  1.00  0.00     0.274 HD
ENDBRANCH  19  26
BRANCH  20  30
HETATM   30  O4  UNL     1       5.015 -38.952 -18.498  1.00  0.00    -0.376 OA
BRANCH  30  31
HETATM   31  C12 UNL     1       5.612 -39.727 -19.496  1.00  0.00     0.122 C 
HETATM   32  C13 UNL     1       5.598 -38.956 -20.793  1.00  0.00     0.032 C 
HETATM   33  C14 UNL     1       6.342 -37.660 -20.720  1.00  0.00     0.002 C 
HETATM   34  C15 UNL     1       7.803 -37.968 -20.419  1.00  0.00     0.000 C 
HETATM   35  C16 UNL     1       8.065 -37.977 -18.940  1.00  0.00     0.000 C 
HETATM   36  C17 UNL     1       7.778 -39.285 -18.286  1.00  0.00     0.002 C 
HETATM   37  C18 UNL     1       6.958 -40.238 -19.113  1.00  0.00     0.032 C 
ENDBRANCH  30  31
ENDBRANCH  20  30
BRANCH  21  38
HETATM   38  O5  UNL     1       2.425 -36.990 -18.587  1.00  0.00    -0.390 OA
ATOM     39  H5  UNL     1       1.871 -37.397 -19.243  1.00  0.00     0.210 HD
ENDBRANCH  21  38
ENDBRANCH  15  16
ENDBRANCH  10  15
BRANCH  11  40
HETATM   40  N4  UNL     1      -0.286 -38.701 -14.145  1.00  0.00    -0.068 N 
ATOM     41  H43 UNL     1       0.548 -39.231 -14.398  1.00  0.00     0.275 HD
ATOM     42  H42 UNL     1       0.039 -38.235 -13.299  1.00  0.00     0.275 HD
ATOM     43  H41 UNL     1      -1.043 -39.344 -13.913  1.00  0.00     0.275 HD
ENDBRANCH  11  40
BRANCH  12  44
HETATM   44  O6  UNL     1      -1.303 -36.656 -13.222  1.00  0.00    -0.386 OA
HETATM   45  C22 UNL     1      -2.430 -36.855 -12.442  1.00  0.00     0.202 C 
ENDBRANCH  12  44
ENDBRANCH   4   7
ENDBRANCH   3   4
TORSDOF 12
ENDMDL
MODEL 4
REMARK VINA RESULT: -5.678971943      1.304      1.605
REMARK  12 active torsions:
REMARK  status: ('A' for Active; 'I' for Inactive)
REMARK    1  A    between atoms: C3_3  and  N1_4 
REMARK    2  A    between atoms: N1_4  and  C4_7 
REMARK    3  A    between atoms: C5_8  and  O1_9 
REMARK    4  A    between atoms: C6_12  and  O3_13 
REMARK    5  A    between atoms: O3_13  and  C7_14 
REMARK    6  A    between atoms: C8_15  and  N2_16 
REMARK    7  A    between atoms: C10_21  and  N3_22 
REMARK    8  A    between atoms: C11_26  and  O4_27 
REMARK    9  A    between atoms: O4_27  and  C12_28 
REMARK   10  A    between atoms: C19_35  and  O5_36 
REMARK   11  A    between atoms: C20_38  and  N4_39 
REMARK   12  A    between atoms: C21_43  and  O6_44 
ROOT
HETATM    1  C1  UNL     1       6.558 -36.293  -8.252  1.00  0.00     0.013 C 
HETATM    2  C2  UNL     1       5.759 -36.306  -7.343  1.00  0.00    -0.090 C 
HETATM    3  C3  UNL     1       4.761 -36.327  -6.248  1.00  0.00     0.325 C 
ENDROOT
BRANCH   3   4
HETATM    4  N1  UNL     1       3.969 -37.510  -6.329  1.00  0.00    -0.054 N 
ATOM      5  H12 UNL     1       4.548 -38.343  -6.218  1.00  0.00     0.278 HD
ATOM      6  H11 UNL     1       3.376 -37.607  -5.506  1.00  0.00     0.278 HD
BRANCH   4   7
HETATM    7  C4  UNL     1       3.172 -37.589  -7.559  1.00  0.00     0.272 C 
HETATM    8  C5  UNL     1       1.808 -37.099  -7.236  1.00  0.00     0.293 C 
HETATM    9  O2  UNL     1       0.847 -37.400  -8.195  1.00  0.00    -0.327 OA
HETATM   10  C6  UNL     1       1.424 -38.117  -9.268  1.00  0.00     0.296 C 
HETATM   11  C20 UNL     1       1.983 -39.388  -8.720  1.00  0.00     0.269 C 
HETATM   12  C21 UNL     1       3.304 -38.983  -8.042  1.00  0.00     0.191 C 
BRANCH   8  13
HETATM   13  O1  UNL     1       1.426 -37.430  -5.942  1.00  0.00    -0.369 OA
ATOM     14  H1  UNL     1       1.703 -36.777  -5.311  1.00  0.00     0.212 HD
ENDBRANCH   8  13
BRANCH  10  15
HETATM   15  O3  UNL     1       0.614 -38.178 -10.352  1.00  0.00    -0.349 OA
BRANCH  15  16
HETATM   16  C7  UNL     1      -0.596 -37.490 -10.218  1.00  0.00     0.186 C 
HETATM   17  C8  UNL     1      -1.632 -38.503 -10.653  1.00  0.00     0.217 C 
HETATM   18  C9  UNL     1      -2.912 -37.890 -11.114  1.00  0.00     0.071 C 
HETATM   19  C10 UNL     1      -3.063 -36.453 -10.763  1.00  0.00     0.217 C 
HETATM   20  C11 UNL     1      -1.927 -35.681 -11.363  1.00  0.00     0.183 C 
HETATM   21  C19 UNL     1      -0.582 -36.258 -11.028  1.00  0.00     0.180 C 
BRANCH  17  22
HETATM   22  N2  UNL     1      -1.081 -39.373 -11.673  1.00  0.00    -0.072 N 
ATOM     23  H23 UNL     1      -0.878 -38.867 -12.535  1.00  0.00     0.274 HD
ATOM     24  H22 UNL     1      -0.132 -39.671 -11.449  1.00  0.00     0.274 HD
ATOM     25  H21 UNL     1      -1.704 -40.165 -11.833  1.00  0.00     0.274 HD
ENDBRANCH  17  22
BRANCH  19  26
HETATM   26  N3  UNL     1      -3.165 -36.306  -9.341  1.00  0.00    -0.072 N 
ATOM     27  H33 UNL     1      -4.030 -36.708  -8.976  1.00  0.00     0.274 HD
ATOM     28  H32 UNL     1      -2.503 -36.902  -8.845  1.00  0.00     0.274 HD
ATOM     29  H31 UNL     1      -3.062 -35.324  -9.083  1.00  0.00     0.274 HD
ENDBRANCH  19  26
BRANCH  20  30
HETATM   30  O4  UNL     1      -2.111 -35.519 -12.739  1.00  0.00    -0.376 OA
BRANCH  30  31
HETATM   31  C12 UNL     1      -1.165 -34.661 -13.305  1.00  0.00     0.122 C 
HETATM   32  C13 UNL     1      -0.525 -35.345 -14.489  1.00  0.00     0.032 C 
HETATM   33  C14 UNL     1      -1.502 -35.712 -15.560  1.00  0.00     0.002 C 
HETATM   34  C15 UNL     1      -2.128 -34.431 -16.092  1.00  0.00     0.000 C 
HETATM   35  C16 UNL     1      -3.381 -34.083 -15.341  1.00  0.00     0.000 C 
HETATM   36  C17 UNL     1      -3.139 -33.305 -14.092  1.00  0.00     0.002 C 
HETATM   37  C18 UNL     1      -1.712 -33.309 -13.613  1.00  0.00     0.032 C 
ENDBRANCH  30  31
ENDBRANCH  20  30
BRANCH  21  38
HETATM   38  O5  UNL     1       0.119 -35.203 -10.396  1.00  0.00    -0.390 OA
ATOM     39  H5  UNL     1      -0.307 -34.362 -10.515  1.00  0.00     0.210 HD
ENDBRANCH  21  38
ENDBRANCH  15  16
ENDBRANCH  10  15
BRANCH  11  40
HETATM   40  N4  UNL     1       2.258 -40.421  -9.659  1.00  0.00    -0.068 N 
ATOM     41  H43 UNL     1       1.755 -40.237 -10.526  1.00  0.00     0.275 HD
ATOM     42  H42 UNL     1       3.222 -40.343  -9.981  1.00  0.00     0.275 HD
ATOM     43  H41 UNL     1       2.075 -41.377  -9.352  1.00  0.00     0.275 HD
ENDBRANCH  11  40
BRANCH  12  44
HETATM   44  O6  UNL     1       4.295 -39.221  -8.966  1.00  0.00    -0.386 OA
HETATM   45  C22 UNL     1       5.405 -39.870  -8.451  1.00  0.00     0.202 C 
ENDBRANCH  12  44
ENDBRANCH   4   7
ENDBRANCH   3   4
TORSDOF 12
ENDMDL
MODEL 5
REMARK VINA RESULT: -5.636728751      3.982      8.608
REMARK  12 active torsions:
REMARK  status: ('A' for Active; 'I' for Inactive)
REMARK    1  A    between atoms: C3_3  and  N1_4 
REMARK    2  A    between atoms: N1_4  and  C4_7 
REMARK    3  A    between atoms: C5_8  and  O1_9 
REMARK    4  A    between atoms: C6_12  and  O3_13 
REMARK    5  A    between atoms: O3_13  and  C7_14 
REMARK    6  A    between atoms: C8_15  and  N2_16 
REMARK    7  A    between atoms: C10_21  and  N3_22 
REMARK    8  A    between atoms: C11_26  and  O4_27 
REMARK    9  A    between atoms: O4_27  and  C12_28 
REMARK   10  A    between atoms: C19_35  and  O5_36 
REMARK   11  A    between atoms: C20_38  and  N4_39 
REMARK   12  A    between atoms: C21_43  and  O6_44 
ROOT
HETATM    1  C1  UNL     1      -0.151 -35.733 -17.571  1.00  0.00     0.013 C 
HETATM    2  C2  UNL     1      -1.191 -35.252 -17.184  1.00  0.00    -0.090 C 
HETATM    3  C3  UNL     1      -2.459 -34.670 -16.685  1.00  0.00     0.325 C 
ENDROOT
BRANCH   3   4
HETATM    4  N1  UNL     1      -2.203 -33.825 -15.564  1.00  0.00    -0.054 N 
ATOM      5  H12 UNL     1      -1.284 -33.390 -15.641  1.00  0.00     0.278 HD
ATOM      6  H11 UNL     1      -2.788 -32.990 -15.598  1.00  0.00     0.278 HD
BRANCH   4   7
HETATM    7  C4  UNL     1      -2.349 -34.512 -14.276  1.00  0.00     0.272 C 
HETATM    8  C5  UNL     1      -3.721 -34.235 -13.777  1.00  0.00     0.293 C 
HETATM    9  O2  UNL     1      -3.917 -34.543 -12.436  1.00  0.00    -0.327 OA
HETATM   10  C6  UNL     1      -2.732 -35.059 -11.865  1.00  0.00     0.296 C 
HETATM   11  C20 UNL     1      -1.677 -34.008 -11.976  1.00  0.00     0.269 C 
HETATM   12  C21 UNL     1      -1.212 -34.063 -13.441  1.00  0.00     0.191 C 
BRANCH   8  13
HETATM   13  O1  UNL     1      -4.155 -32.962 -14.127  1.00  0.00    -0.369 OA
ATOM     14  H1  UNL     1      -4.455 -32.469 -13.372  1.00  0.00     0.212 HD
ENDBRANCH   8  13
BRANCH  10  15
HETATM   15  O3  UNL     1      -2.941 -35.644 -10.662  1.00  0.00    -0.349 OA
BRANCH  15  16
HETATM   16  C7  UNL     1      -2.349 -36.902 -10.513  1.00  0.00     0.186 C 
HETATM   17  C8  UNL     1      -3.502 -37.863 -10.704  1.00  0.00     0.217 C 
HETATM   18  C9  UNL     1      -3.275 -39.200 -10.080  1.00  0.00     0.071 C 
HETATM   19  C10 UNL     1      -1.867 -39.458  -9.681  1.00  0.00     0.217 C 
HETATM   20  C11 UNL     1      -1.433 -38.405  -8.707  1.00  0.00     0.183 C 
HETATM   21  C19 UNL     1      -1.688 -37.009  -9.198  1.00  0.00     0.180 C 
BRANCH  17  22
HETATM   22  N2  UNL     1      -4.731 -37.270 -10.217  1.00  0.00    -0.072 N 
ATOM     23  H23 UNL     1      -5.534 -37.534 -10.788  1.00  0.00     0.274 HD
ATOM     24  H22 UNL     1      -5.032 -37.686  -9.335  1.00  0.00     0.274 HD
ATOM     25  H21 UNL     1      -4.629 -36.257 -10.146  1.00  0.00     0.274 HD
ENDBRANCH  17  22
BRANCH  19  26
HETATM   26  N3  UNL     1      -1.034 -39.536 -10.845  1.00  0.00    -0.072 N 
ATOM     27  H33 UNL     1      -1.555 -39.342 -11.701  1.00  0.00     0.274 HD
ATOM     28  H32 UNL     1      -0.373 -38.761 -10.895  1.00  0.00     0.274 HD
ATOM     29  H31 UNL     1      -0.566 -40.441 -10.880  1.00  0.00     0.274 HD
ENDBRANCH  19  26
BRANCH  20  30
HETATM   30  O4  UNL     1      -1.993 -38.636  -7.446  1.00  0.00    -0.376 OA
BRANCH  30  31
HETATM   31  C12 UNL     1      -1.560 -39.841  -6.886  1.00  0.00     0.122 C 
HETATM   32  C13 UNL     1      -0.734 -39.545  -5.658  1.00  0.00     0.032 C 
HETATM   33  C14 UNL     1      -1.489 -38.800  -4.603  1.00  0.00     0.002 C 
HETATM   34  C15 UNL     1      -2.648 -39.672  -4.141  1.00  0.00     0.000 C 
HETATM   35  C16 UNL     1      -3.888 -39.401  -4.943  1.00  0.00     0.000 C 
HETATM   36  C17 UNL     1      -3.966 -40.177  -6.213  1.00  0.00     0.002 C 
HETATM   37  C18 UNL     1      -2.670 -40.807  -6.648  1.00  0.00     0.032 C 
ENDBRANCH  30  31
ENDBRANCH  20  30
BRANCH  21  38
HETATM   38  O5  UNL     1      -0.421 -36.380  -9.178  1.00  0.00    -0.390 OA
ATOM     39  H5  UNL     1       0.136 -36.706  -8.480  1.00  0.00     0.210 HD
ENDBRANCH  21  38
ENDBRANCH  15  16
ENDBRANCH  10  15
BRANCH  11  40
HETATM   40  N4  UNL     1      -0.538 -34.156 -11.136  1.00  0.00    -0.068 N 
ATOM     41  H43 UNL     1       0.139 -33.424 -11.347  1.00  0.00     0.275 HD
ATOM     42  H42 UNL     1      -0.786 -33.911 -10.178  1.00  0.00     0.275 HD
ATOM     43  H41 UNL     1      -0.076 -35.065 -11.149  1.00  0.00     0.275 HD
ENDBRANCH  11  40
BRANCH  12  44
HETATM   44  O6  UNL     1      -0.089 -34.857 -13.455  1.00  0.00    -0.386 OA
HETATM   45  C22 UNL     1      -0.322 -36.162 -13.854  1.00  0.00     0.202 C 
ENDBRANCH  12  44
ENDBRANCH   4   7
ENDBRANCH   3   4
TORSDOF 12
ENDMDL
