MODEL 1
REMARK VINA RESULT: -6.580274419      0.000      0.000
REMARK  12 active torsions:
REMARK  status: ('A' for Active; 'I' for Inactive)
REMARK    1  A    between atoms: N1_1  and  C1_5 
REMARK    2  A    between atoms: C1_5  and  C2_6 
REMARK    3  A    between atoms: C3_8  and  O2_9 
REMARK    4  A    between atoms: O2_9  and  C4_10 
REMARK    5  A    between atoms: C6_12  and  N2_13 
REMARK    6  A    between atoms: N3_18  and  C8_19 
REMARK    7  A    between atoms: C8_19  and  C9_20 
REMARK    8  A    between atoms: C16_27  and  N4_28 
REMARK    9  A    between atoms: C17_32  and  O3_33 
REMARK   10  A    between atoms: O3_33  and  C18_34 
REMARK   11  A    between atoms: C21_39  and  N6_40 
REMARK   12  A    between atoms: C22_45  and  O5_46 
ROOT
HETATM    1  C2  UNL     1      -5.379 -38.750 -10.189  1.00  0.00     0.181 C 
HETATM    2  O1  UNL     1      -4.260 -37.991 -10.385  1.00  0.00    -0.349 OA
HETATM    3  C3  UNL     1      -3.299 -38.532 -11.195  1.00  0.00     0.294 C 
HETATM    4  C16 UNL     1      -3.808 -38.907 -12.565  1.00  0.00     0.269 C 
HETATM    5  C17 UNL     1      -5.318 -38.909 -12.618  1.00  0.00     0.193 C 
HETATM    6  C22 UNL     1      -5.816 -39.579 -11.344  1.00  0.00     0.180 C 
ENDROOT
BRANCH   3   7
HETATM    7  O2  UNL     1      -2.276 -37.570 -11.327  1.00  0.00    -0.349 OA
BRANCH   7   8
HETATM    8  C4  UNL     1      -2.751 -36.286 -11.388  1.00  0.00     0.165 C 
HETATM    9  C5  UNL     1      -1.889 -35.294 -10.639  1.00  0.00     0.072 C 
HETATM   10  C6  UNL     1      -2.134 -33.940 -11.314  1.00  0.00     0.204 C 
HETATM   11  C7  UNL     1      -1.432 -34.012 -12.650  1.00  0.00     0.155 C 
HETATM   12  N3  UNL     1      -1.924 -35.110 -13.386  1.00  0.00    -0.385 N 
HETATM   13  C15 UNL     1      -2.953 -35.886 -12.827  1.00  0.00     0.090 C 
BRANCH  10  14
HETATM   14  N2  UNL     1      -1.599 -32.887 -10.476  1.00  0.00    -0.073 N 
ATOM     15  H23 UNL     1      -2.019 -31.980 -10.681  1.00  0.00     0.274 HD
ATOM     16  H22 UNL     1      -1.903 -32.971  -9.506  1.00  0.00     0.274 HD
ATOM     17  H21 UNL     1      -0.583 -32.872 -10.563  1.00  0.00     0.274 HD
ENDBRANCH  10  14
BRANCH  12  18
HETATM   18  C8  UNL     1      -1.042 -35.735 -14.306  1.00  0.00     0.160 C 
BRANCH  18  19
HETATM   19  C9  UNL     1      -1.374 -35.251 -15.683  1.00  0.00    -0.040 A 
HETATM   20  C10 UNL     1      -2.442 -34.437 -15.957  1.00  0.00     0.009 A 
HETATM   21  C11 UNL     1      -2.672 -34.042 -17.256  1.00  0.00     0.001 A 
HETATM   22  C12 UNL     1      -1.843 -34.454 -18.281  1.00  0.00     0.000 A 
HETATM   23  C13 UNL     1      -0.767 -35.272 -18.019  1.00  0.00     0.001 A 
HETATM   24  C14 UNL     1      -0.555 -35.656 -16.716  1.00  0.00     0.009 A 
ENDBRANCH  18  19
ENDBRANCH  12  18
ENDBRANCH   7   8
ENDBRANCH   3   7
BRANCH   4  25
HETATM   25  N4  UNL     1      -3.346 -40.213 -12.967  1.00  0.00    -0.068 N 
ATOM     26  H43 UNL     1      -3.333 -40.306 -13.982  1.00  0.00     0.275 HD
ATOM     27  H42 UNL     1      -2.350 -40.327 -12.784  1.00  0.00     0.275 HD
ATOM     28  H41 UNL     1      -3.892 -40.957 -12.532  1.00  0.00     0.275 HD
ENDBRANCH   4  25
BRANCH   1  29
HETATM   29  C1  UNL     1      -6.514 -37.806  -9.818  1.00  0.00     0.264 C 
BRANCH  29  30
HETATM   30  N1  UNL     1      -6.799 -37.866  -8.397  1.00  0.00    -0.077 N 
ATOM     31  H13 UNL     1      -6.793 -38.826  -8.052  1.00  0.00     0.274 HD
ATOM     32  H12 UNL     1      -6.026 -37.498  -7.843  1.00  0.00     0.274 HD
ATOM     33  H11 UNL     1      -7.676 -37.394  -8.178  1.00  0.00     0.274 HD
ENDBRANCH  29  30
ENDBRANCH   1  29
BRANCH   5  34
HETATM   34  O3  UNL     1      -5.817 -39.477 -13.761  1.00  0.00    -0.334 OA
BRANCH  34  35
HETATM   35  C18 UNL     1      -5.890 -38.567 -14.815  1.00  0.00     0.372 C 
HETATM   36  N5  UNL     1      -5.640 -39.209 -16.081  1.00  0.00    -0.355 N 
HETATM   37  C19 UNL     1      -6.614 -39.749 -16.698  1.00  0.00     0.064 C 
ATOM     38  H5  UNL     1      -4.699 -39.230 -16.476  1.00  0.00     0.163 HD
HETATM   39  C20 UNL     1      -7.947 -39.672 -16.055  1.00  0.00     0.105 C 
HETATM   40  C21 UNL     1      -8.083 -38.246 -15.544  1.00  0.00     0.327 C 
HETATM   41  O4  UNL     1      -7.029 -37.809 -14.796  1.00  0.00    -0.310 OA
BRANCH  40  42
HETATM   42  N6  UNL     1      -9.368 -38.132 -14.902  1.00  0.00    -0.052 N 
ATOM     43  H63 UNL     1     -10.147 -38.258 -15.548  1.00  0.00     0.277 HD
ATOM     44  H62 UNL     1      -9.574 -38.919 -14.286  1.00  0.00     0.277 HD
ATOM     45  H61 UNL     1      -9.395 -37.234 -14.419  1.00  0.00     0.277 HD
ENDBRANCH  40  42
ENDBRANCH  34  35
ENDBRANCH   5  34
BRANCH   6  46
HETATM   46  O5  UNL     1      -5.386 -40.902 -11.270  1.00  0.00    -0.390 OA
ATOM     47  H5  UNL     1      -6.096 -41.525 -11.167  1.00  0.00     0.210 HD
ENDBRANCH   6  46
TORSDOF 12
ENDMDL
MODEL 2
REMARK VINA RESULT: -6.560659952      2.604      5.468
REMARK  12 active torsions:
REMARK  status: ('A' for Active; 'I' for Inactive)
REMARK    1  A    between atoms: N1_1  and  C1_5 
REMARK    2  A    between atoms: C1_5  and  C2_6 
REMARK    3  A    between atoms: C3_8  and  O2_9 
REMARK    4  A    between atoms: O2_9  and  C4_10 
REMARK    5  A    between atoms: C6_12  and  N2_13 
REMARK    6  A    between atoms: N3_18  and  C8_19 
REMARK    7  A    between atoms: C8_19  and  C9_20 
REMARK    8  A    between atoms: C16_27  and  N4_28 
REMARK    9  A    between atoms: C17_32  and  O3_33 
REMARK   10  A    between atoms: O3_33  and  C18_34 
REMARK   11  A    between atoms: C21_39  and  N6_40 
REMARK   12  A    between atoms: C22_45  and  O5_46 
ROOT
HETATM    1  C2  UNL     1      -5.546 -39.232 -13.084  1.00  0.00     0.181 C 
HETATM    2  O1  UNL     1      -5.389 -38.540 -11.917  1.00  0.00    -0.349 OA
HETATM    3  C3  UNL     1      -4.102 -38.221 -11.574  1.00  0.00     0.294 C 
HETATM    4  C16 UNL     1      -3.371 -37.441 -12.638  1.00  0.00     0.269 C 
HETATM    5  C17 UNL     1      -4.105 -37.476 -13.959  1.00  0.00     0.193 C 
HETATM    6  C22 UNL     1      -4.587 -38.905 -14.172  1.00  0.00     0.180 C 
ENDROOT
BRANCH   3   7
HETATM    7  O2  UNL     1      -4.165 -37.450 -10.394  1.00  0.00    -0.349 OA
BRANCH   7   8
HETATM    8  C4  UNL     1      -3.231 -37.818  -9.461  1.00  0.00     0.165 C 
HETATM    9  C5  UNL     1      -2.365 -38.975  -9.906  1.00  0.00     0.072 C 
HETATM   10  C6  UNL     1      -1.049 -38.829  -9.134  1.00  0.00     0.204 C 
HETATM   11  C7  UNL     1      -0.335 -37.651  -9.756  1.00  0.00     0.155 C 
HETATM   12  N3  UNL     1      -1.159 -36.508  -9.693  1.00  0.00    -0.385 N 
HETATM   13  C15 UNL     1      -2.410 -36.617  -9.064  1.00  0.00     0.090 C 
BRANCH  10  14
HETATM   14  N2  UNL     1      -0.286 -40.053  -9.257  1.00  0.00    -0.073 N 
ATOM     15  H23 UNL     1      -0.102 -40.487  -8.352  1.00  0.00     0.274 HD
ATOM     16  H22 UNL     1      -0.831 -40.809  -9.672  1.00  0.00     0.274 HD
ATOM     17  H21 UNL     1       0.571 -39.863  -9.777  1.00  0.00     0.274 HD
ENDBRANCH  10  14
BRANCH  12  18
HETATM   18  C8  UNL     1      -1.007 -35.530 -10.710  1.00  0.00     0.160 C 
BRANCH  18  19
HETATM   19  C9  UNL     1      -0.628 -34.233 -10.065  1.00  0.00    -0.040 A 
HETATM   20  C10 UNL     1       0.496 -34.075  -9.296  1.00  0.00     0.009 A 
HETATM   21  C11 UNL     1       0.763 -32.843  -8.741  1.00  0.00     0.001 A 
HETATM   22  C12 UNL     1      -0.083 -31.772  -8.948  1.00  0.00     0.000 A 
HETATM   23  C13 UNL     1      -1.215 -31.918  -9.717  1.00  0.00     0.001 A 
HETATM   24  C14 UNL     1      -1.465 -33.155 -10.263  1.00  0.00     0.009 A 
ENDBRANCH  18  19
ENDBRANCH  12  18
ENDBRANCH   7   8
ENDBRANCH   3   7
BRANCH   4  25
HETATM   25  N4  UNL     1      -2.040 -37.950 -12.854  1.00  0.00    -0.068 N 
ATOM     26  H43 UNL     1      -1.416 -37.223 -13.203  1.00  0.00     0.275 HD
ATOM     27  H42 UNL     1      -1.571 -38.152 -11.971  1.00  0.00     0.275 HD
ATOM     28  H41 UNL     1      -2.042 -38.764 -13.468  1.00  0.00     0.275 HD
ENDBRANCH   4  25
BRANCH   1  29
HETATM   29  C1  UNL     1      -6.956 -38.965 -13.588  1.00  0.00     0.264 C 
BRANCH  29  30
HETATM   30  N1  UNL     1      -7.823 -38.528 -12.510  1.00  0.00    -0.077 N 
ATOM     31  H13 UNL     1      -7.290 -38.275 -11.679  1.00  0.00     0.274 HD
ATOM     32  H12 UNL     1      -8.241 -37.619 -12.709  1.00  0.00     0.274 HD
ATOM     33  H11 UNL     1      -8.533 -39.230 -12.302  1.00  0.00     0.274 HD
ENDBRANCH  29  30
ENDBRANCH   1  29
BRANCH   5  34
HETATM   34  O3  UNL     1      -3.361 -36.992 -15.002  1.00  0.00    -0.334 OA
BRANCH  34  35
HETATM   35  C18 UNL     1      -3.420 -35.602 -15.095  1.00  0.00     0.372 C 
HETATM   36  N5  UNL     1      -2.385 -34.979 -14.307  1.00  0.00    -0.355 N 
HETATM   37  C19 UNL     1      -1.239 -34.800 -14.832  1.00  0.00     0.064 C 
ATOM     38  H5  UNL     1      -2.569 -34.687 -13.347  1.00  0.00     0.163 HD
HETATM   39  C20 UNL     1      -1.058 -35.253 -16.231  1.00  0.00     0.105 C 
HETATM   40  C21 UNL     1      -2.303 -34.802 -16.981  1.00  0.00     0.327 C 
HETATM   41  O4  UNL     1      -3.480 -35.149 -16.385  1.00  0.00    -0.310 OA
BRANCH  40  42
HETATM   42  N6  UNL     1      -2.169 -35.233 -18.349  1.00  0.00    -0.052 N 
ATOM     43  H63 UNL     1      -2.008 -34.459 -18.995  1.00  0.00     0.277 HD
ATOM     44  H62 UNL     1      -1.298 -35.737 -18.523  1.00  0.00     0.277 HD
ATOM     45  H61 UNL     1      -2.996 -35.780 -18.584  1.00  0.00     0.277 HD
ENDBRANCH  40  42
ENDBRANCH  34  35
ENDBRANCH   5  34
BRANCH   6  46
HETATM   46  O5  UNL     1      -3.515 -39.791 -14.251  1.00  0.00    -0.390 OA
ATOM     47  H5  UNL     1      -3.538 -40.343 -15.024  1.00  0.00     0.210 HD
ENDBRANCH   6  46
TORSDOF 12
ENDMDL
MODEL 3
REMARK VINA RESULT: -6.478914204      3.416      6.562
REMARK  12 active torsions:
REMARK  status: ('A' for Active; 'I' for Inactive)
REMARK    1  A    between atoms: N1_1  and  C1_5 
REMARK    2  A    between atoms: C1_5  and  C2_6 
REMARK    3  A    between atoms: C3_8  and  O2_9 
REMARK    4  A    between atoms: O2_9  and  C4_10 
REMARK    5  A    between atoms: C6_12  and  N2_13 
REMARK    6  A    between atoms: N3_18  and  C8_19 
REMARK    7  A    between atoms: C8_19  and  C9_20 
REMARK    8  A    between atoms: C16_27  and  N4_28 
REMARK    9  A    between atoms: C17_32  and  O3_33 
REMARK   10  A    between atoms: O3_33  and  C18_34 
REMARK   11  A    between atoms: C21_39  and  N6_40 
REMARK   12  A    between atoms: C22_45  and  O5_46 
ROOT
HETATM    1  C2  UNL     1      -1.336 -35.200 -15.629  1.00  0.00     0.181 C 
HETATM    2  O1  UNL     1      -1.056 -34.487 -14.497  1.00  0.00    -0.349 OA
HETATM    3  C3  UNL     1      -2.059 -33.681 -14.030  1.00  0.00     0.294 C 
HETATM    4  C16 UNL     1      -3.349 -34.416 -13.765  1.00  0.00     0.269 C 
HETATM    5  C17 UNL     1      -3.342 -35.796 -14.384  1.00  0.00     0.193 C 
HETATM    6  C22 UNL     1      -2.741 -35.665 -15.777  1.00  0.00     0.180 C 
ENDROOT
BRANCH   3   7
HETATM    7  O2  UNL     1      -1.601 -33.101 -12.829  1.00  0.00    -0.349 OA
BRANCH   7   8
HETATM    8  C4  UNL     1      -1.714 -33.938 -11.750  1.00  0.00     0.165 C 
HETATM    9  C5  UNL     1      -0.503 -34.819 -11.547  1.00  0.00     0.072 C 
HETATM   10  C6  UNL     1      -0.484 -35.160 -10.053  1.00  0.00     0.204 C 
HETATM   11  C7  UNL     1      -0.067 -33.893  -9.345  1.00  0.00     0.155 C 
HETATM   12  N3  UNL     1      -0.954 -32.848  -9.677  1.00  0.00    -0.385 N 
HETATM   13  C15 UNL     1      -2.044 -33.135 -10.517  1.00  0.00     0.090 C 
BRANCH  10  14
HETATM   14  N2  UNL     1       0.450 -36.243  -9.823  1.00  0.00    -0.073 N 
ATOM     15  H23 UNL     1       0.140 -36.869  -9.079  1.00  0.00     0.274 HD
ATOM     16  H22 UNL     1       0.455 -36.918 -10.587  1.00  0.00     0.274 HD
ATOM     17  H21 UNL     1       1.375 -35.855  -9.642  1.00  0.00     0.274 HD
ENDBRANCH  10  14
BRANCH  12  18
HETATM   18  C8  UNL     1      -0.444 -31.524  -9.677  1.00  0.00     0.160 C 
BRANCH  18  19
HETATM   19  C9  UNL     1       0.427 -31.354  -8.471  1.00  0.00    -0.040 A 
HETATM   20  C10 UNL     1       1.173 -32.370  -7.932  1.00  0.00     0.009 A 
HETATM   21  C11 UNL     1       1.945 -32.121  -6.820  1.00  0.00     0.001 A 
HETATM   22  C12 UNL     1       1.977 -30.867  -6.243  1.00  0.00     0.000 A 
HETATM   23  C13 UNL     1       1.233 -29.838  -6.774  1.00  0.00     0.001 A 
HETATM   24  C14 UNL     1       0.468 -30.106  -7.885  1.00  0.00     0.009 A 
ENDBRANCH  18  19
ENDBRANCH  12  18
ENDBRANCH   7   8
ENDBRANCH   3   7
BRANCH   4  25
HETATM   25  N4  UNL     1      -4.488 -33.701 -14.285  1.00  0.00    -0.068 N 
ATOM     26  H43 UNL     1      -5.246 -34.337 -14.531  1.00  0.00     0.275 HD
ATOM     27  H42 UNL     1      -4.958 -33.169 -13.553  1.00  0.00     0.275 HD
ATOM     28  H41 UNL     1      -4.233 -33.105 -15.072  1.00  0.00     0.275 HD
ENDBRANCH   4  25
BRANCH   1  29
HETATM   29  C1  UNL     1      -0.423 -36.418 -15.640  1.00  0.00     0.264 C 
BRANCH  29  30
HETATM   30  N1  UNL     1       0.466 -36.414 -14.494  1.00  0.00    -0.077 N 
ATOM     31  H13 UNL     1       1.195 -37.122 -14.582  1.00  0.00     0.274 HD
ATOM     32  H12 UNL     1       1.057 -35.583 -14.480  1.00  0.00     0.274 HD
ATOM     33  H11 UNL     1      -0.056 -36.519 -13.624  1.00  0.00     0.274 HD
ENDBRANCH  29  30
ENDBRANCH   1  29
BRANCH   5  34
HETATM   34  O3  UNL     1      -4.574 -36.396 -14.378  1.00  0.00    -0.334 OA
BRANCH  34  35
HETATM   35  C18 UNL     1      -4.490 -37.778 -14.538  1.00  0.00     0.372 C 
HETATM   36  N5  UNL     1      -4.549 -38.459 -13.268  1.00  0.00    -0.355 N 
HETATM   37  C19 UNL     1      -5.689 -38.751 -12.782  1.00  0.00     0.064 C 
ATOM     38  H5  UNL     1      -3.693 -38.703 -12.769  1.00  0.00     0.163 HD
HETATM   39  C20 UNL     1      -6.881 -38.362 -13.573  1.00  0.00     0.105 C 
HETATM   40  C21 UNL     1      -6.566 -38.732 -15.014  1.00  0.00     0.327 C 
HETATM   41  O4  UNL     1      -5.366 -38.268 -15.469  1.00  0.00    -0.310 OA
BRANCH  40  42
HETATM   42  N6  UNL     1      -7.701 -38.360 -15.819  1.00  0.00    -0.052 N 
ATOM     43  H63 UNL     1      -7.712 -37.368 -16.056  1.00  0.00     0.277 HD
ATOM     44  H62 UNL     1      -7.649 -38.725 -16.771  1.00  0.00     0.277 HD
ATOM     45  H61 UNL     1      -8.542 -38.659 -15.326  1.00  0.00     0.277 HD
ENDBRANCH  40  42
ENDBRANCH  34  35
ENDBRANCH   5  34
BRANCH   6  46
HETATM   46  O5  UNL     1      -3.516 -34.835 -16.584  1.00  0.00    -0.390 OA
ATOM     47  H5  UNL     1      -3.406 -35.001 -17.513  1.00  0.00     0.210 HD
ENDBRANCH   6  46
TORSDOF 12
ENDMDL
MODEL 4
REMARK VINA RESULT: -6.354833206      3.423      6.925
REMARK  12 active torsions:
REMARK  status: ('A' for Active; 'I' for Inactive)
REMARK    1  A    between atoms: N1_1  and  C1_5 
REMARK    2  A    between atoms: C1_5  and  C2_6 
REMARK    3  A    between atoms: C3_8  and  O2_9 
REMARK    4  A    between atoms: O2_9  and  C4_10 
REMARK    5  A    between atoms: C6_12  and  N2_13 
REMARK    6  A    between atoms: N3_18  and  C8_19 
REMARK    7  A    between atoms: C8_19  and  C9_20 
REMARK    8  A    between atoms: C16_27  and  N4_28 
REMARK    9  A    between atoms: C17_32  and  O3_33 
REMARK   10  A    between atoms: O3_33  and  C18_34 
REMARK   11  A    between atoms: C21_39  and  N6_40 
REMARK   12  A    between atoms: C22_45  and  O5_46 
ROOT
HETATM    1  C2  UNL     1      -3.846 -37.183 -10.588  1.00  0.00     0.181 C 
HETATM    2  O1  UNL     1      -3.006 -37.222 -11.665  1.00  0.00    -0.349 OA
HETATM    3  C3  UNL     1      -1.714 -36.832 -11.437  1.00  0.00     0.294 C 
HETATM    4  C16 UNL     1      -1.037 -37.610 -10.336  1.00  0.00     0.269 C 
HETATM    5  C17 UNL     1      -2.031 -38.405  -9.520  1.00  0.00     0.193 C 
HETATM    6  C22 UNL     1      -3.235 -37.506  -9.272  1.00  0.00     0.180 C 
ENDROOT
BRANCH   3   7
HETATM    7  O2  UNL     1      -1.004 -37.018 -12.641  1.00  0.00    -0.349 OA
BRANCH   7   8
HETATM    8  C4  UNL     1      -0.929 -35.882 -13.402  1.00  0.00     0.165 C 
HETATM    9  C5  UNL     1      -2.214 -35.567 -14.134  1.00  0.00     0.072 C 
HETATM   10  C6  UNL     1      -2.202 -34.051 -14.359  1.00  0.00     0.204 C 
HETATM   11  C7  UNL     1      -2.458 -33.431 -13.005  1.00  0.00     0.155 C 
HETATM   12  N3  UNL     1      -1.483 -33.876 -12.087  1.00  0.00    -0.385 N 
HETATM   13  C15 UNL     1      -0.466 -34.728 -12.548  1.00  0.00     0.090 C 
BRANCH  10  14
HETATM   14  N2  UNL     1      -3.230 -33.703 -15.317  1.00  0.00    -0.073 N 
ATOM     15  H23 UNL     1      -2.986 -33.986 -16.266  1.00  0.00     0.274 HD
ATOM     16  H22 UNL     1      -4.070 -34.272 -15.209  1.00  0.00     0.274 HD
ATOM     17  H21 UNL     1      -3.428 -32.705 -15.250  1.00  0.00     0.274 HD
ENDBRANCH  10  14
BRANCH  12  18
HETATM   18  C8  UNL     1      -1.856 -33.961 -10.720  1.00  0.00     0.160 C 
BRANCH  18  19
HETATM   19  C9  UNL     1      -1.108 -32.910  -9.960  1.00  0.00    -0.040 A 
HETATM   20  C10 UNL     1      -1.501 -31.599  -9.905  1.00  0.00     0.009 A 
HETATM   21  C11 UNL     1      -0.750 -30.701  -9.180  1.00  0.00     0.001 A 
HETATM   22  C12 UNL     1       0.389 -31.104  -8.512  1.00  0.00     0.000 A 
HETATM   23  C13 UNL     1       0.795 -32.418  -8.560  1.00  0.00     0.001 A 
HETATM   24  C14 UNL     1       0.031 -33.300  -9.289  1.00  0.00     0.009 A 
ENDBRANCH  18  19
ENDBRANCH  12  18
ENDBRANCH   7   8
ENDBRANCH   3   7
BRANCH   4  25
HETATM   25  N4  UNL     1      -0.314 -36.744  -9.437  1.00  0.00    -0.068 N 
ATOM     26  H43 UNL     1       0.662 -37.025  -9.355  1.00  0.00     0.275 HD
ATOM     27  H42 UNL     1      -0.180 -35.818  -9.841  1.00  0.00     0.275 HD
ATOM     28  H41 UNL     1      -0.764 -36.690  -8.523  1.00  0.00     0.275 HD
ENDBRANCH   4  25
BRANCH   1  29
HETATM   29  C1  UNL     1      -4.974 -38.170 -10.851  1.00  0.00     0.264 C 
BRANCH  29  30
HETATM   30  N1  UNL     1      -6.102 -37.919  -9.974  1.00  0.00    -0.077 N 
ATOM     31  H13 UNL     1      -5.829 -37.374  -9.156  1.00  0.00     0.274 HD
ATOM     32  H12 UNL     1      -6.760 -37.259 -10.388  1.00  0.00     0.274 HD
ATOM     33  H11 UNL     1      -6.561 -38.790  -9.708  1.00  0.00     0.274 HD
ENDBRANCH  29  30
ENDBRANCH   1  29
BRANCH   5  34
HETATM   34  O3  UNL     1      -1.494 -38.925  -8.372  1.00  0.00    -0.334 OA
BRANCH  34  35
HETATM   35  C18 UNL     1      -2.472 -39.293  -7.450  1.00  0.00     0.372 C 
HETATM   36  N5  UNL     1      -2.480 -40.719  -7.233  1.00  0.00    -0.355 N 
HETATM   37  C19 UNL     1      -1.701 -41.210  -6.354  1.00  0.00     0.064 C 
ATOM     38  H5  UNL     1      -3.099 -41.323  -7.774  1.00  0.00     0.163 HD
HETATM   39  C20 UNL     1      -0.836 -40.261  -5.612  1.00  0.00     0.105 C 
HETATM   40  C21 UNL     1      -1.725 -39.081  -5.249  1.00  0.00     0.327 C 
HETATM   41  O4  UNL     1      -2.429 -38.560  -6.295  1.00  0.00    -0.310 OA
BRANCH  40  42
HETATM   42  N6  UNL     1      -0.916 -38.129  -4.532  1.00  0.00    -0.052 N 
ATOM     43  H63 UNL     1      -1.097 -38.131  -3.528  1.00  0.00     0.277 HD
ATOM     44  H62 UNL     1       0.068 -38.395  -4.492  1.00  0.00     0.277 HD
ATOM     45  H61 UNL     1      -1.061 -37.214  -4.959  1.00  0.00     0.277 HD
ENDBRANCH  40  42
ENDBRANCH  34  35
ENDBRANCH   5  34
BRANCH   6  46
HETATM   46  O5  UNL     1      -2.878 -36.379  -8.535  1.00  0.00    -0.390 OA
ATOM     47  H5  UNL     1      -3.608 -35.800  -8.351  1.00  0.00     0.210 HD
ENDBRANCH   6  46
TORSDOF 12
ENDMDL
MODEL 5
REMARK VINA RESULT: -6.304312803      3.940      7.559
REMARK  12 active torsions:
REMARK  status: ('A' for Active; 'I' for Inactive)
REMARK    1  A    between atoms: N1_1  and  C1_5 
REMARK    2  A    between atoms: C1_5  and  C2_6 
REMARK    3  A    between atoms: C3_8  and  O2_9 
REMARK    4  A    between atoms: O2_9  and  C4_10 
REMARK    5  A    between atoms: C6_12  and  N2_13 
REMARK    6  A    between atoms: N3_18  and  C8_19 
REMARK    7  A    between atoms: C8_19  and  C9_20 
REMARK    8  A    between atoms: C16_27  and  N4_28 
REMARK    9  A    between atoms: C17_32  and  O3_33 
REMARK   10  A    between atoms: O3_33  and  C18_34 
REMARK   11  A    between atoms: C21_39  and  N6_40 
REMARK   12  A    between atoms: C22_45  and  O5_46 
ROOT
HETATM    1  C2  UNL     1       0.192 -39.527 -10.552  1.00  0.00     0.181 C 
HETATM    2  O1  UNL     1      -0.081 -38.616 -11.533  1.00  0.00    -0.349 OA
HETATM    3  C3  UNL     1      -0.867 -37.556 -11.169  1.00  0.00     0.294 C 
HETATM    4  C16 UNL     1      -0.323 -36.776  -9.999  1.00  0.00     0.269 C 
HETATM    5  C17 UNL     1       0.780 -37.529  -9.291  1.00  0.00     0.193 C 
HETATM    6  C22 UNL     1       0.337 -38.982  -9.176  1.00  0.00     0.180 C 
ENDROOT
BRANCH   3   7
HETATM    7  O2  UNL     1      -0.963 -36.705 -12.290  1.00  0.00    -0.349 OA
BRANCH   7   8
HETATM    8  C4  UNL     1      -1.605 -35.526 -12.017  1.00  0.00     0.165 C 
HETATM    9  C5  UNL     1      -0.912 -34.318 -12.606  1.00  0.00     0.072 C 
HETATM   10  C6  UNL     1      -2.008 -33.263 -12.795  1.00  0.00     0.204 C 
HETATM   11  C7  UNL     1      -2.842 -33.740 -13.962  1.00  0.00     0.155 C 
HETATM   12  N3  UNL     1      -3.339 -35.033 -13.694  1.00  0.00    -0.385 N 
HETATM   13  C15 UNL     1      -3.046 -35.620 -12.452  1.00  0.00     0.090 C 
BRANCH  10  14
HETATM   14  N2  UNL     1      -1.393 -31.979 -13.057  1.00  0.00    -0.073 N 
ATOM     15  H23 UNL     1      -0.476 -32.071 -13.494  1.00  0.00     0.274 HD
ATOM     16  H22 UNL     1      -1.860 -31.472 -13.809  1.00  0.00     0.274 HD
ATOM     17  H21 UNL     1      -1.358 -31.441 -12.191  1.00  0.00     0.274 HD
ENDBRANCH  10  14
BRANCH  12  18
HETATM   18  C8  UNL     1      -3.571 -35.891 -14.800  1.00  0.00     0.160 C 
BRANCH  18  19
HETATM   19  C9  UNL     1      -2.479 -35.678 -15.801  1.00  0.00    -0.040 A 
HETATM   20  C10 UNL     1      -1.234 -36.241 -15.690  1.00  0.00     0.009 A 
HETATM   21  C11 UNL     1      -0.291 -35.988 -16.660  1.00  0.00     0.001 A 
HETATM   22  C12 UNL     1      -0.582 -35.177 -17.739  1.00  0.00     0.000 A 
HETATM   23  C13 UNL     1      -1.827 -34.604 -17.863  1.00  0.00     0.001 A 
HETATM   24  C14 UNL     1      -2.756 -34.869 -16.884  1.00  0.00     0.009 A 
ENDBRANCH  18  19
ENDBRANCH  12  18
ENDBRANCH   7   8
ENDBRANCH   3   7
BRANCH   4  25
HETATM   25  N4  UNL     1      -1.349 -36.477  -9.032  1.00  0.00    -0.068 N 
ATOM     26  H43 UNL     1      -1.327 -37.133  -8.251  1.00  0.00     0.275 HD
ATOM     27  H42 UNL     1      -1.143 -35.618  -8.524  1.00  0.00     0.275 HD
ATOM     28  H41 UNL     1      -2.274 -36.441  -9.461  1.00  0.00     0.275 HD
ENDBRANCH   4  25
BRANCH   1  29
HETATM   29  C1  UNL     1       1.487 -40.232 -10.929  1.00  0.00     0.264 C 
BRANCH  29  30
HETATM   30  N1  UNL     1       2.398 -40.287  -9.801  1.00  0.00    -0.077 N 
ATOM     31  H13 UNL     1       2.682 -39.355  -9.501  1.00  0.00     0.274 HD
ATOM     32  H12 UNL     1       1.923 -40.587  -8.949  1.00  0.00     0.274 HD
ATOM     33  H11 UNL     1       3.204 -40.876 -10.010  1.00  0.00     0.274 HD
ENDBRANCH  29  30
ENDBRANCH   1  29
BRANCH   5  34
HETATM   34  O3  UNL     1       1.129 -36.971  -8.089  1.00  0.00    -0.334 OA
BRANCH  34  35
HETATM   35  C18 UNL     1       2.001 -35.894  -8.240  1.00  0.00     0.372 C 
HETATM   36  N5  UNL     1       2.152 -35.163  -7.005  1.00  0.00    -0.355 N 
HETATM   37  C19 UNL     1       3.034 -35.547  -6.170  1.00  0.00     0.064 C 
ATOM     38  H5  UNL     1       1.564 -34.355  -6.805  1.00  0.00     0.163 HD
HETATM   39  C20 UNL     1       3.846 -36.730  -6.541  1.00  0.00     0.105 C 
HETATM   40  C21 UNL     1       4.233 -36.532  -7.999  1.00  0.00     0.327 C 
HETATM   41  O4  UNL     1       3.189 -36.237  -8.827  1.00  0.00    -0.310 OA
BRANCH  40  42
HETATM   42  N6  UNL     1       5.019 -37.671  -8.401  1.00  0.00    -0.052 N 
ATOM     43  H63 UNL     1       4.519 -38.296  -9.033  1.00  0.00     0.277 HD
ATOM     44  H62 UNL     1       5.781 -37.423  -9.032  1.00  0.00     0.277 HD
ATOM     45  H61 UNL     1       5.342 -38.138  -7.554  1.00  0.00     0.277 HD
ENDBRANCH  40  42
ENDBRANCH  34  35
ENDBRANCH   5  34
BRANCH   6  46
HETATM   46  O5  UNL     1      -0.822 -39.095  -8.411  1.00  0.00    -0.390 OA
ATOM     47  H5  UNL     1      -0.715 -39.643  -7.642  1.00  0.00     0.210 HD
ENDBRANCH   6  46
TORSDOF 12
ENDMDL
