MODEL 1
REMARK VINA RESULT: -7.330732228      0.000      0.000
REMARK  5 active torsions:
REMARK  status: ('A' for Active; 'I' for Inactive)
REMARK    1  A    between atoms: C1_2  and  C2_3 
REMARK       I    between atoms: C1_2  and  N4_20 
REMARK    2  A    between atoms: C2_3  and  S1_4 
REMARK    3  A    between atoms: S1_4  and  C3_5 
REMARK    4  A    between atoms: N3_11  and  C5_13 
REMARK    5  A    between atoms: C5_13  and  C6_14 
ROOT
HETATM    1  C3  UNL     1      -2.184   2.350  11.464  1.00  0.00     0.130 A 
HETATM    2  N1  UNL     1      -1.848   3.077  12.515  1.00  0.00    -0.286 N 
ATOM      3  H1  UNL     1      -2.374   2.982  13.384  1.00  0.00     0.188 HD
HETATM    4  N2  UNL     1      -0.877   3.893  12.452  1.00  0.00    -0.279 N 
ATOM      5  H2  UNL     1      -0.619   4.453  13.265  1.00  0.00     0.189 HD
HETATM    6  C4  UNL     1      -0.199   4.008  11.310  1.00  0.00     0.161 A 
HETATM    7  N3  UNL     1       0.822   4.762  10.992  1.00  0.00    -0.367 N 
ATOM      8  H3  UNL     1       1.194   4.695  10.046  1.00  0.00     0.161 HD
HETATM    9  S2  UNL     1      -1.036   2.870  10.314  1.00  0.00    -0.027 SA
ENDROOT
BRANCH   1  10
HETATM   10  S1  UNL     1      -3.524   1.145  11.348  1.00  0.00    -0.094 SA
BRANCH  10  11
HETATM   11  C2  UNL     1      -4.849   1.753  12.461  1.00  0.00     0.184 C 
BRANCH  11  12
HETATM   12  C1  UNL     1      -4.722   0.994  13.709  1.00  0.00     0.229 C 
HETATM   13  O1  UNL     1      -4.468  -0.250  13.659  1.00  0.00    -0.273 OA
HETATM   14  N4  UNL     1      -4.872   1.598  14.963  1.00  0.00    -0.351 N 
HETATM   15  C10 UNL     1      -5.145   3.003  15.091  1.00  0.00     0.125 C 
HETATM   16  C14 UNL     1      -4.765   0.838  16.193  1.00  0.00     0.125 C 
HETATM   17  C11 UNL     1      -6.473   3.207  15.793  1.00  0.00     0.020 C 
HETATM   18  C12 UNL     1      -6.574   2.379  17.052  1.00  0.00     0.003 C 
HETATM   19  C13 UNL     1      -6.068   0.986  16.923  1.00  0.00     0.020 C 
ENDBRANCH  11  12
ENDBRANCH  10  11
ENDBRANCH   1  10
BRANCH   7  20
HETATM   20  C5  UNL     1       1.438   5.668  11.889  1.00  0.00     0.153 C 
BRANCH  20  21
HETATM   21  C6  UNL     1       2.921   5.773  11.521  1.00  0.00     0.139 C 
HETATM   22  C7  UNL     1       3.443   6.960  12.314  1.00  0.00     0.035 C 
HETATM   23  C8  UNL     1       4.156   6.228  13.460  1.00  0.00     0.029 C 
HETATM   24  C9  UNL     1       4.680   5.021  12.675  1.00  0.00     0.168 C 
HETATM   25  O2  UNL     1       3.532   4.637  11.988  1.00  0.00    -0.384 OA
ENDBRANCH  20  21
ENDBRANCH   7  20
TORSDOF 5
ENDMDL
MODEL 2
REMARK VINA RESULT: -7.243606681      4.195      8.157
REMARK  5 active torsions:
REMARK  status: ('A' for Active; 'I' for Inactive)
REMARK    1  A    between atoms: C1_2  and  C2_3 
REMARK       I    between atoms: C1_2  and  N4_20 
REMARK    2  A    between atoms: C2_3  and  S1_4 
REMARK    3  A    between atoms: S1_4  and  C3_5 
REMARK    4  A    between atoms: N3_11  and  C5_13 
REMARK    5  A    between atoms: C5_13  and  C6_14 
ROOT
HETATM    1  C3  UNL     1      -3.383   2.763  12.027  1.00  0.00     0.130 A 
HETATM    2  N1  UNL     1      -2.916   3.146  13.202  1.00  0.00    -0.286 N 
ATOM      3  H1  UNL     1      -2.257   3.922  13.256  1.00  0.00     0.188 HD
HETATM    4  N2  UNL     1      -3.281   2.554  14.266  1.00  0.00    -0.279 N 
ATOM      5  H2  UNL     1      -2.919   2.852  15.172  1.00  0.00     0.189 HD
HETATM    6  C4  UNL     1      -4.142   1.541  14.181  1.00  0.00     0.161 A 
HETATM    7  N3  UNL     1      -4.664   0.781  15.111  1.00  0.00    -0.367 N 
ATOM      8  H3  UNL     1      -5.313   0.049  14.825  1.00  0.00     0.161 HD
HETATM    9  S2  UNL     1      -4.408   1.475  12.475  1.00  0.00    -0.027 SA
ENDROOT
BRANCH   1  10
HETATM   10  S1  UNL     1      -2.989   3.464  10.410  1.00  0.00    -0.094 SA
BRANCH  10  11
HETATM   11  C2  UNL     1      -3.074   5.285  10.614  1.00  0.00     0.184 C 
BRANCH  11  12
HETATM   12  C1  UNL     1      -4.493   5.618  10.777  1.00  0.00     0.229 C 
HETATM   13  O1  UNL     1      -5.373   4.742  10.508  1.00  0.00    -0.273 OA
HETATM   14  N4  UNL     1      -4.913   6.876  11.223  1.00  0.00    -0.351 N 
HETATM   15  C10 UNL     1      -3.969   7.907  11.559  1.00  0.00     0.125 C 
HETATM   16  C14 UNL     1      -6.318   7.205  11.363  1.00  0.00     0.125 C 
HETATM   17  C11 UNL     1      -4.179   9.110  10.662  1.00  0.00     0.020 C 
HETATM   18  C12 UNL     1      -5.633   9.515  10.601  1.00  0.00     0.003 C 
HETATM   19  C13 UNL     1      -6.590   8.384  10.474  1.00  0.00     0.020 C 
ENDBRANCH  11  12
ENDBRANCH  10  11
ENDBRANCH   1  10
BRANCH   7  20
HETATM   20  C5  UNL     1      -4.377   0.919  16.490  1.00  0.00     0.153 C 
BRANCH  20  21
HETATM   21  C6  UNL     1      -5.635   0.547  17.281  1.00  0.00     0.139 C 
HETATM   22  C7  UNL     1      -5.963   1.780  18.107  1.00  0.00     0.035 C 
HETATM   23  C8  UNL     1      -7.108   2.370  17.271  1.00  0.00     0.029 C 
HETATM   24  C9  UNL     1      -7.758   1.061  16.809  1.00  0.00     0.168 C 
HETATM   25  O2  UNL     1      -6.641   0.356  16.368  1.00  0.00    -0.384 OA
ENDBRANCH  20  21
ENDBRANCH   7  20
TORSDOF 5
ENDMDL
MODEL 3
REMARK VINA RESULT: -7.228176006      1.030      1.077
REMARK  5 active torsions:
REMARK  status: ('A' for Active; 'I' for Inactive)
REMARK    1  A    between atoms: C1_2  and  C2_3 
REMARK       I    between atoms: C1_2  and  N4_20 
REMARK    2  A    between atoms: C2_3  and  S1_4 
REMARK    3  A    between atoms: S1_4  and  C3_5 
REMARK    4  A    between atoms: N3_11  and  C5_13 
REMARK    5  A    between atoms: C5_13  and  C6_14 
ROOT
HETATM    1  C3  UNL     1      -2.759   2.486  11.159  1.00  0.00     0.130 A 
HETATM    2  N1  UNL     1      -1.698   1.869  11.648  1.00  0.00    -0.286 N 
ATOM      3  H1  UNL     1      -1.809   0.977  12.130  1.00  0.00     0.188 HD
HETATM    4  N2  UNL     1      -0.541   2.377  11.524  1.00  0.00    -0.279 N 
ATOM      5  H2  UNL     1       0.277   1.899  11.902  1.00  0.00     0.189 HD
HETATM    6  C4  UNL     1      -0.409   3.544  10.893  1.00  0.00     0.161 A 
HETATM    7  N3  UNL     1       0.653   4.265  10.638  1.00  0.00    -0.367 N 
ATOM      8  H3  UNL     1       0.529   5.143  10.135  1.00  0.00     0.161 HD
HETATM    9  S2  UNL     1      -2.053   3.883  10.480  1.00  0.00    -0.027 SA
ENDROOT
BRANCH   1  10
HETATM   10  S1  UNL     1      -4.478   1.937  11.234  1.00  0.00    -0.094 SA
BRANCH  10  11
HETATM   11  C2  UNL     1      -5.139   2.560  12.827  1.00  0.00     0.184 C 
BRANCH  11  12
HETATM   12  C1  UNL     1      -4.851   1.526  13.827  1.00  0.00     0.229 C 
HETATM   13  O1  UNL     1      -4.461   0.380  13.443  1.00  0.00    -0.273 OA
HETATM   14  N4  UNL     1      -4.994   1.762  15.199  1.00  0.00    -0.351 N 
HETATM   15  C10 UNL     1      -5.416   3.040  15.702  1.00  0.00     0.125 C 
HETATM   16  C14 UNL     1      -4.726   0.729  16.182  1.00  0.00     0.125 C 
HETATM   17  C11 UNL     1      -6.714   2.887  16.469  1.00  0.00     0.020 C 
HETATM   18  C12 UNL     1      -6.644   1.757  17.467  1.00  0.00     0.003 C 
HETATM   19  C13 UNL     1      -5.992   0.519  16.962  1.00  0.00     0.020 C 
ENDBRANCH  11  12
ENDBRANCH  10  11
ENDBRANCH   1  10
BRANCH   7  20
HETATM   20  C5  UNL     1       1.964   3.895  11.024  1.00  0.00     0.153 C 
BRANCH  20  21
HETATM   21  C6  UNL     1       2.861   5.132  10.921  1.00  0.00     0.139 C 
HETATM   22  C7  UNL     1       2.820   5.768  12.301  1.00  0.00     0.035 C 
HETATM   23  C8  UNL     1       4.168   5.289  12.860  1.00  0.00     0.029 C 
HETATM   24  C9  UNL     1       4.989   5.345  11.568  1.00  0.00     0.168 C 
HETATM   25  O2  UNL     1       4.136   4.685  10.687  1.00  0.00    -0.384 OA
ENDBRANCH  20  21
ENDBRANCH   7  20
TORSDOF 5
ENDMDL
MODEL 4
REMARK VINA RESULT: -7.096994199      4.112      7.973
REMARK  5 active torsions:
REMARK  status: ('A' for Active; 'I' for Inactive)
REMARK    1  A    between atoms: C1_2  and  C2_3 
REMARK       I    between atoms: C1_2  and  N4_20 
REMARK    2  A    between atoms: C2_3  and  S1_4 
REMARK    3  A    between atoms: S1_4  and  C3_5 
REMARK    4  A    between atoms: N3_11  and  C5_13 
REMARK    5  A    between atoms: C5_13  and  C6_14 
ROOT
HETATM    1  C3  UNL     1      -2.550   4.047  12.598  1.00  0.00     0.130 A 
HETATM    2  N1  UNL     1      -2.940   2.810  12.346  1.00  0.00    -0.286 N 
ATOM      3  H1  UNL     1      -2.845   2.432  11.404  1.00  0.00     0.188 HD
HETATM    4  N2  UNL     1      -3.432   2.088  13.268  1.00  0.00    -0.279 N 
ATOM      5  H2  UNL     1      -3.731   1.132  13.072  1.00  0.00     0.189 HD
HETATM    6  C4  UNL     1      -3.550   2.594  14.495  1.00  0.00     0.161 A 
HETATM    7  N3  UNL     1      -4.017   2.066  15.598  1.00  0.00    -0.367 N 
ATOM      8  H3  UNL     1      -4.018   2.638  16.443  1.00  0.00     0.161 HD
HETATM    9  S2  UNL     1      -2.913   4.183  14.259  1.00  0.00    -0.027 SA
ENDROOT
BRANCH   1  10
HETATM   10  S1  UNL     1      -1.836   5.230  11.435  1.00  0.00    -0.094 SA
BRANCH  10  11
HETATM   11  C2  UNL     1      -3.048   5.390  10.068  1.00  0.00     0.184 C 
BRANCH  11  12
HETATM   12  C1  UNL     1      -4.369   5.492  10.696  1.00  0.00     0.229 C 
HETATM   13  O1  UNL     1      -5.101   4.457  10.781  1.00  0.00    -0.273 OA
HETATM   14  N4  UNL     1      -4.855   6.700  11.210  1.00  0.00    -0.351 N 
HETATM   15  C10 UNL     1      -4.073   7.905  11.161  1.00  0.00     0.125 C 
HETATM   16  C14 UNL     1      -6.170   6.798  11.812  1.00  0.00     0.125 C 
HETATM   17  C11 UNL     1      -4.799   8.956  10.344  1.00  0.00     0.020 C 
HETATM   18  C12 UNL     1      -6.240   9.100  10.771  1.00  0.00     0.003 C 
HETATM   19  C13 UNL     1      -6.945   7.815  11.026  1.00  0.00     0.020 C 
ENDBRANCH  11  12
ENDBRANCH  10  11
ENDBRANCH   1  10
BRANCH   7  20
HETATM   20  C5  UNL     1      -4.520   0.746  15.685  1.00  0.00     0.153 C 
BRANCH  20  21
HETATM   21  C6  UNL     1      -5.420   0.656  16.921  1.00  0.00     0.139 C 
HETATM   22  C7  UNL     1      -5.653   2.096  17.347  1.00  0.00     0.035 C 
HETATM   23  C8  UNL     1      -7.066   2.318  16.788  1.00  0.00     0.029 C 
HETATM   24  C9  UNL     1      -7.636   0.917  17.032  1.00  0.00     0.168 C 
HETATM   25  O2  UNL     1      -6.616   0.126  16.510  1.00  0.00    -0.384 OA
ENDBRANCH  20  21
ENDBRANCH   7  20
TORSDOF 5
ENDMDL
MODEL 5
REMARK VINA RESULT: -7.056554847      3.153      7.061
REMARK  5 active torsions:
REMARK  status: ('A' for Active; 'I' for Inactive)
REMARK    1  A    between atoms: C1_2  and  C2_3 
REMARK       I    between atoms: C1_2  and  N4_20 
REMARK    2  A    between atoms: C2_3  and  S1_4 
REMARK    3  A    between atoms: S1_4  and  C3_5 
REMARK    4  A    between atoms: N3_11  and  C5_13 
REMARK    5  A    between atoms: C5_13  and  C6_14 
ROOT
HETATM    1  C3  UNL     1      -2.899   3.183  11.001  1.00  0.00     0.130 A 
HETATM    2  N1  UNL     1      -2.196   2.663  11.991  1.00  0.00    -0.286 N 
ATOM      3  H1  UNL     1      -1.184   2.784  12.010  1.00  0.00     0.188 HD
HETATM    4  N2  UNL     1      -2.770   2.013  12.919  1.00  0.00    -0.279 N 
ATOM      5  H2  UNL     1      -2.225   1.613  13.683  1.00  0.00     0.189 HD
HETATM    6  C4  UNL     1      -4.094   1.862  12.882  1.00  0.00     0.161 A 
HETATM    7  N3  UNL     1      -4.909   1.247  13.701  1.00  0.00    -0.367 N 
ATOM      8  H3  UNL     1      -5.905   1.250  13.481  1.00  0.00     0.161 HD
HETATM    9  S2  UNL     1      -4.482   2.710  11.427  1.00  0.00    -0.027 SA
ENDROOT
BRANCH   1  10
HETATM   10  S1  UNL     1      -2.278   4.130   9.594  1.00  0.00    -0.094 SA
BRANCH  10  11
HETATM   11  C2  UNL     1      -2.144   5.865  10.173  1.00  0.00     0.184 C 
BRANCH  11  12
HETATM   12  C1  UNL     1      -1.795   5.802  11.596  1.00  0.00     0.229 C 
HETATM   13  O1  UNL     1      -0.647   5.377  11.937  1.00  0.00    -0.273 OA
HETATM   14  N4  UNL     1      -2.690   6.195  12.597  1.00  0.00    -0.351 N 
HETATM   15  C10 UNL     1      -3.998   6.700  12.279  1.00  0.00     0.125 C 
HETATM   16  C14 UNL     1      -2.346   6.111  14.003  1.00  0.00     0.125 C 
HETATM   17  C11 UNL     1      -5.056   5.801  12.887  1.00  0.00     0.020 C 
HETATM   18  C12 UNL     1      -4.777   5.512  14.342  1.00  0.00     0.003 C 
HETATM   19  C13 UNL     1      -3.355   5.211  14.655  1.00  0.00     0.020 C 
ENDBRANCH  11  12
ENDBRANCH  10  11
ENDBRANCH   1  10
BRANCH   7  20
HETATM   20  C5  UNL     1      -4.486   0.577  14.874  1.00  0.00     0.153 C 
BRANCH  20  21
HETATM   21  C6  UNL     1      -4.666   1.529  16.061  1.00  0.00     0.139 C 
HETATM   22  C7  UNL     1      -5.983   2.242  15.800  1.00  0.00     0.035 C 
HETATM   23  C8  UNL     1      -6.904   1.468  16.754  1.00  0.00     0.029 C 
HETATM   24  C9  UNL     1      -5.908   1.223  17.892  1.00  0.00     0.168 C 
HETATM   25  O2  UNL     1      -4.808   0.752  17.181  1.00  0.00    -0.384 OA
ENDBRANCH  20  21
ENDBRANCH   7  20
TORSDOF 5
ENDMDL
