MODEL 1
REMARK VINA RESULT: -7.331822159      0.000      0.000
REMARK  6 active torsions:
REMARK  status: ('A' for Active; 'I' for Inactive)
REMARK    1  A    between atoms: C2_2  and  C3_3 
REMARK    2  A    between atoms: C2_2  and  C12_18 
REMARK    3  A    between atoms: C3_3  and  C4_4 
REMARK    4  A    between atoms: C4_4  and  C5_5 
REMARK    5  A    between atoms: C5_5  and  N1_6 
REMARK    6  A    between atoms: C12_18  and  O5_21 
ROOT
HETATM    1  N1  UNL     1      -4.712   4.658  13.513  1.00  0.00     0.090 N 
HETATM    2  C6  UNL     1      -4.882   5.694  12.545  1.00  0.00     0.298 C 
HETATM    3  C7  UNL     1      -4.729   5.295  11.116  1.00  0.00     0.201 C 
HETATM    4  O1  UNL     1      -4.163   4.083  10.865  1.00  0.00    -0.357 OA
HETATM    5  C8  UNL     1      -2.787   4.194  10.571  1.00  0.00     0.299 C 
HETATM    6  O2  UNL     1      -2.278   3.160   9.814  1.00  0.00    -0.241 OA
HETATM    7  S1  UNL     1      -1.049   2.591  10.795  1.00  0.00     0.276 S 
HETATM    8  O3  UNL     1       0.332   3.012  10.392  1.00  0.00    -0.198 OA
HETATM    9  O4  UNL     1      -1.191   1.185  11.242  1.00  0.00    -0.198 OA
HETATM   10  C9  UNL     1      -1.956   3.757  11.746  1.00  0.00     0.194 C 
HETATM   11  C10 UNL     1      -2.917   3.129  12.752  1.00  0.00     0.057 C 
HETATM   12  C11 UNL     1      -3.342   4.255  13.676  1.00  0.00     0.274 C 
ENDROOT
BRANCH   1  13
HETATM   13  C5  UNL     1      -5.187   5.098  14.799  1.00  0.00     0.272 C 
BRANCH  13  14
HETATM   14  C4  UNL     1      -6.309   4.319  15.386  1.00  0.00     0.031 C 
BRANCH  14  15
HETATM   15  C3  UNL     1      -6.125   2.842  15.339  1.00  0.00     0.009 C 
BRANCH  15  16
HETATM   16  C2  UNL     1      -5.325   2.331  16.475  1.00  0.00     0.015 C 
HETATM   17  C1  UNL     1      -4.133   1.534  16.027  1.00  0.00     0.013 C 
BRANCH  16  18
HETATM   18  C12 UNL     1      -6.129   1.453  17.420  1.00  0.00     0.054 C 
HETATM   19  C13 UNL     1      -6.259   2.167  18.739  1.00  0.00     0.045 C 
HETATM   20  C14 UNL     1      -7.460   1.055  16.872  1.00  0.00     0.045 C 
BRANCH  18  21
HETATM   21  O5  UNL     1      -5.417   0.264  17.655  1.00  0.00    -0.390 OA
ATOM     22  H5  UNL     1      -5.621  -0.358  16.967  1.00  0.00     0.210 HD
ENDBRANCH  18  21
ENDBRANCH  16  18
ENDBRANCH  15  16
ENDBRANCH  14  15
ENDBRANCH  13  14
ENDBRANCH   1  13
TORSDOF 6
ENDMDL
MODEL 2
REMARK VINA RESULT: -7.290499624      3.115      6.814
REMARK  6 active torsions:
REMARK  status: ('A' for Active; 'I' for Inactive)
REMARK    1  A    between atoms: C2_2  and  C3_3 
REMARK    2  A    between atoms: C2_2  and  C12_18 
REMARK    3  A    between atoms: C3_3  and  C4_4 
REMARK    4  A    between atoms: C4_4  and  C5_5 
REMARK    5  A    between atoms: C5_5  and  N1_6 
REMARK    6  A    between atoms: C12_18  and  O5_21 
ROOT
HETATM    1  N1  UNL     1      -3.997   4.329  12.797  1.00  0.00     0.090 N 
HETATM    2  C6  UNL     1      -3.492   5.109  13.880  1.00  0.00     0.298 C 
HETATM    3  C7  UNL     1      -2.669   4.383  14.891  1.00  0.00     0.201 C 
HETATM    4  O1  UNL     1      -2.710   3.023  14.866  1.00  0.00    -0.357 OA
HETATM    5  C8  UNL     1      -3.618   2.506  15.815  1.00  0.00     0.299 C 
HETATM    6  O2  UNL     1      -3.348   1.218  16.224  1.00  0.00    -0.241 OA
HETATM    7  S1  UNL     1      -4.773   0.431  15.842  1.00  0.00     0.276 S 
HETATM    8  O3  UNL     1      -5.682   0.164  17.003  1.00  0.00    -0.198 OA
HETATM    9  O4  UNL     1      -4.648  -0.667  14.853  1.00  0.00    -0.198 OA
HETATM   10  C9  UNL     1      -4.880   2.038  15.142  1.00  0.00     0.194 C 
HETATM   11  C10 UNL     1      -4.617   2.083  13.639  1.00  0.00     0.057 C 
HETATM   12  C11 UNL     1      -5.071   3.456  13.180  1.00  0.00     0.274 C 
ENDROOT
BRANCH   1  13
HETATM   13  C5  UNL     1      -4.492   5.190  11.754  1.00  0.00     0.272 C 
BRANCH  13  14
HETATM   14  C4  UNL     1      -5.096   6.475  12.194  1.00  0.00     0.031 C 
BRANCH  14  15
HETATM   15  C3  UNL     1      -5.010   7.571  11.190  1.00  0.00     0.009 C 
BRANCH  15  16
HETATM   16  C2  UNL     1      -6.340   8.013  10.713  1.00  0.00     0.015 C 
HETATM   17  C1  UNL     1      -7.449   7.610  11.643  1.00  0.00     0.013 C 
BRANCH  16  18
HETATM   18  C12 UNL     1      -6.686   7.473   9.335  1.00  0.00     0.054 C 
HETATM   19  C13 UNL     1      -7.870   8.237   8.806  1.00  0.00     0.045 C 
HETATM   20  C14 UNL     1      -5.537   7.501   8.381  1.00  0.00     0.045 C 
BRANCH  18  21
HETATM   21  O5  UNL     1      -7.075   6.127   9.457  1.00  0.00    -0.390 OA
ATOM     22  H5  UNL     1      -7.798   5.961   8.863  1.00  0.00     0.210 HD
ENDBRANCH  18  21
ENDBRANCH  16  18
ENDBRANCH  15  16
ENDBRANCH  14  15
ENDBRANCH  13  14
ENDBRANCH   1  13
TORSDOF 6
ENDMDL
MODEL 3
REMARK VINA RESULT: -7.213962355      3.112      7.034
REMARK  6 active torsions:
REMARK  status: ('A' for Active; 'I' for Inactive)
REMARK    1  A    between atoms: C2_2  and  C3_3 
REMARK    2  A    between atoms: C2_2  and  C12_18 
REMARK    3  A    between atoms: C3_3  and  C4_4 
REMARK    4  A    between atoms: C4_4  and  C5_5 
REMARK    5  A    between atoms: C5_5  and  N1_6 
REMARK    6  A    between atoms: C12_18  and  O5_21 
ROOT
HETATM    1  N1  UNL     1      -4.453   4.007  13.209  1.00  0.00     0.090 N 
HETATM    2  C6  UNL     1      -3.376   3.134  12.871  1.00  0.00     0.298 C 
HETATM    3  C7  UNL     1      -3.659   1.671  12.951  1.00  0.00     0.201 C 
HETATM    4  O1  UNL     1      -4.791   1.292  13.607  1.00  0.00    -0.357 OA
HETATM    5  C8  UNL     1      -4.525   0.913  14.940  1.00  0.00     0.299 C 
HETATM    6  O2  UNL     1      -5.450   0.048  15.485  1.00  0.00    -0.241 OA
HETATM    7  S1  UNL     1      -5.961   0.897  16.832  1.00  0.00     0.276 S 
HETATM    8  O3  UNL     1      -5.380   0.432  18.133  1.00  0.00    -0.198 OA
HETATM    9  O4  UNL     1      -7.402   1.246  16.856  1.00  0.00    -0.198 OA
HETATM   10  C9  UNL     1      -4.957   1.992  15.895  1.00  0.00     0.194 C 
HETATM   11  C10 UNL     1      -5.743   3.013  15.076  1.00  0.00     0.057 C 
HETATM   12  C11 UNL     1      -4.729   4.045  14.619  1.00  0.00     0.274 C 
ENDROOT
BRANCH   1  13
HETATM   13  C5  UNL     1      -4.150   5.352  12.794  1.00  0.00     0.272 C 
BRANCH  13  14
HETATM   14  C4  UNL     1      -5.313   6.215  12.459  1.00  0.00     0.031 C 
BRANCH  14  15
HETATM   15  C3  UNL     1      -5.046   7.226  11.399  1.00  0.00     0.009 C 
BRANCH  15  16
HETATM   16  C2  UNL     1      -6.285   7.839  10.870  1.00  0.00     0.015 C 
HETATM   17  C1  UNL     1      -7.483   7.546  11.726  1.00  0.00     0.013 C 
BRANCH  16  18
HETATM   18  C12 UNL     1      -6.615   7.387   9.457  1.00  0.00     0.054 C 
HETATM   19  C13 UNL     1      -7.814   8.161   8.976  1.00  0.00     0.045 C 
HETATM   20  C14 UNL     1      -5.465   7.504   8.512  1.00  0.00     0.045 C 
BRANCH  18  21
HETATM   21  O5  UNL     1      -6.977   6.028   9.486  1.00  0.00    -0.390 OA
ATOM     22  H5  UNL     1      -7.914   5.957   9.348  1.00  0.00     0.210 HD
ENDBRANCH  18  21
ENDBRANCH  16  18
ENDBRANCH  15  16
ENDBRANCH  14  15
ENDBRANCH  13  14
ENDBRANCH   1  13
TORSDOF 6
ENDMDL
MODEL 4
REMARK VINA RESULT: -7.149279679      1.857      2.434
REMARK  6 active torsions:
REMARK  status: ('A' for Active; 'I' for Inactive)
REMARK    1  A    between atoms: C2_2  and  C3_3 
REMARK    2  A    between atoms: C2_2  and  C12_18 
REMARK    3  A    between atoms: C3_3  and  C4_4 
REMARK    4  A    between atoms: C4_4  and  C5_5 
REMARK    5  A    between atoms: C5_5  and  N1_6 
REMARK    6  A    between atoms: C12_18  and  O5_21 
ROOT
HETATM    1  N1  UNL     1      -4.553   3.986  12.934  1.00  0.00     0.090 N 
HETATM    2  C6  UNL     1      -3.184   4.133  13.310  1.00  0.00     0.298 C 
HETATM    3  C7  UNL     1      -2.170   3.723  12.295  1.00  0.00     0.201 C 
HETATM    4  O1  UNL     1      -2.611   2.985  11.239  1.00  0.00    -0.357 OA
HETATM    5  C8  UNL     1      -2.395   1.604  11.434  1.00  0.00     0.299 C 
HETATM    6  O2  UNL     1      -2.307   0.868  10.271  1.00  0.00    -0.241 OA
HETATM    7  S1  UNL     1      -3.523  -0.260  10.487  1.00  0.00     0.276 S 
HETATM    8  O3  UNL     1      -3.056  -1.625  10.893  1.00  0.00    -0.198 OA
HETATM    9  O4  UNL     1      -4.612  -0.222   9.482  1.00  0.00    -0.198 OA
HETATM   10  C9  UNL     1      -3.683   0.910  11.787  1.00  0.00     0.194 C 
HETATM   11  C10 UNL     1      -4.800   1.929  11.576  1.00  0.00     0.057 C 
HETATM   12  C11 UNL     1      -4.991   2.618  12.914  1.00  0.00     0.274 C 
ENDROOT
BRANCH   1  13
HETATM   13  C5  UNL     1      -5.400   4.696  13.856  1.00  0.00     0.272 C 
BRANCH  13  14
HETATM   14  C4  UNL     1      -5.242   4.351  15.294  1.00  0.00     0.031 C 
BRANCH  14  15
HETATM   15  C3  UNL     1      -5.991   3.137  15.721  1.00  0.00     0.009 C 
BRANCH  15  16
HETATM   16  C2  UNL     1      -5.240   2.319  16.699  1.00  0.00     0.015 C 
HETATM   17  C1  UNL     1      -4.226   1.425  16.045  1.00  0.00     0.013 C 
BRANCH  16  18
HETATM   18  C12 UNL     1      -6.140   1.437  17.550  1.00  0.00     0.054 C 
HETATM   19  C13 UNL     1      -6.332   2.102  18.888  1.00  0.00     0.045 C 
HETATM   20  C14 UNL     1      -7.444   1.116  16.899  1.00  0.00     0.045 C 
BRANCH  18  21
HETATM   21  O5  UNL     1      -5.491   0.211  17.780  1.00  0.00    -0.390 OA
ATOM     22  H5  UNL     1      -5.975  -0.274  18.439  1.00  0.00     0.210 HD
ENDBRANCH  18  21
ENDBRANCH  16  18
ENDBRANCH  15  16
ENDBRANCH  14  15
ENDBRANCH  13  14
ENDBRANCH   1  13
TORSDOF 6
ENDMDL
MODEL 5
REMARK VINA RESULT: -7.049246611      2.970      6.171
REMARK  6 active torsions:
REMARK  status: ('A' for Active; 'I' for Inactive)
REMARK    1  A    between atoms: C2_2  and  C3_3 
REMARK    2  A    between atoms: C2_2  and  C12_18 
REMARK    3  A    between atoms: C3_3  and  C4_4 
REMARK    4  A    between atoms: C4_4  and  C5_5 
REMARK    5  A    between atoms: C5_5  and  N1_6 
REMARK    6  A    between atoms: C12_18  and  O5_21 
ROOT
HETATM    1  N1  UNL     1      -3.518   3.864  13.906  1.00  0.00     0.090 N 
HETATM    2  C6  UNL     1      -4.618   4.566  13.326  1.00  0.00     0.298 C 
HETATM    3  C7  UNL     1      -5.677   5.030  14.268  1.00  0.00     0.201 C 
HETATM    4  O1  UNL     1      -5.665   4.507  15.525  1.00  0.00    -0.357 OA
HETATM    5  C8  UNL     1      -6.571   3.433  15.657  1.00  0.00     0.299 C 
HETATM    6  O2  UNL     1      -7.008   3.207  16.945  1.00  0.00    -0.241 OA
HETATM    7  S1  UNL     1      -6.561   1.614  17.184  1.00  0.00     0.276 S 
HETATM    8  O3  UNL     1      -7.678   0.619  17.077  1.00  0.00    -0.198 OA
HETATM    9  O4  UNL     1      -5.593   1.382  18.282  1.00  0.00    -0.198 OA
HETATM   10  C9  UNL     1      -5.840   2.118  15.664  1.00  0.00     0.194 C 
HETATM   11  C10 UNL     1      -4.352   2.447  15.759  1.00  0.00     0.057 C 
HETATM   12  C11 UNL     1      -3.855   2.533  14.328  1.00  0.00     0.274 C 
ENDROOT
BRANCH   1  13
HETATM   13  C5  UNL     1      -2.442   3.755  12.955  1.00  0.00     0.272 C 
BRANCH  13  14
HETATM   14  C4  UNL     1      -2.780   4.067  11.541  1.00  0.00     0.031 C 
BRANCH  14  15
HETATM   15  C3  UNL     1      -2.790   2.885  10.635  1.00  0.00     0.009 C 
BRANCH  15  16
HETATM   16  C2  UNL     1      -2.728   1.602  11.371  1.00  0.00     0.015 C 
HETATM   17  C1  UNL     1      -1.493   0.811  11.048  1.00  0.00     0.013 C 
BRANCH  16  18
HETATM   18  C12 UNL     1      -3.926   0.705  11.101  1.00  0.00     0.054 C 
HETATM   19  C13 UNL     1      -3.963  -0.370  12.154  1.00  0.00     0.045 C 
HETATM   20  C14 UNL     1      -5.218   1.448  11.021  1.00  0.00     0.045 C 
BRANCH  18  21
HETATM   21  O5  UNL     1      -3.748   0.070   9.859  1.00  0.00    -0.390 OA
ATOM     22  H5  UNL     1      -4.413  -0.601   9.759  1.00  0.00     0.210 HD
ENDBRANCH  18  21
ENDBRANCH  16  18
ENDBRANCH  15  16
ENDBRANCH  14  15
ENDBRANCH  13  14
ENDBRANCH   1  13
TORSDOF 6
ENDMDL
