MODEL 1
REMARK VINA RESULT: -7.168266464      0.000      0.000
REMARK  7 active torsions:
REMARK  status: ('A' for Active; 'I' for Inactive)
REMARK       I    between atoms: C2_2  and  N1_4 
REMARK    1  A    between atoms: N1_4  and  C3_6 
REMARK    2  A    between atoms: C3_6  and  C5_8 
REMARK    3  A    between atoms: C5_8  and  O3_10 
REMARK    4  A    between atoms: O3_10  and  C6_11 
REMARK    5  A    between atoms: C9_14  and  C10_15 
REMARK    6  A    between atoms: C10_15  and  O4_17 
REMARK    7  A    between atoms: O4_17  and  C12_18 
ROOT
HETATM    1  C6  UNL     1      -3.536   3.015  12.219  1.00  0.00     0.172 C 
HETATM    2  C7  UNL     1      -3.712   4.038  13.352  1.00  0.00     0.046 C 
HETATM    3  C8  UNL     1      -2.725   3.804  14.427  1.00  0.00     0.015 C 
HETATM    4  C9  UNL     1      -5.134   3.885  13.688  1.00  0.00     0.158 C 
HETATM    5  O6  UNL     1      -5.625   2.727  13.094  1.00  0.00    -0.370 OA
HETATM    6  C14 UNL     1      -4.586   2.008  12.584  1.00  0.00     0.081 C 
HETATM    7  C15 UNL     1      -5.053   1.348  11.283  1.00  0.00     0.048 C 
HETATM    8  C16 UNL     1      -4.084   0.909  13.468  1.00  0.00     0.048 C 
ENDROOT
BRANCH   1   9
HETATM    9  O3  UNL     1      -2.239   2.503  12.170  1.00  0.00    -0.311 OA
BRANCH   9  10
HETATM   10  C5  UNL     1      -1.414   2.681  11.095  1.00  0.00     0.281 C 
HETATM   11  O2  UNL     1      -1.730   2.155   9.992  1.00  0.00    -0.263 OA
BRANCH  10  12
HETATM   12  C3  UNL     1      -0.143   3.478  11.172  1.00  0.00     0.180 C 
HETATM   13  C4  UNL     1      -0.494   4.890  11.635  1.00  0.00     0.043 C 
BRANCH  12  14
HETATM   14  N1  UNL     1       0.529   3.531   9.915  1.00  0.00    -0.348 N 
HETATM   15  C2  UNL     1       1.921   3.768   9.864  1.00  0.00     0.214 C 
HETATM   16  C1  UNL     1       2.641   3.829   8.586  1.00  0.00     0.117 C 
HETATM   17  O1  UNL     1       2.593   3.937  10.927  1.00  0.00    -0.274 OA
ATOM     18  H1  UNL     1       0.004   3.396   9.051  1.00  0.00     0.163 HD
ENDBRANCH  12  14
ENDBRANCH  10  12
ENDBRANCH   9  10
ENDBRANCH   1   9
BRANCH   4  19
HETATM   19  C10 UNL     1      -5.494   3.857  15.133  1.00  0.00     0.157 C 
HETATM   20  C11 UNL     1      -6.331   5.037  15.571  1.00  0.00     0.043 C 
BRANCH  19  21
HETATM   21  O4  UNL     1      -6.285   2.697  15.359  1.00  0.00    -0.314 OA
BRANCH  21  22
HETATM   22  C12 UNL     1      -6.116   1.861  16.441  1.00  0.00     0.255 C 
HETATM   23  C13 UNL     1      -7.241   1.119  17.059  1.00  0.00     0.126 C 
HETATM   24  O5  UNL     1      -4.970   1.706  16.942  1.00  0.00    -0.266 OA
ENDBRANCH  21  22
ENDBRANCH  19  21
ENDBRANCH   4  19
TORSDOF 7
ENDMDL
MODEL 2
REMARK VINA RESULT: -7.061810417      1.549      1.972
REMARK  7 active torsions:
REMARK  status: ('A' for Active; 'I' for Inactive)
REMARK       I    between atoms: C2_2  and  N1_4 
REMARK    1  A    between atoms: N1_4  and  C3_6 
REMARK    2  A    between atoms: C3_6  and  C5_8 
REMARK    3  A    between atoms: C5_8  and  O3_10 
REMARK    4  A    between atoms: O3_10  and  C6_11 
REMARK    5  A    between atoms: C9_14  and  C10_15 
REMARK    6  A    between atoms: C10_15  and  O4_17 
REMARK    7  A    between atoms: O4_17  and  C12_18 
ROOT
HETATM    1  C6  UNL     1      -3.883   3.298  12.783  1.00  0.00     0.172 C 
HETATM    2  C7  UNL     1      -4.195   4.135  14.034  1.00  0.00     0.046 C 
HETATM    3  C8  UNL     1      -3.202   3.877  15.097  1.00  0.00     0.015 C 
HETATM    4  C9  UNL     1      -5.593   3.772  14.306  1.00  0.00     0.158 C 
HETATM    5  O6  UNL     1      -5.933   2.653  13.553  1.00  0.00    -0.370 OA
HETATM    6  C14 UNL     1      -4.808   2.136  12.984  1.00  0.00     0.081 C 
HETATM    7  C15 UNL     1      -5.175   1.604  11.595  1.00  0.00     0.048 C 
HETATM    8  C16 UNL     1      -4.190   0.995  13.732  1.00  0.00     0.048 C 
ENDROOT
BRANCH   1   9
HETATM    9  O3  UNL     1      -2.532   2.954  12.706  1.00  0.00    -0.311 OA
BRANCH   9  10
HETATM   10  C5  UNL     1      -1.729   3.337  11.668  1.00  0.00     0.281 C 
HETATM   11  O2  UNL     1      -1.014   4.367  11.801  1.00  0.00    -0.263 OA
BRANCH  10  12
HETATM   12  C3  UNL     1      -1.663   2.580  10.373  1.00  0.00     0.180 C 
HETATM   13  C4  UNL     1      -1.632   1.087  10.695  1.00  0.00     0.043 C 
BRANCH  12  14
HETATM   14  N1  UNL     1      -0.515   2.937   9.606  1.00  0.00    -0.348 N 
HETATM   15  C2  UNL     1      -0.662   3.662   8.403  1.00  0.00     0.214 C 
HETATM   16  C1  UNL     1       0.500   4.044   7.591  1.00  0.00     0.117 C 
HETATM   17  O1  UNL     1      -1.811   4.008   7.987  1.00  0.00    -0.274 OA
ATOM     18  H1  UNL     1       0.415   2.667   9.927  1.00  0.00     0.163 HD
ENDBRANCH  12  14
ENDBRANCH  10  12
ENDBRANCH   9  10
ENDBRANCH   1   9
BRANCH   4  19
HETATM   19  C10 UNL     1      -5.966   3.511  15.724  1.00  0.00     0.157 C 
HETATM   20  C11 UNL     1      -6.870   4.567  16.316  1.00  0.00     0.043 C 
BRANCH  19  21
HETATM   21  O4  UNL     1      -6.694   2.290  15.761  1.00  0.00    -0.314 OA
BRANCH  21  22
HETATM   22  C12 UNL     1      -6.556   1.352  16.760  1.00  0.00     0.255 C 
HETATM   23  C13 UNL     1      -6.104   1.703  18.128  1.00  0.00     0.126 C 
HETATM   24  O5  UNL     1      -6.816   0.141  16.526  1.00  0.00    -0.266 OA
ENDBRANCH  21  22
ENDBRANCH  19  21
ENDBRANCH   4  19
TORSDOF 7
ENDMDL
MODEL 3
REMARK VINA RESULT: -7.004893439      1.494      1.674
REMARK  7 active torsions:
REMARK  status: ('A' for Active; 'I' for Inactive)
REMARK       I    between atoms: C2_2  and  N1_4 
REMARK    1  A    between atoms: N1_4  and  C3_6 
REMARK    2  A    between atoms: C3_6  and  C5_8 
REMARK    3  A    between atoms: C5_8  and  O3_10 
REMARK    4  A    between atoms: O3_10  and  C6_11 
REMARK    5  A    between atoms: C9_14  and  C10_15 
REMARK    6  A    between atoms: C10_15  and  O4_17 
REMARK    7  A    between atoms: O4_17  and  C12_18 
ROOT
HETATM    1  C6  UNL     1      -3.621   2.905  12.056  1.00  0.00     0.172 C 
HETATM    2  C7  UNL     1      -3.728   3.958  13.170  1.00  0.00     0.046 C 
HETATM    3  C8  UNL     1      -2.687   3.740  14.197  1.00  0.00     0.015 C 
HETATM    4  C9  UNL     1      -5.131   3.827  13.585  1.00  0.00     0.158 C 
HETATM    5  O6  UNL     1      -5.663   2.660  13.048  1.00  0.00    -0.370 OA
HETATM    6  C14 UNL     1      -4.658   1.918  12.502  1.00  0.00     0.081 C 
HETATM    7  C15 UNL     1      -5.200   1.231  11.244  1.00  0.00     0.048 C 
HETATM    8  C16 UNL     1      -4.120   0.836  13.385  1.00  0.00     0.048 C 
ENDROOT
BRANCH   1   9
HETATM    9  O3  UNL     1      -2.332   2.380  11.951  1.00  0.00    -0.311 OA
BRANCH   9  10
HETATM   10  C5  UNL     1      -1.704   2.196  10.752  1.00  0.00     0.281 C 
HETATM   11  O2  UNL     1      -1.962   1.158  10.082  1.00  0.00    -0.263 OA
BRANCH  10  12
HETATM   12  C3  UNL     1      -0.716   3.181  10.195  1.00  0.00     0.180 C 
HETATM   13  C4  UNL     1      -0.042   3.893  11.366  1.00  0.00     0.043 C 
BRANCH  12  14
HETATM   14  N1  UNL     1      -1.340   4.136   9.340  1.00  0.00    -0.348 N 
HETATM   15  C2  UNL     1      -1.050   4.148   7.957  1.00  0.00     0.214 C 
HETATM   16  C1  UNL     1      -1.676   5.118   7.051  1.00  0.00     0.117 C 
HETATM   17  O1  UNL     1      -0.235   3.314   7.455  1.00  0.00    -0.274 OA
ATOM     18  H1  UNL     1      -1.999   4.813   9.727  1.00  0.00     0.163 HD
ENDBRANCH  12  14
ENDBRANCH  10  12
ENDBRANCH   9  10
ENDBRANCH   1   9
BRANCH   4  19
HETATM   19  C10 UNL     1      -5.414   3.838  15.048  1.00  0.00     0.157 C 
HETATM   20  C11 UNL     1      -6.189   5.052  15.504  1.00  0.00     0.043 C 
BRANCH  19  21
HETATM   21  O4  UNL     1      -6.225   2.708  15.339  1.00  0.00    -0.314 OA
BRANCH  21  22
HETATM   22  C12 UNL     1      -5.999   1.864  16.405  1.00  0.00     0.255 C 
HETATM   23  C13 UNL     1      -7.080   1.074  17.040  1.00  0.00     0.126 C 
HETATM   24  O5  UNL     1      -4.836   1.744  16.875  1.00  0.00    -0.266 OA
ENDBRANCH  21  22
ENDBRANCH  19  21
ENDBRANCH   4  19
TORSDOF 7
ENDMDL
MODEL 4
REMARK VINA RESULT: -6.890487895      1.568      2.444
REMARK  7 active torsions:
REMARK  status: ('A' for Active; 'I' for Inactive)
REMARK       I    between atoms: C2_2  and  N1_4 
REMARK    1  A    between atoms: N1_4  and  C3_6 
REMARK    2  A    between atoms: C3_6  and  C5_8 
REMARK    3  A    between atoms: C5_8  and  O3_10 
REMARK    4  A    between atoms: O3_10  and  C6_11 
REMARK    5  A    between atoms: C9_14  and  C10_15 
REMARK    6  A    between atoms: C10_15  and  O4_17 
REMARK    7  A    between atoms: O4_17  and  C12_18 
ROOT
HETATM    1  C6  UNL     1      -3.707   3.192  12.638  1.00  0.00     0.172 C 
HETATM    2  C7  UNL     1      -3.991   4.024  13.898  1.00  0.00     0.046 C 
HETATM    3  C8  UNL     1      -3.043   3.679  14.978  1.00  0.00     0.015 C 
HETATM    4  C9  UNL     1      -5.416   3.754  14.132  1.00  0.00     0.158 C 
HETATM    5  O6  UNL     1      -5.815   2.675  13.349  1.00  0.00    -0.370 OA
HETATM    6  C14 UNL     1      -4.714   2.092  12.795  1.00  0.00     0.081 C 
HETATM    7  C15 UNL     1      -5.085   1.613  11.388  1.00  0.00     0.048 C 
HETATM    8  C16 UNL     1      -4.193   0.898  13.533  1.00  0.00     0.048 C 
ENDROOT
BRANCH   1   9
HETATM    9  O3  UNL     1      -2.382   2.757  12.583  1.00  0.00    -0.311 OA
BRANCH   9  10
HETATM   10  C5  UNL     1      -1.583   2.956  11.493  1.00  0.00     0.281 C 
HETATM   11  O2  UNL     1      -1.571   2.084  10.581  1.00  0.00    -0.263 OA
BRANCH  10  12
HETATM   12  C3  UNL     1      -0.716   4.172  11.336  1.00  0.00     0.180 C 
HETATM   13  C4  UNL     1       0.712   3.706  11.058  1.00  0.00     0.043 C 
BRANCH  12  14
HETATM   14  N1  UNL     1      -0.741   4.998  12.498  1.00  0.00    -0.348 N 
HETATM   15  C2  UNL     1      -1.477   6.204  12.496  1.00  0.00     0.214 C 
HETATM   16  C1  UNL     1      -1.522   7.076  13.676  1.00  0.00     0.117 C 
HETATM   17  O1  UNL     1      -2.126   6.570  11.468  1.00  0.00    -0.274 OA
ATOM     18  H1  UNL     1      -0.226   4.718  13.333  1.00  0.00     0.163 HD
ENDBRANCH  12  14
ENDBRANCH  10  12
ENDBRANCH   9  10
ENDBRANCH   1   9
BRANCH   4  19
HETATM   19  C10 UNL     1      -5.840   3.492  15.536  1.00  0.00     0.157 C 
HETATM   20  C11 UNL     1      -6.739   4.564  16.106  1.00  0.00     0.043 C 
BRANCH  19  21
HETATM   21  O4  UNL     1      -6.594   2.287  15.542  1.00  0.00    -0.314 OA
BRANCH  21  22
HETATM   22  C12 UNL     1      -6.615   1.408  16.603  1.00  0.00     0.255 C 
HETATM   23  C13 UNL     1      -5.688   1.524  17.753  1.00  0.00     0.126 C 
HETATM   24  O5  UNL     1      -7.445   0.459  16.617  1.00  0.00    -0.266 OA
ENDBRANCH  21  22
ENDBRANCH  19  21
ENDBRANCH   4  19
TORSDOF 7
ENDMDL
MODEL 5
REMARK VINA RESULT: -6.825474734      1.091      1.206
REMARK  7 active torsions:
REMARK  status: ('A' for Active; 'I' for Inactive)
REMARK       I    between atoms: C2_2  and  N1_4 
REMARK    1  A    between atoms: N1_4  and  C3_6 
REMARK    2  A    between atoms: C3_6  and  C5_8 
REMARK    3  A    between atoms: C5_8  and  O3_10 
REMARK    4  A    between atoms: O3_10  and  C6_11 
REMARK    5  A    between atoms: C9_14  and  C10_15 
REMARK    6  A    between atoms: C10_15  and  O4_17 
REMARK    7  A    between atoms: O4_17  and  C12_18 
ROOT
HETATM    1  C6  UNL     1      -3.509   3.009  12.315  1.00  0.00     0.172 C 
HETATM    2  C7  UNL     1      -3.706   4.055  13.423  1.00  0.00     0.046 C 
HETATM    3  C8  UNL     1      -2.775   3.812  14.544  1.00  0.00     0.015 C 
HETATM    4  C9  UNL     1      -5.145   3.945  13.698  1.00  0.00     0.158 C 
HETATM    5  O6  UNL     1      -5.641   2.791  13.102  1.00  0.00    -0.370 OA
HETATM    6  C14 UNL     1      -4.600   2.036  12.649  1.00  0.00     0.081 C 
HETATM    7  C15 UNL     1      -5.027   1.367  11.339  1.00  0.00     0.048 C 
HETATM    8  C16 UNL     1      -4.168   0.939  13.572  1.00  0.00     0.048 C 
ENDROOT
BRANCH   1   9
HETATM    9  O3  UNL     1      -2.224   2.462  12.332  1.00  0.00    -0.311 OA
BRANCH   9  10
HETATM   10  C5  UNL     1      -1.452   2.353  11.210  1.00  0.00     0.281 C 
HETATM   11  O2  UNL     1      -1.258   1.209  10.714  1.00  0.00    -0.263 OA
BRANCH  10  12
HETATM   12  C3  UNL     1      -0.824   3.541  10.541  1.00  0.00     0.180 C 
HETATM   13  C4  UNL     1      -1.158   3.481   9.052  1.00  0.00     0.043 C 
BRANCH  12  14
HETATM   14  N1  UNL     1       0.591   3.568  10.721  1.00  0.00    -0.348 N 
HETATM   15  C2  UNL     1       1.210   4.691  11.314  1.00  0.00     0.214 C 
HETATM   16  C1  UNL     1       2.663   4.749  11.513  1.00  0.00     0.117 C 
HETATM   17  O1  UNL     1       0.523   5.689  11.694  1.00  0.00    -0.274 OA
ATOM     18  H1  UNL     1       1.157   2.774  10.422  1.00  0.00     0.163 HD
ENDBRANCH  12  14
ENDBRANCH  10  12
ENDBRANCH   9  10
ENDBRANCH   1   9
BRANCH   4  19
HETATM   19  C10 UNL     1      -5.570   3.951  15.126  1.00  0.00     0.157 C 
HETATM   20  C11 UNL     1      -6.394   5.159  15.507  1.00  0.00     0.043 C 
BRANCH  19  21
HETATM   21  O4  UNL     1      -6.398   2.815  15.335  1.00  0.00    -0.314 OA
BRANCH  21  22
HETATM   22  C12 UNL     1      -6.252   1.953  16.400  1.00  0.00     0.255 C 
HETATM   23  C13 UNL     1      -7.387   1.188  16.969  1.00  0.00     0.126 C 
HETATM   24  O5  UNL     1      -5.119   1.794  16.928  1.00  0.00    -0.266 OA
ENDBRANCH  21  22
ENDBRANCH  19  21
ENDBRANCH   4  19
TORSDOF 7
ENDMDL
