MODEL 1
REMARK VINA RESULT: -7.527989526      0.000      0.000
REMARK  7 active torsions:
REMARK  status: ('A' for Active; 'I' for Inactive)
REMARK       I    between atoms: N2_5  and  C4_6 
REMARK    1  A    between atoms: C4_6  and  C5_8 
REMARK    2  A    between atoms: C5_8  and  O2_9 
REMARK    3  A    between atoms: O2_9  and  C6_10 
REMARK    4  A    between atoms: C6_10  and  C7_12 
REMARK    5  A    between atoms: C7_12  and  C8_13 
REMARK    6  A    between atoms: C8_13  and  C9_14 
REMARK    7  A    between atoms: N3_20  and  O4_22 
ROOT
HETATM    1  C6  UNL     1      -3.432   5.529  14.343  1.00  0.00     0.308 C 
HETATM    2  O3  UNL     1      -3.778   6.474  15.082  1.00  0.00    -0.258 OA
ENDROOT
BRANCH   1   3
HETATM    3  O2  UNL     1      -2.777   5.851  13.170  1.00  0.00    -0.307 OA
BRANCH   3   4
HETATM    4  C5  UNL     1      -3.051   5.165  11.940  1.00  0.00     0.281 C 
BRANCH   4   5
HETATM    5  C4  UNL     1      -2.107   4.069  11.711  1.00  0.00     0.244 C 
HETATM    6  N2  UNL     1      -2.614   2.860  11.164  1.00  0.00    -0.347 N 
HETATM    7  C3  UNL     1      -4.012   2.678  10.831  1.00  0.00     0.156 C 
HETATM    8  C15 UNL     1      -1.737   1.714  10.904  1.00  0.00     0.156 C 
HETATM    9  C2  UNL     1      -4.635   1.573  11.668  1.00  0.00     0.291 C 
HETATM   10  N1  UNL     1      -3.584   0.617  12.021  1.00  0.00     0.087 N 
HETATM   11  C1  UNL     1      -4.233  -0.637  12.299  1.00  0.00     0.310 C 
HETATM   12  C16 UNL     1      -2.650   0.488  10.933  1.00  0.00     0.291 C 
HETATM   13  O1  UNL     1      -0.874   4.134  11.969  1.00  0.00    -0.271 OA
ENDBRANCH   4   5
ENDBRANCH   3   4
ENDBRANCH   1   3
BRANCH   1  14
HETATM   14  C7  UNL     1      -3.731   4.165  14.747  1.00  0.00     0.107 C 
HETATM   15  N3  UNL     1      -2.771   3.394  15.091  1.00  0.00    -0.267 N 
ATOM     16  H3  UNL     1      -2.971   2.435  15.377  1.00  0.00     0.194 HD
BRANCH  14  17
HETATM   17  C8  UNL     1      -5.130   3.646  14.760  1.00  0.00     0.070 C 
BRANCH  17  18
HETATM   18  C9  UNL     1      -5.335   2.735  15.944  1.00  0.00    -0.009 C 
HETATM   19  C10 UNL     1      -5.208   1.276  15.532  1.00  0.00     0.005 C 
HETATM   20  C11 UNL     1      -5.361   0.375  16.727  1.00  0.00     0.000 C 
HETATM   21  C12 UNL     1      -6.677   0.579  17.416  1.00  0.00     0.000 C 
HETATM   22  C13 UNL     1      -7.468   1.640  16.686  1.00  0.00     0.000 C 
HETATM   23  C14 UNL     1      -6.667   2.937  16.605  1.00  0.00     0.005 C 
ENDBRANCH  17  18
ENDBRANCH  14  17
BRANCH  15  24
HETATM   24  O4  UNL     1      -1.482   3.838  15.081  1.00  0.00    -0.290 OA
ATOM     25  H4  UNL     1      -1.131   4.330  15.814  1.00  0.00     0.244 HD
ENDBRANCH  15  24
ENDBRANCH   1  14
TORSDOF 7
ENDMDL
MODEL 2
REMARK VINA RESULT: -7.213823611      1.385      4.692
REMARK  7 active torsions:
REMARK  status: ('A' for Active; 'I' for Inactive)
REMARK       I    between atoms: N2_5  and  C4_6 
REMARK    1  A    between atoms: C4_6  and  C5_8 
REMARK    2  A    between atoms: C5_8  and  O2_9 
REMARK    3  A    between atoms: O2_9  and  C6_10 
REMARK    4  A    between atoms: C6_10  and  C7_12 
REMARK    5  A    between atoms: C7_12  and  C8_13 
REMARK    6  A    between atoms: C8_13  and  C9_14 
REMARK    7  A    between atoms: N3_20  and  O4_22 
ROOT
HETATM    1  C6  UNL     1      -2.844   5.169  12.003  1.00  0.00     0.308 C 
HETATM    2  O3  UNL     1      -2.514   6.290  11.565  1.00  0.00    -0.258 OA
ENDROOT
BRANCH   1   3
HETATM    3  O2  UNL     1      -3.943   5.115  12.838  1.00  0.00    -0.307 OA
BRANCH   3   4
HETATM    4  C5  UNL     1      -3.807   5.138  14.267  1.00  0.00     0.281 C 
BRANCH   4   5
HETATM    5  C4  UNL     1      -3.320   3.856  14.783  1.00  0.00     0.244 C 
HETATM    6  N2  UNL     1      -4.272   2.824  15.000  1.00  0.00    -0.347 N 
HETATM    7  C3  UNL     1      -5.685   2.993  14.732  1.00  0.00     0.156 C 
HETATM    8  C15 UNL     1      -3.868   1.512  15.515  1.00  0.00     0.156 C 
HETATM    9  C2  UNL     1      -6.504   2.859  16.005  1.00  0.00     0.291 C 
HETATM   10  N1  UNL     1      -5.784   1.972  16.922  1.00  0.00     0.087 N 
HETATM   11  C1  UNL     1      -6.760   1.421  17.825  1.00  0.00     0.310 C 
HETATM   12  C16 UNL     1      -5.118   0.934  16.180  1.00  0.00     0.291 C 
HETATM   13  O1  UNL     1      -2.110   3.615  15.045  1.00  0.00    -0.271 OA
ENDBRANCH   4   5
ENDBRANCH   3   4
ENDBRANCH   1   3
BRANCH   1  14
HETATM   14  C7  UNL     1      -2.069   4.000  11.620  1.00  0.00     0.107 C 
HETATM   15  N3  UNL     1      -0.901   3.839  12.116  1.00  0.00    -0.267 N 
ATOM     16  H3  UNL     1      -0.350   3.021  11.853  1.00  0.00     0.194 HD
BRANCH  14  17
HETATM   17  C8  UNL     1      -2.604   2.993  10.657  1.00  0.00     0.070 C 
BRANCH  17  18
HETATM   18  C9  UNL     1      -3.024   1.745  11.392  1.00  0.00    -0.009 C 
HETATM   19  C10 UNL     1      -2.423   0.507  10.744  1.00  0.00     0.005 C 
HETATM   20  C11 UNL     1      -2.803  -0.729  11.512  1.00  0.00     0.000 C 
HETATM   21  C12 UNL     1      -4.290  -0.895  11.604  1.00  0.00     0.000 C 
HETATM   22  C13 UNL     1      -4.970   0.244  10.878  1.00  0.00     0.000 C 
HETATM   23  C14 UNL     1      -4.515   1.584  11.451  1.00  0.00     0.005 C 
ENDBRANCH  17  18
ENDBRANCH  14  17
BRANCH  15  24
HETATM   24  O4  UNL     1      -0.384   4.746  12.991  1.00  0.00    -0.290 OA
ATOM     25  H4  UNL     1       0.194   5.438  12.690  1.00  0.00     0.244 HD
ENDBRANCH  15  24
ENDBRANCH   1  14
TORSDOF 7
ENDMDL
MODEL 3
REMARK VINA RESULT: -7.211772519      2.747      4.564
REMARK  7 active torsions:
REMARK  status: ('A' for Active; 'I' for Inactive)
REMARK       I    between atoms: N2_5  and  C4_6 
REMARK    1  A    between atoms: C4_6  and  C5_8 
REMARK    2  A    between atoms: C5_8  and  O2_9 
REMARK    3  A    between atoms: O2_9  and  C6_10 
REMARK    4  A    between atoms: C6_10  and  C7_12 
REMARK    5  A    between atoms: C7_12  and  C8_13 
REMARK    6  A    between atoms: C8_13  and  C9_14 
REMARK    7  A    between atoms: N3_20  and  O4_22 
ROOT
HETATM    1  C6  UNL     1      -4.555   0.080  14.907  1.00  0.00     0.308 C 
HETATM    2  O3  UNL     1      -4.145  -1.079  15.124  1.00  0.00    -0.258 OA
ENDROOT
BRANCH   1   3
HETATM    3  O2  UNL     1      -4.937   0.383  13.614  1.00  0.00    -0.307 OA
BRANCH   3   4
HETATM    4  C5  UNL     1      -3.974   0.664  12.589  1.00  0.00     0.281 C 
BRANCH   4   5
HETATM    5  C4  UNL     1      -4.369   1.821  11.780  1.00  0.00     0.244 C 
HETATM    6  N2  UNL     1      -3.346   2.530  11.095  1.00  0.00    -0.347 N 
HETATM    7  C3  UNL     1      -1.950   2.155  11.168  1.00  0.00     0.156 C 
HETATM    8  C15 UNL     1      -3.655   3.699  10.265  1.00  0.00     0.156 C 
HETATM    9  C2  UNL     1      -1.119   3.256  11.805  1.00  0.00     0.291 C 
HETATM   10  N1  UNL     1      -1.771   4.539  11.533  1.00  0.00     0.087 N 
HETATM   11  C1  UNL     1      -0.757   5.555  11.627  1.00  0.00     0.310 C 
HETATM   12  C16 UNL     1      -2.366   4.520  10.222  1.00  0.00     0.291 C 
HETATM   13  O1  UNL     1      -5.558   2.222  11.656  1.00  0.00    -0.271 OA
ENDBRANCH   4   5
ENDBRANCH   3   4
ENDBRANCH   1   3
BRANCH   1  14
HETATM   14  C7  UNL     1      -4.608   1.033  16.004  1.00  0.00     0.107 C 
HETATM   15  N3  UNL     1      -5.271   0.734  17.056  1.00  0.00    -0.267 N 
ATOM     16  H3  UNL     1      -5.313   1.396  17.831  1.00  0.00     0.194 HD
BRANCH  14  17
HETATM   17  C8  UNL     1      -3.914   2.352  15.923  1.00  0.00     0.070 C 
BRANCH  17  18
HETATM   18  C9  UNL     1      -4.582   3.227  14.893  1.00  0.00    -0.009 C 
HETATM   19  C10 UNL     1      -3.808   4.522  14.698  1.00  0.00     0.005 C 
HETATM   20  C11 UNL     1      -4.452   5.367  13.633  1.00  0.00     0.000 C 
HETATM   21  C12 UNL     1      -5.878   5.691  13.962  1.00  0.00     0.000 C 
HETATM   22  C13 UNL     1      -6.243   5.067  15.290  1.00  0.00     0.000 C 
HETATM   23  C14 UNL     1      -6.001   3.560  15.252  1.00  0.00     0.005 C 
ENDBRANCH  17  18
ENDBRANCH  14  17
BRANCH  15  24
HETATM   24  O4  UNL     1      -5.922  -0.460  17.154  1.00  0.00    -0.290 OA
ATOM     25  H4  UNL     1      -6.645  -0.571  17.760  1.00  0.00     0.244 HD
ENDBRANCH  15  24
ENDBRANCH   1  14
TORSDOF 7
ENDMDL
MODEL 4
REMARK VINA RESULT: -7.206159397      2.307      4.164
REMARK  7 active torsions:
REMARK  status: ('A' for Active; 'I' for Inactive)
REMARK       I    between atoms: N2_5  and  C4_6 
REMARK    1  A    between atoms: C4_6  and  C5_8 
REMARK    2  A    between atoms: C5_8  and  O2_9 
REMARK    3  A    between atoms: O2_9  and  C6_10 
REMARK    4  A    between atoms: C6_10  and  C7_12 
REMARK    5  A    between atoms: C7_12  and  C8_13 
REMARK    6  A    between atoms: C8_13  and  C9_14 
REMARK    7  A    between atoms: N3_20  and  O4_22 
ROOT
HETATM    1  C6  UNL     1      -3.123   1.132  11.861  1.00  0.00     0.308 C 
HETATM    2  O3  UNL     1      -3.460   0.183  11.123  1.00  0.00    -0.258 OA
ENDROOT
BRANCH   1   3
HETATM    3  O2  UNL     1      -1.810   1.555  11.786  1.00  0.00    -0.307 OA
BRANCH   3   4
HETATM    4  C5  UNL     1      -1.338   2.362  10.697  1.00  0.00     0.281 C 
BRANCH   4   5
HETATM    5  C4  UNL     1      -2.240   3.484  10.426  1.00  0.00     0.244 C 
HETATM    6  N2  UNL     1      -2.136   4.632  11.256  1.00  0.00    -0.347 N 
HETATM    7  C3  UNL     1      -1.184   4.730  12.343  1.00  0.00     0.156 C 
HETATM    8  C15 UNL     1      -3.001   5.799  11.054  1.00  0.00     0.156 C 
HETATM    9  C2  UNL     1      -1.892   4.866  13.681  1.00  0.00     0.291 C 
HETATM   10  N1  UNL     1      -3.182   5.522  13.453  1.00  0.00     0.087 N 
HETATM   11  C1  UNL     1      -3.568   6.133  14.697  1.00  0.00     0.310 C 
HETATM   12  C16 UNL     1      -3.055   6.506  12.408  1.00  0.00     0.291 C 
HETATM   13  O1  UNL     1      -3.100   3.492   9.504  1.00  0.00    -0.271 OA
ENDBRANCH   4   5
ENDBRANCH   3   4
ENDBRANCH   1   3
BRANCH   1  14
HETATM   14  C7  UNL     1      -4.109   1.731  12.745  1.00  0.00     0.107 C 
HETATM   15  N3  UNL     1      -5.202   2.173  12.248  1.00  0.00    -0.267 N 
ATOM     16  H3  UNL     1      -5.900   2.595  12.861  1.00  0.00     0.194 HD
BRANCH  14  17
HETATM   17  C8  UNL     1      -3.870   1.847  14.214  1.00  0.00     0.070 C 
BRANCH  17  18
HETATM   18  C9  UNL     1      -5.178   1.770  14.960  1.00  0.00    -0.009 C 
HETATM   19  C10 UNL     1      -5.487   3.090  15.649  1.00  0.00     0.005 C 
HETATM   20  C11 UNL     1      -6.817   3.023  16.348  1.00  0.00     0.000 C 
HETATM   21  C12 UNL     1      -6.862   1.918  17.359  1.00  0.00     0.000 C 
HETATM   22  C13 UNL     1      -5.533   1.197  17.378  1.00  0.00     0.000 C 
HETATM   23  C14 UNL     1      -5.195   0.673  15.984  1.00  0.00     0.005 C 
ENDBRANCH  17  18
ENDBRANCH  14  17
BRANCH  15  24
HETATM   24  O4  UNL     1      -5.444   2.088  10.909  1.00  0.00    -0.290 OA
ATOM     25  H4  UNL     1      -6.032   2.700  10.481  1.00  0.00     0.244 HD
ENDBRANCH  15  24
ENDBRANCH   1  14
TORSDOF 7
ENDMDL
MODEL 5
REMARK VINA RESULT: -7.135368733      2.492      4.421
REMARK  7 active torsions:
REMARK  status: ('A' for Active; 'I' for Inactive)
REMARK       I    between atoms: N2_5  and  C4_6 
REMARK    1  A    between atoms: C4_6  and  C5_8 
REMARK    2  A    between atoms: C5_8  and  O2_9 
REMARK    3  A    between atoms: O2_9  and  C6_10 
REMARK    4  A    between atoms: C6_10  and  C7_12 
REMARK    5  A    between atoms: C7_12  and  C8_13 
REMARK    6  A    between atoms: C8_13  and  C9_14 
REMARK    7  A    between atoms: N3_20  and  O4_22 
ROOT
HETATM    1  C6  UNL     1      -4.623   1.596  11.611  1.00  0.00     0.308 C 
HETATM    2  O3  UNL     1      -5.800   1.975  11.443  1.00  0.00    -0.258 OA
ENDROOT
BRANCH   1   3
HETATM    3  O2  UNL     1      -3.707   1.924  10.630  1.00  0.00    -0.307 OA
BRANCH   3   4
HETATM    4  C5  UNL     1      -3.117   3.230  10.555  1.00  0.00     0.281 C 
BRANCH   4   5
HETATM    5  C4  UNL     1      -2.227   3.486  11.690  1.00  0.00     0.244 C 
HETATM    6  N2  UNL     1      -2.590   4.518  12.597  1.00  0.00    -0.347 N 
HETATM    7  C3  UNL     1      -3.790   5.312  12.440  1.00  0.00     0.156 C 
HETATM    8  C15 UNL     1      -1.755   4.839  13.759  1.00  0.00     0.156 C 
HETATM    9  C2  UNL     1      -3.453   6.778  12.223  1.00  0.00     0.291 C 
HETATM   10  N1  UNL     1      -2.179   7.058  12.888  1.00  0.00     0.087 N 
HETATM   11  C1  UNL     1      -2.149   8.471  13.161  1.00  0.00     0.310 C 
HETATM   12  C16 UNL     1      -2.079   6.292  14.104  1.00  0.00     0.291 C 
HETATM   13  O1  UNL     1      -1.162   2.847  11.910  1.00  0.00    -0.271 OA
ENDBRANCH   4   5
ENDBRANCH   3   4
ENDBRANCH   1   3
BRANCH   1  14
HETATM   14  C7  UNL     1      -4.282   0.842  12.807  1.00  0.00     0.107 C 
HETATM   15  N3  UNL     1      -4.240  -0.434  12.746  1.00  0.00    -0.267 N 
ATOM     16  H3  UNL     1      -4.002  -0.972  13.580  1.00  0.00     0.194 HD
BRANCH  14  17
HETATM   17  C8  UNL     1      -3.990   1.527  14.100  1.00  0.00     0.070 C 
BRANCH  17  18
HETATM   18  C9  UNL     1      -5.256   1.672  14.907  1.00  0.00    -0.009 C 
HETATM   19  C10 UNL     1      -5.427   3.103  15.394  1.00  0.00     0.005 C 
HETATM   20  C11 UNL     1      -6.716   3.252  16.154  1.00  0.00     0.000 C 
HETATM   21  C12 UNL     1      -6.785   2.321  17.327  1.00  0.00     0.000 C 
HETATM   22  C13 UNL     1      -5.514   1.506  17.398  1.00  0.00     0.000 C 
HETATM   23  C14 UNL     1      -5.295   0.750  16.090  1.00  0.00     0.005 C 
ENDBRANCH  17  18
ENDBRANCH  14  17
BRANCH  15  24
HETATM   24  O4  UNL     1      -4.511  -1.086  11.580  1.00  0.00    -0.290 OA
ATOM     25  H4  UNL     1      -5.155  -1.785  11.550  1.00  0.00     0.244 HD
ENDBRANCH  15  24
ENDBRANCH   1  14
TORSDOF 7
ENDMDL
