MODEL 1
REMARK VINA RESULT: -6.953083889      0.000      0.000
REMARK  7 active torsions:
REMARK  status: ('A' for Active; 'I' for Inactive)
REMARK    1  A    between atoms: C3_3  and  O1_4 
REMARK    2  A    between atoms: N1_6  and  C4_7 
REMARK    3  A    between atoms: C4_7  and  C5_8 
REMARK    4  A    between atoms: C5_8  and  N2_9 
REMARK    5  A    between atoms: C10_15  and  S1_16 
REMARK    6  A    between atoms: S1_16  and  C11_17 
REMARK    7  A    between atoms: N3_22  and  O3_23 
ROOT
HETATM    1  C1  UNL     1      -3.441  -1.914  11.631  1.00  0.00     0.076 C 
HETATM    2  C2  UNL     1      -3.666  -0.450  11.899  1.00  0.00     0.090 A 
HETATM    3  C3  UNL     1      -3.309   0.558  11.043  1.00  0.00     0.169 A 
HETATM    4  N1  UNL     1      -3.647   1.779  11.568  1.00  0.00    -0.303 N 
HETATM    5  C10 UNL     1      -4.212   1.485  12.749  1.00  0.00     0.176 A 
HETATM    6  N3  UNL     1      -4.221   0.126  12.947  1.00  0.00    -0.202 N 
ENDROOT
BRANCH   4   7
HETATM    7  C4  UNL     1      -3.334   3.012  10.932  1.00  0.00     0.163 C 
BRANCH   7   8
HETATM    8  C5  UNL     1      -2.074   3.646  11.357  1.00  0.00     0.293 C 
BRANCH   8   9
HETATM    9  N2  UNL     1      -2.261   4.960  11.948  1.00  0.00     0.094 N 
HETATM   10  C6  UNL     1      -3.613   5.455  11.812  1.00  0.00     0.298 C 
HETATM   11  C7  UNL     1      -3.589   6.879  12.386  1.00  0.00     0.198 C 
HETATM   12  O2  UNL     1      -3.185   6.899  13.714  1.00  0.00    -0.388 OA
HETATM   13  C8  UNL     1      -1.904   6.359  13.855  1.00  0.00     0.198 C 
HETATM   14  C9  UNL     1      -1.978   4.917  13.382  1.00  0.00     0.298 C 
ENDBRANCH   8   9
ENDBRANCH   7   8
ENDBRANCH   4   7
BRANCH   3  15
HETATM   15  O1  UNL     1      -2.691   0.363   9.821  1.00  0.00    -0.344 OA
ATOM     16  H1  UNL     1      -2.070   0.967   9.431  1.00  0.00     0.219 HD
ENDBRANCH   3  15
BRANCH   5  17
HETATM   17  S1  UNL     1      -4.892   2.586  13.937  1.00  0.00    -0.086 SA
BRANCH  17  18
HETATM   18  C11 UNL     1      -5.572   1.895  15.406  1.00  0.00     0.055 C 
HETATM   19  C12 UNL     1      -4.675   1.663  16.565  1.00  0.00     0.015 C 
HETATM   20  C13 UNL     1      -5.673   1.194  17.635  1.00  0.00     0.001 C 
HETATM   21  C14 UNL     1      -7.014   1.776  17.229  1.00  0.00     0.001 C 
HETATM   22  C15 UNL     1      -6.696   2.698  16.042  1.00  0.00     0.015 C 
ENDBRANCH  17  18
ENDBRANCH   5  17
BRANCH   6  23
HETATM   23  O3  UNL     1      -4.712  -0.561  14.029  1.00  0.00    -0.281 OA
ATOM     24  H3  UNL     1      -5.608  -0.493  14.338  1.00  0.00     0.245 HD
ENDBRANCH   6  23
TORSDOF 7
ENDMDL
MODEL 2
REMARK VINA RESULT: -6.952470609      1.973      2.741
REMARK  7 active torsions:
REMARK  status: ('A' for Active; 'I' for Inactive)
REMARK    1  A    between atoms: C3_3  and  O1_4 
REMARK    2  A    between atoms: N1_6  and  C4_7 
REMARK    3  A    between atoms: C4_7  and  C5_8 
REMARK    4  A    between atoms: C5_8  and  N2_9 
REMARK    5  A    between atoms: C10_15  and  S1_16 
REMARK    6  A    between atoms: S1_16  and  C11_17 
REMARK    7  A    between atoms: N3_22  and  O3_23 
ROOT
HETATM    1  C1  UNL     1      -4.968   0.069  10.547  1.00  0.00     0.076 C 
HETATM    2  C2  UNL     1      -4.534   1.025  11.625  1.00  0.00     0.090 A 
HETATM    3  C3  UNL     1      -4.224   2.342  11.414  1.00  0.00     0.169 A 
HETATM    4  N1  UNL     1      -3.867   2.949  12.592  1.00  0.00    -0.303 N 
HETATM    5  C10 UNL     1      -3.971   1.974  13.508  1.00  0.00     0.176 A 
HETATM    6  N3  UNL     1      -4.377   0.803  12.916  1.00  0.00    -0.202 N 
ENDROOT
BRANCH   4   7
HETATM    7  C4  UNL     1      -3.426   4.298  12.668  1.00  0.00     0.163 C 
BRANCH   7   8
HETATM    8  C5  UNL     1      -1.988   4.484  12.931  1.00  0.00     0.293 C 
BRANCH   8   9
HETATM    9  N2  UNL     1      -1.186   4.562  11.722  1.00  0.00     0.094 N 
HETATM   10  C6  UNL     1      -0.126   5.540  11.806  1.00  0.00     0.298 C 
HETATM   11  C7  UNL     1       0.529   5.558  10.418  1.00  0.00     0.198 C 
HETATM   12  O2  UNL     1       1.031   4.314  10.063  1.00  0.00    -0.388 OA
HETATM   13  C8  UNL     1       0.018   3.352  10.046  1.00  0.00     0.198 C 
HETATM   14  C9  UNL     1      -0.542   3.276  11.457  1.00  0.00     0.298 C 
ENDBRANCH   8   9
ENDBRANCH   7   8
ENDBRANCH   4   7
BRANCH   3  15
HETATM   15  O1  UNL     1      -4.264   2.966  10.181  1.00  0.00    -0.344 OA
ATOM     16  H1  UNL     1      -4.360   3.903  10.056  1.00  0.00     0.219 HD
ENDBRANCH   3  15
BRANCH   5  17
HETATM   17  S1  UNL     1      -3.677   2.069  15.238  1.00  0.00    -0.086 SA
BRANCH  17  18
HETATM   18  C11 UNL     1      -5.073   2.097  16.310  1.00  0.00     0.055 C 
HETATM   19  C12 UNL     1      -6.323   2.739  15.834  1.00  0.00     0.015 C 
HETATM   20  C13 UNL     1      -7.286   2.429  16.990  1.00  0.00     0.001 C 
HETATM   21  C14 UNL     1      -6.734   1.187  17.662  1.00  0.00     0.001 C 
HETATM   22  C15 UNL     1      -5.577   0.734  16.757  1.00  0.00     0.015 C 
ENDBRANCH  17  18
ENDBRANCH   5  17
BRANCH   6  23
HETATM   23  O3  UNL     1      -4.597  -0.409  13.519  1.00  0.00    -0.281 OA
ATOM     24  H3  UNL     1      -3.909  -1.028  13.735  1.00  0.00     0.245 HD
ENDBRANCH   6  23
TORSDOF 7
ENDMDL
MODEL 3
REMARK VINA RESULT: -6.857562088      1.527      2.013
REMARK  7 active torsions:
REMARK  status: ('A' for Active; 'I' for Inactive)
REMARK    1  A    between atoms: C3_3  and  O1_4 
REMARK    2  A    between atoms: N1_6  and  C4_7 
REMARK    3  A    between atoms: C4_7  and  C5_8 
REMARK    4  A    between atoms: C5_8  and  N2_9 
REMARK    5  A    between atoms: C10_15  and  S1_16 
REMARK    6  A    between atoms: S1_16  and  C11_17 
REMARK    7  A    between atoms: N3_22  and  O3_23 
ROOT
HETATM    1  C1  UNL     1      -4.982   0.110  10.547  1.00  0.00     0.076 C 
HETATM    2  C2  UNL     1      -4.556   1.098  11.599  1.00  0.00     0.090 A 
HETATM    3  C3  UNL     1      -4.278   2.417  11.357  1.00  0.00     0.169 A 
HETATM    4  N1  UNL     1      -3.920   3.056  12.516  1.00  0.00    -0.303 N 
HETATM    5  C10 UNL     1      -3.990   2.099  13.454  1.00  0.00     0.176 A 
HETATM    6  N3  UNL     1      -4.377   0.907  12.892  1.00  0.00    -0.202 N 
ENDROOT
BRANCH   4   7
HETATM    7  C4  UNL     1      -3.509   4.416  12.559  1.00  0.00     0.163 C 
BRANCH   7   8
HETATM    8  C5  UNL     1      -2.053   4.642  12.552  1.00  0.00     0.293 C 
BRANCH   8   9
HETATM    9  N2  UNL     1      -1.660   5.883  13.199  1.00  0.00     0.094 N 
HETATM   10  C6  UNL     1      -1.091   6.844  12.282  1.00  0.00     0.298 C 
HETATM   11  C7  UNL     1      -0.639   8.025  13.152  1.00  0.00     0.198 C 
HETATM   12  O2  UNL     1      -1.693   8.583  13.862  1.00  0.00    -0.388 OA
HETATM   13  C8  UNL     1      -2.287   7.635  14.700  1.00  0.00     0.198 C 
HETATM   14  C9  UNL     1      -2.823   6.529  13.806  1.00  0.00     0.298 C 
ENDBRANCH   8   9
ENDBRANCH   7   8
ENDBRANCH   4   7
BRANCH   3  15
HETATM   15  O1  UNL     1      -4.349   3.014  10.111  1.00  0.00    -0.344 OA
ATOM     16  H1  UNL     1      -3.629   3.056   9.494  1.00  0.00     0.219 HD
ENDBRANCH   3  15
BRANCH   5  17
HETATM   17  S1  UNL     1      -3.676   2.236  15.178  1.00  0.00    -0.086 SA
BRANCH  17  18
HETATM   18  C11 UNL     1      -5.047   2.130  16.276  1.00  0.00     0.055 C 
HETATM   19  C12 UNL     1      -6.339   2.732  15.862  1.00  0.00     0.015 C 
HETATM   20  C13 UNL     1      -7.259   2.305  17.016  1.00  0.00     0.001 C 
HETATM   21  C14 UNL     1      -6.629   1.057  17.603  1.00  0.00     0.001 C 
HETATM   22  C15 UNL     1      -5.471   0.719  16.651  1.00  0.00     0.015 C 
ENDBRANCH  17  18
ENDBRANCH   5  17
BRANCH   6  23
HETATM   23  O3  UNL     1      -4.561  -0.297  13.522  1.00  0.00    -0.281 OA
ATOM     24  H3  UNL     1      -4.187  -0.517  14.367  1.00  0.00     0.245 HD
ENDBRANCH   6  23
TORSDOF 7
ENDMDL
MODEL 4
REMARK VINA RESULT: -6.823061497      2.184      2.911
REMARK  7 active torsions:
REMARK  status: ('A' for Active; 'I' for Inactive)
REMARK    1  A    between atoms: C3_3  and  O1_4 
REMARK    2  A    between atoms: N1_6  and  C4_7 
REMARK    3  A    between atoms: C4_7  and  C5_8 
REMARK    4  A    between atoms: C5_8  and  N2_9 
REMARK    5  A    between atoms: C10_15  and  S1_16 
REMARK    6  A    between atoms: S1_16  and  C11_17 
REMARK    7  A    between atoms: N3_22  and  O3_23 
ROOT
HETATM    1  C1  UNL     1      -3.442  -1.524  11.314  1.00  0.00     0.076 C 
HETATM    2  C2  UNL     1      -3.478  -0.080  11.734  1.00  0.00     0.090 A 
HETATM    3  C3  UNL     1      -2.935   0.951  11.012  1.00  0.00     0.169 A 
HETATM    4  N1  UNL     1      -3.131   2.146  11.655  1.00  0.00    -0.303 N 
HETATM    5  C10 UNL     1      -3.800   1.814  12.770  1.00  0.00     0.176 A 
HETATM    6  N3  UNL     1      -4.009   0.458  12.815  1.00  0.00    -0.202 N 
ENDROOT
BRANCH   4   7
HETATM    7  C4  UNL     1      -2.614   3.380  11.175  1.00  0.00     0.163 C 
BRANCH   7   8
HETATM    8  C5  UNL     1      -1.212   3.664  11.527  1.00  0.00     0.293 C 
BRANCH   8   9
HETATM    9  N2  UNL     1      -0.293   3.500  10.414  1.00  0.00     0.094 N 
HETATM   10  C6  UNL     1      -0.785   4.078   9.184  1.00  0.00     0.298 C 
HETATM   11  C7  UNL     1       0.252   3.711   8.113  1.00  0.00     0.198 C 
HETATM   12  O2  UNL     1       1.514   4.200   8.421  1.00  0.00    -0.388 OA
HETATM   13  C8  UNL     1       1.963   3.694   9.643  1.00  0.00     0.198 C 
HETATM   14  C9  UNL     1       0.978   4.162  10.703  1.00  0.00     0.298 C 
ENDBRANCH   8   9
ENDBRANCH   7   8
ENDBRANCH   4   7
BRANCH   3  15
HETATM   15  O1  UNL     1      -2.280   0.798   9.804  1.00  0.00    -0.344 OA
ATOM     16  H1  UNL     1      -1.546   1.330   9.520  1.00  0.00     0.219 HD
ENDBRANCH   3  15
BRANCH   5  17
HETATM   17  S1  UNL     1      -4.389   2.872  14.044  1.00  0.00    -0.086 SA
BRANCH  17  18
HETATM   18  C11 UNL     1      -5.340   2.152  15.339  1.00  0.00     0.055 C 
HETATM   19  C12 UNL     1      -4.641   1.701  16.568  1.00  0.00     0.015 C 
HETATM   20  C13 UNL     1      -5.823   1.278  17.453  1.00  0.00     0.001 C 
HETATM   21  C14 UNL     1      -7.017   2.066  16.949  1.00  0.00     0.001 C 
HETATM   22  C15 UNL     1      -6.434   3.038  15.912  1.00  0.00     0.015 C 
ENDBRANCH  17  18
ENDBRANCH   5  17
BRANCH   6  23
HETATM   23  O3  UNL     1      -4.653  -0.260  13.791  1.00  0.00    -0.281 OA
ATOM     24  H3  UNL     1      -5.239   0.124  14.433  1.00  0.00     0.245 HD
ENDBRANCH   6  23
TORSDOF 7
ENDMDL
MODEL 5
REMARK VINA RESULT: -6.811074765      2.655      5.854
REMARK  7 active torsions:
REMARK  status: ('A' for Active; 'I' for Inactive)
REMARK    1  A    between atoms: C3_3  and  O1_4 
REMARK    2  A    between atoms: N1_6  and  C4_7 
REMARK    3  A    between atoms: C4_7  and  C5_8 
REMARK    4  A    between atoms: C5_8  and  N2_9 
REMARK    5  A    between atoms: C10_15  and  S1_16 
REMARK    6  A    between atoms: S1_16  and  C11_17 
REMARK    7  A    between atoms: N3_22  and  O3_23 
ROOT
HETATM    1  C1  UNL     1      -3.250  -1.876  11.376  1.00  0.00     0.076 C 
HETATM    2  C2  UNL     1      -3.480  -0.406  11.603  1.00  0.00     0.090 A 
HETATM    3  C3  UNL     1      -4.149   0.116  12.678  1.00  0.00     0.169 A 
HETATM    4  N1  UNL     1      -4.191   1.485  12.602  1.00  0.00    -0.303 N 
HETATM    5  C10 UNL     1      -3.535   1.772  11.467  1.00  0.00     0.176 A 
HETATM    6  N3  UNL     1      -3.103   0.617  10.861  1.00  0.00    -0.202 N 
ENDROOT
BRANCH   4   7
HETATM    7  C4  UNL     1      -4.882   2.295  13.544  1.00  0.00     0.163 C 
BRANCH   7   8
HETATM    8  C5  UNL     1      -4.168   2.557  14.806  1.00  0.00     0.293 C 
BRANCH   8   9
HETATM    9  N2  UNL     1      -5.017   2.457  15.980  1.00  0.00     0.094 N 
HETATM   10  C6  UNL     1      -6.364   2.923  15.746  1.00  0.00     0.298 C 
HETATM   11  C7  UNL     1      -7.069   2.848  17.109  1.00  0.00     0.198 C 
HETATM   12  O2  UNL     1      -7.073   1.558  17.622  1.00  0.00    -0.388 OA
HETATM   13  C8  UNL     1      -5.770   1.081  17.786  1.00  0.00     0.198 C 
HETATM   14  C9  UNL     1      -5.130   1.063  16.408  1.00  0.00     0.298 C 
ENDBRANCH   8   9
ENDBRANCH   7   8
ENDBRANCH   4   7
BRANCH   3  15
HETATM   15  O1  UNL     1      -4.706  -0.639  13.694  1.00  0.00    -0.344 OA
ATOM     16  H1  UNL     1      -4.473  -0.559  14.611  1.00  0.00     0.219 HD
ENDBRANCH   3  15
BRANCH   5  17
HETATM   17  S1  UNL     1      -3.198   3.350  10.771  1.00  0.00    -0.086 SA
BRANCH  17  18
HETATM   18  C11 UNL     1      -1.515   3.792  10.508  1.00  0.00     0.055 C 
HETATM   19  C12 UNL     1      -0.469   3.131  11.327  1.00  0.00     0.015 C 
HETATM   20  C13 UNL     1       0.814   3.694  10.698  1.00  0.00     0.001 C 
HETATM   21  C14 UNL     1       0.440   4.081   9.280  1.00  0.00     0.001 C 
HETATM   22  C15 UNL     1      -0.995   3.561   9.098  1.00  0.00     0.015 C 
ENDBRANCH  17  18
ENDBRANCH   5  17
BRANCH   6  23
HETATM   23  O3  UNL     1      -2.399   0.497   9.690  1.00  0.00    -0.281 OA
ATOM     24  H3  UNL     1      -1.512   0.815   9.568  1.00  0.00     0.245 HD
ENDBRANCH   6  23
TORSDOF 7
ENDMDL
