MODEL 1
REMARK VINA RESULT: -7.017335054      0.000      0.000
REMARK  8 active torsions:
REMARK  status: ('A' for Active; 'I' for Inactive)
REMARK    1  A    between atoms: C2_2  and  C5_5 
REMARK    2  A    between atoms: C5_5  and  C8_8 
REMARK    3  A    between atoms: C8_8  and  C9_10 
REMARK    4  A    between atoms: C9_10  and  O2_11 
REMARK    5  A    between atoms: O2_11  and  C10_12 
REMARK    6  A    between atoms: C10_12  and  C11_14 
REMARK    7  A    between atoms: C11_14  and  N1_15 
REMARK       I    between atoms: N1_15  and  C12_17 
REMARK    8  A    between atoms: C12_17  and  C13_19 
ROOT
HETATM    1  C10 UNL     1      -4.841   1.689  11.332  1.00  0.00     0.277 C 
HETATM    2  O3  UNL     1      -5.427   0.678  10.886  1.00  0.00    -0.263 OA
ENDROOT
BRANCH   1   3
HETATM    3  O2  UNL     1      -5.042   2.976  10.846  1.00  0.00    -0.313 OA
BRANCH   3   4
HETATM    4  C9  UNL     1      -3.926   3.846  10.903  1.00  0.00     0.258 C 
BRANCH   4   5
HETATM    5  C8  UNL     1      -4.271   5.130  11.556  1.00  0.00     0.159 C 
HETATM    6  O1  UNL     1      -5.424   5.559  11.548  1.00  0.00    -0.295 OA
BRANCH   5   7
HETATM    7  C5  UNL     1      -3.149   5.867  12.217  1.00  0.00     0.022 C 
HETATM    8  C6  UNL     1      -3.430   7.341  11.941  1.00  0.00     0.024 C 
HETATM    9  C7  UNL     1      -1.878   5.412  11.583  1.00  0.00     0.024 C 
BRANCH   7  10
HETATM   10  C2  UNL     1      -3.164   5.701  13.717  1.00  0.00    -0.037 C 
HETATM   11  C1  UNL     1      -4.556   5.337  14.202  1.00  0.00     0.015 C 
HETATM   12  C3  UNL     1      -2.165   4.626  14.071  1.00  0.00     0.015 C 
HETATM   13  C4  UNL     1      -2.772   6.972  14.397  1.00  0.00     0.015 C 
ENDBRANCH   7  10
ENDBRANCH   5   7
ENDBRANCH   4   5
ENDBRANCH   3   4
ENDBRANCH   1   3
BRANCH   1  14
HETATM   14  C11 UNL     1      -3.866   1.434  12.456  1.00  0.00     0.234 C 
BRANCH  14  15
HETATM   15  N1  UNL     1      -4.443   1.803  13.714  1.00  0.00    -0.346 N 
HETATM   16  C12 UNL     1      -4.845   0.741  14.592  1.00  0.00     0.277 C 
HETATM   17  O4  UNL     1      -4.665  -0.436  14.186  1.00  0.00    -0.265 OA
ATOM     18  H1  UNL     1      -4.563   2.782  13.975  1.00  0.00     0.163 HD
BRANCH  16  19
HETATM   19  C13 UNL     1      -5.435   0.937  15.896  1.00  0.00     0.158 C 
HETATM   20  C14 UNL     1      -4.735   1.570  16.827  1.00  0.00     0.177 C 
HETATM   21  O5  UNL     1      -5.273   1.783  18.107  1.00  0.00    -0.358 OA
HETATM   22  C15 UNL     1      -6.704   1.945  18.219  1.00  0.00     0.201 C 
HETATM   23  C16 UNL     1      -7.357   0.857  17.422  1.00  0.00     0.202 C 
HETATM   24  O6  UNL     1      -6.699   0.500  16.243  1.00  0.00    -0.342 OA
ENDBRANCH  16  19
ENDBRANCH  14  15
ENDBRANCH   1  14
TORSDOF 8
ENDMDL
MODEL 2
REMARK VINA RESULT: -6.776877580      3.068      4.220
REMARK  8 active torsions:
REMARK  status: ('A' for Active; 'I' for Inactive)
REMARK    1  A    between atoms: C2_2  and  C5_5 
REMARK    2  A    between atoms: C5_5  and  C8_8 
REMARK    3  A    between atoms: C8_8  and  C9_10 
REMARK    4  A    between atoms: C9_10  and  O2_11 
REMARK    5  A    between atoms: O2_11  and  C10_12 
REMARK    6  A    between atoms: C10_12  and  C11_14 
REMARK    7  A    between atoms: C11_14  and  N1_15 
REMARK       I    between atoms: N1_15  and  C12_17 
REMARK    8  A    between atoms: C12_17  and  C13_19 
ROOT
HETATM    1  C10 UNL     1      -4.296   4.075  10.674  1.00  0.00     0.277 C 
HETATM    2  O3  UNL     1      -3.853   3.704   9.565  1.00  0.00    -0.263 OA
ENDROOT
BRANCH   1   3
HETATM    3  O2  UNL     1      -5.364   4.951  10.826  1.00  0.00    -0.313 OA
BRANCH   3   4
HETATM    4  C9  UNL     1      -5.120   6.300  10.470  1.00  0.00     0.258 C 
BRANCH   4   5
HETATM    5  C8  UNL     1      -5.906   6.698   9.280  1.00  0.00     0.159 C 
HETATM    6  O1  UNL     1      -5.717   6.169   8.186  1.00  0.00    -0.295 OA
BRANCH   5   7
HETATM    7  C5  UNL     1      -6.931   7.770   9.483  1.00  0.00     0.022 C 
HETATM    8  C6  UNL     1      -7.202   7.775  10.984  1.00  0.00     0.024 C 
HETATM    9  C7  UNL     1      -8.140   7.388   8.698  1.00  0.00     0.024 C 
BRANCH   7  10
HETATM   10  C2  UNL     1      -6.399   9.140   9.138  1.00  0.00    -0.037 C 
HETATM   11  C1  UNL     1      -5.143   9.030   8.293  1.00  0.00     0.015 C 
HETATM   12  C3  UNL     1      -7.488   9.885   8.404  1.00  0.00     0.015 C 
HETATM   13  C4  UNL     1      -6.040   9.897  10.375  1.00  0.00     0.015 C 
ENDBRANCH   7  10
ENDBRANCH   5   7
ENDBRANCH   4   5
ENDBRANCH   3   4
ENDBRANCH   1   3
BRANCH   1  14
HETATM   14  C11 UNL     1      -3.583   3.513  11.880  1.00  0.00     0.234 C 
BRANCH  14  15
HETATM   15  N1  UNL     1      -4.476   2.708  12.660  1.00  0.00    -0.346 N 
HETATM   16  C12 UNL     1      -4.215   2.610  14.068  1.00  0.00     0.277 C 
HETATM   17  O4  UNL     1      -3.216   3.234  14.510  1.00  0.00    -0.265 OA
ATOM     18  H1  UNL     1      -5.265   2.225  12.232  1.00  0.00     0.163 HD
BRANCH  16  19
HETATM   19  C13 UNL     1      -5.017   1.849  14.998  1.00  0.00     0.158 C 
HETATM   20  C14 UNL     1      -4.668   0.600  15.272  1.00  0.00     0.177 C 
HETATM   21  O5  UNL     1      -5.420  -0.173  16.172  1.00  0.00    -0.358 OA
HETATM   22  C15 UNL     1      -6.093   0.511  17.252  1.00  0.00     0.201 C 
HETATM   23  C16 UNL     1      -6.804   1.697  16.674  1.00  0.00     0.202 C 
HETATM   24  O6  UNL     1      -6.142   2.343  15.629  1.00  0.00    -0.342 OA
ENDBRANCH  16  19
ENDBRANCH  14  15
ENDBRANCH   1  14
TORSDOF 8
ENDMDL
MODEL 3
REMARK VINA RESULT: -6.760309289      2.453      3.659
REMARK  8 active torsions:
REMARK  status: ('A' for Active; 'I' for Inactive)
REMARK    1  A    between atoms: C2_2  and  C5_5 
REMARK    2  A    between atoms: C5_5  and  C8_8 
REMARK    3  A    between atoms: C8_8  and  C9_10 
REMARK    4  A    between atoms: C9_10  and  O2_11 
REMARK    5  A    between atoms: O2_11  and  C10_12 
REMARK    6  A    between atoms: C10_12  and  C11_14 
REMARK    7  A    between atoms: C11_14  and  N1_15 
REMARK       I    between atoms: N1_15  and  C12_17 
REMARK    8  A    between atoms: C12_17  and  C13_19 
ROOT
HETATM    1  C10 UNL     1      -2.350   4.405  12.820  1.00  0.00     0.277 C 
HETATM    2  O3  UNL     1      -1.793   3.316  12.556  1.00  0.00    -0.263 OA
ENDROOT
BRANCH   1   3
HETATM    3  O2  UNL     1      -2.694   5.349  11.861  1.00  0.00    -0.313 OA
BRANCH   3   4
HETATM    4  C9  UNL     1      -3.870   6.097  12.114  1.00  0.00     0.258 C 
BRANCH   4   5
HETATM    5  C8  UNL     1      -4.784   6.085  10.949  1.00  0.00     0.159 C 
HETATM    6  O1  UNL     1      -5.332   5.048  10.580  1.00  0.00    -0.295 OA
BRANCH   5   7
HETATM    7  C5  UNL     1      -4.998   7.394  10.254  1.00  0.00     0.022 C 
HETATM    8  C6  UNL     1      -4.830   7.082   8.770  1.00  0.00     0.024 C 
HETATM    9  C7  UNL     1      -3.957   8.339  10.748  1.00  0.00     0.024 C 
BRANCH   7  10
HETATM   10  C2  UNL     1      -6.407   7.907  10.428  1.00  0.00    -0.037 C 
HETATM   11  C1  UNL     1      -7.023   7.359  11.703  1.00  0.00     0.015 C 
HETATM   12  C3  UNL     1      -6.347   9.415  10.454  1.00  0.00     0.015 C 
HETATM   13  C4  UNL     1      -7.274   7.475   9.291  1.00  0.00     0.015 C 
ENDBRANCH   7  10
ENDBRANCH   5   7
ENDBRANCH   4   5
ENDBRANCH   3   4
ENDBRANCH   1   3
BRANCH   1  14
HETATM   14  C11 UNL     1      -2.631   4.653  14.282  1.00  0.00     0.234 C 
BRANCH  14  15
HETATM   15  N1  UNL     1      -3.140   3.467  14.903  1.00  0.00    -0.346 N 
HETATM   16  C12 UNL     1      -4.551   3.409  15.160  1.00  0.00     0.277 C 
HETATM   17  O4  UNL     1      -5.234   4.410  14.824  1.00  0.00    -0.265 OA
ATOM     18  H1  UNL     1      -2.523   2.693  15.154  1.00  0.00     0.163 HD
BRANCH  16  19
HETATM   19  C13 UNL     1      -5.226   2.288  15.771  1.00  0.00     0.158 C 
HETATM   20  C14 UNL     1      -4.609   1.116  15.815  1.00  0.00     0.177 C 
HETATM   21  O5  UNL     1      -5.230   0.001  16.402  1.00  0.00    -0.358 OA
HETATM   22  C15 UNL     1      -6.149   0.236  17.492  1.00  0.00     0.201 C 
HETATM   23  C16 UNL     1      -7.072   1.345  17.087  1.00  0.00     0.202 C 
HETATM   24  O6  UNL     1      -6.493   2.356  16.319  1.00  0.00    -0.342 OA
ENDBRANCH  16  19
ENDBRANCH  14  15
ENDBRANCH   1  14
TORSDOF 8
ENDMDL
MODEL 4
REMARK VINA RESULT: -6.721674219      2.078      2.960
REMARK  8 active torsions:
REMARK  status: ('A' for Active; 'I' for Inactive)
REMARK    1  A    between atoms: C2_2  and  C5_5 
REMARK    2  A    between atoms: C5_5  and  C8_8 
REMARK    3  A    between atoms: C8_8  and  C9_10 
REMARK    4  A    between atoms: C9_10  and  O2_11 
REMARK    5  A    between atoms: O2_11  and  C10_12 
REMARK    6  A    between atoms: C10_12  and  C11_14 
REMARK    7  A    between atoms: C11_14  and  N1_15 
REMARK       I    between atoms: N1_15  and  C12_17 
REMARK    8  A    between atoms: C12_17  and  C13_19 
ROOT
HETATM    1  C10 UNL     1      -4.686   2.532  11.124  1.00  0.00     0.277 C 
HETATM    2  O3  UNL     1      -5.801   1.966  11.141  1.00  0.00    -0.263 OA
ENDROOT
BRANCH   1   3
HETATM    3  O2  UNL     1      -4.364   3.580  10.270  1.00  0.00    -0.313 OA
BRANCH   3   4
HETATM    4  C9  UNL     1      -4.497   4.885  10.804  1.00  0.00     0.258 C 
BRANCH   4   5
HETATM    5  C8  UNL     1      -4.652   5.897   9.735  1.00  0.00     0.159 C 
HETATM    6  O1  UNL     1      -4.611   5.580   8.547  1.00  0.00    -0.295 OA
BRANCH   5   7
HETATM    7  C5  UNL     1      -4.860   7.312  10.178  1.00  0.00     0.022 C 
HETATM    8  C6  UNL     1      -4.201   8.163   9.096  1.00  0.00     0.024 C 
HETATM    9  C7  UNL     1      -4.190   7.470  11.500  1.00  0.00     0.024 C 
BRANCH   7  10
HETATM   10  C2  UNL     1      -6.320   7.694  10.194  1.00  0.00    -0.037 C 
HETATM   11  C1  UNL     1      -6.941   7.385  11.545  1.00  0.00     0.015 C 
HETATM   12  C3  UNL     1      -6.413   9.167   9.875  1.00  0.00     0.015 C 
HETATM   13  C4  UNL     1      -7.083   6.925   9.165  1.00  0.00     0.015 C 
ENDBRANCH   7  10
ENDBRANCH   5   7
ENDBRANCH   4   5
ENDBRANCH   3   4
ENDBRANCH   1   3
BRANCH   1  14
HETATM   14  C11 UNL     1      -3.670   1.998  12.105  1.00  0.00     0.234 C 
BRANCH  14  15
HETATM   15  N1  UNL     1      -4.101   2.234  13.451  1.00  0.00    -0.346 N 
HETATM   16  C12 UNL     1      -4.564   1.103  14.204  1.00  0.00     0.277 C 
HETATM   17  O4  UNL     1      -4.561  -0.011  13.621  1.00  0.00    -0.265 OA
ATOM     18  H1  UNL     1      -4.080   3.169  13.858  1.00  0.00     0.163 HD
BRANCH  16  19
HETATM   19  C13 UNL     1      -5.025   1.163  15.571  1.00  0.00     0.158 C 
HETATM   20  C14 UNL     1      -5.132   2.347  16.158  1.00  0.00     0.177 C 
HETATM   21  O5  UNL     1      -5.579   2.450  17.487  1.00  0.00    -0.358 OA
HETATM   22  C15 UNL     1      -6.514   1.458  17.963  1.00  0.00     0.201 C 
HETATM   23  C16 UNL     1      -6.000   0.108  17.562  1.00  0.00     0.202 C 
HETATM   24  O6  UNL     1      -5.365   0.053  16.320  1.00  0.00    -0.342 OA
ENDBRANCH  16  19
ENDBRANCH  14  15
ENDBRANCH   1  14
TORSDOF 8
ENDMDL
MODEL 5
REMARK VINA RESULT: -6.710386652      1.078      1.792
REMARK  8 active torsions:
REMARK  status: ('A' for Active; 'I' for Inactive)
REMARK    1  A    between atoms: C2_2  and  C5_5 
REMARK    2  A    between atoms: C5_5  and  C8_8 
REMARK    3  A    between atoms: C8_8  and  C9_10 
REMARK    4  A    between atoms: C9_10  and  O2_11 
REMARK    5  A    between atoms: O2_11  and  C10_12 
REMARK    6  A    between atoms: C10_12  and  C11_14 
REMARK    7  A    between atoms: C11_14  and  N1_15 
REMARK       I    between atoms: N1_15  and  C12_17 
REMARK    8  A    between atoms: C12_17  and  C13_19 
ROOT
HETATM    1  C10 UNL     1      -4.869   1.019  11.273  1.00  0.00     0.277 C 
HETATM    2  O3  UNL     1      -5.015   0.128  10.407  1.00  0.00    -0.263 OA
ENDROOT
BRANCH   1   3
HETATM    3  O2  UNL     1      -5.305   2.329  11.114  1.00  0.00    -0.313 OA
BRANCH   3   4
HETATM    4  C9  UNL     1      -4.301   3.327  11.127  1.00  0.00     0.258 C 
BRANCH   4   5
HETATM    5  C8  UNL     1      -4.343   4.124  12.374  1.00  0.00     0.159 C 
HETATM    6  O1  UNL     1      -5.401   4.324  12.968  1.00  0.00    -0.295 OA
BRANCH   5   7
HETATM    7  C5  UNL     1      -3.037   4.667  12.865  1.00  0.00     0.022 C 
HETATM    8  C6  UNL     1      -1.975   3.917  12.068  1.00  0.00     0.024 C 
HETATM    9  C7  UNL     1      -2.951   4.376  14.325  1.00  0.00     0.024 C 
BRANCH   7  10
HETATM   10  C2  UNL     1      -2.868   6.130  12.534  1.00  0.00    -0.037 C 
HETATM   11  C1  UNL     1      -2.737   6.956  13.801  1.00  0.00     0.015 C 
HETATM   12  C3  UNL     1      -1.640   6.266  11.665  1.00  0.00     0.015 C 
HETATM   13  C4  UNL     1      -4.053   6.646  11.785  1.00  0.00     0.015 C 
ENDBRANCH   7  10
ENDBRANCH   5   7
ENDBRANCH   4   5
ENDBRANCH   3   4
ENDBRANCH   1   3
BRANCH   1  14
HETATM   14  C11 UNL     1      -4.164   0.589  12.536  1.00  0.00     0.234 C 
BRANCH  14  15
HETATM   15  N1  UNL     1      -4.644   1.340  13.658  1.00  0.00    -0.346 N 
HETATM   16  C12 UNL     1      -4.854   0.628  14.887  1.00  0.00     0.277 C 
HETATM   17  O4  UNL     1      -4.606  -0.605  14.883  1.00  0.00    -0.265 OA
ATOM     18  H1  UNL     1      -4.829   2.341  13.586  1.00  0.00     0.163 HD
BRANCH  16  19
HETATM   19  C13 UNL     1      -5.326   1.231  16.111  1.00  0.00     0.158 C 
HETATM   20  C14 UNL     1      -5.968   2.390  16.048  1.00  0.00     0.177 C 
HETATM   21  O5  UNL     1      -6.445   3.009  17.216  1.00  0.00    -0.358 OA
HETATM   22  C15 UNL     1      -6.847   2.161  18.314  1.00  0.00     0.201 C 
HETATM   23  C16 UNL     1      -5.772   1.137  18.523  1.00  0.00     0.202 C 
HETATM   24  O6  UNL     1      -5.150   0.674  17.363  1.00  0.00    -0.342 OA
ENDBRANCH  16  19
ENDBRANCH  14  15
ENDBRANCH   1  14
TORSDOF 8
ENDMDL
