MODEL 1
REMARK VINA RESULT: -7.871992703      0.000      0.000
REMARK  8 active torsions:
REMARK  status: ('A' for Active; 'I' for Inactive)
REMARK    1  A    between atoms: O1_2  and  C2_3 
REMARK    2  A    between atoms: C5_6  and  C6_7 
REMARK    3  A    between atoms: C6_7  and  N1_8 
REMARK    4  A    between atoms: C9_11  and  O2_12 
REMARK    5  A    between atoms: C9_11  and  C10_14 
REMARK    6  A    between atoms: C10_14  and  N2_15 
REMARK       I    between atoms: N2_15  and  C11_17 
REMARK    7  A    between atoms: C11_17  and  C12_19 
REMARK    8  A    between atoms: C12_19  and  C13_20 
ROOT
HETATM    1  N1  UNL     1      -4.169   5.490  11.096  1.00  0.00    -0.370 N 
HETATM    2  C7  UNL     1      -2.917   5.043  11.431  1.00  0.00     0.066 C 
HETATM    3  C8  UNL     1      -2.941   3.520  11.358  1.00  0.00     0.090 C 
HETATM    4  C9  UNL     1      -4.309   3.194  10.955  1.00  0.00     0.110 C 
HETATM    5  C17 UNL     1      -5.117   4.483  11.391  1.00  0.00     0.170 C 
ENDROOT
BRANCH   4   6
HETATM    6  O2  UNL     1      -4.579   3.156   9.588  1.00  0.00    -0.382 OA
ATOM      7  H2  UNL     1      -4.638   2.300   9.181  1.00  0.00     0.211 HD
ENDBRANCH   4   6
BRANCH   4   8
HETATM    8  C10 UNL     1      -4.900   2.034  11.664  1.00  0.00     0.103 C 
BRANCH   8   9
HETATM    9  N2  UNL     1      -5.328   2.253  12.989  1.00  0.00    -0.335 N 
HETATM   10  C11 UNL     1      -4.712   2.073  14.224  1.00  0.00     0.265 C 
HETATM   11  O3  UNL     1      -3.563   1.652  14.387  1.00  0.00    -0.269 OA
ATOM     12  H2  UNL     1      -6.278   2.617  13.055  1.00  0.00     0.168 HD
BRANCH  10  13
HETATM   13  C12 UNL     1      -5.455   2.400  15.506  1.00  0.00     0.239 C 
HETATM   14  C14 UNL     1      -4.614   2.127  16.718  1.00  0.00     0.060 C 
HETATM   15  C15 UNL     1      -5.656   1.692  17.725  1.00  0.00     0.030 C 
HETATM   16  C16 UNL     1      -6.737   1.142  16.835  1.00  0.00     0.170 C 
HETATM   17  O4  UNL     1      -6.575   1.629  15.570  1.00  0.00    -0.362 OA
BRANCH  13  18
HETATM   18  C13 UNL     1      -5.839   3.854  15.457  1.00  0.00     0.427 C 
HETATM   19  F1  UNL     1      -6.791   4.102  14.477  1.00  0.00    -0.167 F 
HETATM   20  F2  UNL     1      -4.754   4.673  15.225  1.00  0.00    -0.167 F 
HETATM   21  F3  UNL     1      -6.432   4.253  16.657  1.00  0.00    -0.167 F 
ENDBRANCH  13  18
ENDBRANCH  10  13
ENDBRANCH   8   9
ENDBRANCH   4   8
BRANCH   1  22
HETATM   22  C6  UNL     1      -4.459   6.307  10.007  1.00  0.00     0.068 C 
BRANCH  22  23
HETATM   23  C5  UNL     1      -5.883   6.513   9.628  1.00  0.00     0.024 C 
HETATM   24  C4  UNL     1      -6.212   6.401   8.179  1.00  0.00     0.012 C 
HETATM   25  C3  UNL     1      -7.741   6.397   8.042  1.00  0.00     0.032 C 
HETATM   26  C2  UNL     1      -8.208   7.723   8.602  1.00  0.00     0.120 C 
HETATM   27  C19 UNL     1      -7.943   7.681  10.091  1.00  0.00     0.032 C 
HETATM   28  C18 UNL     1      -6.421   7.822  10.227  1.00  0.00     0.012 C 
BRANCH  26  29
HETATM   29  O1  UNL     1      -9.497   8.033   8.283  1.00  0.00    -0.391 OA
HETATM   30  C1  UNL     1      -9.505   9.145   7.446  1.00  0.00     0.202 C 
ENDBRANCH  26  29
ENDBRANCH  22  23
ENDBRANCH   1  22
TORSDOF 8
ENDMDL
MODEL 2
REMARK VINA RESULT: -7.736664894      1.558      1.811
REMARK  8 active torsions:
REMARK  status: ('A' for Active; 'I' for Inactive)
REMARK    1  A    between atoms: O1_2  and  C2_3 
REMARK    2  A    between atoms: C5_6  and  C6_7 
REMARK    3  A    between atoms: C6_7  and  N1_8 
REMARK    4  A    between atoms: C9_11  and  O2_12 
REMARK    5  A    between atoms: C9_11  and  C10_14 
REMARK    6  A    between atoms: C10_14  and  N2_15 
REMARK       I    between atoms: N2_15  and  C11_17 
REMARK    7  A    between atoms: C11_17  and  C12_19 
REMARK    8  A    between atoms: C12_19  and  C13_20 
ROOT
HETATM    1  N1  UNL     1      -4.559   4.734  10.863  1.00  0.00    -0.370 N 
HETATM    2  C7  UNL     1      -3.191   4.646  10.871  1.00  0.00     0.066 C 
HETATM    3  C8  UNL     1      -2.829   3.180  11.078  1.00  0.00     0.090 C 
HETATM    4  C9  UNL     1      -4.118   2.495  11.177  1.00  0.00     0.110 C 
HETATM    5  C17 UNL     1      -5.099   3.661  11.606  1.00  0.00     0.170 C 
ENDROOT
BRANCH   4   6
HETATM    6  O2  UNL     1      -4.707   2.069   9.988  1.00  0.00    -0.382 OA
ATOM      7  H2  UNL     1      -5.655   2.007   9.971  1.00  0.00     0.211 HD
ENDBRANCH   4   6
BRANCH   4   8
HETATM    8  C10 UNL     1      -4.179   1.449  12.226  1.00  0.00     0.103 C 
BRANCH   8   9
HETATM    9  N2  UNL     1      -4.878   1.776  13.406  1.00  0.00    -0.335 N 
HETATM   10  C11 UNL     1      -4.500   1.840  14.743  1.00  0.00     0.265 C 
HETATM   11  O3  UNL     1      -3.364   1.604  15.169  1.00  0.00    -0.269 OA
ATOM     12  H2  UNL     1      -5.858   2.012  13.247  1.00  0.00     0.168 HD
BRANCH  10  13
HETATM   13  C12 UNL     1      -5.509   2.224  15.809  1.00  0.00     0.239 C 
HETATM   14  C14 UNL     1      -4.924   2.123  17.187  1.00  0.00     0.060 C 
HETATM   15  C15 UNL     1      -6.127   1.704  18.003  1.00  0.00     0.030 C 
HETATM   16  C16 UNL     1      -6.968   0.998  16.975  1.00  0.00     0.170 C 
HETATM   17  O4  UNL     1      -6.574   1.381  15.724  1.00  0.00    -0.362 OA
BRANCH  13  18
HETATM   18  C13 UNL     1      -5.952   3.636  15.534  1.00  0.00     0.427 C 
HETATM   19  F1  UNL     1      -6.564   4.207  16.642  1.00  0.00    -0.167 F 
HETATM   20  F2  UNL     1      -6.824   3.711  14.469  1.00  0.00    -0.167 F 
HETATM   21  F3  UNL     1      -4.856   4.456  15.255  1.00  0.00    -0.167 F 
ENDBRANCH  13  18
ENDBRANCH  10  13
ENDBRANCH   8   9
ENDBRANCH   4   8
BRANCH   1  22
HETATM   22  C6  UNL     1      -5.323   5.184   9.789  1.00  0.00     0.068 C 
BRANCH  22  23
HETATM   23  C5  UNL     1      -5.815   6.587   9.801  1.00  0.00     0.024 C 
HETATM   24  C4  UNL     1      -4.994   7.590   9.064  1.00  0.00     0.012 C 
HETATM   25  C3  UNL     1      -5.799   8.896   8.993  1.00  0.00     0.032 C 
HETATM   26  C2  UNL     1      -6.016   9.324  10.429  1.00  0.00     0.120 C 
HETATM   27  C19 UNL     1      -6.958   8.312  11.044  1.00  0.00     0.032 C 
HETATM   28  C18 UNL     1      -6.109   7.048  11.238  1.00  0.00     0.012 C 
BRANCH  26  29
HETATM   29  O1  UNL     1      -6.436  10.615  10.561  1.00  0.00    -0.391 OA
HETATM   30  C1  UNL     1      -6.562  11.185   9.297  1.00  0.00     0.202 C 
ENDBRANCH  26  29
ENDBRANCH  22  23
ENDBRANCH   1  22
TORSDOF 8
ENDMDL
MODEL 3
REMARK VINA RESULT: -7.727575498      2.514      7.673
REMARK  8 active torsions:
REMARK  status: ('A' for Active; 'I' for Inactive)
REMARK    1  A    between atoms: O1_2  and  C2_3 
REMARK    2  A    between atoms: C5_6  and  C6_7 
REMARK    3  A    between atoms: C6_7  and  N1_8 
REMARK    4  A    between atoms: C9_11  and  O2_12 
REMARK    5  A    between atoms: C9_11  and  C10_14 
REMARK    6  A    between atoms: C10_14  and  N2_15 
REMARK       I    between atoms: N2_15  and  C11_17 
REMARK    7  A    between atoms: C11_17  and  C12_19 
REMARK    8  A    between atoms: C12_19  and  C13_20 
ROOT
HETATM    1  N1  UNL     1      -1.916   4.194  13.508  1.00  0.00    -0.370 N 
HETATM    2  C7  UNL     1      -0.907   5.063  13.175  1.00  0.00     0.066 C 
HETATM    3  C8  UNL     1      -1.463   6.032  12.138  1.00  0.00     0.090 C 
HETATM    4  C9  UNL     1      -2.851   5.609  11.947  1.00  0.00     0.110 C 
HETATM    5  C17 UNL     1      -2.824   4.101  12.428  1.00  0.00     0.170 C 
ENDROOT
BRANCH   4   6
HETATM    6  O2  UNL     1      -3.806   6.150  12.806  1.00  0.00    -0.382 OA
ATOM      7  H2  UNL     1      -4.362   5.540  13.276  1.00  0.00     0.211 HD
ENDBRANCH   4   6
BRANCH   4   8
HETATM    8  C10 UNL     1      -3.309   5.621  10.537  1.00  0.00     0.103 C 
BRANCH   8   9
HETATM    9  N2  UNL     1      -4.412   6.446  10.238  1.00  0.00    -0.335 N 
HETATM   10  C11 UNL     1      -5.648   6.196   9.649  1.00  0.00     0.265 C 
HETATM   11  O3  UNL     1      -6.032   5.091   9.253  1.00  0.00    -0.269 OA
ATOM     12  H2  UNL     1      -4.276   7.420  10.506  1.00  0.00     0.168 HD
BRANCH  10  13
HETATM   13  C12 UNL     1      -6.644   7.323   9.450  1.00  0.00     0.239 C 
HETATM   14  C14 UNL     1      -7.798   6.896   8.591  1.00  0.00     0.060 C 
HETATM   15  C15 UNL     1      -8.131   8.179   7.861  1.00  0.00     0.030 C 
HETATM   16  C16 UNL     1      -6.806   8.892   7.867  1.00  0.00     0.170 C 
HETATM   17  O4  UNL     1      -6.010   8.363   8.843  1.00  0.00    -0.362 OA
BRANCH  13  18
HETATM   18  C13 UNL     1      -7.136   7.747  10.808  1.00  0.00     0.427 C 
HETATM   19  F1  UNL     1      -8.523   7.768  10.869  1.00  0.00    -0.167 F 
HETATM   20  F2  UNL     1      -6.666   8.992  11.168  1.00  0.00    -0.167 F 
HETATM   21  F3  UNL     1      -6.738   6.834  11.787  1.00  0.00    -0.167 F 
ENDBRANCH  13  18
ENDBRANCH  10  13
ENDBRANCH   8   9
ENDBRANCH   4   8
BRANCH   1  22
HETATM   22  C6  UNL     1      -2.458   4.053  14.782  1.00  0.00     0.068 C 
BRANCH  22  23
HETATM   23  C5  UNL     1      -3.562   3.077  14.983  1.00  0.00     0.024 C 
HETATM   24  C4  UNL     1      -4.862   3.628  15.463  1.00  0.00     0.012 C 
HETATM   25  C3  UNL     1      -5.912   2.512  15.361  1.00  0.00     0.032 C 
HETATM   26  C2  UNL     1      -5.424   1.404  16.271  1.00  0.00     0.120 C 
HETATM   27  C19 UNL     1      -4.179   0.834  15.629  1.00  0.00     0.032 C 
HETATM   28  C18 UNL     1      -3.095   1.899  15.853  1.00  0.00     0.012 C 
BRANCH  26  29
HETATM   29  O1  UNL     1      -6.373   0.467  16.554  1.00  0.00    -0.391 OA
HETATM   30  C1  UNL     1      -7.531   1.106  16.987  1.00  0.00     0.202 C 
ENDBRANCH  26  29
ENDBRANCH  22  23
ENDBRANCH   1  22
TORSDOF 8
ENDMDL
MODEL 4
REMARK VINA RESULT: -7.695087827      2.465      7.635
REMARK  8 active torsions:
REMARK  status: ('A' for Active; 'I' for Inactive)
REMARK    1  A    between atoms: O1_2  and  C2_3 
REMARK    2  A    between atoms: C5_6  and  C6_7 
REMARK    3  A    between atoms: C6_7  and  N1_8 
REMARK    4  A    between atoms: C9_11  and  O2_12 
REMARK    5  A    between atoms: C9_11  and  C10_14 
REMARK    6  A    between atoms: C10_14  and  N2_15 
REMARK       I    between atoms: N2_15  and  C11_17 
REMARK    7  A    between atoms: C11_17  and  C12_19 
REMARK    8  A    between atoms: C12_19  and  C13_20 
ROOT
HETATM    1  N1  UNL     1      -2.780   4.116  12.989  1.00  0.00    -0.370 N 
HETATM    2  C7  UNL     1      -1.505   4.024  12.489  1.00  0.00     0.066 C 
HETATM    3  C8  UNL     1      -1.381   5.050  11.369  1.00  0.00     0.090 C 
HETATM    4  C9  UNL     1      -2.693   5.697  11.315  1.00  0.00     0.110 C 
HETATM    5  C17 UNL     1      -3.638   4.619  11.986  1.00  0.00     0.170 C 
ENDROOT
BRANCH   4   6
HETATM    6  O2  UNL     1      -2.897   6.793  12.150  1.00  0.00    -0.382 OA
ATOM      7  H2  UNL     1      -3.662   6.774  12.712  1.00  0.00     0.211 HD
ENDBRANCH   4   6
BRANCH   4   8
HETATM    8  C10 UNL     1      -3.199   5.947   9.944  1.00  0.00     0.103 C 
BRANCH   8   9
HETATM    9  N2  UNL     1      -4.356   6.744   9.834  1.00  0.00    -0.335 N 
HETATM   10  C11 UNL     1      -5.678   6.454   9.510  1.00  0.00     0.265 C 
HETATM   11  O3  UNL     1      -6.110   5.327   9.244  1.00  0.00    -0.269 OA
ATOM     12  H2  UNL     1      -4.191   7.731  10.029  1.00  0.00     0.168 HD
BRANCH  10  13
HETATM   13  C12 UNL     1      -6.717   7.558   9.464  1.00  0.00     0.239 C 
HETATM   14  C14 UNL     1      -7.960   7.119   8.748  1.00  0.00     0.060 C 
HETATM   15  C15 UNL     1      -8.412   8.408   8.096  1.00  0.00     0.030 C 
HETATM   16  C16 UNL     1      -7.114   9.154   7.951  1.00  0.00     0.170 C 
HETATM   17  O4  UNL     1      -6.189   8.626   8.807  1.00  0.00    -0.362 OA
BRANCH  13  18
HETATM   18  C13 UNL     1      -7.043   7.942  10.882  1.00  0.00     0.427 C 
HETATM   19  F1  UNL     1      -8.378   7.709  11.185  1.00  0.00    -0.167 F 
HETATM   20  F2  UNL     1      -6.764   9.267  11.142  1.00  0.00    -0.167 F 
HETATM   21  F3  UNL     1      -6.318   7.162  11.787  1.00  0.00    -0.167 F 
ENDBRANCH  13  18
ENDBRANCH  10  13
ENDBRANCH   8   9
ENDBRANCH   4   8
BRANCH   1  22
HETATM   22  C6  UNL     1      -3.098   4.458  14.301  1.00  0.00     0.068 C 
BRANCH  22  23
HETATM   23  C5  UNL     1      -3.824   3.468  15.141  1.00  0.00     0.024 C 
HETATM   24  C4  UNL     1      -3.324   2.064  15.098  1.00  0.00     0.012 C 
HETATM   25  C3  UNL     1      -4.039   1.277  16.206  1.00  0.00     0.032 C 
HETATM   26  C2  UNL     1      -5.513   1.338  15.870  1.00  0.00     0.120 C 
HETATM   27  C19 UNL     1      -5.942   2.775  16.066  1.00  0.00     0.032 C 
HETATM   28  C18 UNL     1      -5.336   3.535  14.877  1.00  0.00     0.012 C 
BRANCH  26  29
HETATM   29  O1  UNL     1      -6.273   0.440  16.560  1.00  0.00    -0.391 OA
HETATM   30  C1  UNL     1      -7.398   1.086  17.064  1.00  0.00     0.202 C 
ENDBRANCH  26  29
ENDBRANCH  22  23
ENDBRANCH   1  22
TORSDOF 8
ENDMDL
MODEL 5
REMARK VINA RESULT: -7.694848004      2.518      7.828
REMARK  8 active torsions:
REMARK  status: ('A' for Active; 'I' for Inactive)
REMARK    1  A    between atoms: O1_2  and  C2_3 
REMARK    2  A    between atoms: C5_6  and  C6_7 
REMARK    3  A    between atoms: C6_7  and  N1_8 
REMARK    4  A    between atoms: C9_11  and  O2_12 
REMARK    5  A    between atoms: C9_11  and  C10_14 
REMARK    6  A    between atoms: C10_14  and  N2_15 
REMARK       I    between atoms: N2_15  and  C11_17 
REMARK    7  A    between atoms: C11_17  and  C12_19 
REMARK    8  A    between atoms: C12_19  and  C13_20 
ROOT
HETATM    1  N1  UNL     1      -2.806   3.629  11.620  1.00  0.00    -0.370 N 
HETATM    2  C7  UNL     1      -1.624   3.520  10.932  1.00  0.00     0.066 C 
HETATM    3  C8  UNL     1      -1.567   4.675   9.939  1.00  0.00     0.090 C 
HETATM    4  C9  UNL     1      -2.815   5.408  10.155  1.00  0.00     0.110 C 
HETATM    5  C17 UNL     1      -3.748   4.316  10.820  1.00  0.00     0.170 C 
ENDROOT
BRANCH   4   6
HETATM    6  O2  UNL     1      -2.812   6.396  11.138  1.00  0.00    -0.382 OA
ATOM      7  H2  UNL     1      -3.253   7.212  10.934  1.00  0.00     0.211 HD
ENDBRANCH   4   6
BRANCH   4   8
HETATM    8  C10 UNL     1      -3.481   5.870   8.913  1.00  0.00     0.103 C 
BRANCH   8   9
HETATM    9  N2  UNL     1      -4.559   6.763   9.069  1.00  0.00    -0.335 N 
HETATM   10  C11 UNL     1      -5.940   6.589   9.070  1.00  0.00     0.265 C 
HETATM   11  O3  UNL     1      -6.516   5.505   8.926  1.00  0.00    -0.269 OA
ATOM     12  H2  UNL     1      -4.270   7.731   9.208  1.00  0.00     0.168 HD
BRANCH  10  13
HETATM   13  C12 UNL     1      -6.864   7.777   9.257  1.00  0.00     0.239 C 
HETATM   14  C14 UNL     1      -8.222   7.520   8.674  1.00  0.00     0.060 C 
HETATM   15  C15 UNL     1      -8.622   8.901   8.201  1.00  0.00     0.030 C 
HETATM   16  C16 UNL     1      -7.285   9.542   7.953  1.00  0.00     0.170 C 
HETATM   17  O4  UNL     1      -6.318   8.856   8.630  1.00  0.00    -0.362 OA
BRANCH  13  18
HETATM   18  C13 UNL     1      -6.973   8.046  10.733  1.00  0.00     0.427 C 
HETATM   19  F1  UNL     1      -8.234   7.728  11.221  1.00  0.00    -0.167 F 
HETATM   20  F2  UNL     1      -6.706   9.362  11.045  1.00  0.00    -0.167 F 
HETATM   21  F3  UNL     1      -6.085   7.242  11.452  1.00  0.00    -0.167 F 
ENDBRANCH  13  18
ENDBRANCH  10  13
ENDBRANCH   8   9
ENDBRANCH   4   8
BRANCH   1  22
HETATM   22  C6  UNL     1      -2.914   3.815  12.995  1.00  0.00     0.068 C 
BRANCH  22  23
HETATM   23  C5  UNL     1      -3.246   2.644  13.850  1.00  0.00     0.024 C 
HETATM   24  C4  UNL     1      -4.224   1.666  13.292  1.00  0.00     0.012 C 
HETATM   25  C3  UNL     1      -4.230   0.434  14.208  1.00  0.00     0.032 C 
HETATM   26  C2  UNL     1      -4.677   0.932  15.566  1.00  0.00     0.120 C 
HETATM   27  C19 UNL     1      -3.563   1.810  16.092  1.00  0.00     0.032 C 
HETATM   28  C18 UNL     1      -3.649   3.099  15.262  1.00  0.00     0.012 C 
BRANCH  26  29
HETATM   29  O1  UNL     1      -5.043  -0.063  16.424  1.00  0.00    -0.391 OA
HETATM   30  C1  UNL     1      -5.858   0.470  17.418  1.00  0.00     0.202 C 
ENDBRANCH  26  29
ENDBRANCH  22  23
ENDBRANCH   1  22
TORSDOF 8
ENDMDL
