MODEL 1
REMARK VINA RESULT: -7.729115196      0.000      0.000
REMARK  8 active torsions:
REMARK  status: ('A' for Active; 'I' for Inactive)
REMARK    1  A    between atoms: C2_2  and  C3_3 
REMARK    2  A    between atoms: C3_3  and  N1_4 
REMARK    3  A    between atoms: N2_7  and  C6_8 
REMARK    4  A    between atoms: N4_14  and  C10_16 
REMARK    5  A    between atoms: C10_16  and  C11_17 
REMARK    6  A    between atoms: C10_16  and  C12_20 
REMARK    7  A    between atoms: C11_17  and  O1_18 
REMARK    8  A    between atoms: C15_23  and  C16_24 
ROOT
HETATM    1  C6  UNL     1      -0.203   4.531  10.320  1.00  0.00     0.120 A 
HETATM    2  C7  UNL     1      -0.534   5.791  10.750  1.00  0.00     0.066 A 
HETATM    3  C8  UNL     1      -1.696   6.008  11.488  1.00  0.00     0.110 A 
HETATM    4  N3  UNL     1      -2.519   4.972  11.794  1.00  0.00    -0.202 N 
ATOM      5  H3  UNL     1      -3.370   5.123  12.336  1.00  0.00     0.183 HD
HETATM    6  C9  UNL     1      -2.185   3.750  11.368  1.00  0.00     0.679 A 
HETATM    7  N4  UNL     1      -2.916   2.728  11.625  1.00  0.00    -0.219 N 
ATOM      8  H4  UNL     1      -2.568   1.844  11.254  1.00  0.00     0.178 HD
HETATM    9  N5  UNL     1      -1.035   3.537  10.638  1.00  0.00    -0.177 N 
ATOM     10  H5  UNL     1      -0.812   2.590  10.331  1.00  0.00     0.185 HD
ENDROOT
BRANCH   7  11
HETATM   11  C10 UNL     1      -4.133   2.639  12.345  1.00  0.00     0.127 C 
BRANCH  11  12
HETATM   12  C11 UNL     1      -4.969   1.516  11.746  1.00  0.00     0.190 C 
BRANCH  12  13
HETATM   13  O1  UNL     1      -5.959   2.101  10.974  1.00  0.00    -0.399 OA
ATOM     14  H1  UNL     1      -6.710   1.520  10.985  1.00  0.00     0.209 HD
ENDBRANCH  12  13
ENDBRANCH  11  12
BRANCH  11  15
HETATM   15  C12 UNL     1      -3.914   2.394  13.830  1.00  0.00     0.011 C 
HETATM   16  C13 UNL     1      -4.344   1.034  14.270  1.00  0.00     0.007 C 
HETATM   17  C14 UNL     1      -3.993   0.890  15.737  1.00  0.00     0.014 C 
HETATM   18  C15 UNL     1      -4.653   1.911  16.604  1.00  0.00     0.093 C 
HETATM   19  C17 UNL     1      -5.280   3.038  15.831  1.00  0.00     0.014 C 
HETATM   20  C18 UNL     1      -4.439   3.497  14.671  1.00  0.00     0.007 C 
BRANCH  18  21
HETATM   21  C16 UNL     1      -5.785   1.217  17.359  1.00  0.00     0.391 C 
HETATM   22  F1  UNL     1      -6.951   1.463  16.621  1.00  0.00    -0.171 F 
HETATM   23  F2  UNL     1      -5.582  -0.124  17.475  1.00  0.00    -0.171 F 
HETATM   24  F3  UNL     1      -5.997   1.843  18.585  1.00  0.00    -0.171 F 
ENDBRANCH  18  21
ENDBRANCH  11  15
ENDBRANCH   7  11
BRANCH   1  25
HETATM   25  N2  UNL     1       0.968   4.282   9.571  1.00  0.00    -0.363 N 
HETATM   26  C5  UNL     1       0.909   4.162   8.114  1.00  0.00     0.154 C 
HETATM   27  C4  UNL     1       1.792   2.989   7.718  1.00  0.00     0.292 C 
HETATM   28  N1  UNL     1       3.148   3.264   8.061  1.00  0.00     0.095 N 
HETATM   29  C20 UNL     1       3.308   4.258   9.083  1.00  0.00     0.292 C 
HETATM   30  C19 UNL     1       2.275   4.135  10.179  1.00  0.00     0.154 C 
BRANCH  28  31
HETATM   31  C3  UNL     1       4.014   3.547   6.964  1.00  0.00     0.299 C 
BRANCH  31  32
HETATM   32  C2  UNL     1       3.837   2.692   5.788  1.00  0.00    -0.007 C 
HETATM   33  C1  UNL     1       4.597   1.628   5.596  1.00  0.00     0.008 C 
ENDBRANCH  31  32
ENDBRANCH  28  31
ENDBRANCH   1  25
TORSDOF 8
ENDMDL
MODEL 2
REMARK VINA RESULT: -7.620440030      1.353      1.835
REMARK  8 active torsions:
REMARK  status: ('A' for Active; 'I' for Inactive)
REMARK    1  A    between atoms: C2_2  and  C3_3 
REMARK    2  A    between atoms: C3_3  and  N1_4 
REMARK    3  A    between atoms: N2_7  and  C6_8 
REMARK    4  A    between atoms: N4_14  and  C10_16 
REMARK    5  A    between atoms: C10_16  and  C11_17 
REMARK    6  A    between atoms: C10_16  and  C12_20 
REMARK    7  A    between atoms: C11_17  and  O1_18 
REMARK    8  A    between atoms: C15_23  and  C16_24 
ROOT
HETATM    1  C6  UNL     1      -0.531   4.849  11.337  1.00  0.00     0.120 A 
HETATM    2  C7  UNL     1      -0.343   5.947  12.138  1.00  0.00     0.066 A 
HETATM    3  C8  UNL     1      -1.350   6.380  12.999  1.00  0.00     0.110 A 
HETATM    4  N3  UNL     1      -2.534   5.718  13.059  1.00  0.00    -0.202 N 
ATOM      5  H3  UNL     1      -3.274   6.027  13.689  1.00  0.00     0.183 HD
HETATM    6  C9  UNL     1      -2.704   4.650  12.273  1.00  0.00     0.679 A 
HETATM    7  N4  UNL     1      -3.796   3.978  12.283  1.00  0.00    -0.219 N 
ATOM      8  H4  UNL     1      -3.819   3.182  11.646  1.00  0.00     0.178 HD
HETATM    9  N5  UNL     1      -1.707   4.223  11.421  1.00  0.00    -0.177 N 
ATOM     10  H5  UNL     1      -1.873   3.403  10.837  1.00  0.00     0.185 HD
ENDROOT
BRANCH   7  11
HETATM   11  C10 UNL     1      -4.976   4.172  13.043  1.00  0.00     0.127 C 
BRANCH  11  12
HETATM   12  C11 UNL     1      -6.116   3.420  12.370  1.00  0.00     0.190 C 
BRANCH  12  13
HETATM   13  O1  UNL     1      -5.648   2.964  11.148  1.00  0.00    -0.399 OA
ATOM     14  H1  UNL     1      -6.095   3.457  10.471  1.00  0.00     0.209 HD
ENDBRANCH  12  13
ENDBRANCH  11  12
BRANCH  11  15
HETATM   15  C12 UNL     1      -4.822   3.710  14.485  1.00  0.00     0.011 C 
HETATM   16  C13 UNL     1      -4.795   2.224  14.623  1.00  0.00     0.007 C 
HETATM   17  C14 UNL     1      -4.551   1.900  16.083  1.00  0.00     0.014 C 
HETATM   18  C15 UNL     1      -5.598   2.454  16.993  1.00  0.00     0.093 C 
HETATM   19  C17 UNL     1      -6.503   3.454  16.327  1.00  0.00     0.014 C 
HETATM   20  C18 UNL     1      -5.770   4.387  15.403  1.00  0.00     0.007 C 
BRANCH  18  21
HETATM   21  C16 UNL     1      -6.486   1.293  17.439  1.00  0.00     0.391 C 
HETATM   22  F1  UNL     1      -6.952   1.631  18.718  1.00  0.00    -0.171 F 
HETATM   23  F2  UNL     1      -7.539   1.096  16.600  1.00  0.00    -0.171 F 
HETATM   24  F3  UNL     1      -5.718   0.147  17.628  1.00  0.00    -0.171 F 
ENDBRANCH  18  21
ENDBRANCH  11  15
ENDBRANCH   7  11
BRANCH   1  25
HETATM   25  N2  UNL     1       0.471   4.388  10.455  1.00  0.00    -0.363 N 
HETATM   26  C5  UNL     1       1.782   3.985  10.964  1.00  0.00     0.154 C 
HETATM   27  C4  UNL     1       2.830   4.551  10.019  1.00  0.00     0.292 C 
HETATM   28  N1  UNL     1       2.686   3.967   8.726  1.00  0.00     0.095 N 
HETATM   29  C20 UNL     1       1.384   3.422   8.468  1.00  0.00     0.292 C 
HETATM   30  C19 UNL     1       0.273   4.282   9.023  1.00  0.00     0.154 C 
BRANCH  28  31
HETATM   31  C3  UNL     1       3.692   3.025   8.361  1.00  0.00     0.299 C 
BRANCH  31  32
HETATM   32  C2  UNL     1       3.207   1.677   8.055  1.00  0.00    -0.007 C 
HETATM   33  C1  UNL     1       4.022   0.638   8.067  1.00  0.00     0.008 C 
ENDBRANCH  31  32
ENDBRANCH  28  31
ENDBRANCH   1  25
TORSDOF 8
ENDMDL
MODEL 3
REMARK VINA RESULT: -7.599031989      0.870      1.464
REMARK  8 active torsions:
REMARK  status: ('A' for Active; 'I' for Inactive)
REMARK    1  A    between atoms: C2_2  and  C3_3 
REMARK    2  A    between atoms: C3_3  and  N1_4 
REMARK    3  A    between atoms: N2_7  and  C6_8 
REMARK    4  A    between atoms: N4_14  and  C10_16 
REMARK    5  A    between atoms: C10_16  and  C11_17 
REMARK    6  A    between atoms: C10_16  and  C12_20 
REMARK    7  A    between atoms: C11_17  and  O1_18 
REMARK    8  A    between atoms: C15_23  and  C16_24 
ROOT
HETATM    1  C6  UNL     1      -0.298   4.382  10.004  1.00  0.00     0.120 A 
HETATM    2  C7  UNL     1      -0.248   5.649  10.529  1.00  0.00     0.066 A 
HETATM    3  C8  UNL     1      -1.239   6.098  11.399  1.00  0.00     0.110 A 
HETATM    4  N3  UNL     1      -2.271   5.286  11.743  1.00  0.00    -0.202 N 
ATOM      5  H3  UNL     1      -2.999   5.607  12.381  1.00  0.00     0.183 HD
HETATM    6  C9  UNL     1      -2.309   4.055  11.225  1.00  0.00     0.679 A 
HETATM    7  N4  UNL     1      -3.253   3.236  11.510  1.00  0.00    -0.219 N 
ATOM      8  H4  UNL     1      -3.184   2.322  11.061  1.00  0.00     0.178 HD
HETATM    9  N5  UNL     1      -1.327   3.611  10.363  1.00  0.00    -0.177 N 
ATOM     10  H5  UNL     1      -1.389   2.664   9.988  1.00  0.00     0.185 HD
ENDROOT
BRANCH   7  11
HETATM   11  C10 UNL     1      -4.379   3.405  12.354  1.00  0.00     0.127 C 
BRANCH  11  12
HETATM   12  C11 UNL     1      -5.554   2.645  11.753  1.00  0.00     0.190 C 
BRANCH  12  13
HETATM   13  O1  UNL     1      -5.475   2.779  10.377  1.00  0.00    -0.399 OA
ATOM     14  H1  UNL     1      -4.618   2.468  10.109  1.00  0.00     0.209 HD
ENDBRANCH  12  13
ENDBRANCH  11  12
BRANCH  11  15
HETATM   15  C12 UNL     1      -4.118   2.928  13.775  1.00  0.00     0.011 C 
HETATM   16  C13 UNL     1      -4.550   1.519  14.008  1.00  0.00     0.007 C 
HETATM   17  C14 UNL     1      -4.157   1.143  15.423  1.00  0.00     0.014 C 
HETATM   18  C15 UNL     1      -4.778   2.020  16.460  1.00  0.00     0.093 C 
HETATM   19  C17 UNL     1      -5.416   3.259  15.894  1.00  0.00     0.014 C 
HETATM   20  C18 UNL     1      -4.605   3.889  14.795  1.00  0.00     0.007 C 
BRANCH  18  21
HETATM   21  C16 UNL     1      -5.895   1.224  17.133  1.00  0.00     0.391 C 
HETATM   22  F1  UNL     1      -5.945   1.672  18.460  1.00  0.00    -0.171 F 
HETATM   23  F2  UNL     1      -7.101   1.418  16.532  1.00  0.00    -0.171 F 
HETATM   24  F3  UNL     1      -5.541  -0.120  17.220  1.00  0.00    -0.171 F 
ENDBRANCH  18  21
ENDBRANCH  11  15
ENDBRANCH   7  11
BRANCH   1  25
HETATM   25  N2  UNL     1       0.692   3.900   9.121  1.00  0.00    -0.363 N 
HETATM   26  C5  UNL     1       2.042   3.606   9.604  1.00  0.00     0.154 C 
HETATM   27  C4  UNL     1       3.022   4.143   8.573  1.00  0.00     0.292 C 
HETATM   28  N1  UNL     1       2.858   3.449   7.338  1.00  0.00     0.095 N 
HETATM   29  C20 UNL     1       1.578   2.821   7.180  1.00  0.00     0.292 C 
HETATM   30  C19 UNL     1       0.446   3.668   7.711  1.00  0.00     0.154 C 
BRANCH  28  31
HETATM   31  C3  UNL     1       3.898   2.530   7.008  1.00  0.00     0.299 C 
BRANCH  31  32
HETATM   32  C2  UNL     1       3.563   1.115   7.184  1.00  0.00    -0.007 C 
HETATM   33  C1  UNL     1       4.185   0.372   8.081  1.00  0.00     0.008 C 
ENDBRANCH  31  32
ENDBRANCH  28  31
ENDBRANCH   1  25
TORSDOF 8
ENDMDL
MODEL 4
REMARK VINA RESULT: -7.542311562      1.340      1.829
REMARK  8 active torsions:
REMARK  status: ('A' for Active; 'I' for Inactive)
REMARK    1  A    between atoms: C2_2  and  C3_3 
REMARK    2  A    between atoms: C3_3  and  N1_4 
REMARK    3  A    between atoms: N2_7  and  C6_8 
REMARK    4  A    between atoms: N4_14  and  C10_16 
REMARK    5  A    between atoms: C10_16  and  C11_17 
REMARK    6  A    between atoms: C10_16  and  C12_20 
REMARK    7  A    between atoms: C11_17  and  O1_18 
REMARK    8  A    between atoms: C15_23  and  C16_24 
ROOT
HETATM    1  C6  UNL     1      -1.334   4.529   9.812  1.00  0.00     0.120 A 
HETATM    2  C7  UNL     1      -2.412   5.207   9.300  1.00  0.00     0.066 A 
HETATM    3  C8  UNL     1      -3.707   4.897   9.711  1.00  0.00     0.110 A 
HETATM    4  N3  UNL     1      -3.921   3.918  10.628  1.00  0.00    -0.202 N 
ATOM      5  H3  UNL     1      -4.866   3.687  10.935  1.00  0.00     0.183 HD
HETATM    6  C9  UNL     1      -2.863   3.265  11.117  1.00  0.00     0.679 A 
HETATM    7  N4  UNL     1      -2.994   2.332  11.987  1.00  0.00    -0.219 N 
ATOM      8  H4  UNL     1      -2.122   1.902  12.295  1.00  0.00     0.178 HD
HETATM    9  N5  UNL     1      -1.581   3.573  10.710  1.00  0.00    -0.177 N 
ATOM     10  H5  UNL     1      -0.798   3.054  11.107  1.00  0.00     0.185 HD
ENDROOT
BRANCH   7  11
HETATM   11  C10 UNL     1      -4.166   1.808  12.588  1.00  0.00     0.127 C 
BRANCH  11  12
HETATM   12  C11 UNL     1      -4.207   0.307  12.339  1.00  0.00     0.190 C 
BRANCH  12  13
HETATM   13  O1  UNL     1      -4.636   0.113  11.035  1.00  0.00    -0.399 OA
ATOM     14  H1  UNL     1      -4.151  -0.623  10.682  1.00  0.00     0.209 HD
ENDBRANCH  12  13
ENDBRANCH  11  12
BRANCH  11  15
HETATM   15  C12 UNL     1      -4.232   2.094  14.080  1.00  0.00     0.011 C 
HETATM   16  C13 UNL     1      -4.316   0.856  14.911  1.00  0.00     0.007 C 
HETATM   17  C14 UNL     1      -4.287   1.273  16.367  1.00  0.00     0.014 C 
HETATM   18  C15 UNL     1      -5.410   2.185  16.741  1.00  0.00     0.093 C 
HETATM   19  C17 UNL     1      -6.155   2.736  15.556  1.00  0.00     0.014 C 
HETATM   20  C18 UNL     1      -5.250   3.119  14.418  1.00  0.00     0.007 C 
BRANCH  18  21
HETATM   21  C16 UNL     1      -6.418   1.372  17.551  1.00  0.00     0.391 C 
HETATM   22  F1  UNL     1      -6.491   1.987  18.808  1.00  0.00    -0.171 F 
HETATM   23  F2  UNL     1      -7.650   1.353  16.972  1.00  0.00    -0.171 F 
HETATM   24  F3  UNL     1      -5.916   0.098  17.802  1.00  0.00    -0.171 F 
ENDBRANCH  18  21
ENDBRANCH  11  15
ENDBRANCH   7  11
BRANCH   1  25
HETATM   25  N2  UNL     1      -0.012   4.822   9.414  1.00  0.00    -0.363 N 
HETATM   26  C5  UNL     1       1.017   3.781   9.425  1.00  0.00     0.154 C 
HETATM   27  C4  UNL     1       2.282   4.397  10.003  1.00  0.00     0.292 C 
HETATM   28  N1  UNL     1       2.749   5.440   9.151  1.00  0.00     0.095 N 
HETATM   29  C20 UNL     1       1.744   5.993   8.290  1.00  0.00     0.292 C 
HETATM   30  C19 UNL     1       0.407   6.140   8.978  1.00  0.00     0.154 C 
BRANCH  28  31
HETATM   31  C3  UNL     1       3.925   5.139   8.401  1.00  0.00     0.299 C 
BRANCH  31  32
HETATM   32  C2  UNL     1       3.691   4.646   7.041  1.00  0.00    -0.007 C 
HETATM   33  C1  UNL     1       3.957   3.395   6.712  1.00  0.00     0.008 C 
ENDBRANCH  31  32
ENDBRANCH  28  31
ENDBRANCH   1  25
TORSDOF 8
ENDMDL
MODEL 5
REMARK VINA RESULT: -7.512666580      1.853      2.457
REMARK  8 active torsions:
REMARK  status: ('A' for Active; 'I' for Inactive)
REMARK    1  A    between atoms: C2_2  and  C3_3 
REMARK    2  A    between atoms: C3_3  and  N1_4 
REMARK    3  A    between atoms: N2_7  and  C6_8 
REMARK    4  A    between atoms: N4_14  and  C10_16 
REMARK    5  A    between atoms: C10_16  and  C11_17 
REMARK    6  A    between atoms: C10_16  and  C12_20 
REMARK    7  A    between atoms: C11_17  and  O1_18 
REMARK    8  A    between atoms: C15_23  and  C16_24 
ROOT
HETATM    1  C6  UNL     1      -0.814   4.442  10.207  1.00  0.00     0.120 A 
HETATM    2  C7  UNL     1      -1.835   5.147   9.622  1.00  0.00     0.066 A 
HETATM    3  C8  UNL     1      -3.164   4.866   9.933  1.00  0.00     0.110 A 
HETATM    4  N3  UNL     1      -3.468   3.887  10.824  1.00  0.00    -0.202 N 
ATOM      5  H3  UNL     1      -4.439   3.677  11.059  1.00  0.00     0.183 HD
HETATM    6  C9  UNL     1      -2.464   3.207  11.386  1.00  0.00     0.679 A 
HETATM    7  N4  UNL     1      -2.682   2.273  12.237  1.00  0.00    -0.219 N 
ATOM      8  H4  UNL     1      -1.845   1.820  12.605  1.00  0.00     0.178 HD
HETATM    9  N5  UNL     1      -1.150   3.487  11.077  1.00  0.00    -0.177 N 
ATOM     10  H5  UNL     1      -0.410   2.947  11.527  1.00  0.00     0.185 HD
ENDROOT
BRANCH   7  11
HETATM   11  C10 UNL     1      -3.906   1.773  12.745  1.00  0.00     0.127 C 
BRANCH  11  12
HETATM   12  C11 UNL     1      -3.974   0.278  12.464  1.00  0.00     0.190 C 
BRANCH  12  13
HETATM   13  O1  UNL     1      -4.642   0.111  11.262  1.00  0.00    -0.399 OA
ATOM     14  H1  UNL     1      -4.077   0.442  10.574  1.00  0.00     0.209 HD
ENDBRANCH  12  13
ENDBRANCH  11  12
BRANCH  11  15
HETATM   15  C12 UNL     1      -4.068   2.034  14.235  1.00  0.00     0.011 C 
HETATM   16  C13 UNL     1      -4.310   0.791  15.025  1.00  0.00     0.007 C 
HETATM   17  C14 UNL     1      -4.364   1.176  16.489  1.00  0.00     0.014 C 
HETATM   18  C15 UNL     1      -5.440   2.165  16.799  1.00  0.00     0.093 C 
HETATM   19  C17 UNL     1      -6.046   2.795  15.575  1.00  0.00     0.014 C 
HETATM   20  C18 UNL     1      -5.028   3.129  14.519  1.00  0.00     0.007 C 
BRANCH  18  21
HETATM   21  C16 UNL     1      -6.568   1.417  17.508  1.00  0.00     0.391 C 
HETATM   22  F1  UNL     1      -6.658   1.977  18.790  1.00  0.00    -0.171 F 
HETATM   23  F2  UNL     1      -7.759   1.546  16.861  1.00  0.00    -0.171 F 
HETATM   24  F3  UNL     1      -6.204   0.090  17.720  1.00  0.00    -0.171 F 
ENDBRANCH  18  21
ENDBRANCH  11  15
ENDBRANCH   7  11
BRANCH   1  25
HETATM   25  N2  UNL     1       0.540   4.706   9.910  1.00  0.00    -0.363 N 
HETATM   26  C5  UNL     1       0.998   6.076   9.673  1.00  0.00     0.154 C 
HETATM   27  C4  UNL     1       1.942   6.040   8.482  1.00  0.00     0.292 C 
HETATM   28  N1  UNL     1       3.094   5.262   8.796  1.00  0.00     0.095 N 
HETATM   29  C20 UNL     1       2.902   4.331   9.870  1.00  0.00     0.292 C 
HETATM   30  C19 UNL     1       1.546   3.665   9.825  1.00  0.00     0.154 C 
BRANCH  28  31
HETATM   31  C3  UNL     1       4.297   6.001   9.000  1.00  0.00     0.299 C 
BRANCH  31  32
HETATM   32  C2  UNL     1       4.640   6.268  10.400  1.00  0.00    -0.007 C 
HETATM   33  C1  UNL     1       4.497   7.473  10.921  1.00  0.00     0.008 C 
ENDBRANCH  31  32
ENDBRANCH  28  31
ENDBRANCH   1  25
TORSDOF 8
ENDMDL
