MODEL 1
REMARK VINA RESULT: -7.936481823      0.000      0.000
REMARK  8 active torsions:
REMARK  status: ('A' for Active; 'I' for Inactive)
REMARK    1  A    between atoms: C1_2  and  C2_4 
REMARK    2  A    between atoms: C2_4  and  C3_5 
REMARK    3  A    between atoms: C3_5  and  N1_6 
REMARK    4  A    between atoms: N2_9  and  C6_10 
REMARK    5  A    between atoms: C8_14  and  C9_15 
REMARK    6  A    between atoms: C12_20  and  N5_21 
REMARK    7  A    between atoms: N5_21  and  C13_23 
REMARK    8  A    between atoms: C13_23  and  C14_24 
ROOT
HETATM    1  C6  UNL     1      -5.677   5.603  11.784  1.00  0.00     0.090 A 
HETATM    2  C7  UNL     1      -6.270   6.855  11.691  1.00  0.00     0.122 A 
HETATM    3  N3  UNL     1      -6.534   7.387  10.502  1.00  0.00    -0.353 N 
ATOM      4  H3  UNL     1      -6.969   8.309  10.478  1.00  0.00     0.166 HD
HETATM    5  C8  UNL     1      -6.266   6.789   9.337  1.00  0.00     0.086 A 
HETATM    6  N4  UNL     1      -5.689   5.569   9.378  1.00  0.00    -0.330 N 
ATOM      7  H4  UNL     1      -5.472   5.088   8.505  1.00  0.00     0.168 HD
HETATM    8  C12 UNL     1      -5.395   4.976  10.553  1.00  0.00     0.135 A 
ENDROOT
BRANCH   1   9
HETATM    9  N2  UNL     1      -5.376   5.008  13.014  1.00  0.00    -0.375 N 
HETATM   10  C5  UNL     1      -6.517   4.491  13.787  1.00  0.00     0.143 C 
HETATM   11  C4  UNL     1      -6.256   3.094  14.207  1.00  0.00     0.142 C 
HETATM   12  N1  UNL     1      -5.532   2.902  15.438  1.00  0.00    -0.382 N 
HETATM   13  C17 UNL     1      -4.167   3.268  15.396  1.00  0.00     0.033 A 
HETATM   14  C16 UNL     1      -3.988   4.737  14.977  1.00  0.00     0.051 C 
HETATM   15  C18 UNL     1      -3.288   2.348  14.531  1.00  0.00     0.033 A 
HETATM   16  C19 UNL     1      -3.042   2.543  15.982  1.00  0.00     0.033 A 
HETATM   17  C15 UNL     1      -4.016   4.907  13.478  1.00  0.00     0.125 C 
BRANCH  12  18
HETATM   18  C3  UNL     1      -6.342   3.288  16.507  1.00  0.00     0.069 C 
BRANCH  18  19
HETATM   19  C2  UNL     1      -6.523   2.453  17.695  1.00  0.00     0.157 C 
BRANCH  19  20
HETATM   20  C1  UNL     1      -6.282   0.997  17.377  1.00  0.00     0.177 C 
HETATM   21  O1  UNL     1      -7.109   0.314  16.719  1.00  0.00    -0.648 OA
HETATM   22  O2  UNL     1      -5.129   0.368  17.808  1.00  0.00    -0.648 OA
ENDBRANCH  19  20
ENDBRANCH  18  19
ENDBRANCH  12  18
ENDBRANCH   1   9
BRANCH   8  23
HETATM   23  N5  UNL     1      -4.853   3.818  10.640  1.00  0.00    -0.346 N 
ATOM     24  H5  UNL     1      -3.834   3.820  10.649  1.00  0.00     0.166 HD
BRANCH  23  25
HETATM   25  C13 UNL     1      -5.446   2.543  10.723  1.00  0.00     0.178 C 
BRANCH  25  26
HETATM   26  C14 UNL     1      -4.438   1.458  11.084  1.00  0.00     0.422 C 
HETATM   27  F1  UNL     1      -4.854   0.781  12.215  1.00  0.00    -0.166 F 
HETATM   28  F2  UNL     1      -4.386   0.503  10.071  1.00  0.00    -0.166 F 
HETATM   29  F3  UNL     1      -3.207   2.059  11.269  1.00  0.00    -0.166 F 
ENDBRANCH  25  26
ENDBRANCH  23  25
ENDBRANCH   8  23
BRANCH   5  30
HETATM   30  C9  UNL     1      -6.583   7.448   8.024  1.00  0.00     0.053 A 
HETATM   31  C10 UNL     1      -8.011   7.711   7.662  1.00  0.00     0.013 A 
HETATM   32  C11 UNL     1      -7.214   6.607   6.975  1.00  0.00     0.013 A 
ENDBRANCH   5  30
TORSDOF 8
ENDMDL
MODEL 2
REMARK VINA RESULT: -7.833114862      1.780      2.226
REMARK  8 active torsions:
REMARK  status: ('A' for Active; 'I' for Inactive)
REMARK    1  A    between atoms: C1_2  and  C2_4 
REMARK    2  A    between atoms: C2_4  and  C3_5 
REMARK    3  A    between atoms: C3_5  and  N1_6 
REMARK    4  A    between atoms: N2_9  and  C6_10 
REMARK    5  A    between atoms: C8_14  and  C9_15 
REMARK    6  A    between atoms: C12_20  and  N5_21 
REMARK    7  A    between atoms: N5_21  and  C13_23 
REMARK    8  A    between atoms: C13_23  and  C14_24 
ROOT
HETATM    1  C6  UNL     1      -6.102   6.079  11.403  1.00  0.00     0.090 A 
HETATM    2  C7  UNL     1      -7.116   7.022  11.488  1.00  0.00     0.122 A 
HETATM    3  N3  UNL     1      -7.576   7.616  10.392  1.00  0.00    -0.353 N 
ATOM      4  H3  UNL     1      -8.321   8.304  10.498  1.00  0.00     0.166 HD
HETATM    5  C8  UNL     1      -7.124   7.367   9.158  1.00  0.00     0.086 A 
HETATM    6  N4  UNL     1      -6.137   6.455   9.027  1.00  0.00    -0.330 N 
ATOM      7  H4  UNL     1      -5.771   6.243   8.098  1.00  0.00     0.168 HD
HETATM    8  C12 UNL     1      -5.627   5.819  10.101  1.00  0.00     0.135 A 
ENDROOT
BRANCH   1   9
HETATM    9  N2  UNL     1      -5.584   5.435  12.531  1.00  0.00    -0.375 N 
HETATM   10  C5  UNL     1      -6.352   4.287  13.039  1.00  0.00     0.143 C 
HETATM   11  C4  UNL     1      -5.458   3.118  13.226  1.00  0.00     0.142 C 
HETATM   12  N1  UNL     1      -4.765   3.016  14.486  1.00  0.00    -0.382 N 
HETATM   13  C17 UNL     1      -3.748   3.976  14.692  1.00  0.00     0.033 A 
HETATM   14  C16 UNL     1      -4.292   5.410  14.577  1.00  0.00     0.051 C 
HETATM   15  C18 UNL     1      -2.510   3.793  13.796  1.00  0.00     0.033 A 
HETATM   16  C19 UNL     1      -2.429   3.749  15.278  1.00  0.00     0.033 A 
HETATM   17  C15 UNL     1      -4.357   5.878  13.144  1.00  0.00     0.125 C 
BRANCH  12  18
HETATM   18  C3  UNL     1      -5.690   2.729  15.492  1.00  0.00     0.069 C 
BRANCH  18  19
HETATM   19  C2  UNL     1      -5.573   1.549  16.350  1.00  0.00     0.157 C 
BRANCH  19  20
HETATM   20  C1  UNL     1      -4.487   0.624  15.856  1.00  0.00     0.177 C 
HETATM   21  O1  UNL     1      -3.337   0.616  16.367  1.00  0.00    -0.648 OA
HETATM   22  O2  UNL     1      -4.732  -0.250  14.814  1.00  0.00    -0.648 OA
ENDBRANCH  19  20
ENDBRANCH  18  19
ENDBRANCH  12  18
ENDBRANCH   1   9
BRANCH   8  23
HETATM   23  N5  UNL     1      -4.695   4.943  10.022  1.00  0.00    -0.346 N 
ATOM     24  H5  UNL     1      -4.832   4.116  10.602  1.00  0.00     0.166 HD
BRANCH  23  25
HETATM   25  C13 UNL     1      -3.510   4.945   9.261  1.00  0.00     0.178 C 
BRANCH  25  26
HETATM   26  C14 UNL     1      -2.316   4.416  10.047  1.00  0.00     0.422 C 
HETATM   27  F1  UNL     1      -2.638   3.214  10.648  1.00  0.00    -0.166 F 
HETATM   28  F2  UNL     1      -1.264   4.133   9.178  1.00  0.00    -0.166 F 
HETATM   29  F3  UNL     1      -1.954   5.373  10.976  1.00  0.00    -0.166 F 
ENDBRANCH  25  26
ENDBRANCH  23  25
ENDBRANCH   8  23
BRANCH   5  30
HETATM   30  C9  UNL     1      -7.682   8.077   7.958  1.00  0.00     0.053 A 
HETATM   31  C10 UNL     1      -8.062   9.521   8.070  1.00  0.00     0.013 A 
HETATM   32  C11 UNL     1      -9.124   8.429   7.985  1.00  0.00     0.013 A 
ENDBRANCH   5  30
TORSDOF 8
ENDMDL
MODEL 3
REMARK VINA RESULT: -7.629744088      3.358      4.449
REMARK  8 active torsions:
REMARK  status: ('A' for Active; 'I' for Inactive)
REMARK    1  A    between atoms: C1_2  and  C2_4 
REMARK    2  A    between atoms: C2_4  and  C3_5 
REMARK    3  A    between atoms: C3_5  and  N1_6 
REMARK    4  A    between atoms: N2_9  and  C6_10 
REMARK    5  A    between atoms: C8_14  and  C9_15 
REMARK    6  A    between atoms: C12_20  and  N5_21 
REMARK    7  A    between atoms: N5_21  and  C13_23 
REMARK    8  A    between atoms: C13_23  and  C14_24 
ROOT
HETATM    1  C6  UNL     1      -3.050   6.260  13.886  1.00  0.00     0.090 A 
HETATM    2  C7  UNL     1      -2.243   7.083  14.659  1.00  0.00     0.122 A 
HETATM    3  N3  UNL     1      -1.786   8.230  14.168  1.00  0.00    -0.353 N 
ATOM      4  H3  UNL     1      -1.195   8.805  14.769  1.00  0.00     0.166 HD
HETATM    5  C8  UNL     1      -2.053   8.678  12.937  1.00  0.00     0.086 A 
HETATM    6  N4  UNL     1      -2.835   7.911  12.149  1.00  0.00    -0.330 N 
ATOM      7  H4  UNL     1      -3.056   8.226  11.204  1.00  0.00     0.168 HD
HETATM    8  C12 UNL     1      -3.329   6.735  12.588  1.00  0.00     0.135 A 
ENDROOT
BRANCH   1   9
HETATM    9  N2  UNL     1      -3.548   5.042  14.360  1.00  0.00    -0.375 N 
HETATM   10  C5  UNL     1      -4.910   5.064  14.916  1.00  0.00     0.143 C 
HETATM   11  C4  UNL     1      -5.728   3.989  14.305  1.00  0.00     0.142 C 
HETATM   12  N1  UNL     1      -5.664   2.686  14.918  1.00  0.00    -0.382 N 
HETATM   13  C17 UNL     1      -4.435   2.005  14.756  1.00  0.00     0.033 A 
HETATM   14  C16 UNL     1      -3.256   2.831  15.298  1.00  0.00     0.051 C 
HETATM   15  C18 UNL     1      -4.153   1.537  13.318  1.00  0.00     0.033 A 
HETATM   16  C19 UNL     1      -4.247   0.588  14.456  1.00  0.00     0.033 A 
HETATM   17  C15 UNL     1      -2.759   3.838  14.291  1.00  0.00     0.125 C 
BRANCH  12  18
HETATM   18  C3  UNL     1      -6.293   2.737  16.163  1.00  0.00     0.069 C 
BRANCH  18  19
HETATM   19  C2  UNL     1      -6.950   1.573  16.758  1.00  0.00     0.157 C 
BRANCH  19  20
HETATM   20  C1  UNL     1      -5.976   0.757  17.573  1.00  0.00     0.177 C 
HETATM   21  O1  UNL     1      -5.268   1.274  18.475  1.00  0.00    -0.648 OA
HETATM   22  O2  UNL     1      -5.835  -0.599  17.343  1.00  0.00    -0.648 OA
ENDBRANCH  19  20
ENDBRANCH  18  19
ENDBRANCH  12  18
ENDBRANCH   1   9
BRANCH   8  23
HETATM   23  N5  UNL     1      -4.079   5.978  11.877  1.00  0.00    -0.346 N 
ATOM     24  H5  UNL     1      -4.134   5.009  12.191  1.00  0.00     0.166 HD
BRANCH  23  25
HETATM   25  C13 UNL     1      -4.839   6.274  10.728  1.00  0.00     0.178 C 
BRANCH  25  26
HETATM   26  C14 UNL     1      -6.199   6.869  11.072  1.00  0.00     0.422 C 
HETATM   27  F1  UNL     1      -6.640   6.375  12.286  1.00  0.00    -0.166 F 
HETATM   28  F2  UNL     1      -6.085   8.247  11.244  1.00  0.00    -0.166 F 
HETATM   29  F3  UNL     1      -7.074   6.564  10.046  1.00  0.00    -0.166 F 
ENDBRANCH  25  26
ENDBRANCH  23  25
ENDBRANCH   8  23
BRANCH   5  30
HETATM   30  C9  UNL     1      -1.499   9.983  12.438  1.00  0.00     0.053 A 
HETATM   31  C10 UNL     1      -1.690  11.222  13.256  1.00  0.00     0.013 A 
HETATM   32  C11 UNL     1      -2.472  10.999  11.966  1.00  0.00     0.013 A 
ENDBRANCH   5  30
TORSDOF 8
ENDMDL
MODEL 4
REMARK VINA RESULT: -7.548929445      3.425      4.586
REMARK  8 active torsions:
REMARK  status: ('A' for Active; 'I' for Inactive)
REMARK    1  A    between atoms: C1_2  and  C2_4 
REMARK    2  A    between atoms: C2_4  and  C3_5 
REMARK    3  A    between atoms: C3_5  and  N1_6 
REMARK    4  A    between atoms: N2_9  and  C6_10 
REMARK    5  A    between atoms: C8_14  and  C9_15 
REMARK    6  A    between atoms: C12_20  and  N5_21 
REMARK    7  A    between atoms: N5_21  and  C13_23 
REMARK    8  A    between atoms: C13_23  and  C14_24 
ROOT
HETATM    1  C6  UNL     1      -3.018   6.257  13.926  1.00  0.00     0.090 A 
HETATM    2  C7  UNL     1      -2.220   7.072  14.717  1.00  0.00     0.122 A 
HETATM    3  N3  UNL     1      -1.752   8.222  14.240  1.00  0.00    -0.353 N 
ATOM      4  H3  UNL     1      -1.169   8.791  14.852  1.00  0.00     0.166 HD
HETATM    5  C8  UNL     1      -2.000   8.678  13.008  1.00  0.00     0.086 A 
HETATM    6  N4  UNL     1      -2.772   7.918  12.203  1.00  0.00    -0.330 N 
ATOM      7  H4  UNL     1      -2.979   8.240  11.257  1.00  0.00     0.168 HD
HETATM    8  C12 UNL     1      -3.276   6.742  12.628  1.00  0.00     0.135 A 
ENDROOT
BRANCH   1   9
HETATM    9  N2  UNL     1      -3.527   5.037  14.386  1.00  0.00    -0.375 N 
HETATM   10  C5  UNL     1      -4.891   5.064  14.938  1.00  0.00     0.143 C 
HETATM   11  C4  UNL     1      -5.715   4.003  14.313  1.00  0.00     0.142 C 
HETATM   12  N1  UNL     1      -5.663   2.692  14.911  1.00  0.00    -0.382 N 
HETATM   13  C17 UNL     1      -4.439   2.004  14.745  1.00  0.00     0.033 A 
HETATM   14  C16 UNL     1      -3.255   2.814  15.299  1.00  0.00     0.051 C 
HETATM   15  C18 UNL     1      -4.157   1.549  13.302  1.00  0.00     0.033 A 
HETATM   16  C19 UNL     1      -4.261   0.588  14.429  1.00  0.00     0.033 A 
HETATM   17  C15 UNL     1      -2.747   3.828  14.305  1.00  0.00     0.125 C 
BRANCH  12  18
HETATM   18  C3  UNL     1      -6.295   2.734  16.155  1.00  0.00     0.069 C 
BRANCH  18  19
HETATM   19  C2  UNL     1      -6.977   1.573  16.727  1.00  0.00     0.157 C 
BRANCH  19  20
HETATM   20  C1  UNL     1      -6.036   0.758  17.582  1.00  0.00     0.177 C 
HETATM   21  O1  UNL     1      -5.847  -0.469  17.379  1.00  0.00    -0.648 OA
HETATM   22  O2  UNL     1      -5.348   1.349  18.625  1.00  0.00    -0.648 OA
ENDBRANCH  19  20
ENDBRANCH  18  19
ENDBRANCH  12  18
ENDBRANCH   1   9
BRANCH   8  23
HETATM   23  N5  UNL     1      -4.019   5.991  11.900  1.00  0.00    -0.346 N 
ATOM     24  H5  UNL     1      -4.073   5.019  12.202  1.00  0.00     0.166 HD
BRANCH  23  25
HETATM   25  C13 UNL     1      -4.770   6.299  10.750  1.00  0.00     0.178 C 
BRANCH  25  26
HETATM   26  C14 UNL     1      -6.130   6.898  11.089  1.00  0.00     0.422 C 
HETATM   27  F1  UNL     1      -7.058   6.544  10.128  1.00  0.00    -0.166 F 
HETATM   28  F2  UNL     1      -6.600   6.359  12.285  1.00  0.00    -0.166 F 
HETATM   29  F3  UNL     1      -5.985   8.270  11.182  1.00  0.00    -0.166 F 
ENDBRANCH  25  26
ENDBRANCH  23  25
ENDBRANCH   8  23
BRANCH   5  30
HETATM   30  C9  UNL     1      -1.435   9.984  12.525  1.00  0.00     0.053 A 
HETATM   31  C10 UNL     1      -0.475  10.735  13.395  1.00  0.00     0.013 A 
HETATM   32  C11 UNL     1      -1.908  11.220  13.198  1.00  0.00     0.013 A 
ENDBRANCH   5  30
TORSDOF 8
ENDMDL
MODEL 5
REMARK VINA RESULT: -7.536841748      3.345      6.978
REMARK  8 active torsions:
REMARK  status: ('A' for Active; 'I' for Inactive)
REMARK    1  A    between atoms: C1_2  and  C2_4 
REMARK    2  A    between atoms: C2_4  and  C3_5 
REMARK    3  A    between atoms: C3_5  and  N1_6 
REMARK    4  A    between atoms: N2_9  and  C6_10 
REMARK    5  A    between atoms: C8_14  and  C9_15 
REMARK    6  A    between atoms: C12_20  and  N5_21 
REMARK    7  A    between atoms: N5_21  and  C13_23 
REMARK    8  A    between atoms: C13_23  and  C14_24 
ROOT
HETATM    1  C6  UNL     1      -5.175   4.303  13.872  1.00  0.00     0.090 A 
HETATM    2  C7  UNL     1      -6.003   4.876  14.826  1.00  0.00     0.122 A 
HETATM    3  N3  UNL     1      -6.383   4.178  15.893  1.00  0.00    -0.353 N 
ATOM      4  H3  UNL     1      -6.993   4.635  16.570  1.00  0.00     0.166 HD
HETATM    5  C8  UNL     1      -6.014   2.916  16.132  1.00  0.00     0.086 A 
HETATM    6  N4  UNL     1      -5.207   2.318  15.231  1.00  0.00    -0.330 N 
ATOM      7  H4  UNL     1      -4.908   1.355  15.386  1.00  0.00     0.168 HD
HETATM    8  C12 UNL     1      -4.788   2.972  14.128  1.00  0.00     0.135 A 
ENDROOT
BRANCH   1   9
HETATM    9  N2  UNL     1      -4.756   4.999  12.732  1.00  0.00    -0.375 N 
HETATM   10  C5  UNL     1      -5.805   5.364  11.767  1.00  0.00     0.143 C 
HETATM   11  C4  UNL     1      -5.707   6.804  11.429  1.00  0.00     0.142 C 
HETATM   12  N1  UNL     1      -4.811   7.170  10.361  1.00  0.00    -0.382 N 
HETATM   13  C17 UNL     1      -3.435   7.024  10.654  1.00  0.00     0.033 A 
HETATM   14  C16 UNL     1      -3.096   5.584  11.072  1.00  0.00     0.051 C 
HETATM   15  C18 UNL     1      -2.896   8.029  11.686  1.00  0.00     0.033 A 
HETATM   16  C19 UNL     1      -2.359   7.948  10.304  1.00  0.00     0.033 A 
HETATM   17  C15 UNL     1      -3.369   5.339  12.535  1.00  0.00     0.125 C 
BRANCH  12  18
HETATM   18  C3  UNL     1      -5.336   6.712   9.151  1.00  0.00     0.069 C 
BRANCH  18  19
HETATM   19  C2  UNL     1      -6.616   7.185   8.622  1.00  0.00     0.157 C 
BRANCH  19  20
HETATM   20  C1  UNL     1      -7.171   6.221   7.602  1.00  0.00     0.177 C 
HETATM   21  O1  UNL     1      -8.334   5.749   7.698  1.00  0.00    -0.648 OA
HETATM   22  O2  UNL     1      -6.405   5.825   6.522  1.00  0.00    -0.648 OA
ENDBRANCH  19  20
ENDBRANCH  18  19
ENDBRANCH  12  18
ENDBRANCH   1   9
BRANCH   8  23
HETATM   23  N5  UNL     1      -4.018   2.446  13.249  1.00  0.00    -0.346 N 
ATOM     24  H5  UNL     1      -3.164   2.969  13.057  1.00  0.00     0.166 HD
BRANCH  23  25
HETATM   25  C13 UNL     1      -4.166   1.259  12.506  1.00  0.00     0.178 C 
BRANCH  25  26
HETATM   26  C14 UNL     1      -4.727   1.514  11.112  1.00  0.00     0.422 C 
HETATM   27  F1  UNL     1      -5.982   2.087  11.203  1.00  0.00    -0.166 F 
HETATM   28  F2  UNL     1      -3.934   2.446  10.445  1.00  0.00    -0.166 F 
HETATM   29  F3  UNL     1      -4.761   0.310  10.434  1.00  0.00    -0.166 F 
ENDBRANCH  25  26
ENDBRANCH  23  25
ENDBRANCH   8  23
BRANCH   5  30
HETATM   30  C9  UNL     1      -6.483   2.179  17.355  1.00  0.00     0.053 A 
HETATM   31  C10 UNL     1      -5.860   0.864  17.704  1.00  0.00     0.013 A 
HETATM   32  C11 UNL     1      -7.276   0.942  17.142  1.00  0.00     0.013 A 
ENDBRANCH   5  30
TORSDOF 8
ENDMDL
