MODEL 1
REMARK VINA RESULT: -7.292512154      0.000      0.000
REMARK  9 active torsions:
REMARK  status: ('A' for Active; 'I' for Inactive)
REMARK    1  A    between atoms: C2_2  and  N1_3 
REMARK       I    between atoms: N1_3  and  C3_5 
REMARK    2  A    between atoms: C3_5  and  C4_7 
REMARK    3  A    between atoms: C4_7  and  O2_10 
REMARK    4  A    between atoms: O2_10  and  C7_11 
REMARK       I    between atoms: C7_11  and  N2_13 
REMARK    5  A    between atoms: C10_16  and  C11_17 
REMARK    6  A    between atoms: C11_17  and  N3_18 
REMARK    7  A    between atoms: C14_21  and  N4_22 
REMARK    8  A    between atoms: N4_22  and  C15_25 
REMARK    9  A    between atoms: C15_25  and  C16_26 
ROOT
HETATM    1  C7  UNL     1      -5.641   7.935  10.570  1.00  0.00     0.364 C 
HETATM    2  O3  UNL     1      -4.595   8.540  10.233  1.00  0.00    -0.238 OA
HETATM    3  N2  UNL     1      -5.554   6.869  11.532  1.00  0.00    -0.327 N 
HETATM    4  C8  UNL     1      -6.684   6.102  11.998  1.00  0.00     0.129 C 
HETATM    5  C9  UNL     1      -6.084   4.798  12.401  1.00  0.00     0.031 C 
HETATM    6  C10 UNL     1      -4.682   5.126  12.870  1.00  0.00     0.043 C 
HETATM    7  C18 UNL     1      -4.360   6.404  12.170  1.00  0.00     0.138 C 
ENDROOT
BRANCH   6   8
HETATM    8  C11 UNL     1      -3.794   4.005  12.438  1.00  0.00     0.064 C 
BRANCH   8   9
HETATM    9  N3  UNL     1      -3.465   3.061  13.426  1.00  0.00    -0.391 N 
HETATM   10  C12 UNL     1      -3.678   1.697  13.093  1.00  0.00     0.124 C 
HETATM   11  C13 UNL     1      -4.262   1.048  14.351  1.00  0.00     0.054 C 
HETATM   12  C14 UNL     1      -3.635   1.942  15.421  1.00  0.00     0.205 C 
HETATM   13  C17 UNL     1      -3.801   3.319  14.767  1.00  0.00     0.154 C 
BRANCH  12  14
HETATM   14  N4  UNL     1      -4.330   1.870  16.674  1.00  0.00    -0.061 N 
ATOM     15  H42 UNL     1      -3.740   1.534  17.437  1.00  0.00     0.278 HD
ATOM     16  H41 UNL     1      -4.541   2.788  17.064  1.00  0.00     0.278 HD
BRANCH  14  17
HETATM   17  C15 UNL     1      -5.515   1.053  16.476  1.00  0.00     0.349 C 
BRANCH  17  18
HETATM   18  C16 UNL     1      -6.735   1.710  17.132  1.00  0.00     0.411 C 
HETATM   19  F1  UNL     1      -6.495   2.052  18.433  1.00  0.00    -0.169 F 
HETATM   20  F2  UNL     1      -7.792   0.861  16.967  1.00  0.00    -0.169 F 
HETATM   21  F3  UNL     1      -6.956   2.889  16.435  1.00  0.00    -0.169 F 
ENDBRANCH  17  18
ENDBRANCH  14  17
ENDBRANCH  12  14
ENDBRANCH   8   9
ENDBRANCH   6   8
BRANCH   1  22
HETATM   22  O2  UNL     1      -6.838   8.306  10.014  1.00  0.00    -0.283 OA
BRANCH  22  23
HETATM   23  C4  UNL     1      -7.190   8.030   8.698  1.00  0.00     0.145 C 
HETATM   24  C5  UNL     1      -6.948   9.244   7.789  1.00  0.00     0.057 C 
HETATM   25  C6  UNL     1      -8.688   7.774   8.661  1.00  0.00     0.057 C 
BRANCH  23  26
HETATM   26  C3  UNL     1      -6.476   6.906   8.070  1.00  0.00     0.252 C 
HETATM   27  N1  UNL     1      -5.288   7.153   7.322  1.00  0.00    -0.359 N 
ATOM     28  H1  UNL     1      -4.952   8.112   7.235  1.00  0.00     0.162 HD
HETATM   29  O1  UNL     1      -6.876   5.712   8.165  1.00  0.00    -0.270 OA
BRANCH  27  30
HETATM   30  C2  UNL     1      -4.544   6.095   6.686  1.00  0.00     0.118 C 
HETATM   31  C1  UNL     1      -3.376   5.598   7.492  1.00  0.00     0.026 C 
ENDBRANCH  27  30
ENDBRANCH  23  26
ENDBRANCH  22  23
ENDBRANCH   1  22
TORSDOF 9
ENDMDL
MODEL 2
REMARK VINA RESULT: -7.132346247      1.795      2.936
REMARK  9 active torsions:
REMARK  status: ('A' for Active; 'I' for Inactive)
REMARK    1  A    between atoms: C2_2  and  N1_3 
REMARK       I    between atoms: N1_3  and  C3_5 
REMARK    2  A    between atoms: C3_5  and  C4_7 
REMARK    3  A    between atoms: C4_7  and  O2_10 
REMARK    4  A    between atoms: O2_10  and  C7_11 
REMARK       I    between atoms: C7_11  and  N2_13 
REMARK    5  A    between atoms: C10_16  and  C11_17 
REMARK    6  A    between atoms: C11_17  and  N3_18 
REMARK    7  A    between atoms: C14_21  and  N4_22 
REMARK    8  A    between atoms: N4_22  and  C15_25 
REMARK    9  A    between atoms: C15_25  and  C16_26 
ROOT
HETATM    1  C7  UNL     1      -5.403   5.319  10.319  1.00  0.00     0.364 C 
HETATM    2  O3  UNL     1      -5.439   4.359   9.513  1.00  0.00    -0.238 OA
HETATM    3  N2  UNL     1      -4.217   5.525  11.107  1.00  0.00    -0.327 N 
HETATM    4  C8  UNL     1      -4.055   6.593  12.065  1.00  0.00     0.129 C 
HETATM    5  C9  UNL     1      -3.062   6.048  13.035  1.00  0.00     0.031 C 
HETATM    6  C10 UNL     1      -2.176   5.122  12.230  1.00  0.00     0.043 C 
HETATM    7  C18 UNL     1      -3.031   4.725  11.073  1.00  0.00     0.138 C 
ENDROOT
BRANCH   6   8
HETATM    8  C11 UNL     1      -1.834   3.960  13.105  1.00  0.00     0.064 C 
BRANCH   8   9
HETATM    9  N3  UNL     1      -2.734   3.689  14.151  1.00  0.00    -0.391 N 
HETATM   10  C12 UNL     1      -2.164   3.463  15.431  1.00  0.00     0.124 C 
HETATM   11  C13 UNL     1      -2.955   2.302  16.040  1.00  0.00     0.054 C 
HETATM   12  C14 UNL     1      -4.298   2.506  15.340  1.00  0.00     0.205 C 
HETATM   13  C17 UNL     1      -3.825   2.833  13.918  1.00  0.00     0.154 C 
BRANCH  12  14
HETATM   14  N4  UNL     1      -5.115   1.326  15.361  1.00  0.00    -0.061 N 
ATOM     15  H42 UNL     1      -5.967   1.423  14.809  1.00  0.00     0.278 HD
ATOM     16  H41 UNL     1      -4.705   0.550  14.841  1.00  0.00     0.278 HD
BRANCH  14  17
HETATM   17  C15 UNL     1      -5.378   0.997  16.752  1.00  0.00     0.349 C 
BRANCH  17  18
HETATM   18  C16 UNL     1      -6.658   1.690  17.234  1.00  0.00     0.411 C 
HETATM   19  F1  UNL     1      -7.108   2.616  16.336  1.00  0.00    -0.169 F 
HETATM   20  F2  UNL     1      -6.402   2.200  18.475  1.00  0.00    -0.169 F 
HETATM   21  F3  UNL     1      -7.623   0.697  17.315  1.00  0.00    -0.169 F 
ENDBRANCH  17  18
ENDBRANCH  14  17
ENDBRANCH  12  14
ENDBRANCH   8   9
ENDBRANCH   6   8
BRANCH   1  22
HETATM   22  O2  UNL     1      -6.490   6.146  10.427  1.00  0.00    -0.283 OA
BRANCH  22  23
HETATM   23  C4  UNL     1      -6.674   7.277   9.640  1.00  0.00     0.145 C 
HETATM   24  C5  UNL     1      -5.445   7.550   8.759  1.00  0.00     0.057 C 
HETATM   25  C6  UNL     1      -6.795   8.475  10.569  1.00  0.00     0.057 C 
BRANCH  23  26
HETATM   26  C3  UNL     1      -7.827   7.237   8.724  1.00  0.00     0.252 C 
HETATM   27  N1  UNL     1      -8.633   8.399   8.552  1.00  0.00    -0.359 N 
ATOM     28  H1  UNL     1      -8.396   9.244   9.071  1.00  0.00     0.162 HD
HETATM   29  O1  UNL     1      -8.138   6.200   8.074  1.00  0.00    -0.270 OA
BRANCH  27  30
HETATM   30  C2  UNL     1      -9.773   8.421   7.669  1.00  0.00     0.118 C 
HETATM   31  C1  UNL     1     -10.192   9.802   7.247  1.00  0.00     0.026 C 
ENDBRANCH  27  30
ENDBRANCH  23  26
ENDBRANCH  22  23
ENDBRANCH   1  22
TORSDOF 9
ENDMDL
MODEL 3
REMARK VINA RESULT: -7.116791899      1.609      2.845
REMARK  9 active torsions:
REMARK  status: ('A' for Active; 'I' for Inactive)
REMARK    1  A    between atoms: C2_2  and  N1_3 
REMARK       I    between atoms: N1_3  and  C3_5 
REMARK    2  A    between atoms: C3_5  and  C4_7 
REMARK    3  A    between atoms: C4_7  and  O2_10 
REMARK    4  A    between atoms: O2_10  and  C7_11 
REMARK       I    between atoms: C7_11  and  N2_13 
REMARK    5  A    between atoms: C10_16  and  C11_17 
REMARK    6  A    between atoms: C11_17  and  N3_18 
REMARK    7  A    between atoms: C14_21  and  N4_22 
REMARK    8  A    between atoms: N4_22  and  C15_25 
REMARK    9  A    between atoms: C15_25  and  C16_26 
ROOT
HETATM    1  C7  UNL     1      -5.859   6.424   8.883  1.00  0.00     0.364 C 
HETATM    2  O3  UNL     1      -6.594   5.761   8.114  1.00  0.00    -0.238 OA
HETATM    3  N2  UNL     1      -5.040   5.728   9.840  1.00  0.00    -0.327 N 
HETATM    4  C8  UNL     1      -4.155   6.379  10.776  1.00  0.00     0.129 C 
HETATM    5  C9  UNL     1      -4.064   5.411  11.906  1.00  0.00     0.031 C 
HETATM    6  C10 UNL     1      -4.221   4.042  11.281  1.00  0.00     0.043 C 
HETATM    7  C18 UNL     1      -4.971   4.310  10.018  1.00  0.00     0.138 C 
ENDROOT
BRANCH   6   8
HETATM    8  C11 UNL     1      -5.006   3.203  12.236  1.00  0.00     0.064 C 
BRANCH   8   9
HETATM    9  N3  UNL     1      -4.273   2.601  13.275  1.00  0.00    -0.391 N 
HETATM   10  C12 UNL     1      -4.054   1.203  13.164  1.00  0.00     0.124 C 
HETATM   11  C13 UNL     1      -4.245   0.639  14.575  1.00  0.00     0.054 C 
HETATM   12  C14 UNL     1      -3.840   1.859  15.401  1.00  0.00     0.205 C 
HETATM   13  C17 UNL     1      -4.527   2.975  14.607  1.00  0.00     0.154 C 
BRANCH  12  14
HETATM   14  N4  UNL     1      -4.329   1.798  16.749  1.00  0.00    -0.061 N 
ATOM     15  H42 UNL     1      -3.614   1.511  17.418  1.00  0.00     0.278 HD
ATOM     16  H41 UNL     1      -4.518   2.719  17.144  1.00  0.00     0.278 HD
BRANCH  14  17
HETATM   17  C15 UNL     1      -5.492   0.929  16.758  1.00  0.00     0.349 C 
BRANCH  17  18
HETATM   18  C16 UNL     1      -6.691   1.643  17.393  1.00  0.00     0.411 C 
HETATM   19  F1  UNL     1      -6.418   2.073  18.661  1.00  0.00    -0.169 F 
HETATM   20  F2  UNL     1      -7.760   0.796  17.312  1.00  0.00    -0.169 F 
HETATM   21  F3  UNL     1      -6.918   2.773  16.620  1.00  0.00    -0.169 F 
ENDBRANCH  17  18
ENDBRANCH  14  17
ENDBRANCH  12  14
ENDBRANCH   8   9
ENDBRANCH   6   8
BRANCH   1  22
HETATM   22  O2  UNL     1      -5.853   7.792   8.793  1.00  0.00    -0.283 OA
BRANCH  22  23
HETATM   23  C4  UNL     1      -6.786   8.606   9.425  1.00  0.00     0.145 C 
HETATM   24  C5  UNL     1      -6.106   9.592  10.386  1.00  0.00     0.057 C 
HETATM   25  C6  UNL     1      -7.666   7.718  10.291  1.00  0.00     0.057 C 
BRANCH  23  26
HETATM   26  C3  UNL     1      -7.626   9.424   8.533  1.00  0.00     0.252 C 
HETATM   27  N1  UNL     1      -8.587   8.792   7.692  1.00  0.00    -0.359 N 
ATOM     28  H1  UNL     1      -8.676   7.776   7.723  1.00  0.00     0.162 HD
HETATM   29  O1  UNL     1      -7.531  10.682   8.481  1.00  0.00    -0.270 OA
BRANCH  27  30
HETATM   30  C2  UNL     1      -9.439   9.539   6.800  1.00  0.00     0.118 C 
HETATM   31  C1  UNL     1     -10.874   9.610   7.242  1.00  0.00     0.026 C 
ENDBRANCH  27  30
ENDBRANCH  23  26
ENDBRANCH  22  23
ENDBRANCH   1  22
TORSDOF 9
ENDMDL
MODEL 4
REMARK VINA RESULT: -7.067066758      4.031      7.897
REMARK  9 active torsions:
REMARK  status: ('A' for Active; 'I' for Inactive)
REMARK    1  A    between atoms: C2_2  and  N1_3 
REMARK       I    between atoms: N1_3  and  C3_5 
REMARK    2  A    between atoms: C3_5  and  C4_7 
REMARK    3  A    between atoms: C4_7  and  O2_10 
REMARK    4  A    between atoms: O2_10  and  C7_11 
REMARK       I    between atoms: C7_11  and  N2_13 
REMARK    5  A    between atoms: C10_16  and  C11_17 
REMARK    6  A    between atoms: C11_17  and  N3_18 
REMARK    7  A    between atoms: C14_21  and  N4_22 
REMARK    8  A    between atoms: N4_22  and  C15_25 
REMARK    9  A    between atoms: C15_25  and  C16_26 
ROOT
HETATM    1  C7  UNL     1      -2.625   3.441  13.850  1.00  0.00     0.364 C 
HETATM    2  O3  UNL     1      -3.152   4.119  14.765  1.00  0.00    -0.238 OA
HETATM    3  N2  UNL     1      -1.842   4.111  12.846  1.00  0.00    -0.327 N 
HETATM    4  C8  UNL     1      -1.187   3.442  11.748  1.00  0.00     0.129 C 
HETATM    5  C9  UNL     1      -1.101   4.493  10.695  1.00  0.00     0.031 C 
HETATM    6  C10 UNL     1      -0.976   5.804  11.441  1.00  0.00     0.043 C 
HETATM    7  C18 UNL     1      -1.590   5.518  12.772  1.00  0.00     0.138 C 
ENDROOT
BRANCH   6   8
HETATM    8  C11 UNL     1      -1.745   6.829  10.674  1.00  0.00     0.064 C 
BRANCH   8   9
HETATM    9  N3  UNL     1      -2.799   6.344   9.879  1.00  0.00    -0.391 N 
HETATM   10  C12 UNL     1      -2.825   6.782   8.528  1.00  0.00     0.124 C 
HETATM   11  C13 UNL     1      -4.296   7.065   8.212  1.00  0.00     0.054 C 
HETATM   12  C14 UNL     1      -4.964   6.079   9.170  1.00  0.00     0.205 C 
HETATM   13  C17 UNL     1      -4.096   6.272  10.419  1.00  0.00     0.154 C 
BRANCH  12  14
HETATM   14  N4  UNL     1      -6.336   6.409   9.431  1.00  0.00    -0.061 N 
ATOM     15  H42 UNL     1      -6.658   7.219   8.900  1.00  0.00     0.278 HD
ATOM     16  H41 UNL     1      -6.988   5.727   9.042  1.00  0.00     0.278 HD
BRANCH  14  17
HETATM   17  C15 UNL     1      -6.484   6.578  10.865  1.00  0.00     0.349 C 
BRANCH  17  18
HETATM   18  C16 UNL     1      -7.423   7.751  11.174  1.00  0.00     0.411 C 
HETATM   19  F1  UNL     1      -6.750   8.937  11.257  1.00  0.00    -0.169 F 
HETATM   20  F2  UNL     1      -8.121   7.428  12.302  1.00  0.00    -0.169 F 
HETATM   21  F3  UNL     1      -8.285   7.846  10.090  1.00  0.00    -0.169 F 
ENDBRANCH  17  18
ENDBRANCH  14  17
ENDBRANCH  12  14
ENDBRANCH   8   9
ENDBRANCH   6   8
BRANCH   1  22
HETATM   22  O2  UNL     1      -2.807   2.083  13.832  1.00  0.00    -0.283 OA
BRANCH  22  23
HETATM   23  C4  UNL     1      -4.052   1.478  13.705  1.00  0.00     0.145 C 
HETATM   24  C5  UNL     1      -4.006   0.307  12.713  1.00  0.00     0.057 C 
HETATM   25  C6  UNL     1      -5.005   2.498  13.103  1.00  0.00     0.057 C 
BRANCH  23  26
HETATM   26  C3  UNL     1      -4.625   0.933  14.948  1.00  0.00     0.252 C 
HETATM   27  N1  UNL     1      -5.150   1.819  15.932  1.00  0.00    -0.359 N 
ATOM     28  H1  UNL     1      -5.119   2.823  15.757  1.00  0.00     0.162 HD
HETATM   29  O1  UNL     1      -4.672  -0.307  15.184  1.00  0.00    -0.270 OA
BRANCH  27  30
HETATM   30  C2  UNL     1      -5.725   1.346  17.167  1.00  0.00     0.118 C 
HETATM   31  C1  UNL     1      -7.218   1.176  17.120  1.00  0.00     0.026 C 
ENDBRANCH  27  30
ENDBRANCH  23  26
ENDBRANCH  22  23
ENDBRANCH   1  22
TORSDOF 9
ENDMDL
MODEL 5
REMARK VINA RESULT: -7.065811863      2.058      3.602
REMARK  9 active torsions:
REMARK  status: ('A' for Active; 'I' for Inactive)
REMARK    1  A    between atoms: C2_2  and  N1_3 
REMARK       I    between atoms: N1_3  and  C3_5 
REMARK    2  A    between atoms: C3_5  and  C4_7 
REMARK    3  A    between atoms: C4_7  and  O2_10 
REMARK    4  A    between atoms: O2_10  and  C7_11 
REMARK       I    between atoms: C7_11  and  N2_13 
REMARK    5  A    between atoms: C10_16  and  C11_17 
REMARK    6  A    between atoms: C11_17  and  N3_18 
REMARK    7  A    between atoms: C14_21  and  N4_22 
REMARK    8  A    between atoms: N4_22  and  C15_25 
REMARK    9  A    between atoms: C15_25  and  C16_26 
ROOT
HETATM    1  C7  UNL     1      -3.456   4.240   9.639  1.00  0.00     0.364 C 
HETATM    2  O3  UNL     1      -4.311   3.323   9.626  1.00  0.00    -0.238 OA
HETATM    3  N2  UNL     1      -2.544   4.331  10.749  1.00  0.00    -0.327 N 
HETATM    4  C8  UNL     1      -1.518   5.338  10.875  1.00  0.00     0.129 C 
HETATM    5  C9  UNL     1      -1.314   5.451  12.348  1.00  0.00     0.031 C 
HETATM    6  C10 UNL     1      -1.605   4.073  12.903  1.00  0.00     0.043 C 
HETATM    7  C18 UNL     1      -2.506   3.459  11.882  1.00  0.00     0.138 C 
ENDROOT
BRANCH   6   8
HETATM    8  C11 UNL     1      -2.287   4.257  14.219  1.00  0.00     0.064 C 
BRANCH   8   9
HETATM    9  N3  UNL     1      -3.691   4.171  14.205  1.00  0.00    -0.391 N 
HETATM   10  C12 UNL     1      -4.400   5.389  14.378  1.00  0.00     0.124 C 
HETATM   11  C13 UNL     1      -5.575   5.058  15.303  1.00  0.00     0.054 C 
HETATM   12  C14 UNL     1      -5.780   3.586  14.948  1.00  0.00     0.205 C 
HETATM   13  C17 UNL     1      -4.325   3.110  14.877  1.00  0.00     0.154 C 
BRANCH  12  14
HETATM   14  N4  UNL     1      -6.515   2.874  15.955  1.00  0.00    -0.061 N 
ATOM     15  H42 UNL     1      -6.735   3.451  16.768  1.00  0.00     0.278 HD
ATOM     16  H41 UNL     1      -7.473   2.666  15.674  1.00  0.00     0.278 HD
BRANCH  14  17
HETATM   17  C15 UNL     1      -5.755   1.684  16.297  1.00  0.00     0.349 C 
BRANCH  17  18
HETATM   18  C16 UNL     1      -6.385   0.973  17.501  1.00  0.00     0.411 C 
HETATM   19  F1  UNL     1      -5.779  -0.224  17.763  1.00  0.00    -0.169 F 
HETATM   20  F2  UNL     1      -7.726   0.875  17.261  1.00  0.00    -0.169 F 
HETATM   21  F3  UNL     1      -6.154   1.795  18.594  1.00  0.00    -0.169 F 
ENDBRANCH  17  18
ENDBRANCH  14  17
ENDBRANCH  12  14
ENDBRANCH   8   9
ENDBRANCH   6   8
BRANCH   1  22
HETATM   22  O2  UNL     1      -3.410   5.129   8.597  1.00  0.00    -0.283 OA
BRANCH  22  23
HETATM   23  C4  UNL     1      -4.308   6.179   8.446  1.00  0.00     0.145 C 
HETATM   24  C5  UNL     1      -4.785   6.302   6.991  1.00  0.00     0.057 C 
HETATM   25  C6  UNL     1      -3.569   7.472   8.753  1.00  0.00     0.057 C 
BRANCH  23  26
HETATM   26  C3  UNL     1      -5.530   6.096   9.266  1.00  0.00     0.252 C 
HETATM   27  N1  UNL     1      -5.530   6.628  10.588  1.00  0.00    -0.359 N 
ATOM     28  H1  UNL     1      -4.678   7.059  10.945  1.00  0.00     0.162 HD
HETATM   29  O1  UNL     1      -6.594   5.565   8.841  1.00  0.00    -0.270 OA
BRANCH  27  30
HETATM   30  C2  UNL     1      -6.694   6.578  11.437  1.00  0.00     0.118 C 
HETATM   31  C1  UNL     1      -7.494   7.851  11.454  1.00  0.00     0.026 C 
ENDBRANCH  27  30
ENDBRANCH  23  26
ENDBRANCH  22  23
ENDBRANCH   1  22
TORSDOF 9
ENDMDL
