MODEL 1
REMARK VINA RESULT: -8.165568286      0.000      0.000
REMARK  8 active torsions:
REMARK  status: ('A' for Active; 'I' for Inactive)
REMARK    1  A    between atoms: N1_7  and  C7_8 
REMARK    2  A    between atoms: C7_8  and  C8_9 
REMARK       I    between atoms: N4_20  and  C15_21 
REMARK    3  A    between atoms: C15_21  and  C16_23 
REMARK    4  A    between atoms: C16_23  and  O2_24 
REMARK    5  A    between atoms: O2_24  and  C17_25 
REMARK    6  A    between atoms: C17_25  and  C18_26 
REMARK    7  A    between atoms: C18_26  and  C19_29 
REMARK    8  A    between atoms: C19_29  and  O3_30 
ROOT
HETATM    1  C1  UNL     1      -1.774   3.934  14.859  1.00  0.00     0.032 C 
HETATM    2  C2  UNL     1      -3.053   3.758  14.113  1.00  0.00     0.084 C 
HETATM    3  C3  UNL     1      -2.879   4.015  12.618  1.00  0.00     0.034 C 
HETATM    4  C4  UNL     1      -4.248   4.398  12.083  1.00  0.00    -0.034 C 
HETATM    5  C5  UNL     1      -4.581   5.752  12.572  1.00  0.00     0.040 C 
HETATM    6  C6  UNL     1      -4.767   6.832  11.569  1.00  0.00     0.273 C 
HETATM    7  N1  UNL     1      -5.444   6.468  10.370  1.00  0.00     0.095 N 
HETATM    8  C11 UNL     1      -5.334   5.087  10.007  1.00  0.00     0.273 C 
HETATM    9  C12 UNL     1      -4.111   4.426  10.587  1.00  0.00     0.040 C 
HETATM   10  C13 UNL     1      -5.209   3.326  12.548  1.00  0.00     0.029 C 
HETATM   11  C14 UNL     1      -4.508   2.092  13.080  1.00  0.00     0.127 C 
HETATM   12  N4  UNL     1      -3.652   2.447  14.216  1.00  0.00    -0.346 N 
HETATM   13  C15 UNL     1      -3.446   1.570  15.319  1.00  0.00     0.243 C 
HETATM   14  O1  UNL     1      -2.704   1.996  16.228  1.00  0.00    -0.271 OA
ENDROOT
BRANCH   7  15
HETATM   15  C7  UNL     1      -6.792   6.939  10.409  1.00  0.00     0.348 C 
BRANCH  15  16
HETATM   16  C8  UNL     1      -7.295   7.505   9.168  1.00  0.00     0.109 A 
HETATM   17  N2  UNL     1      -8.567   7.811   8.891  1.00  0.00    -0.353 N 
HETATM   18  C9  UNL     1      -8.685   8.311   7.659  1.00  0.00     0.106 A 
ATOM     19  H2  UNL     1      -9.345   7.678   9.537  1.00  0.00     0.166 HD
HETATM   20  C10 UNL     1      -7.404   8.321   7.125  1.00  0.00     0.106 A 
HETATM   21  N3  UNL     1      -6.578   7.818   8.083  1.00  0.00    -0.353 N 
ATOM     22  H3  UNL     1      -5.569   7.697   7.988  1.00  0.00     0.166 HD
ENDBRANCH  15  16
ENDBRANCH   7  15
BRANCH  13  23
HETATM   23  C16 UNL     1      -4.055   0.241  15.411  1.00  0.00     0.270 C 
BRANCH  23  24
HETATM   24  O2  UNL     1      -5.282   0.120  15.925  1.00  0.00    -0.376 OA
BRANCH  24  25
HETATM   25  C17 UNL     1      -5.554   0.550  17.181  1.00  0.00     0.249 C 
BRANCH  25  26
HETATM   26  C18 UNL     1      -6.746   1.452  17.314  1.00  0.00     0.285 C 
HETATM   27  F1  UNL     1      -7.944   0.842  17.110  1.00  0.00    -0.202 F 
HETATM   28  F2  UNL     1      -6.744   2.064  18.573  1.00  0.00    -0.202 F 
BRANCH  26  29
HETATM   29  C19 UNL     1      -6.638   2.602  16.319  1.00  0.00     0.245 C 
BRANCH  29  30
HETATM   30  O3  UNL     1      -6.920   3.788  16.958  1.00  0.00    -0.395 OA
ATOM     31  H3  UNL     1      -6.334   4.466  16.640  1.00  0.00     0.209 HD
ENDBRANCH  29  30
ENDBRANCH  26  29
ENDBRANCH  25  26
ENDBRANCH  24  25
ENDBRANCH  23  24
ENDBRANCH  13  23
TORSDOF 8
ENDMDL
MODEL 2
REMARK VINA RESULT: -7.722217600      1.315      1.785
REMARK  8 active torsions:
REMARK  status: ('A' for Active; 'I' for Inactive)
REMARK    1  A    between atoms: N1_7  and  C7_8 
REMARK    2  A    between atoms: C7_8  and  C8_9 
REMARK       I    between atoms: N4_20  and  C15_21 
REMARK    3  A    between atoms: C15_21  and  C16_23 
REMARK    4  A    between atoms: C16_23  and  O2_24 
REMARK    5  A    between atoms: O2_24  and  C17_25 
REMARK    6  A    between atoms: C17_25  and  C18_26 
REMARK    7  A    between atoms: C18_26  and  C19_29 
REMARK    8  A    between atoms: C19_29  and  O3_30 
ROOT
HETATM    1  C1  UNL     1      -1.932   4.850  13.808  1.00  0.00     0.032 C 
HETATM    2  C2  UNL     1      -3.271   4.633  13.190  1.00  0.00     0.084 C 
HETATM    3  C3  UNL     1      -3.256   4.900  11.687  1.00  0.00     0.034 C 
HETATM    4  C4  UNL     1      -4.683   5.236  11.294  1.00  0.00    -0.034 C 
HETATM    5  C5  UNL     1      -5.012   6.577  11.821  1.00  0.00     0.040 C 
HETATM    6  C6  UNL     1      -5.333   7.653  10.849  1.00  0.00     0.273 C 
HETATM    7  N1  UNL     1      -6.113   7.270   9.721  1.00  0.00     0.095 N 
HETATM    8  C11 UNL     1      -5.992   5.894   9.339  1.00  0.00     0.273 C 
HETATM    9  C12 UNL     1      -4.696   5.274   9.791  1.00  0.00     0.040 C 
HETATM   10  C13 UNL     1      -5.556   4.131  11.843  1.00  0.00     0.029 C 
HETATM   11  C14 UNL     1      -4.764   2.920  12.295  1.00  0.00     0.127 C 
HETATM   12  N4  UNL     1      -3.813   3.301  13.344  1.00  0.00    -0.346 N 
HETATM   13  C15 UNL     1      -3.469   2.428  14.415  1.00  0.00     0.243 C 
HETATM   14  O1  UNL     1      -2.655   2.877  15.249  1.00  0.00    -0.271 OA
ENDROOT
BRANCH   7  15
HETATM   15  C7  UNL     1      -7.466   7.693   9.895  1.00  0.00     0.348 C 
BRANCH  15  16
HETATM   16  C8  UNL     1      -8.019   8.489   8.812  1.00  0.00     0.109 A 
HETATM   17  N2  UNL     1      -7.539   9.650   8.353  1.00  0.00    -0.353 N 
HETATM   18  C9  UNL     1      -8.286  10.118   7.351  1.00  0.00     0.106 A 
ATOM     19  H2  UNL     1      -6.710  10.117   8.721  1.00  0.00     0.166 HD
HETATM   20  C10 UNL     1      -9.302   9.192   7.167  1.00  0.00     0.106 A 
HETATM   21  N3  UNL     1      -9.104   8.206   8.084  1.00  0.00    -0.353 N 
ATOM     22  H3  UNL     1      -9.691   7.379   8.198  1.00  0.00     0.166 HD
ENDBRANCH  15  16
ENDBRANCH   7  15
BRANCH  13  23
HETATM   23  C16 UNL     1      -4.019   1.079  14.558  1.00  0.00     0.270 C 
BRANCH  23  24
HETATM   24  O2  UNL     1      -5.201   0.917  15.161  1.00  0.00    -0.376 OA
BRANCH  24  25
HETATM   25  C17 UNL     1      -5.837   1.967  15.736  1.00  0.00     0.249 C 
BRANCH  25  26
HETATM   26  C18 UNL     1      -6.464   1.693  17.071  1.00  0.00     0.285 C 
HETATM   27  F1  UNL     1      -6.671   2.797  17.836  1.00  0.00    -0.202 F 
HETATM   28  F2  UNL     1      -7.675   1.012  16.899  1.00  0.00    -0.202 F 
BRANCH  26  29
HETATM   29  C19 UNL     1      -5.586   0.735  17.869  1.00  0.00     0.245 C 
BRANCH  29  30
HETATM   30  O3  UNL     1      -5.759  -0.546  17.398  1.00  0.00    -0.395 OA
ATOM     31  H3  UNL     1      -6.300  -0.525  16.617  1.00  0.00     0.209 HD
ENDBRANCH  29  30
ENDBRANCH  26  29
ENDBRANCH  25  26
ENDBRANCH  24  25
ENDBRANCH  23  24
ENDBRANCH  13  23
TORSDOF 8
ENDMDL
MODEL 3
REMARK VINA RESULT: -7.711607483      1.671      2.530
REMARK  8 active torsions:
REMARK  status: ('A' for Active; 'I' for Inactive)
REMARK    1  A    between atoms: N1_7  and  C7_8 
REMARK    2  A    between atoms: C7_8  and  C8_9 
REMARK       I    between atoms: N4_20  and  C15_21 
REMARK    3  A    between atoms: C15_21  and  C16_23 
REMARK    4  A    between atoms: C16_23  and  O2_24 
REMARK    5  A    between atoms: O2_24  and  C17_25 
REMARK    6  A    between atoms: C17_25  and  C18_26 
REMARK    7  A    between atoms: C18_26  and  C19_29 
REMARK    8  A    between atoms: C19_29  and  O3_30 
ROOT
HETATM    1  C1  UNL     1      -2.679   6.601  13.517  1.00  0.00     0.032 C 
HETATM    2  C2  UNL     1      -3.878   6.029  12.842  1.00  0.00     0.084 C 
HETATM    3  C3  UNL     1      -3.785   6.142  11.322  1.00  0.00     0.034 C 
HETATM    4  C4  UNL     1      -5.210   6.109  10.798  1.00  0.00    -0.034 C 
HETATM    5  C5  UNL     1      -5.866   7.388  11.142  1.00  0.00     0.040 C 
HETATM    6  C6  UNL     1      -6.323   8.262  10.032  1.00  0.00     0.273 C 
HETATM    7  N1  UNL     1      -6.896   7.603   8.907  1.00  0.00     0.095 N 
HETATM    8  C11 UNL     1      -6.449   6.258   8.698  1.00  0.00     0.273 C 
HETATM    9  C12 UNL     1      -5.096   5.992   9.304  1.00  0.00     0.040 C 
HETATM   10  C13 UNL     1      -5.871   4.897  11.416  1.00  0.00     0.029 C 
HETATM   11  C14 UNL     1      -4.882   3.945  12.058  1.00  0.00     0.127 C 
HETATM   12  N4  UNL     1      -4.132   4.632  13.115  1.00  0.00    -0.346 N 
HETATM   13  C15 UNL     1      -3.706   3.970  14.301  1.00  0.00     0.243 C 
HETATM   14  O1  UNL     1      -3.087   4.670  15.128  1.00  0.00    -0.271 OA
ENDROOT
BRANCH   7  15
HETATM   15  C7  UNL     1      -8.319   7.729   8.941  1.00  0.00     0.348 C 
BRANCH  15  16
HETATM   16  C8  UNL     1      -8.900   8.571   7.909  1.00  0.00     0.109 A 
HETATM   17  N2  UNL     1      -8.240   9.188   6.923  1.00  0.00    -0.353 N 
HETATM   18  C9  UNL     1      -9.075   9.885   6.148  1.00  0.00     0.106 A 
ATOM     19  H2  UNL     1      -7.232   9.134   6.782  1.00  0.00     0.166 HD
HETATM   20  C10 UNL     1     -10.342   9.694   6.681  1.00  0.00     0.106 A 
HETATM   21  N3  UNL     1     -10.192   8.882   7.763  1.00  0.00    -0.353 N 
ATOM     22  H3  UNL     1     -10.948   8.559   8.367  1.00  0.00     0.166 HD
ENDBRANCH  15  16
ENDBRANCH   7  15
BRANCH  13  23
HETATM   23  C16 UNL     1      -3.964   2.553  14.565  1.00  0.00     0.270 C 
BRANCH  23  24
HETATM   24  O2  UNL     1      -5.053   2.206  15.258  1.00  0.00    -0.376 OA
BRANCH  24  25
HETATM   25  C17 UNL     1      -5.024   2.142  16.611  1.00  0.00     0.249 C 
BRANCH  25  26
HETATM   26  C18 UNL     1      -6.335   2.385  17.300  1.00  0.00     0.285 C 
HETATM   27  F1  UNL     1      -6.255   2.477  18.654  1.00  0.00    -0.202 F 
HETATM   28  F2  UNL     1      -6.936   3.542  16.790  1.00  0.00    -0.202 F 
BRANCH  26  29
HETATM   29  C19 UNL     1      -7.310   1.259  16.970  1.00  0.00     0.245 C 
BRANCH  29  30
HETATM   30  O3  UNL     1      -6.604   0.121  16.654  1.00  0.00    -0.395 OA
ATOM     31  H3  UNL     1      -7.171  -0.637  16.739  1.00  0.00     0.209 HD
ENDBRANCH  29  30
ENDBRANCH  26  29
ENDBRANCH  25  26
ENDBRANCH  24  25
ENDBRANCH  23  24
ENDBRANCH  13  23
TORSDOF 8
ENDMDL
MODEL 4
REMARK VINA RESULT: -7.482187050      3.650      5.311
REMARK  8 active torsions:
REMARK  status: ('A' for Active; 'I' for Inactive)
REMARK    1  A    between atoms: N1_7  and  C7_8 
REMARK    2  A    between atoms: C7_8  and  C8_9 
REMARK       I    between atoms: N4_20  and  C15_21 
REMARK    3  A    between atoms: C15_21  and  C16_23 
REMARK    4  A    between atoms: C16_23  and  O2_24 
REMARK    5  A    between atoms: O2_24  and  C17_25 
REMARK    6  A    between atoms: C17_25  and  C18_26 
REMARK    7  A    between atoms: C18_26  and  C19_29 
REMARK    8  A    between atoms: C19_29  and  O3_30 
ROOT
HETATM    1  C1  UNL     1      -5.129   2.814  11.809  1.00  0.00     0.032 C 
HETATM    2  C2  UNL     1      -4.112   3.285  12.792  1.00  0.00     0.084 C 
HETATM    3  C3  UNL     1      -4.441   4.675  13.331  1.00  0.00     0.034 C 
HETATM    4  C4  UNL     1      -3.129   5.276  13.803  1.00  0.00    -0.034 C 
HETATM    5  C5  UNL     1      -2.314   5.613  12.617  1.00  0.00     0.040 C 
HETATM    6  C6  UNL     1      -1.968   7.039  12.387  1.00  0.00     0.273 C 
HETATM    7  N1  UNL     1      -1.647   7.804  13.545  1.00  0.00     0.095 N 
HETATM    8  C11 UNL     1      -2.242   7.340  14.763  1.00  0.00     0.273 C 
HETATM    9  C12 UNL     1      -3.496   6.539  14.532  1.00  0.00     0.040 C 
HETATM   10  C13 UNL     1      -2.489   4.256  14.717  1.00  0.00     0.029 C 
HETATM   11  C14 UNL     1      -3.442   3.155  15.136  1.00  0.00     0.127 C 
HETATM   12  N4  UNL     1      -3.943   2.444  13.956  1.00  0.00    -0.346 N 
HETATM   13  C15 UNL     1      -4.228   1.049  13.969  1.00  0.00     0.243 C 
HETATM   14  O1  UNL     1      -4.639   0.562  12.896  1.00  0.00    -0.271 OA
ENDROOT
BRANCH   7  15
HETATM   15  C7  UNL     1      -0.232   7.981  13.636  1.00  0.00     0.348 C 
BRANCH  15  16
HETATM   16  C8  UNL     1       0.211   9.324  13.972  1.00  0.00     0.109 A 
HETATM   17  N2  UNL     1       0.234   9.872  15.191  1.00  0.00    -0.353 N 
HETATM   18  C9  UNL     1       0.698  11.123  15.149  1.00  0.00     0.106 A 
ATOM     19  H2  UNL     1      -0.064   9.396  16.042  1.00  0.00     0.166 HD
HETATM   20  C10 UNL     1       0.986  11.379  13.815  1.00  0.00     0.106 A 
HETATM   21  N3  UNL     1       0.673  10.249  13.124  1.00  0.00    -0.353 N 
ATOM     22  H3  UNL     1       0.775  10.128  12.116  1.00  0.00     0.166 HD
ENDBRANCH  15  16
ENDBRANCH   7  15
BRANCH  13  23
HETATM   23  C16 UNL     1      -4.059   0.208  15.156  1.00  0.00     0.270 C 
BRANCH  23  24
HETATM   24  O2  UNL     1      -5.090   0.041  15.990  1.00  0.00    -0.376 OA
BRANCH  24  25
HETATM   25  C17 UNL     1      -5.239   0.835  17.078  1.00  0.00     0.249 C 
BRANCH  25  26
HETATM   26  C18 UNL     1      -6.587   1.474  17.235  1.00  0.00     0.285 C 
HETATM   27  F1  UNL     1      -7.638   0.642  17.011  1.00  0.00    -0.202 F 
HETATM   28  F2  UNL     1      -6.703   2.037  18.511  1.00  0.00    -0.202 F 
BRANCH  26  29
HETATM   29  C19 UNL     1      -6.717   2.651  16.274  1.00  0.00     0.245 C 
BRANCH  29  30
HETATM   30  O3  UNL     1      -6.889   3.813  16.992  1.00  0.00    -0.395 OA
ATOM     31  H3  UNL     1      -6.734   4.560  16.427  1.00  0.00     0.209 HD
ENDBRANCH  29  30
ENDBRANCH  26  29
ENDBRANCH  25  26
ENDBRANCH  24  25
ENDBRANCH  23  24
ENDBRANCH  13  23
TORSDOF 8
ENDMDL
MODEL 5
REMARK VINA RESULT: -7.433444161      1.970      3.279
REMARK  8 active torsions:
REMARK  status: ('A' for Active; 'I' for Inactive)
REMARK    1  A    between atoms: N1_7  and  C7_8 
REMARK    2  A    between atoms: C7_8  and  C8_9 
REMARK       I    between atoms: N4_20  and  C15_21 
REMARK    3  A    between atoms: C15_21  and  C16_23 
REMARK    4  A    between atoms: C16_23  and  O2_24 
REMARK    5  A    between atoms: O2_24  and  C17_25 
REMARK    6  A    between atoms: C17_25  and  C18_26 
REMARK    7  A    between atoms: C18_26  and  C19_29 
REMARK    8  A    between atoms: C19_29  and  O3_30 
ROOT
HETATM    1  C1  UNL     1      -2.944   5.575  12.703  1.00  0.00     0.032 C 
HETATM    2  C2  UNL     1      -4.333   6.039  12.424  1.00  0.00     0.084 C 
HETATM    3  C3  UNL     1      -4.771   5.704  11.001  1.00  0.00     0.034 C 
HETATM    4  C4  UNL     1      -5.867   6.691  10.642  1.00  0.00    -0.034 C 
HETATM    5  C5  UNL     1      -5.256   8.023  10.449  1.00  0.00     0.040 C 
HETATM    6  C6  UNL     1      -5.351   8.649   9.107  1.00  0.00     0.273 C 
HETATM    7  N1  UNL     1      -6.583   8.475   8.416  1.00  0.00     0.095 N 
HETATM    8  C11 UNL     1      -7.318   7.298   8.773  1.00  0.00     0.273 C 
HETATM    9  C12 UNL     1      -6.441   6.212   9.338  1.00  0.00     0.040 C 
HETATM   10  C13 UNL     1      -6.880   6.639  11.764  1.00  0.00     0.029 C 
HETATM   11  C14 UNL     1      -6.688   5.448  12.681  1.00  0.00     0.127 C 
HETATM   12  N4  UNL     1      -5.353   5.487  13.287  1.00  0.00    -0.346 N 
HETATM   13  C15 UNL     1      -5.102   5.024  14.610  1.00  0.00     0.243 C 
HETATM   14  O1  UNL     1      -3.925   5.122  15.011  1.00  0.00    -0.271 OA
ENDROOT
BRANCH   7  15
HETATM   15  C7  UNL     1      -7.359   9.672   8.492  1.00  0.00     0.348 C 
BRANCH  15  16
HETATM   16  C8  UNL     1      -8.374   9.828   7.463  1.00  0.00     0.109 A 
HETATM   17  N2  UNL     1      -8.161   9.978   6.152  1.00  0.00    -0.353 N 
HETATM   18  C9  UNL     1      -9.313  10.097   5.487  1.00  0.00     0.106 A 
ATOM     19  H2  UNL     1      -7.239   9.999   5.717  1.00  0.00     0.166 HD
HETATM   20  C10 UNL     1     -10.316  10.016   6.442  1.00  0.00     0.106 A 
HETATM   21  N3  UNL     1      -9.699   9.852   7.644  1.00  0.00    -0.353 N 
ATOM     22  H3  UNL     1     -10.174   9.761   8.543  1.00  0.00     0.166 HD
ENDBRANCH  15  16
ENDBRANCH   7  15
BRANCH  13  23
HETATM   23  C16 UNL     1      -6.142   4.461  15.473  1.00  0.00     0.270 C 
BRANCH  23  24
HETATM   24  O2  UNL     1      -6.458   3.167  15.356  1.00  0.00    -0.376 OA
BRANCH  24  25
HETATM   25  C17 UNL     1      -5.771   2.221  16.041  1.00  0.00     0.249 C 
BRANCH  25  26
HETATM   26  C18 UNL     1      -6.443   1.701  17.278  1.00  0.00     0.285 C 
HETATM   27  F1  UNL     1      -6.466   2.574  18.319  1.00  0.00    -0.202 F 
HETATM   28  F2  UNL     1      -7.749   1.298  16.979  1.00  0.00    -0.202 F 
BRANCH  26  29
HETATM   29  C19 UNL     1      -5.741   0.433  17.754  1.00  0.00     0.245 C 
BRANCH  29  30
HETATM   30  O3  UNL     1      -5.422  -0.349  16.667  1.00  0.00    -0.395 OA
ATOM     31  H3  UNL     1      -6.146  -0.933  16.474  1.00  0.00     0.209 HD
ENDBRANCH  29  30
ENDBRANCH  26  29
ENDBRANCH  25  26
ENDBRANCH  24  25
ENDBRANCH  23  24
ENDBRANCH  13  23
TORSDOF 8
ENDMDL
