MODEL 1
REMARK VINA RESULT: -6.440917306      0.000      0.000
REMARK  5 active torsions:
REMARK  status: ('A' for Active; 'I' for Inactive)
REMARK       I    between atoms: N1_2  and  C3_4 
REMARK    1  A    between atoms: C3_4  and  C4_6 
REMARK    2  A    between atoms: C4_6  and  N2_7 
REMARK    3  A    between atoms: C4_6  and  C10_16 
REMARK    4  A    between atoms: N2_7  and  C5_9 
REMARK    5  A    between atoms: C10_16  and  C11_18 
ROOT
HETATM    1  C4  UNL     1      -4.044   4.227  13.942  1.00  0.00     0.197 C 
ENDROOT
BRANCH   1   2
HETATM    2  C3  UNL     1      -5.267   3.836  14.658  1.00  0.00     0.243 C 
HETATM    3  N1  UNL     1      -5.216   2.792  15.602  1.00  0.00    -0.359 N 
HETATM    4  C1  UNL     1      -4.032   2.024  15.914  1.00  0.00     0.152 C 
HETATM    5  C2  UNL     1      -6.411   2.386  16.373  1.00  0.00     0.152 C 
HETATM    6  O1  UNL     1      -6.393   4.366  14.498  1.00  0.00    -0.271 OA
ENDBRANCH   1   2
BRANCH   1   7
HETATM    7  N2  UNL     1      -4.246   3.703  12.581  1.00  0.00    -0.370 N 
ATOM      8  H2  UNL     1      -4.772   4.287  11.932  1.00  0.00     0.161 HD
BRANCH   7   9
HETATM    9  C5  UNL     1      -3.781   2.475  12.102  1.00  0.00     0.070 A 
HETATM   10  C6  UNL     1      -4.522   1.332  12.286  1.00  0.00     0.039 A 
HETATM   11  C7  UNL     1      -4.139   0.080  11.881  1.00  0.00     0.030 A 
HETATM   12  C8  UNL     1      -2.982  -0.266  11.236  1.00  0.00     0.053 A 
HETATM   13  N3  UNL     1      -2.747  -1.651  10.883  1.00  0.00    -0.102 NA
HETATM   14  C9  UNL     1      -1.981   0.616  10.877  1.00  0.00     0.078 A 
HETATM   15  S1  UNL     1      -2.300   2.231  11.309  1.00  0.00    -0.083 SA
ENDBRANCH   7   9
ENDBRANCH   1   7
BRANCH   1  16
HETATM   16  C10 UNL     1      -3.858   5.677  13.745  1.00  0.00     0.168 C 
HETATM   17 CL1  UNL     1      -4.733   6.198  12.290  1.00  0.00    -0.118 Cl
BRANCH  16  18
HETATM   18  C11 UNL     1      -2.536   6.303  13.689  1.00  0.00     0.207 C 
HETATM   19 CL2  UNL     1      -1.881   6.610  12.078  1.00  0.00    -0.082 Cl
HETATM   20 CL3  UNL     1      -2.257   7.627  14.840  1.00  0.00    -0.082 Cl
HETATM   21 CL4  UNL     1      -1.428   4.997  14.326  1.00  0.00    -0.082 Cl
ENDBRANCH  16  18
ENDBRANCH   1  16
TORSDOF 5
ENDMDL
MODEL 2
REMARK VINA RESULT: -6.413134009      0.252      1.186
REMARK  5 active torsions:
REMARK  status: ('A' for Active; 'I' for Inactive)
REMARK       I    between atoms: N1_2  and  C3_4 
REMARK    1  A    between atoms: C3_4  and  C4_6 
REMARK    2  A    between atoms: C4_6  and  N2_7 
REMARK    3  A    between atoms: C4_6  and  C10_16 
REMARK    4  A    between atoms: N2_7  and  C5_9 
REMARK    5  A    between atoms: C10_16  and  C11_18 
ROOT
HETATM    1  C4  UNL     1      -4.051   4.245  14.001  1.00  0.00     0.197 C 
ENDROOT
BRANCH   1   2
HETATM    2  C3  UNL     1      -5.277   3.823  14.694  1.00  0.00     0.243 C 
HETATM    3  N1  UNL     1      -5.222   2.764  15.621  1.00  0.00    -0.359 N 
HETATM    4  C1  UNL     1      -4.030   2.010  15.937  1.00  0.00     0.152 C 
HETATM    5  C2  UNL     1      -6.421   2.327  16.369  1.00  0.00     0.152 C 
HETATM    6  O1  UNL     1      -6.409   4.338  14.527  1.00  0.00    -0.271 OA
ENDBRANCH   1   2
BRANCH   1   7
HETATM    7  N2  UNL     1      -4.232   3.751  12.626  1.00  0.00    -0.370 N 
ATOM      8  H2  UNL     1      -4.735   4.356  11.978  1.00  0.00     0.161 HD
BRANCH   7   9
HETATM    9  C5  UNL     1      -3.775   2.526  12.132  1.00  0.00     0.070 A 
HETATM   10  C6  UNL     1      -4.532   1.389  12.286  1.00  0.00     0.039 A 
HETATM   11  C7  UNL     1      -4.158   0.140  11.865  1.00  0.00     0.030 A 
HETATM   12  C8  UNL     1      -2.997  -0.209  11.230  1.00  0.00     0.053 A 
HETATM   13  N3  UNL     1      -2.774  -1.591  10.856  1.00  0.00    -0.102 NA
HETATM   14  C9  UNL     1      -1.981   0.667  10.898  1.00  0.00     0.078 A 
HETATM   15  S1  UNL     1      -2.287   2.278  11.354  1.00  0.00    -0.083 SA
ENDBRANCH   7   9
ENDBRANCH   1   7
BRANCH   1  16
HETATM   16  C10 UNL     1      -3.880   5.701  13.841  1.00  0.00     0.168 C 
HETATM   17 CL1  UNL     1      -4.672   6.233  12.343  1.00  0.00    -0.118 Cl
BRANCH  16  18
HETATM   18  C11 UNL     1      -2.569   6.352  13.879  1.00  0.00     0.207 C 
HETATM   19 CL2  UNL     1      -2.392   7.692  15.014  1.00  0.00    -0.082 Cl
HETATM   20 CL3  UNL     1      -1.165   5.267  13.826  1.00  0.00    -0.082 Cl
HETATM   21 CL4  UNL     1      -2.472   7.189  12.257  1.00  0.00    -0.082 Cl
ENDBRANCH  16  18
ENDBRANCH   1  16
TORSDOF 5
ENDMDL
MODEL 3
REMARK VINA RESULT: -6.348323605      2.306      4.613
REMARK  5 active torsions:
REMARK  status: ('A' for Active; 'I' for Inactive)
REMARK       I    between atoms: N1_2  and  C3_4 
REMARK    1  A    between atoms: C3_4  and  C4_6 
REMARK    2  A    between atoms: C4_6  and  N2_7 
REMARK    3  A    between atoms: C4_6  and  C10_16 
REMARK    4  A    between atoms: N2_7  and  C5_9 
REMARK    5  A    between atoms: C10_16  and  C11_18 
ROOT
HETATM    1  C4  UNL     1      -3.221   3.615  12.703  1.00  0.00     0.197 C 
ENDROOT
BRANCH   1   2
HETATM    2  C3  UNL     1      -2.570   2.518  11.971  1.00  0.00     0.243 C 
HETATM    3  N1  UNL     1      -3.360   1.518  11.371  1.00  0.00    -0.359 N 
HETATM    4  C1  UNL     1      -4.802   1.457  11.442  1.00  0.00     0.152 C 
HETATM    5  C2  UNL     1      -2.754   0.414  10.596  1.00  0.00     0.152 C 
HETATM    6  O1  UNL     1      -1.330   2.386  11.830  1.00  0.00    -0.271 OA
ENDBRANCH   1   2
BRANCH   1   7
HETATM    7  N2  UNL     1      -3.119   3.210  14.114  1.00  0.00    -0.370 N 
ATOM      8  H2  UNL     1      -2.208   3.309  14.562  1.00  0.00     0.161 HD
BRANCH   7   9
HETATM    9  C5  UNL     1      -4.162   2.703  14.896  1.00  0.00     0.070 A 
HETATM   10  C6  UNL     1      -4.092   1.426  15.401  1.00  0.00     0.039 A 
HETATM   11  C7  UNL     1      -5.073   0.829  16.150  1.00  0.00     0.030 A 
HETATM   12  C8  UNL     1      -6.273   1.368  16.528  1.00  0.00     0.053 A 
HETATM   13  N3  UNL     1      -7.190   0.581  17.326  1.00  0.00    -0.102 NA
HETATM   14  C9  UNL     1      -6.706   2.641  16.208  1.00  0.00     0.078 A 
HETATM   15  S1  UNL     1      -5.596   3.529  15.271  1.00  0.00    -0.083 SA
ENDBRANCH   7   9
ENDBRANCH   1   7
BRANCH   1  16
HETATM   16  C10 UNL     1      -2.526   4.915  12.650  1.00  0.00     0.168 C 
HETATM   17 CL1  UNL     1      -1.271   4.971  13.904  1.00  0.00    -0.118 Cl
BRANCH  16  18
HETATM   18  C11 UNL     1      -3.237   6.193  12.707  1.00  0.00     0.207 C 
HETATM   19 CL2  UNL     1      -2.465   7.556  11.893  1.00  0.00    -0.082 Cl
HETATM   20 CL3  UNL     1      -4.994   6.114  12.463  1.00  0.00    -0.082 Cl
HETATM   21 CL4  UNL     1      -3.113   6.661  14.470  1.00  0.00    -0.082 Cl
ENDBRANCH  16  18
ENDBRANCH   1  16
TORSDOF 5
ENDMDL
MODEL 4
REMARK VINA RESULT: -6.335191095      2.430      4.556
REMARK  5 active torsions:
REMARK  status: ('A' for Active; 'I' for Inactive)
REMARK       I    between atoms: N1_2  and  C3_4 
REMARK    1  A    between atoms: C3_4  and  C4_6 
REMARK    2  A    between atoms: C4_6  and  N2_7 
REMARK    3  A    between atoms: C4_6  and  C10_16 
REMARK    4  A    between atoms: N2_7  and  C5_9 
REMARK    5  A    between atoms: C10_16  and  C11_18 
ROOT
HETATM    1  C4  UNL     1      -3.879   4.071  12.638  1.00  0.00     0.197 C 
ENDROOT
BRANCH   1   2
HETATM    2  C3  UNL     1      -2.950   3.039  12.155  1.00  0.00     0.243 C 
HETATM    3  N1  UNL     1      -3.459   1.873  11.550  1.00  0.00    -0.359 N 
HETATM    4  C1  UNL     1      -4.865   1.579  11.387  1.00  0.00     0.152 C 
HETATM    5  C2  UNL     1      -2.564   0.823  11.017  1.00  0.00     0.152 C 
HETATM    6  O1  UNL     1      -1.699   3.103  12.238  1.00  0.00    -0.271 OA
ENDBRANCH   1   2
BRANCH   1   7
HETATM    7  N2  UNL     1      -3.773   3.987  14.104  1.00  0.00    -0.370 N 
ATOM      8  H2  UNL     1      -3.179   4.674  14.567  1.00  0.00     0.161 HD
BRANCH   7   9
HETATM    9  C5  UNL     1      -4.415   3.048  14.917  1.00  0.00     0.070 A 
HETATM   10  C6  UNL     1      -3.771   1.888  15.279  1.00  0.00     0.039 A 
HETATM   11  C7  UNL     1      -4.325   0.895  16.044  1.00  0.00     0.030 A 
HETATM   12  C8  UNL     1      -5.584   0.865  16.580  1.00  0.00     0.053 A 
HETATM   13  N3  UNL     1      -5.998  -0.277  17.370  1.00  0.00    -0.102 NA
HETATM   14  C9  UNL     1      -6.532   1.860  16.433  1.00  0.00     0.078 A 
HETATM   15  S1  UNL     1      -6.003   3.181  15.500  1.00  0.00    -0.083 SA
ENDBRANCH   7   9
ENDBRANCH   1   7
BRANCH   1  16
HETATM   16  C10 UNL     1      -3.500   5.462  12.329  1.00  0.00     0.168 C 
HETATM   17 CL1  UNL     1      -3.426   6.407  13.830  1.00  0.00    -0.118 Cl
BRANCH  16  18
HETATM   18  C11 UNL     1      -4.223   6.279  11.352  1.00  0.00     0.207 C 
HETATM   19 CL2  UNL     1      -4.102   5.773   9.665  1.00  0.00    -0.082 Cl
HETATM   20 CL3  UNL     1      -5.852   6.799  11.831  1.00  0.00    -0.082 Cl
HETATM   21 CL4  UNL     1      -3.296   7.855  11.360  1.00  0.00    -0.082 Cl
ENDBRANCH  16  18
ENDBRANCH   1  16
TORSDOF 5
ENDMDL
MODEL 5
REMARK VINA RESULT: -6.332409495      2.254      4.630
REMARK  5 active torsions:
REMARK  status: ('A' for Active; 'I' for Inactive)
REMARK       I    between atoms: N1_2  and  C3_4 
REMARK    1  A    between atoms: C3_4  and  C4_6 
REMARK    2  A    between atoms: C4_6  and  N2_7 
REMARK    3  A    between atoms: C4_6  and  C10_16 
REMARK    4  A    between atoms: N2_7  and  C5_9 
REMARK    5  A    between atoms: C10_16  and  C11_18 
ROOT
HETATM    1  C4  UNL     1      -3.281   3.568  12.675  1.00  0.00     0.197 C 
ENDROOT
BRANCH   1   2
HETATM    2  C3  UNL     1      -2.622   2.462  11.965  1.00  0.00     0.243 C 
HETATM    3  N1  UNL     1      -3.405   1.460  11.360  1.00  0.00    -0.359 N 
HETATM    4  C1  UNL     1      -4.850   1.407  11.405  1.00  0.00     0.152 C 
HETATM    5  C2  UNL     1      -2.791   0.347  10.605  1.00  0.00     0.152 C 
HETATM    6  O1  UNL     1      -1.381   2.323  11.848  1.00  0.00    -0.271 OA
ENDBRANCH   1   2
BRANCH   1   7
HETATM    7  N2  UNL     1      -3.154   3.205  14.095  1.00  0.00    -0.370 N 
ATOM      8  H2  UNL     1      -2.265   3.410  14.550  1.00  0.00     0.161 HD
BRANCH   7   9
HETATM    9  C5  UNL     1      -4.146   2.603  14.876  1.00  0.00     0.070 A 
HETATM   10  C6  UNL     1      -5.302   3.284  15.175  1.00  0.00     0.039 A 
HETATM   11  C7  UNL     1      -6.317   2.793  15.955  1.00  0.00     0.030 A 
HETATM   12  C8  UNL     1      -6.376   1.571  16.568  1.00  0.00     0.053 A 
HETATM   13  N3  UNL     1      -7.538   1.224  17.359  1.00  0.00    -0.102 NA
HETATM   14  C9  UNL     1      -5.393   0.602  16.499  1.00  0.00     0.078 A 
HETATM   15  S1  UNL     1      -4.048   1.053  15.559  1.00  0.00    -0.083 SA
ENDBRANCH   7   9
ENDBRANCH   1   7
BRANCH   1  16
HETATM   16  C10 UNL     1      -2.607   4.877  12.577  1.00  0.00     0.168 C 
HETATM   17 CL1  UNL     1      -1.274   4.950  13.747  1.00  0.00    -0.118 Cl
BRANCH  16  18
HETATM   18  C11 UNL     1      -3.329   6.147  12.681  1.00  0.00     0.207 C 
HETATM   19 CL2  UNL     1      -2.640   7.514  11.801  1.00  0.00    -0.082 Cl
HETATM   20 CL3  UNL     1      -5.098   6.043  12.572  1.00  0.00    -0.082 Cl
HETATM   21 CL4  UNL     1      -3.076   6.628  14.426  1.00  0.00    -0.082 Cl
ENDBRANCH  16  18
ENDBRANCH   1  16
TORSDOF 5
ENDMDL
