MODEL 1
REMARK VINA RESULT: -7.319307706      0.000      0.000
REMARK  6 active torsions:
REMARK  status: ('A' for Active; 'I' for Inactive)
REMARK    1  A    between atoms: C6_6  and  N1_7 
REMARK    2  A    between atoms: N1_7  and  C7_9 
REMARK    3  A    between atoms: N3_12  and  C8_13 
REMARK    4  A    between atoms: C8_13  and  C9_14 
REMARK    5  A    between atoms: C9_14  and  O1_16 
REMARK    6  A    between atoms: C9_14  and  C11_18 
ROOT
HETATM    1  C7  UNL     1      -4.466   3.821  12.646  1.00  0.00     0.139 A 
HETATM    2  N2  UNL     1      -5.111   3.013  13.486  1.00  0.00    -0.282 N 
ATOM      3  H2  UNL     1      -5.394   2.061  13.254  1.00  0.00     0.189 HD
HETATM    4  N3  UNL     1      -5.341   3.586  14.653  1.00  0.00    -0.297 N 
HETATM    5  C12 UNL     1      -4.822   4.820  14.563  1.00  0.00     0.133 A 
HETATM    6  C13 UNL     1      -4.266   5.006  13.322  1.00  0.00     0.073 A 
HETATM    7 BR1  UNL     1      -3.385   6.562  12.628  1.00  0.00    -0.045 Br
ENDROOT
BRANCH   1   8
HETATM    8  N1  UNL     1      -4.075   3.606  11.426  1.00  0.00    -0.340 N 
ATOM      9  H1  UNL     1      -4.419   4.167  10.646  1.00  0.00     0.167 HD
BRANCH   8  10
HETATM   10  C6  UNL     1      -3.133   2.539  11.230  1.00  0.00     0.034 A 
HETATM   11  C5  UNL     1      -1.796   2.880  11.078  1.00  0.00     0.029 A 
HETATM   12  C4  UNL     1      -0.860   1.867  10.887  1.00  0.00     0.003 A 
HETATM   13  C3  UNL     1      -1.300   0.563  10.857  1.00  0.00     0.007 A 
HETATM   14  C2  UNL     1      -2.624   0.217  11.008  1.00  0.00    -0.060 A 
HETATM   15  C1  UNL     1      -3.005  -1.218  10.962  1.00  0.00     0.048 C 
HETATM   16  C14 UNL     1      -3.553   1.225  11.197  1.00  0.00     0.036 A 
ENDBRANCH   8  10
ENDBRANCH   1   8
BRANCH   4  17
HETATM   17  C8  UNL     1      -6.007   2.980  15.752  1.00  0.00     0.195 C 
BRANCH  17  18
HETATM   18  C9  UNL     1      -5.435   1.702  16.252  1.00  0.00     0.169 C 
HETATM   19  C10 UNL     1      -3.927   1.832  16.480  1.00  0.00     0.057 C 
BRANCH  18  20
HETATM   20  O1  UNL     1      -5.567   0.700  15.272  1.00  0.00    -0.379 OA
ATOM     21  H1  UNL     1      -4.928   0.014  15.422  1.00  0.00     0.211 HD
ENDBRANCH  18  20
BRANCH  18  22
HETATM   22  C11 UNL     1      -6.023   1.164  17.512  1.00  0.00     0.419 C 
HETATM   23  F1  UNL     1      -5.985   2.066  18.555  1.00  0.00    -0.168 F 
HETATM   24  F2  UNL     1      -5.570  -0.093  17.862  1.00  0.00    -0.168 F 
HETATM   25  F3  UNL     1      -7.393   0.982  17.250  1.00  0.00    -0.168 F 
ENDBRANCH  18  22
ENDBRANCH  17  18
ENDBRANCH   4  17
TORSDOF 6
ENDMDL
MODEL 2
REMARK VINA RESULT: -7.231672304      2.967      5.583
REMARK  6 active torsions:
REMARK  status: ('A' for Active; 'I' for Inactive)
REMARK    1  A    between atoms: C6_6  and  N1_7 
REMARK    2  A    between atoms: N1_7  and  C7_9 
REMARK    3  A    between atoms: N3_12  and  C8_13 
REMARK    4  A    between atoms: C8_13  and  C9_14 
REMARK    5  A    between atoms: C9_14  and  O1_16 
REMARK    6  A    between atoms: C9_14  and  C11_18 
ROOT
HETATM    1  C7  UNL     1      -3.028   3.671  12.561  1.00  0.00     0.139 A 
HETATM    2  N2  UNL     1      -2.481   2.458  12.526  1.00  0.00    -0.282 N 
ATOM      3  H2  UNL     1      -2.138   1.964  13.350  1.00  0.00     0.189 HD
HETATM    4  N3  UNL     1      -2.435   1.966  11.302  1.00  0.00    -0.297 N 
HETATM    5  C12 UNL     1      -2.976   2.904  10.509  1.00  0.00     0.133 A 
HETATM    6  C13 UNL     1      -3.360   3.987  11.261  1.00  0.00     0.073 A 
HETATM    7 BR1  UNL     1      -4.185   5.616  10.674  1.00  0.00    -0.045 Br
ENDROOT
BRANCH   1   8
HETATM    8  N1  UNL     1      -3.239   4.456  13.575  1.00  0.00    -0.340 N 
ATOM      9  H1  UNL     1      -2.673   5.290  13.734  1.00  0.00     0.167 HD
BRANCH   8  10
HETATM   10  C6  UNL     1      -4.308   4.090  14.462  1.00  0.00     0.034 A 
HETATM   11  C5  UNL     1      -5.339   5.003  14.640  1.00  0.00     0.029 A 
HETATM   12  C4  UNL     1      -6.389   4.675  15.493  1.00  0.00     0.003 A 
HETATM   13  C3  UNL     1      -6.363   3.453  16.128  1.00  0.00     0.007 A 
HETATM   14  C2  UNL     1      -5.345   2.544  15.956  1.00  0.00    -0.060 A 
HETATM   15  C1  UNL     1      -5.404   1.249  16.684  1.00  0.00     0.048 C 
HETATM   16  C14 UNL     1      -4.303   2.871  15.109  1.00  0.00     0.036 A 
ENDBRANCH   8  10
ENDBRANCH   1   8
BRANCH   4  17
HETATM   17  C8  UNL     1      -1.909   0.695  10.942  1.00  0.00     0.195 C 
BRANCH  17  18
HETATM   18  C9  UNL     1      -2.895  -0.403  10.758  1.00  0.00     0.169 C 
HETATM   19  C10 UNL     1      -2.247  -1.766  11.017  1.00  0.00     0.057 C 
BRANCH  18  20
HETATM   20  O1  UNL     1      -3.315  -0.452   9.416  1.00  0.00    -0.379 OA
ATOM     21  H1  UNL     1      -3.057  -1.279   9.025  1.00  0.00     0.211 HD
ENDBRANCH  18  20
BRANCH  18  22
HETATM   22  C11 UNL     1      -4.123  -0.335  11.600  1.00  0.00     0.419 C 
HETATM   23  F1  UNL     1      -5.110   0.461  11.054  1.00  0.00    -0.168 F 
HETATM   24  F2  UNL     1      -3.886  -0.069  12.935  1.00  0.00    -0.168 F 
HETATM   25  F3  UNL     1      -4.668  -1.631  11.591  1.00  0.00    -0.168 F 
ENDBRANCH  18  22
ENDBRANCH  17  18
ENDBRANCH   4  17
TORSDOF 6
ENDMDL
MODEL 3
REMARK VINA RESULT: -7.207840269      2.975      5.715
REMARK  6 active torsions:
REMARK  status: ('A' for Active; 'I' for Inactive)
REMARK    1  A    between atoms: C6_6  and  N1_7 
REMARK    2  A    between atoms: N1_7  and  C7_9 
REMARK    3  A    between atoms: N3_12  and  C8_13 
REMARK    4  A    between atoms: C8_13  and  C9_14 
REMARK    5  A    between atoms: C9_14  and  O1_16 
REMARK    6  A    between atoms: C9_14  and  C11_18 
ROOT
HETATM    1  C7  UNL     1      -4.040   3.384  13.256  1.00  0.00     0.139 A 
HETATM    2  N2  UNL     1      -4.261   2.158  12.783  1.00  0.00    -0.282 N 
ATOM      3  H2  UNL     1      -4.382   1.335  13.373  1.00  0.00     0.189 HD
HETATM    4  N3  UNL     1      -4.305   2.132  11.464  1.00  0.00    -0.297 N 
HETATM    5  C12 UNL     1      -4.103   3.397  11.066  1.00  0.00     0.133 A 
HETATM    6  C13 UNL     1      -3.933   4.211  12.158  1.00  0.00     0.073 A 
HETATM    7 BR1  UNL     1      -3.613   6.101  12.201  1.00  0.00    -0.045 Br
ENDROOT
BRANCH   1   8
HETATM    8  N1  UNL     1      -3.935   3.791  14.485  1.00  0.00    -0.340 N 
ATOM      9  H1  UNL     1      -3.195   4.429  14.777  1.00  0.00     0.167 HD
BRANCH   8  10
HETATM   10  C6  UNL     1      -4.915   3.298  15.413  1.00  0.00     0.034 A 
HETATM   11  C5  UNL     1      -5.977   4.133  15.735  1.00  0.00     0.029 A 
HETATM   12  C4  UNL     1      -6.941   3.682  16.630  1.00  0.00     0.003 A 
HETATM   13  C3  UNL     1      -6.805   2.420  17.163  1.00  0.00     0.007 A 
HETATM   14  C2  UNL     1      -5.756   1.586  16.849  1.00  0.00    -0.060 A 
HETATM   15  C1  UNL     1      -5.692   0.240  17.475  1.00  0.00     0.048 C 
HETATM   16  C14 UNL     1      -4.797   2.036  15.959  1.00  0.00     0.036 A 
ENDBRANCH   8  10
ENDBRANCH   1   8
BRANCH   4  17
HETATM   17  C8  UNL     1      -4.523   0.974  10.669  1.00  0.00     0.195 C 
BRANCH  17  18
HETATM   18  C9  UNL     1      -3.434  -0.039  10.659  1.00  0.00     0.169 C 
HETATM   19  C10 UNL     1      -2.086   0.608  10.987  1.00  0.00     0.057 C 
BRANCH  18  20
HETATM   20  O1  UNL     1      -3.277  -0.563   9.362  1.00  0.00    -0.379 OA
ATOM     21  H1  UNL     1      -3.772  -1.369   9.276  1.00  0.00     0.211 HD
ENDBRANCH  18  20
BRANCH  18  22
HETATM   22  C11 UNL     1      -3.602  -1.196  11.583  1.00  0.00     0.419 C 
HETATM   23  F1  UNL     1      -3.891  -0.817  12.878  1.00  0.00    -0.168 F 
HETATM   24  F2  UNL     1      -2.596  -2.140  11.504  1.00  0.00    -0.168 F 
HETATM   25  F3  UNL     1      -4.754  -1.873  11.147  1.00  0.00    -0.168 F 
ENDBRANCH  18  22
ENDBRANCH  17  18
ENDBRANCH   4  17
TORSDOF 6
ENDMDL
MODEL 4
REMARK VINA RESULT: -6.941195281      2.407      3.463
REMARK  6 active torsions:
REMARK  status: ('A' for Active; 'I' for Inactive)
REMARK    1  A    between atoms: C6_6  and  N1_7 
REMARK    2  A    between atoms: N1_7  and  C7_9 
REMARK    3  A    between atoms: N3_12  and  C8_13 
REMARK    4  A    between atoms: C8_13  and  C9_14 
REMARK    5  A    between atoms: C9_14  and  O1_16 
REMARK    6  A    between atoms: C9_14  and  C11_18 
ROOT
HETATM    1  C7  UNL     1      -3.877   1.910  12.803  1.00  0.00     0.139 A 
HETATM    2  N2  UNL     1      -3.976   2.371  14.049  1.00  0.00    -0.282 N 
ATOM      3  H2  UNL     1      -3.912   3.359  14.296  1.00  0.00     0.189 HD
HETATM    4  N3  UNL     1      -4.168   1.403  14.926  1.00  0.00    -0.297 N 
HETATM    5  C12 UNL     1      -4.193   0.265  14.215  1.00  0.00     0.133 A 
HETATM    6  C13 UNL     1      -4.015   0.541  12.883  1.00  0.00     0.073 A 
HETATM    7 BR1  UNL     1      -3.961  -0.683  11.407  1.00  0.00    -0.045 Br
ENDROOT
BRANCH   1   8
HETATM    8  N1  UNL     1      -3.690   2.558  11.692  1.00  0.00    -0.340 N 
ATOM      9  H1  UNL     1      -4.459   2.762  11.054  1.00  0.00     0.167 HD
BRANCH   8  10
HETATM   10  C6  UNL     1      -2.343   2.971  11.408  1.00  0.00     0.034 A 
HETATM   11  C5  UNL     1      -1.587   2.168  10.563  1.00  0.00     0.029 A 
HETATM   12  C4  UNL     1      -0.280   2.543  10.269  1.00  0.00     0.003 A 
HETATM   13  C3  UNL     1       0.215   3.699  10.830  1.00  0.00     0.007 A 
HETATM   14  C2  UNL     1      -0.528   4.499  11.668  1.00  0.00    -0.060 A 
HETATM   15  C1  UNL     1       0.091   5.730  12.227  1.00  0.00     0.048 C 
HETATM   16  C14 UNL     1      -1.827   4.125  11.960  1.00  0.00     0.036 A 
ENDBRANCH   8  10
ENDBRANCH   1   8
BRANCH   4  17
HETATM   17  C8  UNL     1      -4.312   1.578  16.329  1.00  0.00     0.195 C 
BRANCH  17  18
HETATM   18  C9  UNL     1      -5.672   1.360  16.889  1.00  0.00     0.169 C 
HETATM   19  C10 UNL     1      -5.622   1.248  18.415  1.00  0.00     0.057 C 
BRANCH  18  20
HETATM   20  O1  UNL     1      -6.179   0.121  16.452  1.00  0.00    -0.379 OA
ATOM     21  H1  UNL     1      -7.119   0.091  16.583  1.00  0.00     0.211 HD
ENDBRANCH  18  20
BRANCH  18  22
HETATM   22  C11 UNL     1      -6.695   2.393  16.559  1.00  0.00     0.419 C 
HETATM   23  F1  UNL     1      -6.631   2.818  15.247  1.00  0.00    -0.168 F 
HETATM   24  F2  UNL     1      -6.768   3.433  17.465  1.00  0.00    -0.168 F 
HETATM   25  F3  UNL     1      -7.940   1.748  16.662  1.00  0.00    -0.168 F 
ENDBRANCH  18  22
ENDBRANCH  17  18
ENDBRANCH   4  17
TORSDOF 6
ENDMDL
MODEL 5
REMARK VINA RESULT: -6.937988514      4.560      6.806
REMARK  6 active torsions:
REMARK  status: ('A' for Active; 'I' for Inactive)
REMARK    1  A    between atoms: C6_6  and  N1_7 
REMARK    2  A    between atoms: N1_7  and  C7_9 
REMARK    3  A    between atoms: N3_12  and  C8_13 
REMARK    4  A    between atoms: C8_13  and  C9_14 
REMARK    5  A    between atoms: C9_14  and  O1_16 
REMARK    6  A    between atoms: C9_14  and  C11_18 
ROOT
HETATM    1  C7  UNL     1      -3.714   3.091  12.806  1.00  0.00     0.139 A 
HETATM    2  N2  UNL     1      -3.791   4.319  12.296  1.00  0.00    -0.282 N 
ATOM      3  H2  UNL     1      -3.598   5.168  12.828  1.00  0.00     0.189 HD
HETATM    4  N3  UNL     1      -4.144   4.311  11.024  1.00  0.00    -0.297 N 
HETATM    5  C12 UNL     1      -4.304   3.019  10.697  1.00  0.00     0.133 A 
HETATM    6  C13 UNL     1      -4.044   2.224  11.786  1.00  0.00     0.073 A 
HETATM    7 BR1  UNL     1      -4.111   0.312  11.912  1.00  0.00    -0.045 Br
ENDROOT
BRANCH   1   8
HETATM    8  N1  UNL     1      -3.400   2.711  14.008  1.00  0.00    -0.340 N 
ATOM      9  H1  UNL     1      -2.438   2.493  14.268  1.00  0.00     0.167 HD
BRANCH   8  10
HETATM   10  C6  UNL     1      -4.478   2.612  14.954  1.00  0.00     0.034 A 
HETATM   11  C5  UNL     1      -5.356   3.684  15.044  1.00  0.00     0.029 A 
HETATM   12  C4  UNL     1      -6.409   3.617  15.951  1.00  0.00     0.003 A 
HETATM   13  C3  UNL     1      -6.539   2.486  16.726  1.00  0.00     0.007 A 
HETATM   14  C2  UNL     1      -5.673   1.420  16.642  1.00  0.00    -0.060 A 
HETATM   15  C1  UNL     1      -5.893   0.240  17.518  1.00  0.00     0.048 C 
HETATM   16  C14 UNL     1      -4.626   1.488  15.740  1.00  0.00     0.036 A 
ENDBRANCH   8  10
ENDBRANCH   1   8
BRANCH   4  17
HETATM   17  C8  UNL     1      -4.311   5.461  10.207  1.00  0.00     0.195 C 
BRANCH  17  18
HETATM   18  C9  UNL     1      -5.038   6.607  10.814  1.00  0.00     0.169 C 
HETATM   19  C10 UNL     1      -4.058   7.674  11.309  1.00  0.00     0.057 C 
BRANCH  18  20
HETATM   20  O1  UNL     1      -5.724   6.184  11.968  1.00  0.00    -0.379 OA
ATOM     21  H1  UNL     1      -6.136   6.927  12.391  1.00  0.00     0.211 HD
ENDBRANCH  18  20
BRANCH  18  22
HETATM   22  C11 UNL     1      -6.032   7.295   9.941  1.00  0.00     0.419 C 
HETATM   23  F1  UNL     1      -6.916   6.425   9.337  1.00  0.00    -0.168 F 
HETATM   24  F2  UNL     1      -5.483   8.210   9.063  1.00  0.00    -0.168 F 
HETATM   25  F3  UNL     1      -6.829   8.070  10.802  1.00  0.00    -0.168 F 
ENDBRANCH  18  22
ENDBRANCH  17  18
ENDBRANCH   4  17
TORSDOF 6
ENDMDL
