MODEL 1
REMARK VINA RESULT: -6.854626628      0.000      0.000
REMARK  5 active torsions:
REMARK  status: ('A' for Active; 'I' for Inactive)
REMARK    1  A    between atoms: C2_2  and  C12_23 
REMARK    2  A    between atoms: N1_3  and  N2_5 
REMARK       I    between atoms: N2_5  and  C3_7 
REMARK    3  A    between atoms: C3_7  and  C4_9 
REMARK    4  A    between atoms: C8_13  and  N3_14 
REMARK       I    between atoms: N3_14  and  C9_16 
REMARK    5  A    between atoms: C9_16  and  C10_18 
ROOT
HETATM    1  C4  UNL     1      -2.522   3.015  12.234  1.00  0.00     0.035 A 
HETATM    2  C5  UNL     1      -2.533   1.847  11.513  1.00  0.00     0.017 A 
HETATM    3  C6  UNL     1      -3.435   0.837  11.841  1.00  0.00     0.003 A 
HETATM    4  C7  UNL     1      -4.298   1.043  12.889  1.00  0.00     0.029 A 
HETATM    5  C8  UNL     1      -4.318   2.217  13.647  1.00  0.00     0.035 A 
HETATM    6  C11 UNL     1      -3.428   3.173  13.300  1.00  0.00     0.046 A 
ENDROOT
BRANCH   1   7
HETATM    7  C3  UNL     1      -1.586   4.087  11.906  1.00  0.00     0.270 C 
HETATM    8  N2  UNL     1      -0.677   4.625  12.828  1.00  0.00    -0.266 N 
ATOM      9  H2  UNL     1      -0.648   4.266  13.782  1.00  0.00     0.190 HD
HETATM   10  O1  UNL     1      -1.599   4.557  10.718  1.00  0.00    -0.266 OA
BRANCH   8  11
HETATM   11  N1  UNL     1       0.184   5.646  12.443  1.00  0.00    -0.305 N 
HETATM   12  C2  UNL     1      -0.002   6.872  12.760  1.00  0.00     0.018 C 
HETATM   13  C1  UNL     1       0.962   7.894  12.309  1.00  0.00     0.066 C 
ATOM     14  H1  UNL     1       1.003   5.407  11.883  1.00  0.00     0.186 HD
BRANCH  12  15
HETATM   15  C12 UNL     1      -1.176   7.246  13.568  1.00  0.00     0.124 C 
HETATM   16  C13 UNL     1      -2.209   7.871  12.654  1.00  0.00     0.033 C 
HETATM   17 CL4  UNL     1      -0.780   8.436  14.828  1.00  0.00    -0.119 Cl
ENDBRANCH  12  15
ENDBRANCH   8  11
ENDBRANCH   1   7
BRANCH   5  18
HETATM   18  N3  UNL     1      -5.238   2.322  14.698  1.00  0.00    -0.323 N 
HETATM   19  C9  UNL     1      -5.105   1.939  16.031  1.00  0.00     0.277 C 
HETATM   20  O2  UNL     1      -4.076   1.419  16.480  1.00  0.00    -0.268 OA
ATOM     21  H3  UNL     1      -6.135   2.740  14.452  1.00  0.00     0.169 HD
BRANCH  19  22
HETATM   22  C10 UNL     1      -6.216   2.130  17.034  1.00  0.00     0.269 C 
HETATM   23 CL1  UNL     1      -7.517   0.940  16.748  1.00  0.00    -0.073 Cl
HETATM   24 CL2  UNL     1      -5.619   1.866  18.682  1.00  0.00    -0.073 Cl
HETATM   25 CL3  UNL     1      -6.865   3.780  16.948  1.00  0.00    -0.073 Cl
ENDBRANCH  19  22
ENDBRANCH   5  18
TORSDOF 5
ENDMDL
MODEL 2
REMARK VINA RESULT: -6.852525327      2.347      2.773
REMARK  5 active torsions:
REMARK  status: ('A' for Active; 'I' for Inactive)
REMARK    1  A    between atoms: C2_2  and  C12_23 
REMARK    2  A    between atoms: N1_3  and  N2_5 
REMARK       I    between atoms: N2_5  and  C3_7 
REMARK    3  A    between atoms: C3_7  and  C4_9 
REMARK    4  A    between atoms: C8_13  and  N3_14 
REMARK       I    between atoms: N3_14  and  C9_16 
REMARK    5  A    between atoms: C9_16  and  C10_18 
ROOT
HETATM    1  C4  UNL     1      -2.498   2.924  12.282  1.00  0.00     0.035 A 
HETATM    2  C5  UNL     1      -2.560   1.773  11.538  1.00  0.00     0.017 A 
HETATM    3  C6  UNL     1      -3.509   0.799  11.844  1.00  0.00     0.003 A 
HETATM    4  C7  UNL     1      -4.364   1.024  12.893  1.00  0.00     0.029 A 
HETATM    5  C8  UNL     1      -4.333   2.182  13.674  1.00  0.00     0.035 A 
HETATM    6  C11 UNL     1      -3.400   3.104  13.348  1.00  0.00     0.046 A 
ENDROOT
BRANCH   1   7
HETATM    7  C3  UNL     1      -1.512   3.959  11.977  1.00  0.00     0.270 C 
HETATM    8  N2  UNL     1      -0.138   3.803  12.203  1.00  0.00    -0.266 N 
ATOM      9  H2  UNL     1       0.218   2.933  12.599  1.00  0.00     0.190 HD
HETATM   10  O1  UNL     1      -1.927   5.060  11.480  1.00  0.00    -0.266 OA
BRANCH   8  11
HETATM   11  N1  UNL     1       0.741   4.833  11.889  1.00  0.00    -0.305 N 
HETATM   12  C2  UNL     1       1.487   4.820  10.848  1.00  0.00     0.018 C 
HETATM   13  C1  UNL     1       2.393   5.956  10.590  1.00  0.00     0.066 C 
ATOM     14  H1  UNL     1       0.794   5.636  12.515  1.00  0.00     0.186 HD
BRANCH  12  15
HETATM   15  C12 UNL     1       1.432   3.674   9.925  1.00  0.00     0.124 C 
HETATM   16  C13 UNL     1       2.728   3.621   9.145  1.00  0.00     0.033 C 
HETATM   17 CL4  UNL     1       0.102   3.809   8.754  1.00  0.00    -0.119 Cl
ENDBRANCH  12  15
ENDBRANCH   8  11
ENDBRANCH   1   7
BRANCH   5  18
HETATM   18  N3  UNL     1      -5.252   2.309  14.725  1.00  0.00    -0.323 N 
HETATM   19  C9  UNL     1      -5.127   1.929  16.059  1.00  0.00     0.277 C 
HETATM   20  O2  UNL     1      -4.108   1.391  16.510  1.00  0.00    -0.268 OA
ATOM     21  H3  UNL     1      -6.141   2.743  14.476  1.00  0.00     0.169 HD
BRANCH  19  22
HETATM   22  C10 UNL     1      -6.234   2.146  17.060  1.00  0.00     0.269 C 
HETATM   23 CL1  UNL     1      -7.539   0.953  16.805  1.00  0.00    -0.073 Cl
HETATM   24 CL2  UNL     1      -5.633   1.915  18.712  1.00  0.00    -0.073 Cl
HETATM   25 CL3  UNL     1      -6.879   3.795  16.940  1.00  0.00    -0.073 Cl
ENDBRANCH  19  22
ENDBRANCH   5  18
TORSDOF 5
ENDMDL
MODEL 3
REMARK VINA RESULT: -6.850193827      2.336      2.958
REMARK  5 active torsions:
REMARK  status: ('A' for Active; 'I' for Inactive)
REMARK    1  A    between atoms: C2_2  and  C12_23 
REMARK    2  A    between atoms: N1_3  and  N2_5 
REMARK       I    between atoms: N2_5  and  C3_7 
REMARK    3  A    between atoms: C3_7  and  C4_9 
REMARK    4  A    between atoms: C8_13  and  N3_14 
REMARK       I    between atoms: N3_14  and  C9_16 
REMARK    5  A    between atoms: C9_16  and  C10_18 
ROOT
HETATM    1  C4  UNL     1      -2.508   2.929  12.293  1.00  0.00     0.035 A 
HETATM    2  C5  UNL     1      -2.574   1.781  11.544  1.00  0.00     0.017 A 
HETATM    3  C6  UNL     1      -3.520   0.805  11.850  1.00  0.00     0.003 A 
HETATM    4  C7  UNL     1      -4.369   1.024  12.907  1.00  0.00     0.029 A 
HETATM    5  C8  UNL     1      -4.334   2.178  13.693  1.00  0.00     0.035 A 
HETATM    6  C11 UNL     1      -3.403   3.102  13.366  1.00  0.00     0.046 A 
ENDROOT
BRANCH   1   7
HETATM    7  C3  UNL     1      -1.525   3.966  11.987  1.00  0.00     0.270 C 
HETATM    8  N2  UNL     1      -0.151   3.816  12.221  1.00  0.00    -0.266 N 
ATOM      9  H2  UNL     1       0.206   2.949  12.623  1.00  0.00     0.190 HD
HETATM   10  O1  UNL     1      -1.942   5.062  11.483  1.00  0.00    -0.266 OA
BRANCH   8  11
HETATM   11  N1  UNL     1       0.726   4.847  11.905  1.00  0.00    -0.305 N 
HETATM   12  C2  UNL     1       1.468   4.837  10.862  1.00  0.00     0.018 C 
HETATM   13  C1  UNL     1       2.372   5.974  10.602  1.00  0.00     0.066 C 
ATOM     14  H1  UNL     1       0.780   5.650  12.533  1.00  0.00     0.186 HD
BRANCH  12  15
HETATM   15  C12 UNL     1       1.412   3.691   9.938  1.00  0.00     0.124 C 
HETATM   16  C13 UNL     1       2.712   3.632   9.165  1.00  0.00     0.033 C 
HETATM   17 CL4  UNL     1       0.090   3.836   8.759  1.00  0.00    -0.119 Cl
ENDBRANCH  12  15
ENDBRANCH   8  11
ENDBRANCH   1   7
BRANCH   5  18
HETATM   18  N3  UNL     1      -5.246   2.299  14.750  1.00  0.00    -0.323 N 
HETATM   19  C9  UNL     1      -5.117   1.899  16.079  1.00  0.00     0.277 C 
HETATM   20  O2  UNL     1      -4.101   1.346  16.517  1.00  0.00    -0.268 OA
ATOM     21  H3  UNL     1      -6.132   2.745  14.513  1.00  0.00     0.169 HD
BRANCH  19  22
HETATM   22  C10 UNL     1      -6.217   2.112  17.089  1.00  0.00     0.269 C 
HETATM   23 CL1  UNL     1      -6.899   3.755  16.921  1.00  0.00    -0.073 Cl
HETATM   24 CL2  UNL     1      -7.542   0.966  16.818  1.00  0.00    -0.073 Cl
HETATM   25 CL3  UNL     1      -5.612   1.866  18.740  1.00  0.00    -0.073 Cl
ENDBRANCH  19  22
ENDBRANCH   5  18
TORSDOF 5
ENDMDL
MODEL 4
REMARK VINA RESULT: -6.845305791      0.026      1.065
REMARK  5 active torsions:
REMARK  status: ('A' for Active; 'I' for Inactive)
REMARK    1  A    between atoms: C2_2  and  C12_23 
REMARK    2  A    between atoms: N1_3  and  N2_5 
REMARK       I    between atoms: N2_5  and  C3_7 
REMARK    3  A    between atoms: C3_7  and  C4_9 
REMARK    4  A    between atoms: C8_13  and  N3_14 
REMARK       I    between atoms: N3_14  and  C9_16 
REMARK    5  A    between atoms: C9_16  and  C10_18 
ROOT
HETATM    1  C4  UNL     1      -2.517   2.996  12.230  1.00  0.00     0.035 A 
HETATM    2  C5  UNL     1      -2.539   1.832  11.505  1.00  0.00     0.017 A 
HETATM    3  C6  UNL     1      -3.446   0.826  11.834  1.00  0.00     0.003 A 
HETATM    4  C7  UNL     1      -4.302   1.033  12.887  1.00  0.00     0.029 A 
HETATM    5  C8  UNL     1      -4.310   2.204  13.650  1.00  0.00     0.035 A 
HETATM    6  C11 UNL     1      -3.416   3.156  13.301  1.00  0.00     0.046 A 
ENDROOT
BRANCH   1   7
HETATM    7  C3  UNL     1      -1.575   4.064  11.902  1.00  0.00     0.270 C 
HETATM    8  N2  UNL     1      -0.683   4.616  12.831  1.00  0.00    -0.266 N 
ATOM      9  H2  UNL     1      -0.670   4.273  13.791  1.00  0.00     0.190 HD
HETATM   10  O1  UNL     1      -1.568   4.515  10.707  1.00  0.00    -0.266 OA
BRANCH   8  11
HETATM   11  N1  UNL     1       0.185   5.632  12.445  1.00  0.00    -0.305 N 
HETATM   12  C2  UNL     1       0.006   6.859  12.761  1.00  0.00     0.018 C 
HETATM   13  C1  UNL     1       0.976   7.875  12.309  1.00  0.00     0.066 C 
ATOM     14  H1  UNL     1       1.001   5.388  11.884  1.00  0.00     0.186 HD
BRANCH  12  15
HETATM   15  C12 UNL     1      -1.164   7.241  13.570  1.00  0.00     0.124 C 
HETATM   16  C13 UNL     1      -2.194   7.873  12.657  1.00  0.00     0.033 C 
HETATM   17 CL4  UNL     1      -0.760   8.428  14.830  1.00  0.00    -0.119 Cl
ENDBRANCH  12  15
ENDBRANCH   8  11
ENDBRANCH   1   7
BRANCH   5  18
HETATM   18  N3  UNL     1      -5.225   2.311  14.706  1.00  0.00    -0.323 N 
HETATM   19  C9  UNL     1      -5.087   1.924  16.037  1.00  0.00     0.277 C 
HETATM   20  O2  UNL     1      -4.057   1.399  16.479  1.00  0.00    -0.268 OA
ATOM     21  H3  UNL     1      -6.121   2.733  14.465  1.00  0.00     0.169 HD
BRANCH  19  22
HETATM   22  C10 UNL     1      -6.191   2.118  17.046  1.00  0.00     0.269 C 
HETATM   23 CL1  UNL     1      -6.876   3.762  16.903  1.00  0.00    -0.073 Cl
HETATM   24 CL2  UNL     1      -7.513   0.975  16.750  1.00  0.00    -0.073 Cl
HETATM   25 CL3  UNL     1      -5.593   1.845  18.695  1.00  0.00    -0.073 Cl
ENDBRANCH  19  22
ENDBRANCH   5  18
TORSDOF 5
ENDMDL
MODEL 5
REMARK VINA RESULT: -6.816152662      0.028      1.071
REMARK  5 active torsions:
REMARK  status: ('A' for Active; 'I' for Inactive)
REMARK    1  A    between atoms: C2_2  and  C12_23 
REMARK    2  A    between atoms: N1_3  and  N2_5 
REMARK       I    between atoms: N2_5  and  C3_7 
REMARK    3  A    between atoms: C3_7  and  C4_9 
REMARK    4  A    between atoms: C8_13  and  N3_14 
REMARK       I    between atoms: N3_14  and  C9_16 
REMARK    5  A    between atoms: C9_16  and  C10_18 
ROOT
HETATM    1  C4  UNL     1      -2.526   3.002  12.246  1.00  0.00     0.035 A 
HETATM    2  C5  UNL     1      -2.533   1.835  11.525  1.00  0.00     0.017 A 
HETATM    3  C6  UNL     1      -3.433   0.822  11.852  1.00  0.00     0.003 A 
HETATM    4  C7  UNL     1      -4.296   1.026  12.899  1.00  0.00     0.029 A 
HETATM    5  C8  UNL     1      -4.321   2.199  13.657  1.00  0.00     0.035 A 
HETATM    6  C11 UNL     1      -3.433   3.158  13.311  1.00  0.00     0.046 A 
ENDROOT
BRANCH   1   7
HETATM    7  C3  UNL     1      -1.592   4.078  11.918  1.00  0.00     0.270 C 
HETATM    8  N2  UNL     1      -0.680   4.612  12.839  1.00  0.00    -0.266 N 
ATOM      9  H2  UNL     1      -0.647   4.250  13.792  1.00  0.00     0.190 HD
HETATM   10  O1  UNL     1      -1.611   4.552  10.733  1.00  0.00    -0.266 OA
BRANCH   8  11
HETATM   11  N1  UNL     1       0.178   5.636  12.456  1.00  0.00    -0.305 N 
HETATM   12  C2  UNL     1      -0.010   6.861  12.776  1.00  0.00     0.018 C 
HETATM   13  C1  UNL     1       0.951   7.886  12.326  1.00  0.00     0.066 C 
ATOM     14  H1  UNL     1       0.996   5.400  11.893  1.00  0.00     0.186 HD
BRANCH  12  15
HETATM   15  C12 UNL     1      -1.182   7.230  13.588  1.00  0.00     0.124 C 
HETATM   16  C13 UNL     1      -2.218   7.857  12.679  1.00  0.00     0.033 C 
HETATM   17 CL4  UNL     1      -0.786   8.416  14.852  1.00  0.00    -0.119 Cl
ENDBRANCH  12  15
ENDBRANCH   8  11
ENDBRANCH   1   7
BRANCH   5  18
HETATM   18  N3  UNL     1      -5.243   2.302  14.708  1.00  0.00    -0.323 N 
HETATM   19  C9  UNL     1      -5.110   1.920  16.041  1.00  0.00     0.277 C 
HETATM   20  O2  UNL     1      -4.079   1.403  16.490  1.00  0.00    -0.268 OA
ATOM     21  H3  UNL     1      -6.141   2.717  14.460  1.00  0.00     0.169 HD
BRANCH  19  22
HETATM   22  C10 UNL     1      -6.222   2.108  17.042  1.00  0.00     0.269 C 
HETATM   23 CL1  UNL     1      -5.594   1.920  18.704  1.00  0.00    -0.073 Cl
HETATM   24 CL2  UNL     1      -6.898   3.742  16.922  1.00  0.00    -0.073 Cl
HETATM   25 CL3  UNL     1      -7.536   0.951  16.750  1.00  0.00    -0.073 Cl
ENDBRANCH  19  22
ENDBRANCH   5  18
TORSDOF 5
ENDMDL
