MODEL 1
REMARK VINA RESULT: -7.728958440      0.000      0.000
REMARK  4 active torsions:
REMARK  status: ('A' for Active; 'I' for Inactive)
REMARK    1  A    between atoms: C1_2  and  C2_3 
REMARK       I    between atoms: C1_2  and  N1_5 
REMARK    2  A    between atoms: C6_13  and  N3_14 
REMARK    3  A    between atoms: N3_14  and  C7_16 
REMARK    4  A    between atoms: C7_16  and  C8_17 
ROOT
HETATM    1  O1  UNL     1      -5.310  -0.314  16.421  1.00  0.00    -0.271 OA
HETATM    2  C1  UNL     1      -5.529   0.929  16.234  1.00  0.00     0.249 C 
HETATM    3  N1  UNL     1      -4.784   1.760  15.436  1.00  0.00    -0.159 N 
ATOM      4  H1  UNL     1      -4.658   2.682  15.852  1.00  0.00     0.187 HD
HETATM    5  C3  UNL     1      -4.224   1.666  14.329  1.00  0.00     0.687 A 
HETATM    6  N2  UNL     1      -4.295   0.480  13.611  1.00  0.00    -0.181 N 
ATOM      7  H2  UNL     1      -4.711  -0.352  14.032  1.00  0.00     0.185 HD
HETATM    8  C4  UNL     1      -3.811   0.435  12.353  1.00  0.00     0.122 A 
HETATM    9 CL2  UNL     1      -3.941  -1.088  11.444  1.00  0.00    -0.064 Cl
HETATM   10  C5  UNL     1      -3.227   1.479  11.721  1.00  0.00     0.091 A 
HETATM   11  C6  UNL     1      -3.169   2.674  12.503  1.00  0.00     0.123 A 
HETATM   12  N5  UNL     1      -3.643   2.690  13.708  1.00  0.00    -0.176 N 
ATOM     13  H5  UNL     1      -3.565   3.564  14.227  1.00  0.00     0.186 HD
ENDROOT
BRANCH  11  14
HETATM   14  N3  UNL     1      -2.605   3.687  11.861  1.00  0.00    -0.350 N 
ATOM     15  H3  UNL     1      -1.659   3.587  11.494  1.00  0.00     0.166 HD
BRANCH  14  16
HETATM   16  C7  UNL     1      -3.279   4.873  11.684  1.00  0.00     0.121 C 
BRANCH  16  17
HETATM   17  C8  UNL     1      -2.777   5.996  12.526  1.00  0.00     0.069 A 
HETATM   18  N4  UNL     1      -1.583   6.626  12.290  1.00  0.00    -0.362 N 
HETATM   19  C9  UNL     1      -1.000   7.421  13.220  1.00  0.00     0.112 A 
ATOM     20  H4  UNL     1      -1.121   6.492  11.390  1.00  0.00     0.165 HD
HETATM   21  C10 UNL     1      -1.603   7.653  14.476  1.00  0.00     0.051 A 
HETATM   22 CL3  UNL     1      -0.832   8.731  15.591  1.00  0.00    -0.083 Cl
HETATM   23  C11 UNL     1      -2.796   7.039  14.697  1.00  0.00     0.051 A 
HETATM   24  C12 UNL     1      -3.358   6.228  13.748  1.00  0.00     0.063 A 
HETATM   25 CL4  UNL     1      -4.947   5.552  14.097  1.00  0.00    -0.082 Cl
ENDBRANCH  16  17
ENDBRANCH  14  16
ENDBRANCH  11  14
BRANCH   2  26
HETATM   26  C2  UNL     1      -6.730   1.422  17.008  1.00  0.00     0.218 C 
HETATM   27 CL1  UNL     1      -6.169   2.074  18.580  1.00  0.00    -0.121 Cl
ENDBRANCH   2  26
TORSDOF 4
ENDMDL
MODEL 2
REMARK VINA RESULT: -7.594534401      2.585      2.970
REMARK  4 active torsions:
REMARK  status: ('A' for Active; 'I' for Inactive)
REMARK    1  A    between atoms: C1_2  and  C2_3 
REMARK       I    between atoms: C1_2  and  N1_5 
REMARK    2  A    between atoms: C6_13  and  N3_14 
REMARK    3  A    between atoms: N3_14  and  C7_16 
REMARK    4  A    between atoms: C7_16  and  C8_17 
ROOT
HETATM    1  O1  UNL     1      -4.150   0.557  16.710  1.00  0.00    -0.271 OA
HETATM    2  C1  UNL     1      -4.792   1.610  16.383  1.00  0.00     0.249 C 
HETATM    3  N1  UNL     1      -4.566   2.366  15.261  1.00  0.00    -0.159 N 
ATOM      4  H1  UNL     1      -4.644   3.365  15.450  1.00  0.00     0.187 HD
HETATM    5  C3  UNL     1      -4.289   2.135  14.071  1.00  0.00     0.687 A 
HETATM    6  N2  UNL     1      -4.149   0.826  13.631  1.00  0.00    -0.181 N 
ATOM      7  H2  UNL     1      -4.164   0.054  14.298  1.00  0.00     0.185 HD
HETATM    8  C4  UNL     1      -3.994   0.581  12.313  1.00  0.00     0.122 A 
HETATM    9 CL2  UNL     1      -3.848  -1.107  11.771  1.00  0.00    -0.064 Cl
HETATM   10  C5  UNL     1      -3.944   1.539  11.359  1.00  0.00     0.091 A 
HETATM   11  C6  UNL     1      -4.083   2.870  11.862  1.00  0.00     0.123 A 
HETATM   12  N5  UNL     1      -4.233   3.076  13.131  1.00  0.00    -0.176 N 
ATOM     13  H5  UNL     1      -4.314   4.045  13.438  1.00  0.00     0.186 HD
ENDROOT
BRANCH  11  14
HETATM   14  N3  UNL     1      -4.043   3.791  10.909  1.00  0.00    -0.350 N 
ATOM     15  H3  UNL     1      -4.830   4.430  10.794  1.00  0.00     0.166 HD
BRANCH  14  16
HETATM   16  C7  UNL     1      -2.955   3.897  10.076  1.00  0.00     0.121 C 
BRANCH  16  17
HETATM   17  C8  UNL     1      -1.697   4.315  10.759  1.00  0.00     0.069 A 
HETATM   18  N4  UNL     1      -1.490   5.587  11.222  1.00  0.00    -0.362 N 
HETATM   19  C9  UNL     1      -0.255   6.033  11.557  1.00  0.00     0.112 A 
ATOM     20  H4  UNL     1      -2.288   6.217  11.316  1.00  0.00     0.165 HD
HETATM   21  C10 UNL     1       0.882   5.199  11.460  1.00  0.00     0.051 A 
HETATM   22 CL3  UNL     1       2.419   5.815  11.966  1.00  0.00    -0.083 Cl
HETATM   23  C11 UNL     1       0.667   3.932  11.016  1.00  0.00     0.051 A 
HETATM   24  C12 UNL     1      -0.588   3.510  10.669  1.00  0.00     0.063 A 
HETATM   25 CL4  UNL     1      -0.775   1.824  10.192  1.00  0.00    -0.082 Cl
ENDBRANCH  16  17
ENDBRANCH  14  16
ENDBRANCH  11  14
BRANCH   2  26
HETATM   26  C2  UNL     1      -5.863   1.963  17.389  1.00  0.00     0.218 C 
HETATM   27 CL1  UNL     1      -7.297   0.932  17.085  1.00  0.00    -0.121 Cl
ENDBRANCH   2  26
TORSDOF 4
ENDMDL
MODEL 3
REMARK VINA RESULT: -7.559098340      2.762      3.356
REMARK  4 active torsions:
REMARK  status: ('A' for Active; 'I' for Inactive)
REMARK    1  A    between atoms: C1_2  and  C2_3 
REMARK       I    between atoms: C1_2  and  N1_5 
REMARK    2  A    between atoms: C6_13  and  N3_14 
REMARK    3  A    between atoms: N3_14  and  C7_16 
REMARK    4  A    between atoms: C7_16  and  C8_17 
ROOT
HETATM    1  O1  UNL     1      -4.107   0.545  16.668  1.00  0.00    -0.271 OA
HETATM    2  C1  UNL     1      -4.747   1.594  16.325  1.00  0.00     0.249 C 
HETATM    3  N1  UNL     1      -4.523   2.330  15.189  1.00  0.00    -0.159 N 
ATOM      4  H1  UNL     1      -4.597   3.332  15.360  1.00  0.00     0.187 HD
HETATM    5  C3  UNL     1      -4.252   2.077  14.002  1.00  0.00     0.687 A 
HETATM    6  N2  UNL     1      -4.118   0.759  13.584  1.00  0.00    -0.181 N 
ATOM      7  H2  UNL     1      -4.133  -0.000  14.265  1.00  0.00     0.185 HD
HETATM    8  C4  UNL     1      -3.969   0.491  12.271  1.00  0.00     0.122 A 
HETATM    9 CL2  UNL     1      -3.830  -1.207  11.759  1.00  0.00    -0.064 Cl
HETATM   10  C5  UNL     1      -3.920   1.431  11.300  1.00  0.00     0.091 A 
HETATM   11  C6  UNL     1      -4.052   2.771  11.779  1.00  0.00     0.123 A 
HETATM   12  N5  UNL     1      -4.196   3.000  13.045  1.00  0.00    -0.176 N 
ATOM     13  H5  UNL     1      -4.273   3.975  13.335  1.00  0.00     0.186 HD
ENDROOT
BRANCH  11  14
HETATM   14  N3  UNL     1      -4.013   3.675  10.810  1.00  0.00    -0.350 N 
ATOM     15  H3  UNL     1      -4.532   3.511   9.948  1.00  0.00     0.166 HD
BRANCH  14  16
HETATM   16  C7  UNL     1      -3.283   4.832  10.954  1.00  0.00     0.121 C 
BRANCH  16  17
HETATM   17  C8  UNL     1      -1.867   4.723  10.502  1.00  0.00     0.069 A 
HETATM   18  N4  UNL     1      -1.518   4.504   9.195  1.00  0.00    -0.362 N 
HETATM   19  C9  UNL     1      -0.270   4.107   8.846  1.00  0.00     0.112 A 
ATOM     20  H4  UNL     1      -2.217   4.643   8.465  1.00  0.00     0.165 HD
HETATM   21  C10 UNL     1       0.741   3.915   9.815  1.00  0.00     0.051 A 
HETATM   22 CL3  UNL     1       2.330   3.469   9.290  1.00  0.00    -0.083 Cl
HETATM   23  C11 UNL     1       0.393   4.150  11.107  1.00  0.00     0.051 A 
HETATM   24  C12 UNL     1      -0.879   4.536  11.437  1.00  0.00     0.063 A 
HETATM   25 CL4  UNL     1      -1.203   4.903  13.129  1.00  0.00    -0.082 Cl
ENDBRANCH  16  17
ENDBRANCH  14  16
ENDBRANCH  11  14
BRANCH   2  26
HETATM   26  C2  UNL     1      -5.813   1.968  17.329  1.00  0.00     0.218 C 
HETATM   27 CL1  UNL     1      -7.245   0.925  17.060  1.00  0.00    -0.121 Cl
ENDBRANCH   2  26
TORSDOF 4
ENDMDL
MODEL 4
REMARK VINA RESULT: -7.519014832      1.448      1.545
REMARK  4 active torsions:
REMARK  status: ('A' for Active; 'I' for Inactive)
REMARK    1  A    between atoms: C1_2  and  C2_3 
REMARK       I    between atoms: C1_2  and  N1_5 
REMARK    2  A    between atoms: C6_13  and  N3_14 
REMARK    3  A    between atoms: N3_14  and  C7_16 
REMARK    4  A    between atoms: C7_16  and  C8_17 
ROOT
HETATM    1  O1  UNL     1      -4.075   0.557  16.657  1.00  0.00    -0.271 OA
HETATM    2  C1  UNL     1      -4.742   1.592  16.324  1.00  0.00     0.249 C 
HETATM    3  N1  UNL     1      -4.547   2.336  15.188  1.00  0.00    -0.159 N 
ATOM      4  H1  UNL     1      -4.642   3.336  15.362  1.00  0.00     0.187 HD
HETATM    5  C3  UNL     1      -4.283   2.092  13.998  1.00  0.00     0.687 A 
HETATM    6  N2  UNL     1      -4.124   0.778  13.575  1.00  0.00    -0.181 N 
ATOM      7  H2  UNL     1      -4.114   0.017  14.254  1.00  0.00     0.185 HD
HETATM    8  C4  UNL     1      -3.983   0.517  12.259  1.00  0.00     0.122 A 
HETATM    9 CL2  UNL     1      -3.811  -1.176  11.741  1.00  0.00    -0.064 Cl
HETATM   10  C5  UNL     1      -3.966   1.460  11.290  1.00  0.00     0.091 A 
HETATM   11  C6  UNL     1      -4.124   2.796  11.775  1.00  0.00     0.123 A 
HETATM   12  N5  UNL     1      -4.259   3.018  13.043  1.00  0.00    -0.176 N 
ATOM     13  H5  UNL     1      -4.355   3.990  13.336  1.00  0.00     0.186 HD
ENDROOT
BRANCH  11  14
HETATM   14  N3  UNL     1      -4.116   3.703  10.808  1.00  0.00    -0.350 N 
ATOM     15  H3  UNL     1      -4.987   3.943  10.335  1.00  0.00     0.166 HD
BRANCH  14  16
HETATM   16  C7  UNL     1      -2.947   4.325  10.434  1.00  0.00     0.121 C 
BRANCH  16  17
HETATM   17  C8  UNL     1      -2.436   5.315  11.424  1.00  0.00     0.069 A 
HETATM   18  N4  UNL     1      -1.448   5.022  12.327  1.00  0.00    -0.362 N 
HETATM   19  C9  UNL     1      -1.207   5.810  13.403  1.00  0.00     0.112 A 
ATOM     20  H4  UNL     1      -0.878   4.187  12.185  1.00  0.00     0.165 HD
HETATM   21  C10 UNL     1      -1.956   6.985  13.639  1.00  0.00     0.051 A 
HETATM   22 CL3  UNL     1      -1.552   7.977  15.000  1.00  0.00    -0.083 Cl
HETATM   23  C11 UNL     1      -2.923   7.279  12.731  1.00  0.00     0.051 A 
HETATM   24  C12 UNL     1      -3.158   6.459  11.659  1.00  0.00     0.063 A 
HETATM   25 CL4  UNL     1      -4.371   6.977  10.492  1.00  0.00    -0.082 Cl
ENDBRANCH  16  17
ENDBRANCH  14  16
ENDBRANCH  11  14
BRANCH   2  26
HETATM   26  C2  UNL     1      -5.805   1.939  17.340  1.00  0.00     0.218 C 
HETATM   27 CL1  UNL     1      -7.241   0.909  17.043  1.00  0.00    -0.121 Cl
ENDBRANCH   2  26
TORSDOF 4
ENDMDL
MODEL 5
REMARK VINA RESULT: -7.497814631      3.147      4.081
REMARK  4 active torsions:
REMARK  status: ('A' for Active; 'I' for Inactive)
REMARK    1  A    between atoms: C1_2  and  C2_3 
REMARK       I    between atoms: C1_2  and  N1_5 
REMARK    2  A    between atoms: C6_13  and  N3_14 
REMARK    3  A    between atoms: N3_14  and  C7_16 
REMARK    4  A    between atoms: C7_16  and  C8_17 
ROOT
HETATM    1  O1  UNL     1      -3.805   0.486  16.423  1.00  0.00    -0.271 OA
HETATM    2  C1  UNL     1      -4.456   1.532  16.092  1.00  0.00     0.249 C 
HETATM    3  N1  UNL     1      -4.280   2.250  14.937  1.00  0.00    -0.159 N 
ATOM      4  H1  UNL     1      -4.342   3.255  15.095  1.00  0.00     0.187 HD
HETATM    5  C3  UNL     1      -4.062   1.978  13.743  1.00  0.00     0.687 A 
HETATM    6  N2  UNL     1      -3.951   0.654  13.339  1.00  0.00    -0.181 N 
ATOM      7  H2  UNL     1      -3.939  -0.095  14.032  1.00  0.00     0.185 HD
HETATM    8  C4  UNL     1      -3.861   0.365  12.025  1.00  0.00     0.122 A 
HETATM    9 CL2  UNL     1      -3.751  -1.340  11.533  1.00  0.00    -0.064 Cl
HETATM   10  C5  UNL     1      -3.851   1.291  11.038  1.00  0.00     0.091 A 
HETATM   11  C6  UNL     1      -3.957   2.638  11.503  1.00  0.00     0.123 A 
HETATM   12  N5  UNL     1      -4.045   2.887  12.771  1.00  0.00    -0.176 N 
ATOM     13  H5  UNL     1      -4.106   3.866  13.049  1.00  0.00     0.186 HD
ENDROOT
BRANCH  11  14
HETATM   14  N3  UNL     1      -3.958   3.528  10.520  1.00  0.00    -0.350 N 
ATOM     15  H3  UNL     1      -4.571   3.391   9.717  1.00  0.00     0.166 HD
BRANCH  14  16
HETATM   16  C7  UNL     1      -3.142   4.634  10.570  1.00  0.00     0.121 C 
BRANCH  16  17
HETATM   17  C8  UNL     1      -1.954   4.560   9.672  1.00  0.00     0.069 A 
HETATM   18  N4  UNL     1      -2.016   4.841   8.332  1.00  0.00    -0.362 N 
HETATM   19  C9  UNL     1      -1.024   4.483   7.481  1.00  0.00     0.112 A 
ATOM     20  H4  UNL     1      -2.831   5.334   7.966  1.00  0.00     0.165 HD
HETATM   21  C10 UNL     1       0.134   3.812   7.937  1.00  0.00     0.051 A 
HETATM   22 CL3  UNL     1       1.389   3.441   6.803  1.00  0.00    -0.083 Cl
HETATM   23  C11 UNL     1       0.197   3.552   9.270  1.00  0.00     0.051 A 
HETATM   24  C12 UNL     1      -0.825   3.911  10.107  1.00  0.00     0.063 A 
HETATM   25 CL4  UNL     1      -0.607   3.609  11.830  1.00  0.00    -0.082 Cl
ENDBRANCH  16  17
ENDBRANCH  14  16
ENDBRANCH  11  14
BRANCH   2  26
HETATM   26  C2  UNL     1      -5.476   1.926  17.136  1.00  0.00     0.218 C 
HETATM   27 CL1  UNL     1      -6.814   0.735  17.107  1.00  0.00    -0.121 Cl
ENDBRANCH   2  26
TORSDOF 4
ENDMDL
