MODEL 1
REMARK VINA RESULT: -8.227704742      0.000      0.000
REMARK  4 active torsions:
REMARK  status: ('A' for Active; 'I' for Inactive)
REMARK    1  A    between atoms: C6_9  and  N1_10 
REMARK    2  A    between atoms: C6_9  and  C9_17 
REMARK       I    between atoms: N1_10  and  C7_12 
REMARK    3  A    between atoms: C7_12  and  C8_14 
REMARK    4  A    between atoms: C13_21  and  O3_22 
ROOT
HETATM    1  C1  UNL     1      -3.468   6.592  11.070  1.00  0.00     0.043 C 
HETATM    2  C2  UNL     1      -3.806   5.231  11.649  1.00  0.00     0.159 A 
HETATM    3  O1  UNL     1      -4.932   5.427  12.601  1.00  0.00    -0.363 OA
HETATM    4  C3  UNL     1      -3.720   4.958  12.989  1.00  0.00     0.151 A 
HETATM    5  C4  UNL     1      -2.821   5.665  13.936  1.00  0.00     0.152 C 
HETATM    6 CL1  UNL     1      -3.772   6.506  15.186  1.00  0.00    -0.098 Cl
HETATM    7 CL2  UNL     1      -1.502   6.625  13.275  1.00  0.00    -0.098 Cl
HETATM    8  C5  UNL     1      -2.315   4.296  14.370  1.00  0.00     0.085 C 
HETATM    9  C6  UNL     1      -3.479   3.642  13.672  1.00  0.00     0.100 C 
ENDROOT
BRANCH   9  10
HETATM   10  N1  UNL     1      -3.208   2.545  12.802  1.00  0.00    -0.342 N 
HETATM   11  C7  UNL     1      -4.108   1.812  12.006  1.00  0.00     0.251 C 
HETATM   12  O2  UNL     1      -5.346   2.124  12.013  1.00  0.00    -0.271 OA
ATOM     13  H1  UNL     1      -2.232   2.253  12.750  1.00  0.00     0.163 HD
BRANCH  11  14
HETATM   14  C8  UNL     1      -3.742   0.676  11.130  1.00  0.00     0.269 C 
HETATM   15 CL3  UNL     1      -4.090  -0.894  11.936  1.00  0.00    -0.098 Cl
HETATM   16 CL4  UNL     1      -1.963   0.709  10.878  1.00  0.00    -0.098 Cl
ENDBRANCH  11  14
ENDBRANCH   9  10
BRANCH   9  17
HETATM   17  C9  UNL     1      -4.471   3.223  14.707  1.00  0.00    -0.024 A 
HETATM   18  C10 UNL     1      -5.652   3.879  14.938  1.00  0.00     0.010 A 
HETATM   19  C11 UNL     1      -6.537   3.469  15.908  1.00  0.00     0.003 A 
HETATM   20  C12 UNL     1      -6.207   2.362  16.655  1.00  0.00     0.036 A 
HETATM   21  C13 UNL     1      -5.034   1.672  16.457  1.00  0.00     0.066 A 
HETATM   22  C14 UNL     1      -4.147   2.110  15.463  1.00  0.00     0.046 A 
BRANCH  21  23
HETATM   23  O3  UNL     1      -4.765   0.563  17.249  1.00  0.00    -0.361 OA
ATOM     24  H3  UNL     1      -4.982  -0.301  16.919  1.00  0.00     0.217 HD
ENDBRANCH  21  23
ENDBRANCH   9  17
TORSDOF 4
ENDMDL
MODEL 2
REMARK VINA RESULT: -7.551297451      1.059      1.059
REMARK  4 active torsions:
REMARK  status: ('A' for Active; 'I' for Inactive)
REMARK    1  A    between atoms: C6_9  and  N1_10 
REMARK    2  A    between atoms: C6_9  and  C9_17 
REMARK       I    between atoms: N1_10  and  C7_12 
REMARK    3  A    between atoms: C7_12  and  C8_14 
REMARK    4  A    between atoms: C13_21  and  O3_22 
ROOT
HETATM    1  C1  UNL     1      -4.404   6.908  11.480  1.00  0.00     0.043 C 
HETATM    2  C2  UNL     1      -4.695   5.515  12.005  1.00  0.00     0.159 A 
HETATM    3  O1  UNL     1      -5.641   5.663  13.143  1.00  0.00    -0.363 OA
HETATM    4  C3  UNL     1      -4.400   5.133  13.287  1.00  0.00     0.151 A 
HETATM    5  C4  UNL     1      -3.331   5.739  14.121  1.00  0.00     0.152 C 
HETATM    6 CL1  UNL     1      -4.030   6.501  15.572  1.00  0.00    -0.098 Cl
HETATM    7 CL2  UNL     1      -2.102   6.714  13.322  1.00  0.00    -0.098 Cl
HETATM    8  C5  UNL     1      -2.815   4.326  14.362  1.00  0.00     0.085 C 
HETATM    9  C6  UNL     1      -4.102   3.761  13.821  1.00  0.00     0.100 C 
ENDROOT
BRANCH   9  10
HETATM   10  N1  UNL     1      -4.022   2.730  12.839  1.00  0.00    -0.342 N 
HETATM   11  C7  UNL     1      -2.916   2.345  12.057  1.00  0.00     0.251 C 
HETATM   12  O2  UNL     1      -1.805   2.956  12.202  1.00  0.00    -0.271 OA
ATOM     13  H1  UNL     1      -4.880   2.202  12.682  1.00  0.00     0.163 HD
BRANCH  11  14
HETATM   14  C8  UNL     1      -2.920   1.261  11.049  1.00  0.00     0.269 C 
HETATM   15 CL3  UNL     1      -3.708  -0.219  11.700  1.00  0.00    -0.098 Cl
HETATM   16 CL4  UNL     1      -1.217   0.797  10.715  1.00  0.00    -0.098 Cl
ENDBRANCH  11  14
ENDBRANCH   9  10
BRANCH   9  17
HETATM   17  C9  UNL     1      -4.926   3.287  14.973  1.00  0.00    -0.024 A 
HETATM   18  C10 UNL     1      -6.053   3.929  15.417  1.00  0.00     0.010 A 
HETATM   19  C11 UNL     1      -6.781   3.467  16.489  1.00  0.00     0.003 A 
HETATM   20  C12 UNL     1      -6.348   2.322  17.118  1.00  0.00     0.036 A 
HETATM   21  C13 UNL     1      -5.224   1.645  16.705  1.00  0.00     0.066 A 
HETATM   22  C14 UNL     1      -4.498   2.136  15.611  1.00  0.00     0.046 A 
BRANCH  21  23
HETATM   23  O3  UNL     1      -4.844   0.496  17.387  1.00  0.00    -0.361 OA
ATOM     24  H3  UNL     1      -5.424  -0.256  17.378  1.00  0.00     0.217 HD
ENDBRANCH  21  23
ENDBRANCH   9  17
TORSDOF 4
ENDMDL
MODEL 3
REMARK VINA RESULT: -7.104212504      2.360      4.687
REMARK  4 active torsions:
REMARK  status: ('A' for Active; 'I' for Inactive)
REMARK    1  A    between atoms: C6_9  and  N1_10 
REMARK    2  A    between atoms: C6_9  and  C9_17 
REMARK       I    between atoms: N1_10  and  C7_12 
REMARK    3  A    between atoms: C7_12  and  C8_14 
REMARK    4  A    between atoms: C13_21  and  O3_22 
ROOT
HETATM    1  C1  UNL     1      -1.627   6.528  14.365  1.00  0.00     0.043 C 
HETATM    2  C2  UNL     1      -2.394   5.234  14.173  1.00  0.00     0.159 A 
HETATM    3  O1  UNL     1      -1.490   4.289  13.464  1.00  0.00    -0.363 OA
HETATM    4  C3  UNL     1      -2.665   4.714  12.935  1.00  0.00     0.151 A 
HETATM    5  C4  UNL     1      -2.772   5.516  11.689  1.00  0.00     0.152 C 
HETATM    6 CL1  UNL     1      -1.520   5.023  10.522  1.00  0.00    -0.098 Cl
HETATM    7 CL2  UNL     1      -2.967   7.260  11.836  1.00  0.00    -0.098 Cl
HETATM    8  C5  UNL     1      -4.121   4.848  11.458  1.00  0.00     0.085 C 
HETATM    9  C6  UNL     1      -3.796   3.821  12.510  1.00  0.00     0.100 C 
ENDROOT
BRANCH   9  10
HETATM   10  N1  UNL     1      -4.773   3.558  13.515  1.00  0.00    -0.342 N 
HETATM   11  C7  UNL     1      -4.701   2.661  14.597  1.00  0.00     0.251 C 
HETATM   12  O2  UNL     1      -3.645   1.964  14.762  1.00  0.00    -0.271 OA
ATOM     13  H1  UNL     1      -5.639   4.090  13.439  1.00  0.00     0.163 HD
BRANCH  11  14
HETATM   14  C8  UNL     1      -5.771   2.443  15.598  1.00  0.00     0.269 C 
HETATM   15 CL3  UNL     1      -6.434   4.010  16.181  1.00  0.00    -0.098 Cl
HETATM   16 CL4  UNL     1      -5.041   1.658  17.040  1.00  0.00    -0.098 Cl
ENDBRANCH  11  14
ENDBRANCH   9  10
BRANCH   9  17
HETATM   17  C9  UNL     1      -3.432   2.545  11.824  1.00  0.00    -0.024 A 
HETATM   18  C10 UNL     1      -2.149   2.076  11.721  1.00  0.00     0.010 A 
HETATM   19  C11 UNL     1      -1.852   0.900  11.071  1.00  0.00     0.003 A 
HETATM   20  C12 UNL     1      -2.891   0.189  10.517  1.00  0.00     0.036 A 
HETATM   21  C13 UNL     1      -4.194   0.621  10.597  1.00  0.00     0.066 A 
HETATM   22  C14 UNL     1      -4.472   1.824  11.264  1.00  0.00     0.046 A 
BRANCH  21  23
HETATM   23  O3  UNL     1      -5.194  -0.146  10.014  1.00  0.00    -0.361 OA
ATOM     24  H3  UNL     1      -6.095  -0.007  10.282  1.00  0.00     0.217 HD
ENDBRANCH  21  23
ENDBRANCH   9  17
TORSDOF 4
ENDMDL
MODEL 4
REMARK VINA RESULT: -7.073765740      1.195      1.331
REMARK  4 active torsions:
REMARK  status: ('A' for Active; 'I' for Inactive)
REMARK    1  A    between atoms: C6_9  and  N1_10 
REMARK    2  A    between atoms: C6_9  and  C9_17 
REMARK       I    between atoms: N1_10  and  C7_12 
REMARK    3  A    between atoms: C7_12  and  C8_14 
REMARK    4  A    between atoms: C13_21  and  O3_22 
ROOT
HETATM    1  C1  UNL     1      -1.778   6.587  10.200  1.00  0.00     0.043 C 
HETATM    2  C2  UNL     1      -2.470   5.420  10.878  1.00  0.00     0.159 A 
HETATM    3  O1  UNL     1      -3.657   5.967  11.588  1.00  0.00    -0.363 OA
HETATM    4  C3  UNL     1      -2.637   5.349  12.235  1.00  0.00     0.151 A 
HETATM    5  C4  UNL     1      -1.758   6.019  13.228  1.00  0.00     0.152 C 
HETATM    6 CL1  UNL     1      -2.685   7.205  14.180  1.00  0.00    -0.098 Cl
HETATM    7 CL2  UNL     1      -0.187   6.603  12.689  1.00  0.00    -0.098 Cl
HETATM    8  C5  UNL     1      -1.615   4.664  13.910  1.00  0.00     0.085 C 
HETATM    9  C6  UNL     1      -2.776   4.135  13.110  1.00  0.00     0.100 C 
ENDROOT
BRANCH   9  10
HETATM   10  N1  UNL     1      -2.616   2.885  12.443  1.00  0.00    -0.342 N 
HETATM   11  C7  UNL     1      -3.510   2.230  11.577  1.00  0.00     0.251 C 
HETATM   12  O2  UNL     1      -4.631   2.777  11.304  1.00  0.00    -0.271 OA
ATOM     13  H1  UNL     1      -1.735   2.400  12.618  1.00  0.00     0.163 HD
BRANCH  11  14
HETATM   14  C8  UNL     1      -3.267   0.921  10.928  1.00  0.00     0.269 C 
HETATM   15 CL3  UNL     1      -3.907  -0.424  11.935  1.00  0.00    -0.098 Cl
HETATM   16 CL4  UNL     1      -1.491   0.658  10.840  1.00  0.00    -0.098 Cl
ENDBRANCH  11  14
ENDBRANCH   9  10
BRANCH   9  17
HETATM   17  C9  UNL     1      -3.972   4.074  14.001  1.00  0.00    -0.024 A 
HETATM   18  C10 UNL     1      -4.979   5.004  13.989  1.00  0.00     0.010 A 
HETATM   19  C11 UNL     1      -6.061   4.920  14.833  1.00  0.00     0.003 A 
HETATM   20  C12 UNL     1      -6.115   3.859  15.708  1.00  0.00     0.036 A 
HETATM   21  C13 UNL     1      -5.129   2.902  15.754  1.00  0.00     0.066 A 
HETATM   22  C14 UNL     1      -4.034   3.010  14.884  1.00  0.00     0.046 A 
BRANCH  21  23
HETATM   23  O3  UNL     1      -5.248   1.858  16.663  1.00  0.00    -0.361 OA
ATOM     24  H3  UNL     1      -4.459   1.444  16.993  1.00  0.00     0.217 HD
ENDBRANCH  21  23
ENDBRANCH   9  17
TORSDOF 4
ENDMDL
MODEL 5
REMARK VINA RESULT: -6.945371190      2.114      4.469
REMARK  4 active torsions:
REMARK  status: ('A' for Active; 'I' for Inactive)
REMARK    1  A    between atoms: C6_9  and  N1_10 
REMARK    2  A    between atoms: C6_9  and  C9_17 
REMARK       I    between atoms: N1_10  and  C7_12 
REMARK    3  A    between atoms: C7_12  and  C8_14 
REMARK    4  A    between atoms: C13_21  and  O3_22 
ROOT
HETATM    1  C1  UNL     1      -1.056   2.351  10.131  1.00  0.00     0.043 C 
HETATM    2  C2  UNL     1      -1.392   2.852  11.523  1.00  0.00     0.159 A 
HETATM    3  O1  UNL     1      -2.258   1.826  12.161  1.00  0.00    -0.363 OA
HETATM    4  C3  UNL     1      -2.677   3.095  11.929  1.00  0.00     0.151 A 
HETATM    5  C4  UNL     1      -3.796   3.445  11.018  1.00  0.00     0.152 C 
HETATM    6 CL1  UNL     1      -5.069   2.201  11.089  1.00  0.00    -0.098 Cl
HETATM    7 CL2  UNL     1      -3.407   3.978   9.386  1.00  0.00    -0.098 Cl
HETATM    8  C5  UNL     1      -4.062   4.644  11.920  1.00  0.00     0.085 C 
HETATM    9  C6  UNL     1      -3.173   4.048  12.979  1.00  0.00     0.100 C 
ENDROOT
BRANCH   9  10
HETATM   10  N1  UNL     1      -2.175   4.882  13.564  1.00  0.00    -0.342 N 
HETATM   11  C7  UNL     1      -2.248   6.252  13.879  1.00  0.00     0.251 C 
HETATM   12  O2  UNL     1      -3.327   6.891  13.641  1.00  0.00    -0.271 OA
ATOM     13  H1  UNL     1      -1.290   4.425  13.782  1.00  0.00     0.163 HD
BRANCH  11  14
HETATM   14  C8  UNL     1      -1.155   7.048  14.483  1.00  0.00     0.269 C 
HETATM   15 CL3  UNL     1      -1.812   8.457  15.387  1.00  0.00    -0.098 Cl
HETATM   16 CL4  UNL     1      -0.166   7.744  13.154  1.00  0.00    -0.098 Cl
ENDBRANCH  11  14
ENDBRANCH   9  10
BRANCH   9  17
HETATM   17  C9  UNL     1      -4.041   3.482  14.055  1.00  0.00    -0.024 A 
HETATM   18  C10 UNL     1      -5.287   3.963  14.359  1.00  0.00     0.010 A 
HETATM   19  C11 UNL     1      -6.053   3.421  15.365  1.00  0.00     0.003 A 
HETATM   20  C12 UNL     1      -5.532   2.362  16.073  1.00  0.00     0.036 A 
HETATM   21  C13 UNL     1      -4.287   1.847  15.801  1.00  0.00     0.066 A 
HETATM   22  C14 UNL     1      -3.524   2.417  14.771  1.00  0.00     0.046 A 
BRANCH  21  23
HETATM   23  O3  UNL     1      -3.823   0.777  16.557  1.00  0.00    -0.361 OA
ATOM     24  H3  UNL     1      -3.572  -0.024  16.112  1.00  0.00     0.217 HD
ENDBRANCH  21  23
ENDBRANCH   9  17
TORSDOF 4
ENDMDL
