MODEL 1
REMARK VINA RESULT: -6.929044662      0.000      0.000
REMARK  4 active torsions:
REMARK  status: ('A' for Active; 'I' for Inactive)
REMARK    1  A    between atoms: C2_2  and  O1_4 
REMARK    2  A    between atoms: O1_4  and  C4_5 
REMARK    3  A    between atoms: C4_5  and  C6_8 
REMARK       I    between atoms: C6_8  and  N2_10 
REMARK    4  A    between atoms: N2_10  and  C7_12 
ROOT
HETATM    1  C4  UNL     1      -4.900   2.823  15.187  1.00  0.00     0.319 C 
HETATM    2  C5  UNL     1      -4.123   1.740  15.818  1.00  0.00     0.101 C 
HETATM    3  N1  UNL     1      -3.527   0.874  16.323  1.00  0.00    -0.194 NA
ENDROOT
BRANCH   1   4
HETATM    4  O1  UNL     1      -6.230   2.592  15.501  1.00  0.00    -0.358 OA
BRANCH   4   5
HETATM    5  C2  UNL     1      -6.435   2.315  16.849  1.00  0.00     0.115 C 
HETATM    6  C1  UNL     1      -7.380   1.156  17.052  1.00  0.00     0.039 C 
HETATM    7  C3  UNL     1      -7.139   3.551  17.422  1.00  0.00     0.039 C 
ENDBRANCH   4   5
ENDBRANCH   1   4
BRANCH   1   8
HETATM    8  C6  UNL     1      -4.700   2.844  13.725  1.00  0.00     0.261 C 
HETATM    9  O2  UNL     1      -5.218   3.760  13.051  1.00  0.00    -0.269 OA
HETATM   10  N2  UNL     1      -3.940   1.858  13.075  1.00  0.00    -0.353 N 
ATOM     11  H2  UNL     1      -3.523   1.116  13.637  1.00  0.00     0.163 HD
BRANCH  10  12
HETATM   12  C7  UNL     1      -3.719   1.843  11.633  1.00  0.00     0.084 C 
HETATM   13  C8  UNL     1      -2.378   1.263  11.384  1.00  0.00     0.025 C 
HETATM   14  C9  UNL     1      -2.339  -0.197  11.112  1.00  0.00     0.002 C 
HETATM   15  C10 UNL     1      -3.296  -0.461   9.940  1.00  0.00     0.000 C 
HETATM   16  C11 UNL     1      -4.677  -0.225  10.558  1.00  0.00     0.002 C 
HETATM   17  C12 UNL     1      -4.864   1.192  10.941  1.00  0.00     0.025 C 
ENDBRANCH  10  12
ENDBRANCH   1   8
TORSDOF 4
ENDMDL
MODEL 2
REMARK VINA RESULT: -6.865112313      1.077      1.745
REMARK  4 active torsions:
REMARK  status: ('A' for Active; 'I' for Inactive)
REMARK    1  A    between atoms: C2_2  and  O1_4 
REMARK    2  A    between atoms: O1_4  and  C4_5 
REMARK    3  A    between atoms: C4_5  and  C6_8 
REMARK       I    between atoms: C6_8  and  N2_10 
REMARK    4  A    between atoms: N2_10  and  C7_12 
ROOT
HETATM    1  C4  UNL     1      -4.855   2.753  15.268  1.00  0.00     0.319 C 
HETATM    2  C5  UNL     1      -4.123   1.564  15.737  1.00  0.00     0.101 C 
HETATM    3  N1  UNL     1      -3.561   0.612  16.113  1.00  0.00    -0.194 NA
ENDROOT
BRANCH   1   4
HETATM    4  O1  UNL     1      -6.199   2.515  15.513  1.00  0.00    -0.358 OA
BRANCH   4   5
HETATM    5  C2  UNL     1      -6.475   2.262  16.852  1.00  0.00     0.115 C 
HETATM    6  C1  UNL     1      -7.442   1.117  17.025  1.00  0.00     0.039 C 
HETATM    7  C3  UNL     1      -7.192   3.514  17.370  1.00  0.00     0.039 C 
ENDBRANCH   4   5
ENDBRANCH   1   4
BRANCH   1   8
HETATM    8  C6  UNL     1      -4.618   2.997  13.831  1.00  0.00     0.261 C 
HETATM    9  O2  UNL     1      -5.361   3.790  13.215  1.00  0.00    -0.269 OA
HETATM   10  N2  UNL     1      -3.574   2.358  13.142  1.00  0.00    -0.353 N 
ATOM     11  H2  UNL     1      -2.974   1.713  13.658  1.00  0.00     0.163 HD
BRANCH  10  12
HETATM   12  C7  UNL     1      -3.305   2.572  11.725  1.00  0.00     0.084 C 
HETATM   13  C8  UNL     1      -2.276   3.633  11.611  1.00  0.00     0.025 C 
HETATM   14  C9  UNL     1      -0.868   3.168  11.510  1.00  0.00     0.002 C 
HETATM   15  C10 UNL     1      -0.802   2.188  10.330  1.00  0.00     0.000 C 
HETATM   16  C11 UNL     1      -1.570   0.968  10.847  1.00  0.00     0.002 C 
HETATM   17  C12 UNL     1      -3.002   1.278  11.056  1.00  0.00     0.025 C 
ENDBRANCH  10  12
ENDBRANCH   1   8
TORSDOF 4
ENDMDL
MODEL 3
REMARK VINA RESULT: -6.671256443      1.701      5.802
REMARK  4 active torsions:
REMARK  status: ('A' for Active; 'I' for Inactive)
REMARK    1  A    between atoms: C2_2  and  O1_4 
REMARK    2  A    between atoms: O1_4  and  C4_5 
REMARK    3  A    between atoms: C4_5  and  C6_8 
REMARK       I    between atoms: C6_8  and  N2_10 
REMARK    4  A    between atoms: N2_10  and  C7_12 
ROOT
HETATM    1  C4  UNL     1      -3.816   2.151  11.827  1.00  0.00     0.319 C 
HETATM    2  C5  UNL     1      -4.376   3.221  10.984  1.00  0.00     0.101 C 
HETATM    3  N1  UNL     1      -4.836   4.056  10.310  1.00  0.00    -0.194 NA
ENDROOT
BRANCH   1   4
HETATM    4  O1  UNL     1      -4.621   1.037  11.643  1.00  0.00    -0.358 OA
BRANCH   4   5
HETATM    5  C2  UNL     1      -3.990   0.015  10.940  1.00  0.00     0.115 C 
HETATM    6  C1  UNL     1      -4.096  -1.312  11.650  1.00  0.00     0.039 C 
HETATM    7  C3  UNL     1      -2.501   0.381  10.927  1.00  0.00     0.039 C 
ENDBRANCH   4   5
ENDBRANCH   1   4
BRANCH   1   8
HETATM    8  C6  UNL     1      -3.785   2.548  13.248  1.00  0.00     0.261 C 
HETATM    9  O2  UNL     1      -2.942   3.386  13.631  1.00  0.00    -0.269 OA
HETATM   10  N2  UNL     1      -4.685   2.005  14.181  1.00  0.00    -0.353 N 
ATOM     11  H2  UNL     1      -5.369   1.321  13.854  1.00  0.00     0.163 HD
BRANCH  10  12
HETATM   12  C7  UNL     1      -4.689   2.371  15.592  1.00  0.00     0.084 C 
HETATM   13  C8  UNL     1      -5.930   3.136  15.862  1.00  0.00     0.025 C 
HETATM   14  C9  UNL     1      -7.086   2.349  16.361  1.00  0.00     0.002 C 
HETATM   15  C10 UNL     1      -6.608   1.591  17.608  1.00  0.00     0.000 C 
HETATM   16  C11 UNL     1      -5.653   0.541  17.033  1.00  0.00     0.002 C 
HETATM   17  C12 UNL     1      -4.453   1.169  16.438  1.00  0.00     0.025 C 
ENDBRANCH  10  12
ENDBRANCH   1   8
TORSDOF 4
ENDMDL
MODEL 4
REMARK VINA RESULT: -6.665923362      1.804      5.859
REMARK  4 active torsions:
REMARK  status: ('A' for Active; 'I' for Inactive)
REMARK    1  A    between atoms: C2_2  and  O1_4 
REMARK    2  A    between atoms: O1_4  and  C4_5 
REMARK    3  A    between atoms: C4_5  and  C6_8 
REMARK       I    between atoms: C6_8  and  N2_10 
REMARK    4  A    between atoms: N2_10  and  C7_12 
ROOT
HETATM    1  C4  UNL     1      -3.597   2.686  11.762  1.00  0.00     0.319 C 
HETATM    2  C5  UNL     1      -4.352   3.681  10.980  1.00  0.00     0.101 C 
HETATM    3  N1  UNL     1      -4.964   4.454  10.355  1.00  0.00    -0.194 NA
ENDROOT
BRANCH   1   4
HETATM    4  O1  UNL     1      -4.204   1.460  11.536  1.00  0.00    -0.358 OA
BRANCH   4   5
HETATM    5  C2  UNL     1      -3.334   0.384  11.682  1.00  0.00     0.115 C 
HETATM    6  C1  UNL     1      -2.081   0.552  10.859  1.00  0.00     0.039 C 
HETATM    7  C3  UNL     1      -4.074  -0.826  11.100  1.00  0.00     0.039 C 
ENDBRANCH   4   5
ENDBRANCH   1   4
BRANCH   1   8
HETATM    8  C6  UNL     1      -3.602   3.018  13.200  1.00  0.00     0.261 C 
HETATM    9  O2  UNL     1      -2.631   3.634  13.689  1.00  0.00    -0.269 OA
HETATM   10  N2  UNL     1      -4.676   2.658  14.032  1.00  0.00    -0.353 N 
ATOM     11  H2  UNL     1      -5.463   2.157  13.619  1.00  0.00     0.163 HD
BRANCH  10  12
HETATM   12  C7  UNL     1      -4.720   2.968  15.456  1.00  0.00     0.084 C 
HETATM   13  C8  UNL     1      -6.097   3.409  15.784  1.00  0.00     0.025 C 
HETATM   14  C9  UNL     1      -7.018   2.354  16.281  1.00  0.00     0.002 C 
HETATM   15  C10 UNL     1      -6.335   1.692  17.486  1.00  0.00     0.000 C 
HETATM   16  C11 UNL     1      -5.178   0.917  16.848  1.00  0.00     0.002 C 
HETATM   17  C12 UNL     1      -4.180   1.831  16.249  1.00  0.00     0.025 C 
ENDBRANCH  10  12
ENDBRANCH   1   8
TORSDOF 4
ENDMDL
MODEL 5
REMARK VINA RESULT: -6.495519404      1.923      2.781
REMARK  4 active torsions:
REMARK  status: ('A' for Active; 'I' for Inactive)
REMARK    1  A    between atoms: C2_2  and  O1_4 
REMARK    2  A    between atoms: O1_4  and  C4_5 
REMARK    3  A    between atoms: C4_5  and  C6_8 
REMARK       I    between atoms: C6_8  and  N2_10 
REMARK    4  A    between atoms: N2_10  and  C7_12 
ROOT
HETATM    1  C4  UNL     1      -4.635   1.991  14.435  1.00  0.00     0.319 C 
HETATM    2  C5  UNL     1      -4.581   0.608  14.944  1.00  0.00     0.101 C 
HETATM    3  N1  UNL     1      -4.559  -0.485  15.353  1.00  0.00    -0.194 NA
ENDROOT
BRANCH   1   4
HETATM    4  O1  UNL     1      -5.877   2.496  14.787  1.00  0.00    -0.358 OA
BRANCH   4   5
HETATM    5  C2  UNL     1      -5.805   3.521  15.725  1.00  0.00     0.115 C 
HETATM    6  C1  UNL     1      -6.900   3.422  16.759  1.00  0.00     0.039 C 
HETATM    7  C3  UNL     1      -6.067   4.814  14.943  1.00  0.00     0.039 C 
ENDBRANCH   4   5
ENDBRANCH   1   4
BRANCH   1   8
HETATM    8  C6  UNL     1      -4.446   2.032  12.972  1.00  0.00     0.261 C 
HETATM    9  O2  UNL     1      -5.439   1.915  12.224  1.00  0.00    -0.269 OA
HETATM   10  N2  UNL     1      -3.173   2.200  12.402  1.00  0.00    -0.353 N 
ATOM     11  H2  UNL     1      -2.370   2.295  13.025  1.00  0.00     0.163 HD
BRANCH  10  12
HETATM   12  C7  UNL     1      -2.943   2.247  10.963  1.00  0.00     0.084 C 
HETATM   13  C8  UNL     1      -3.202   3.633  10.504  1.00  0.00     0.025 C 
HETATM   14  C9  UNL     1      -2.019   4.527  10.429  1.00  0.00     0.002 C 
HETATM   15  C10 UNL     1      -0.980   3.824   9.543  1.00  0.00     0.000 C 
HETATM   16  C11 UNL     1      -0.517   2.651  10.412  1.00  0.00     0.002 C 
HETATM   17  C12 UNL     1      -1.609   1.678  10.633  1.00  0.00     0.025 C 
ENDBRANCH  10  12
ENDBRANCH   1   8
TORSDOF 4
ENDMDL
