MODEL 1
REMARK VINA RESULT: -6.795777429      0.000      0.000
REMARK  4 active torsions:
REMARK  status: ('A' for Active; 'I' for Inactive)
REMARK    1  A    between atoms: N1_5  and  C5_6 
REMARK    2  A    between atoms: C5_6  and  C7_8 
REMARK    3  A    between atoms: C7_8  and  N2_9 
REMARK    4  A    between atoms: N2_9  and  C8_11 
ROOT
HETATM    1  C5  UNL     1      -3.779   4.272  14.144  1.00  0.00     0.236 C 
HETATM    2  C6  UNL     1      -2.287   4.349  14.389  1.00  0.00     0.044 C 
ENDROOT
BRANCH   1   3
HETATM    3  N1  UNL     1      -4.458   3.692  15.224  1.00  0.00     0.094 N 
HETATM    4  C4  UNL     1      -5.876   3.668  14.998  1.00  0.00     0.273 C 
HETATM    5  C3  UNL     1      -6.676   3.282  16.203  1.00  0.00     0.034 C 
HETATM    6  C2  UNL     1      -6.129   2.048  16.840  1.00  0.00    -0.015 C 
HETATM    7  C1  UNL     1      -7.182   0.995  17.102  1.00  0.00     0.010 C 
HETATM    8  C13 UNL     1      -5.106   1.434  15.920  1.00  0.00     0.034 C 
HETATM    9  C12 UNL     1      -4.001   2.461  15.749  1.00  0.00     0.273 C 
ENDBRANCH   1   3
BRANCH   1  10
HETATM   10  C7  UNL     1      -3.993   3.684  12.781  1.00  0.00     0.151 C 
BRANCH  10  11
HETATM   11  N2  UNL     1      -2.983   2.716  12.428  1.00  0.00    -0.395 N 
ATOM     12  H2  UNL     1      -1.990   2.881  12.588  1.00  0.00     0.155 HD
BRANCH  11  13
HETATM   13  C8  UNL     1      -3.468   1.521  11.843  1.00  0.00     0.216 C 
HETATM   14  C9  UNL     1      -2.380   0.811  11.089  1.00  0.00     0.055 C 
HETATM   15  C10 UNL     1      -3.106  -0.525  10.848  1.00  0.00     0.030 C 
HETATM   16  C11 UNL     1      -4.019  -0.594  12.039  1.00  0.00     0.170 C 
HETATM   17  O1  UNL     1      -3.836   0.555  12.779  1.00  0.00    -0.367 OA
ENDBRANCH  11  13
ENDBRANCH  10  11
ENDBRANCH   1  10
TORSDOF 4
ENDMDL
MODEL 2
REMARK VINA RESULT: -6.691178655      0.584      1.320
REMARK  4 active torsions:
REMARK  status: ('A' for Active; 'I' for Inactive)
REMARK    1  A    between atoms: N1_5  and  C5_6 
REMARK    2  A    between atoms: C5_6  and  C7_8 
REMARK    3  A    between atoms: C7_8  and  N2_9 
REMARK    4  A    between atoms: N2_9  and  C8_11 
ROOT
HETATM    1  C5  UNL     1      -4.053   4.128  13.582  1.00  0.00     0.236 C 
HETATM    2  C6  UNL     1      -2.803   4.627  14.278  1.00  0.00     0.044 C 
ENDROOT
BRANCH   1   3
HETATM    3  N1  UNL     1      -4.764   3.215  14.374  1.00  0.00     0.094 N 
HETATM    4  C4  UNL     1      -4.006   2.827  15.530  1.00  0.00     0.273 C 
HETATM    5  C3  UNL     1      -4.602   1.682  16.289  1.00  0.00     0.034 C 
HETATM    6  C2  UNL     1      -6.055   1.906  16.547  1.00  0.00    -0.015 C 
HETATM    7  C1  UNL     1      -6.442   1.701  17.994  1.00  0.00     0.010 C 
HETATM    8  C13 UNL     1      -6.402   3.329  16.192  1.00  0.00     0.034 C 
HETATM    9  C12 UNL     1      -6.109   3.493  14.711  1.00  0.00     0.273 C 
ENDBRANCH   1   3
BRANCH   1  10
HETATM   10  C7  UNL     1      -3.672   3.708  12.195  1.00  0.00     0.151 C 
BRANCH  10  11
HETATM   11  N2  UNL     1      -2.774   2.578  12.182  1.00  0.00    -0.395 N 
ATOM     12  H2  UNL     1      -1.809   2.645  12.506  1.00  0.00     0.155 HD
BRANCH  11  13
HETATM   13  C8  UNL     1      -3.325   1.372  11.687  1.00  0.00     0.216 C 
HETATM   14  C9  UNL     1      -2.268   0.525  11.036  1.00  0.00     0.055 C 
HETATM   15  C10 UNL     1      -3.080  -0.775  10.887  1.00  0.00     0.030 C 
HETATM   16  C11 UNL     1      -4.030  -0.675  12.047  1.00  0.00     0.170 C 
HETATM   17  O1  UNL     1      -3.787   0.521  12.690  1.00  0.00    -0.367 OA
ENDBRANCH  11  13
ENDBRANCH  10  11
ENDBRANCH   1  10
TORSDOF 4
ENDMDL
MODEL 3
REMARK VINA RESULT: -6.668848184      2.051      5.944
REMARK  4 active torsions:
REMARK  status: ('A' for Active; 'I' for Inactive)
REMARK    1  A    between atoms: N1_5  and  C5_6 
REMARK    2  A    between atoms: C5_6  and  C7_8 
REMARK    3  A    between atoms: C7_8  and  N2_9 
REMARK    4  A    between atoms: N2_9  and  C8_11 
ROOT
HETATM    1  C5  UNL     1      -4.436   1.021  12.325  1.00  0.00     0.236 C 
HETATM    2  C6  UNL     1      -4.192  -0.457  12.549  1.00  0.00     0.044 C 
ENDROOT
BRANCH   1   3
HETATM    3  N1  UNL     1      -3.565   1.556  11.366  1.00  0.00     0.094 N 
HETATM    4  C4  UNL     1      -3.097   2.857  11.755  1.00  0.00     0.273 C 
HETATM    5  C3  UNL     1      -2.357   3.582  10.675  1.00  0.00     0.034 C 
HETATM    6  C2  UNL     1      -1.316   2.709  10.055  1.00  0.00    -0.015 C 
HETATM    7  C1  UNL     1       0.044   3.363   9.980  1.00  0.00     0.010 C 
HETATM    8  C13 UNL     1      -1.164   1.462  10.888  1.00  0.00     0.034 C 
HETATM    9  C12 UNL     1      -2.509   0.758  10.869  1.00  0.00     0.273 C 
ENDBRANCH   1   3
BRANCH   1  10
HETATM   10  C7  UNL     1      -4.500   1.687  13.667  1.00  0.00     0.151 C 
BRANCH  10  11
HETATM   11  N2  UNL     1      -4.339   0.757  14.759  1.00  0.00    -0.395 N 
ATOM     12  H2  UNL     1      -3.752  -0.074  14.685  1.00  0.00     0.155 HD
BRANCH  11  13
HETATM   13  C8  UNL     1      -5.052   1.079  15.938  1.00  0.00     0.216 C 
HETATM   14  C9  UNL     1      -5.870   2.324  15.749  1.00  0.00     0.055 C 
HETATM   15  C10 UNL     1      -6.717   2.237  17.032  1.00  0.00     0.030 C 
HETATM   16  C11 UNL     1      -6.776   0.752  17.256  1.00  0.00     0.170 C 
HETATM   17  O1  UNL     1      -6.035   0.145  16.264  1.00  0.00    -0.367 OA
ENDBRANCH  11  13
ENDBRANCH  10  11
ENDBRANCH   1  10
TORSDOF 4
ENDMDL
MODEL 4
REMARK VINA RESULT: -6.411841641      1.997      6.018
REMARK  4 active torsions:
REMARK  status: ('A' for Active; 'I' for Inactive)
REMARK    1  A    between atoms: N1_5  and  C5_6 
REMARK    2  A    between atoms: C5_6  and  C7_8 
REMARK    3  A    between atoms: C7_8  and  N2_9 
REMARK    4  A    between atoms: N2_9  and  C8_11 
ROOT
HETATM    1  C5  UNL     1      -4.322   0.736  12.346  1.00  0.00     0.236 C 
HETATM    2  C6  UNL     1      -4.428  -0.454  11.415  1.00  0.00     0.044 C 
ENDROOT
BRANCH   1   3
HETATM    3  N1  UNL     1      -3.252   1.575  12.004  1.00  0.00     0.094 N 
HETATM    4  C4  UNL     1      -2.407   0.965  11.017  1.00  0.00     0.273 C 
HETATM    5  C3  UNL     1      -1.123   1.699  10.781  1.00  0.00     0.034 C 
HETATM    6  C2  UNL     1      -1.367   3.157  10.572  1.00  0.00    -0.015 C 
HETATM    7  C1  UNL     1      -0.689   3.704   9.337  1.00  0.00     0.010 C 
HETATM    8  C13 UNL     1      -2.847   3.386  10.405  1.00  0.00     0.034 C 
HETATM    9  C12 UNL     1      -3.508   2.931  11.694  1.00  0.00     0.273 C 
ENDBRANCH   1   3
BRANCH   1  10
HETATM   10  C7  UNL     1      -4.394   0.228  13.755  1.00  0.00     0.151 C 
BRANCH  10  11
HETATM   11  N2  UNL     1      -3.911   1.187  14.718  1.00  0.00    -0.395 N 
ATOM     12  H2  UNL     1      -3.200   1.881  14.488  1.00  0.00     0.155 HD
BRANCH  11  13
HETATM   13  C8  UNL     1      -4.492   1.097  16.006  1.00  0.00     0.216 C 
HETATM   14  C9  UNL     1      -5.433   2.242  16.253  1.00  0.00     0.055 C 
HETATM   15  C10 UNL     1      -6.098   1.716  17.539  1.00  0.00     0.030 C 
HETATM   16  C11 UNL     1      -5.999   0.230  17.346  1.00  0.00     0.170 C 
HETATM   17  O1  UNL     1      -5.341   0.001  16.155  1.00  0.00    -0.367 OA
ENDBRANCH  11  13
ENDBRANCH  10  11
ENDBRANCH   1  10
TORSDOF 4
ENDMDL
MODEL 5
REMARK VINA RESULT: -6.297811150      1.300      4.948
REMARK  4 active torsions:
REMARK  status: ('A' for Active; 'I' for Inactive)
REMARK    1  A    between atoms: N1_5  and  C5_6 
REMARK    2  A    between atoms: C5_6  and  C7_8 
REMARK    3  A    between atoms: C7_8  and  N2_9 
REMARK    4  A    between atoms: N2_9  and  C8_11 
ROOT
HETATM    1  C5  UNL     1      -3.607   3.440  11.980  1.00  0.00     0.236 C 
HETATM    2  C6  UNL     1      -4.057   4.511  11.008  1.00  0.00     0.044 C 
ENDROOT
BRANCH   1   3
HETATM    3  N1  UNL     1      -3.682   2.158  11.417  1.00  0.00     0.094 N 
HETATM    4  C4  UNL     1      -2.405   1.502  11.443  1.00  0.00     0.273 C 
HETATM    5  C3  UNL     1      -2.359   0.233  10.649  1.00  0.00     0.034 C 
HETATM    6  C2  UNL     1      -3.516  -0.650  10.977  1.00  0.00    -0.015 C 
HETATM    7  C1  UNL     1      -3.111  -2.070  11.299  1.00  0.00     0.010 C 
HETATM    8  C13 UNL     1      -4.221  -0.103  12.191  1.00  0.00     0.034 C 
HETATM    9  C12 UNL     1      -4.717   1.284  11.820  1.00  0.00     0.273 C 
ENDBRANCH   1   3
BRANCH   1  10
HETATM   10  C7  UNL     1      -4.307   3.676  13.284  1.00  0.00     0.151 C 
BRANCH  10  11
HETATM   11  N2  UNL     1      -3.480   3.362  14.425  1.00  0.00    -0.395 N 
ATOM     12  H2  UNL     1      -2.501   3.641  14.483  1.00  0.00     0.155 HD
BRANCH  11  13
HETATM   13  C8  UNL     1      -4.124   2.637  15.457  1.00  0.00     0.216 C 
HETATM   14  C9  UNL     1      -5.616   2.779  15.363  1.00  0.00     0.055 C 
HETATM   15  C10 UNL     1      -6.012   1.688  16.376  1.00  0.00     0.030 C 
HETATM   16  C11 UNL     1      -4.860   0.730  16.255  1.00  0.00     0.170 C 
HETATM   17  O1  UNL     1      -3.966   1.256  15.346  1.00  0.00    -0.367 OA
ENDBRANCH  11  13
ENDBRANCH  10  11
ENDBRANCH   1  10
TORSDOF 4
ENDMDL
