MODEL 1
REMARK VINA RESULT: -6.906112292      0.000      0.000
REMARK  5 active torsions:
REMARK  status: ('A' for Active; 'I' for Inactive)
REMARK    1  A    between atoms: N1_4  and  C4_5 
REMARK    2  A    between atoms: C4_5  and  C5_6 
REMARK    3  A    between atoms: C6_7  and  C7_8 
REMARK    4  A    between atoms: C7_8  and  O1_9 
REMARK    5  A    between atoms: C7_8  and  C8_11 
ROOT
HETATM    1  C5  UNL     1      -4.253   2.801  14.345  1.00  0.00     0.002 C 
HETATM    2  C6  UNL     1      -4.351   2.396  15.591  1.00  0.00     0.003 C 
ENDROOT
BRANCH   1   3
HETATM    3  C4  UNL     1      -5.024   2.333  13.189  1.00  0.00     0.299 C 
BRANCH   3   4
HETATM    4  N1  UNL     1      -4.292   1.295  12.484  1.00  0.00     0.096 N 
HETATM    5  C3  UNL     1      -2.970   1.777  12.155  1.00  0.00     0.304 C 
HETATM    6  C2  UNL     1      -2.243   1.052  11.104  1.00  0.00     0.145 C 
HETATM    7  C1  UNL     1      -1.467   2.068  10.254  1.00  0.00     0.041 C 
HETATM    8  O2  UNL     1      -2.917   0.243  10.266  1.00  0.00    -0.383 OA
HETATM    9  C13 UNL     1      -4.193  -0.106  10.600  1.00  0.00     0.198 C 
HETATM   10  C12 UNL     1      -4.957   1.065  11.186  1.00  0.00     0.299 C 
ENDBRANCH   3   4
ENDBRANCH   1   3
BRANCH   2  11
HETATM   11  C7  UNL     1      -5.308   1.357  15.990  1.00  0.00     0.148 C 
BRANCH  11  12
HETATM   12  O1  UNL     1      -4.603   0.361  16.670  1.00  0.00    -0.391 OA
ATOM     13  H1  UNL     1      -5.125   0.091  17.417  1.00  0.00     0.210 HD
ENDBRANCH  11  12
BRANCH  11  14
HETATM   14  C8  UNL     1      -6.377   1.884  16.927  1.00  0.00    -0.022 C 
HETATM   15  C9  UNL     1      -6.763   3.295  16.532  1.00  0.00     0.017 C 
HETATM   16  C10 UNL     1      -5.855   1.834  18.339  1.00  0.00     0.017 C 
HETATM   17  C11 UNL     1      -7.603   1.021  16.835  1.00  0.00     0.017 C 
ENDBRANCH  11  14
ENDBRANCH   2  11
TORSDOF 5
ENDMDL
MODEL 2
REMARK VINA RESULT: -6.618179645      1.786      5.977
REMARK  5 active torsions:
REMARK  status: ('A' for Active; 'I' for Inactive)
REMARK    1  A    between atoms: N1_4  and  C4_5 
REMARK    2  A    between atoms: C4_5  and  C5_6 
REMARK    3  A    between atoms: C6_7  and  C7_8 
REMARK    4  A    between atoms: C7_8  and  O1_9 
REMARK    5  A    between atoms: C7_8  and  C8_11 
ROOT
HETATM    1  C5  UNL     1      -4.866   2.586  13.093  1.00  0.00     0.002 C 
HETATM    2  C6  UNL     1      -4.887   1.478  12.387  1.00  0.00     0.003 C 
ENDROOT
BRANCH   1   3
HETATM    3  C4  UNL     1      -3.937   2.942  14.169  1.00  0.00     0.299 C 
BRANCH   3   4
HETATM    4  N1  UNL     1      -4.659   3.122  15.417  1.00  0.00     0.096 N 
HETATM    5  C3  UNL     1      -4.579   1.909  16.199  1.00  0.00     0.304 C 
HETATM    6  C2  UNL     1      -5.567   1.746  17.273  1.00  0.00     0.145 C 
HETATM    7  C1  UNL     1      -5.994   0.273  17.327  1.00  0.00     0.041 C 
HETATM    8  O2  UNL     1      -6.683   2.499  17.270  1.00  0.00    -0.383 OA
HETATM    9  C13 UNL     1      -6.722   3.584  16.445  1.00  0.00     0.198 C 
HETATM   10  C12 UNL     1      -6.092   3.286  15.098  1.00  0.00     0.299 C 
ENDBRANCH   3   4
ENDBRANCH   1   3
BRANCH   2  11
HETATM   11  C7  UNL     1      -3.918   0.400  12.615  1.00  0.00     0.148 C 
BRANCH  11  12
HETATM   12  O1  UNL     1      -4.528  -0.564  13.420  1.00  0.00    -0.391 OA
ATOM     13  H1  UNL     1      -3.846  -1.018  13.901  1.00  0.00     0.210 HD
ENDBRANCH  11  12
BRANCH  11  14
HETATM   14  C8  UNL     1      -3.494  -0.279  11.327  1.00  0.00    -0.022 C 
HETATM   15  C9  UNL     1      -3.309  -1.764  11.561  1.00  0.00     0.017 C 
HETATM   16  C10 UNL     1      -2.223   0.360  10.835  1.00  0.00     0.017 C 
HETATM   17  C11 UNL     1      -4.560  -0.100  10.284  1.00  0.00     0.017 C 
ENDBRANCH  11  14
ENDBRANCH   2  11
TORSDOF 5
ENDMDL
MODEL 3
REMARK VINA RESULT: -6.555672137      1.021      1.760
REMARK  5 active torsions:
REMARK  status: ('A' for Active; 'I' for Inactive)
REMARK    1  A    between atoms: N1_4  and  C4_5 
REMARK    2  A    between atoms: C4_5  and  C5_6 
REMARK    3  A    between atoms: C6_7  and  C7_8 
REMARK    4  A    between atoms: C7_8  and  O1_9 
REMARK    5  A    between atoms: C7_8  and  C8_11 
ROOT
HETATM    1  C5  UNL     1      -4.062   3.052  14.714  1.00  0.00     0.002 C 
HETATM    2  C6  UNL     1      -4.285   2.141  15.635  1.00  0.00     0.003 C 
ENDROOT
BRANCH   1   3
HETATM    3  C4  UNL     1      -4.970   3.486  13.648  1.00  0.00     0.299 C 
BRANCH   3   4
HETATM    4  N1  UNL     1      -4.451   3.083  12.352  1.00  0.00     0.096 N 
HETATM    5  C3  UNL     1      -4.859   1.725  12.072  1.00  0.00     0.304 C 
HETATM    6  C2  UNL     1      -4.108   1.008  11.033  1.00  0.00     0.145 C 
HETATM    7  C1  UNL     1      -3.942  -0.454  11.469  1.00  0.00     0.041 C 
HETATM    8  O2  UNL     1      -2.901   1.464  10.651  1.00  0.00    -0.383 OA
HETATM    9  C13 UNL     1      -2.546   2.728  11.022  1.00  0.00     0.198 C 
HETATM   10  C12 UNL     1      -2.977   3.036  12.442  1.00  0.00     0.299 C 
ENDBRANCH   3   4
ENDBRANCH   1   3
BRANCH   2  11
HETATM   11  C7  UNL     1      -5.553   1.406  15.700  1.00  0.00     0.148 C 
BRANCH  11  12
HETATM   12  O1  UNL     1      -5.258   0.051  15.864  1.00  0.00    -0.391 OA
ATOM     13  H1  UNL     1      -5.282  -0.360  15.008  1.00  0.00     0.210 HD
ENDBRANCH  11  12
BRANCH  11  14
HETATM   14  C8  UNL     1      -6.411   1.834  16.876  1.00  0.00    -0.022 C 
HETATM   15  C9  UNL     1      -6.822   3.284  16.717  1.00  0.00     0.017 C 
HETATM   16  C10 UNL     1      -5.634   1.622  18.148  1.00  0.00     0.017 C 
HETATM   17  C11 UNL     1      -7.657   0.997  16.926  1.00  0.00     0.017 C 
ENDBRANCH  11  14
ENDBRANCH   2  11
TORSDOF 5
ENDMDL
MODEL 4
REMARK VINA RESULT: -6.529989447      1.384      1.562
REMARK  5 active torsions:
REMARK  status: ('A' for Active; 'I' for Inactive)
REMARK    1  A    between atoms: N1_4  and  C4_5 
REMARK    2  A    between atoms: C4_5  and  C5_6 
REMARK    3  A    between atoms: C6_7  and  C7_8 
REMARK    4  A    between atoms: C7_8  and  O1_9 
REMARK    5  A    between atoms: C7_8  and  C8_11 
ROOT
HETATM    1  C5  UNL     1      -3.598   2.852  15.376  1.00  0.00     0.002 C 
HETATM    2  C6  UNL     1      -4.112   1.943  16.174  1.00  0.00     0.003 C 
ENDROOT
BRANCH   1   3
HETATM    3  C4  UNL     1      -4.210   3.443  14.183  1.00  0.00     0.299 C 
BRANCH   3   4
HETATM    4  N1  UNL     1      -3.725   2.776  12.987  1.00  0.00     0.096 N 
HETATM    5  C3  UNL     1      -3.233   3.762  12.052  1.00  0.00     0.304 C 
HETATM    6  C2  UNL     1      -3.093   3.337  10.654  1.00  0.00     0.145 C 
HETATM    7  C1  UNL     1      -3.507   4.501   9.742  1.00  0.00     0.041 C 
HETATM    8  O2  UNL     1      -3.732   2.231  10.227  1.00  0.00    -0.383 OA
HETATM    9  C13 UNL     1      -4.244   1.385  11.166  1.00  0.00     0.198 C 
HETATM   10  C12 UNL     1      -4.878   2.143  12.315  1.00  0.00     0.299 C 
ENDBRANCH   3   4
ENDBRANCH   1   3
BRANCH   2  11
HETATM   11  C7  UNL     1      -5.446   1.379  15.940  1.00  0.00     0.148 C 
BRANCH  11  12
HETATM   12  O1  UNL     1      -5.348  -0.011  16.039  1.00  0.00    -0.391 OA
ATOM     13  H1  UNL     1      -5.902  -0.293  16.758  1.00  0.00     0.210 HD
ENDBRANCH  11  12
BRANCH  11  14
HETATM   14  C8  UNL     1      -6.459   1.842  16.970  1.00  0.00    -0.022 C 
HETATM   15  C9  UNL     1      -6.876   3.269  16.680  1.00  0.00     0.017 C 
HETATM   16  C10 UNL     1      -5.851   1.717  18.341  1.00  0.00     0.017 C 
HETATM   17  C11 UNL     1      -7.683   0.974  16.903  1.00  0.00     0.017 C 
ENDBRANCH  11  14
ENDBRANCH   2  11
TORSDOF 5
ENDMDL
MODEL 5
REMARK VINA RESULT: -6.502460434      0.996      2.041
REMARK  5 active torsions:
REMARK  status: ('A' for Active; 'I' for Inactive)
REMARK    1  A    between atoms: N1_4  and  C4_5 
REMARK    2  A    between atoms: C4_5  and  C5_6 
REMARK    3  A    between atoms: C6_7  and  C7_8 
REMARK    4  A    between atoms: C7_8  and  O1_9 
REMARK    5  A    between atoms: C7_8  and  C8_11 
ROOT
HETATM    1  C5  UNL     1      -4.087   2.987  14.694  1.00  0.00     0.002 C 
HETATM    2  C6  UNL     1      -4.308   2.095  15.633  1.00  0.00     0.003 C 
ENDROOT
BRANCH   1   3
HETATM    3  C4  UNL     1      -5.000   3.405  13.626  1.00  0.00     0.299 C 
BRANCH   3   4
HETATM    4  N1  UNL     1      -4.470   3.014  12.331  1.00  0.00     0.096 N 
HETATM    5  C3  UNL     1      -4.857   1.652  12.044  1.00  0.00     0.304 C 
HETATM    6  C2  UNL     1      -4.091   0.950  11.006  1.00  0.00     0.145 C 
HETATM    7  C1  UNL     1      -3.906  -0.512  11.437  1.00  0.00     0.041 C 
HETATM    8  O2  UNL     1      -2.889   1.424  10.631  1.00  0.00    -0.383 OA
HETATM    9  C13 UNL     1      -2.554   2.692  11.008  1.00  0.00     0.198 C 
HETATM   10  C12 UNL     1      -2.996   2.987  12.428  1.00  0.00     0.299 C 
ENDBRANCH   3   4
ENDBRANCH   1   3
BRANCH   2  11
HETATM   11  C7  UNL     1      -5.578   1.366  15.720  1.00  0.00     0.148 C 
BRANCH  11  12
HETATM   12  O1  UNL     1      -5.286   0.012  15.901  1.00  0.00    -0.391 OA
ATOM     13  H1  UNL     1      -4.695  -0.064  16.641  1.00  0.00     0.210 HD
ENDBRANCH  11  12
BRANCH  11  14
HETATM   14  C8  UNL     1      -6.424   1.814  16.897  1.00  0.00    -0.022 C 
HETATM   15  C9  UNL     1      -5.640   1.665  18.185  1.00  0.00     0.017 C 
HETATM   16  C10 UNL     1      -7.688   0.997  16.927  1.00  0.00     0.017 C 
HETATM   17  C11 UNL     1      -6.789   3.262  16.737  1.00  0.00     0.017 C 
ENDBRANCH  11  14
ENDBRANCH   2  11
TORSDOF 5
ENDMDL
