MODEL 1
REMARK VINA RESULT: -8.176165570      0.000      0.000
REMARK  4 active torsions:
REMARK  status: ('A' for Active; 'I' for Inactive)
REMARK    1  A    between atoms: C2_2  and  C3_3 
REMARK    2  A    between atoms: C5_7  and  C6_8 
REMARK    3  A    between atoms: C7_11  and  C8_12 
REMARK    4  A    between atoms: C9_22  and  C10_23 
ROOT
HETATM    1  C3  UNL     1      -3.402   5.340  12.173  1.00  0.00     0.036 A 
HETATM    2  N1  UNL     1      -4.631   5.366  12.740  1.00  0.00    -0.365 N 
ATOM      3  H1  UNL     1      -5.331   6.029  12.409  1.00  0.00     0.165 HD
HETATM    4  C4  UNL     1      -4.929   4.520  13.737  1.00  0.00     0.121 A 
HETATM    5  C5  UNL     1      -3.970   3.620  14.172  1.00  0.00     0.094 A 
HETATM    6  N5  UNL     1      -2.772   3.642  13.583  1.00  0.00    -0.350 N 
ATOM      7  H5  UNL     1      -2.062   2.987  13.913  1.00  0.00     0.166 HD
HETATM    8  C9  UNL     1      -2.444   4.484  12.575  1.00  0.00     0.058 A 
ENDROOT
BRANCH   5   9
HETATM    9  C6  UNL     1      -4.357   2.586  15.123  1.00  0.00     0.150 A 
HETATM   10  N2  UNL     1      -5.523   2.526  15.835  1.00  0.00    -0.321 N 
HETATM   11  C7  UNL     1      -5.528   1.338  16.474  1.00  0.00     0.206 A 
ATOM     12  H2  UNL     1      -6.249   3.241  15.875  1.00  0.00     0.169 HD
HETATM   13  N3  UNL     1      -4.405   0.672  16.178  1.00  0.00    -0.280 N 
HETATM   14  N4  UNL     1      -3.724   1.458  15.362  1.00  0.00    -0.282 N 
ATOM     15  H3  UNL     1      -4.131  -0.252  16.513  1.00  0.00     0.188 HD
ATOM     16  H4  UNL     1      -2.816   1.218  14.965  1.00  0.00     0.188 HD
BRANCH  11  17
HETATM   17  C8  UNL     1      -6.625   0.799  17.309  1.00  0.00     0.450 C 
HETATM   18  F1  UNL     1      -7.831   0.983  16.709  1.00  0.00    -0.163 F 
HETATM   19  F2  UNL     1      -6.613   1.590  18.473  1.00  0.00    -0.163 F 
HETATM   20  F3  UNL     1      -6.324  -0.465  17.666  1.00  0.00    -0.163 F 
ENDBRANCH  11  17
ENDBRANCH   5   9
BRANCH   8  21
HETATM   21  C10 UNL     1      -1.199   4.296  11.770  1.00  0.00    -0.049 C 
HETATM   22  C11 UNL     1      -0.977   3.009  11.101  1.00  0.00     0.039 C 
HETATM   23  C12 UNL     1      -0.652   3.030   9.637  1.00  0.00     0.043 C 
HETATM   24  C13 UNL     1       0.481   3.945   9.281  1.00  0.00     0.257 C 
HETATM   25  C14 UNL     1       1.782   3.645   9.944  1.00  0.00     0.205 C 
HETATM   26  N6  UNL     1       0.197   5.321   9.649  1.00  0.00     0.096 N 
HETATM   27  F4  UNL     1       2.792   3.709   8.962  1.00  0.00    -0.247 F 
HETATM   28  C15 UNL     1       2.087   4.777  10.896  1.00  0.00     0.075 C 
HETATM   29  C16 UNL     1       0.800   5.572  10.906  1.00  0.00     0.230 C 
HETATM   30  C17 UNL     1      -0.042   5.156  12.115  1.00  0.00     0.072 C 
HETATM   31  C18 UNL     1       0.591   6.180   8.569  1.00  0.00     0.311 C 
ENDBRANCH   8  21
BRANCH   1  32
HETATM   32  C2  UNL     1      -3.195   6.383  11.151  1.00  0.00     0.055 C 
HETATM   33  C1  UNL     1      -2.836   7.699  11.790  1.00  0.00     0.011 C 
ENDBRANCH   1  32
TORSDOF 4
ENDMDL
MODEL 2
REMARK VINA RESULT: -8.054157055      3.834      5.170
REMARK  4 active torsions:
REMARK  status: ('A' for Active; 'I' for Inactive)
REMARK    1  A    between atoms: C2_2  and  C3_3 
REMARK    2  A    between atoms: C5_7  and  C6_8 
REMARK    3  A    between atoms: C7_11  and  C8_12 
REMARK    4  A    between atoms: C9_22  and  C10_23 
ROOT
HETATM    1  C3  UNL     1      -3.290   6.524  12.717  1.00  0.00     0.036 A 
HETATM    2  N1  UNL     1      -2.563   6.124  13.787  1.00  0.00    -0.365 N 
ATOM      3  H1  UNL     1      -1.798   6.704  14.129  1.00  0.00     0.165 HD
HETATM    4  C4  UNL     1      -2.851   4.966  14.399  1.00  0.00     0.121 A 
HETATM    5  C5  UNL     1      -3.898   4.191  13.928  1.00  0.00     0.094 A 
HETATM    6  N5  UNL     1      -4.577   4.629  12.865  1.00  0.00    -0.350 N 
ATOM      7  H5  UNL     1      -5.341   4.053  12.511  1.00  0.00     0.166 HD
HETATM    8  C9  UNL     1      -4.310   5.794  12.229  1.00  0.00     0.058 A 
ENDROOT
BRANCH   5   9
HETATM    9  C6  UNL     1      -4.320   3.032  14.704  1.00  0.00     0.150 A 
HETATM   10  N2  UNL     1      -5.239   3.018  15.717  1.00  0.00    -0.321 N 
HETATM   11  C7  UNL     1      -5.430   1.726  16.051  1.00  0.00     0.206 A 
ATOM     12  H2  UNL     1      -5.692   3.828  16.139  1.00  0.00     0.169 HD
HETATM   13  N3  UNL     1      -4.660   0.950  15.277  1.00  0.00    -0.280 N 
HETATM   14  N4  UNL     1      -4.005   1.775  14.479  1.00  0.00    -0.282 N 
ATOM     15  H3  UNL     1      -4.592  -0.068  15.299  1.00  0.00     0.188 HD
ATOM     16  H4  UNL     1      -3.333   1.474  13.773  1.00  0.00     0.188 HD
BRANCH  11  17
HETATM   17  C8  UNL     1      -6.393   1.214  17.052  1.00  0.00     0.450 C 
HETATM   18  F1  UNL     1      -7.671   1.515  16.698  1.00  0.00    -0.163 F 
HETATM   19  F2  UNL     1      -6.106   1.932  18.227  1.00  0.00    -0.163 F 
HETATM   20  F3  UNL     1      -6.131  -0.087  17.287  1.00  0.00    -0.163 F 
ENDBRANCH  11  17
ENDBRANCH   5   9
BRANCH   8  21
HETATM   21  C10 UNL     1      -5.254   6.374  11.225  1.00  0.00    -0.049 C 
HETATM   22  C11 UNL     1      -6.557   6.868  11.682  1.00  0.00     0.039 C 
HETATM   23  C12 UNL     1      -6.956   8.257  11.286  1.00  0.00     0.043 C 
HETATM   24  C13 UNL     1      -6.843   8.524   9.814  1.00  0.00     0.257 C 
HETATM   25  C14 UNL     1      -7.663   7.640   8.937  1.00  0.00     0.205 C 
HETATM   26  N6  UNL     1      -5.483   8.345   9.338  1.00  0.00     0.096 N 
HETATM   27  F4  UNL     1      -8.302   8.455   7.980  1.00  0.00    -0.247 F 
HETATM   28  C15 UNL     1      -6.717   6.772   8.143  1.00  0.00     0.075 C 
HETATM   29  C16 UNL     1      -5.377   7.042   8.794  1.00  0.00     0.230 C 
HETATM   30  C17 UNL     1      -5.081   5.942   9.817  1.00  0.00     0.072 C 
HETATM   31  C18 UNL     1      -5.153   9.432   8.461  1.00  0.00     0.311 C 
ENDBRANCH   8  21
BRANCH   1  32
HETATM   32  C2  UNL     1      -2.804   7.772  12.101  1.00  0.00     0.055 C 
HETATM   33  C1  UNL     1      -1.769   8.435  12.971  1.00  0.00     0.011 C 
ENDBRANCH   1  32
TORSDOF 4
ENDMDL
MODEL 3
REMARK VINA RESULT: -7.928539840      0.988      1.135
REMARK  4 active torsions:
REMARK  status: ('A' for Active; 'I' for Inactive)
REMARK    1  A    between atoms: C2_2  and  C3_3 
REMARK    2  A    between atoms: C5_7  and  C6_8 
REMARK    3  A    between atoms: C7_11  and  C8_12 
REMARK    4  A    between atoms: C9_22  and  C10_23 
ROOT
HETATM    1  C3  UNL     1      -3.270   5.691  12.587  1.00  0.00     0.036 A 
HETATM    2  N1  UNL     1      -4.251   5.821  13.511  1.00  0.00    -0.365 N 
ATOM      3  H1  UNL     1      -4.766   6.698  13.586  1.00  0.00     0.165 HD
HETATM    4  C4  UNL     1      -4.545   4.799  14.326  1.00  0.00     0.121 A 
HETATM    5  C5  UNL     1      -3.841   3.611  14.208  1.00  0.00     0.094 A 
HETATM    6  N5  UNL     1      -2.879   3.539  13.285  1.00  0.00    -0.350 N 
ATOM      7  H5  UNL     1      -2.354   2.669  13.206  1.00  0.00     0.166 HD
HETATM    8  C9  UNL     1      -2.561   4.554  12.448  1.00  0.00     0.058 A 
ENDROOT
BRANCH   5   9
HETATM    9  C6  UNL     1      -4.288   2.451  14.967  1.00  0.00     0.150 A 
HETATM   10  N2  UNL     1      -5.220   2.438  15.968  1.00  0.00    -0.321 N 
HETATM   11  C7  UNL     1      -5.431   1.145  16.287  1.00  0.00     0.206 A 
ATOM     12  H2  UNL     1      -5.670   3.250  16.390  1.00  0.00     0.169 HD
HETATM   13  N3  UNL     1      -4.660   0.368  15.517  1.00  0.00    -0.280 N 
HETATM   14  N4  UNL     1      -3.984   1.192  14.735  1.00  0.00    -0.282 N 
ATOM     15  H3  UNL     1      -4.604  -0.651  15.530  1.00  0.00     0.188 HD
ATOM     16  H4  UNL     1      -3.307   0.889  14.036  1.00  0.00     0.188 HD
BRANCH  11  17
HETATM   17  C8  UNL     1      -6.414   0.636  17.270  1.00  0.00     0.450 C 
HETATM   18  F1  UNL     1      -7.682   0.729  16.786  1.00  0.00    -0.163 F 
HETATM   19  F2  UNL     1      -6.320   1.517  18.363  1.00  0.00    -0.163 F 
HETATM   20  F3  UNL     1      -6.024  -0.585  17.688  1.00  0.00    -0.163 F 
ENDBRANCH  11  17
ENDBRANCH   5   9
BRANCH   8  21
HETATM   21  C10 UNL     1      -1.676   4.345  11.261  1.00  0.00    -0.049 C 
HETATM   22  C11 UNL     1      -2.277   3.898  10.000  1.00  0.00     0.039 C 
HETATM   23  C12 UNL     1      -1.966   4.684   8.762  1.00  0.00     0.043 C 
HETATM   24  C13 UNL     1      -0.500   4.898   8.533  1.00  0.00     0.257 C 
HETATM   25  C14 UNL     1       0.318   3.659   8.399  1.00  0.00     0.205 C 
HETATM   26  N6  UNL     1       0.116   5.621   9.632  1.00  0.00     0.096 N 
HETATM   27  F4  UNL     1       1.180   3.828   7.295  1.00  0.00    -0.247 F 
HETATM   28  C15 UNL     1       1.229   3.575   9.599  1.00  0.00     0.075 C 
HETATM   29  C16 UNL     1       0.709   4.673  10.501  1.00  0.00     0.230 C 
HETATM   30  C17 UNL     1      -0.245   4.069  11.535  1.00  0.00     0.072 C 
HETATM   31  C18 UNL     1       0.988   6.626   9.094  1.00  0.00     0.311 C 
ENDBRANCH   8  21
BRANCH   1  32
HETATM   32  C2  UNL     1      -3.004   6.923  11.822  1.00  0.00     0.055 C 
HETATM   33  C1  UNL     1      -4.185   7.288  10.963  1.00  0.00     0.011 C 
ENDBRANCH   1  32
TORSDOF 4
ENDMDL
MODEL 4
REMARK VINA RESULT: -7.912405973      3.043      4.590
REMARK  4 active torsions:
REMARK  status: ('A' for Active; 'I' for Inactive)
REMARK    1  A    between atoms: C2_2  and  C3_3 
REMARK    2  A    between atoms: C5_7  and  C6_8 
REMARK    3  A    between atoms: C7_11  and  C8_12 
REMARK    4  A    between atoms: C9_22  and  C10_23 
ROOT
HETATM    1  C3  UNL     1      -1.869   4.947  12.830  1.00  0.00     0.036 A 
HETATM    2  N1  UNL     1      -2.127   3.619  12.825  1.00  0.00    -0.365 N 
ATOM      3  H1  UNL     1      -1.504   2.981  12.330  1.00  0.00     0.165 HD
HETATM    4  C4  UNL     1      -3.201   3.141  13.469  1.00  0.00     0.121 A 
HETATM    5  C5  UNL     1      -4.035   4.018  14.142  1.00  0.00     0.094 A 
HETATM    6  N5  UNL     1      -3.738   5.320  14.109  1.00  0.00    -0.350 N 
ATOM      7  H5  UNL     1      -4.359   5.967  14.595  1.00  0.00     0.166 HD
HETATM    8  C9  UNL     1      -2.660   5.830  13.468  1.00  0.00     0.058 A 
ENDROOT
BRANCH   5   9
HETATM    9  C6  UNL     1      -5.091   3.477  14.988  1.00  0.00     0.150 A 
HETATM   10  N2  UNL     1      -5.103   2.251  15.595  1.00  0.00    -0.321 N 
HETATM   11  C7  UNL     1      -6.190   2.222  16.392  1.00  0.00     0.206 A 
ATOM     12  H2  UNL     1      -4.421   1.504  15.470  1.00  0.00     0.169 HD
HETATM   13  N3  UNL     1      -6.842   3.388  16.293  1.00  0.00    -0.280 N 
HETATM   14  N4  UNL     1      -6.149   4.116  15.435  1.00  0.00    -0.282 N 
ATOM     15  H3  UNL     1      -7.698   3.657  16.778  1.00  0.00     0.188 HD
ATOM     16  H4  UNL     1      -6.405   5.063  15.153  1.00  0.00     0.188 HD
BRANCH  11  17
HETATM   17  C8  UNL     1      -6.577   1.123  17.305  1.00  0.00     0.450 C 
HETATM   18  F1  UNL     1      -7.815   0.651  17.003  1.00  0.00    -0.163 F 
HETATM   19  F2  UNL     1      -6.657   1.721  18.576  1.00  0.00    -0.163 F 
HETATM   20  F3  UNL     1      -5.584   0.212  17.339  1.00  0.00    -0.163 F 
ENDBRANCH  11  17
ENDBRANCH   5   9
BRANCH   8  21
HETATM   21  C10 UNL     1      -2.217   7.242  13.680  1.00  0.00    -0.049 C 
HETATM   22  C11 UNL     1      -2.329   7.824  15.022  1.00  0.00     0.039 C 
HETATM   23  C12 UNL     1      -1.109   8.472  15.606  1.00  0.00     0.043 C 
HETATM   24  C13 UNL     1      -0.473   9.489  14.705  1.00  0.00     0.257 C 
HETATM   25  C14 UNL     1      -1.345  10.631  14.309  1.00  0.00     0.205 C 
HETATM   26  N6  UNL     1      -0.052   8.901  13.445  1.00  0.00     0.096 N 
HETATM   27  F4  UNL     1      -0.595  11.816  14.452  1.00  0.00    -0.247 F 
HETATM   28  C15 UNL     1      -1.615  10.514  12.828  1.00  0.00     0.075 C 
HETATM   29  C16 UNL     1      -1.067   9.146  12.487  1.00  0.00     0.230 C 
HETATM   30  C17 UNL     1      -2.209   8.127  12.491  1.00  0.00     0.072 C 
HETATM   31  C18 UNL     1       1.259   9.387  13.124  1.00  0.00     0.311 C 
ENDBRANCH   8  21
BRANCH   1  32
HETATM   32  C2  UNL     1      -0.704   5.332  12.011  1.00  0.00     0.055 C 
HETATM   33  C1  UNL     1      -0.093   4.126  11.346  1.00  0.00     0.011 C 
ENDBRANCH   1  32
TORSDOF 4
ENDMDL
MODEL 5
REMARK VINA RESULT: -7.808564347      1.519      1.754
REMARK  4 active torsions:
REMARK  status: ('A' for Active; 'I' for Inactive)
REMARK    1  A    between atoms: C2_2  and  C3_3 
REMARK    2  A    between atoms: C5_7  and  C6_8 
REMARK    3  A    between atoms: C7_11  and  C8_12 
REMARK    4  A    between atoms: C9_22  and  C10_23 
ROOT
HETATM    1  C3  UNL     1      -3.261   3.491  10.747  1.00  0.00     0.036 A 
HETATM    2  N1  UNL     1      -4.426   2.807  10.837  1.00  0.00    -0.365 N 
ATOM      3  H1  UNL     1      -5.004   2.675  10.008  1.00  0.00     0.165 HD
HETATM    4  C4  UNL     1      -4.819   2.303  12.015  1.00  0.00     0.121 A 
HETATM    5  C5  UNL     1      -4.020   2.484  13.132  1.00  0.00     0.094 A 
HETATM    6  N5  UNL     1      -2.885   3.173  12.989  1.00  0.00    -0.350 N 
ATOM      7  H5  UNL     1      -2.303   3.316  13.814  1.00  0.00     0.166 HD
HETATM    8  C9  UNL     1      -2.463   3.692  11.812  1.00  0.00     0.058 A 
ENDROOT
BRANCH   5   9
HETATM    9  C6  UNL     1      -4.360   1.780  14.361  1.00  0.00     0.150 A 
HETATM   10  N2  UNL     1      -5.229   2.201  15.330  1.00  0.00    -0.321 N 
HETATM   11  C7  UNL     1      -5.354   1.186  16.209  1.00  0.00     0.206 A 
ATOM     12  H2  UNL     1      -5.693   3.107  15.379  1.00  0.00     0.169 HD
HETATM   13  N3  UNL     1      -4.591   0.159  15.810  1.00  0.00    -0.280 N 
HETATM   14  N4  UNL     1      -4.007   0.557  14.694  1.00  0.00    -0.282 N 
ATOM     15  H3  UNL     1      -4.483  -0.743  16.273  1.00  0.00     0.188 HD
ATOM     16  H4  UNL     1      -3.358  -0.015  14.154  1.00  0.00     0.188 HD
BRANCH  11  17
HETATM   17  C8  UNL     1      -6.249   1.154  17.387  1.00  0.00     0.450 C 
HETATM   18  F1  UNL     1      -7.368   0.425  17.131  1.00  0.00    -0.163 F 
HETATM   19  F2  UNL     1      -6.653   2.489  17.568  1.00  0.00    -0.163 F 
HETATM   20  F3  UNL     1      -5.535   0.788  18.470  1.00  0.00    -0.163 F 
ENDBRANCH  11  17
ENDBRANCH   5   9
BRANCH   8  21
HETATM   21  C10 UNL     1      -1.073   4.214  11.639  1.00  0.00    -0.049 C 
HETATM   22  C11 UNL     1       0.009   3.265  11.358  1.00  0.00     0.039 C 
HETATM   23  C12 UNL     1       0.894   3.544  10.180  1.00  0.00     0.043 C 
HETATM   24  C13 UNL     1       1.471   4.929  10.170  1.00  0.00     0.257 C 
HETATM   25  C14 UNL     1       2.305   5.286  11.352  1.00  0.00     0.205 C 
HETATM   26  N6  UNL     1       0.431   5.942  10.140  1.00  0.00     0.096 N 
HETATM   27  F4  UNL     1       3.474   5.918  10.880  1.00  0.00    -0.247 F 
HETATM   28  C15 UNL     1       1.571   6.351  12.130  1.00  0.00     0.075 C 
HETATM   29  C16 UNL     1       0.210   6.382  11.469  1.00  0.00     0.230 C 
HETATM   30  C17 UNL     1      -0.764   5.518  12.274  1.00  0.00     0.072 C 
HETATM   31  C18 UNL     1       0.796   6.952   9.187  1.00  0.00     0.311 C 
ENDBRANCH   8  21
BRANCH   1  32
HETATM   32  C2  UNL     1      -3.004   4.057   9.410  1.00  0.00     0.055 C 
HETATM   33  C1  UNL     1      -3.629   5.421   9.274  1.00  0.00     0.011 C 
ENDBRANCH   1  32
TORSDOF 4
ENDMDL
