MODEL 1
REMARK VINA RESULT: -7.950519860      0.000      0.000
REMARK  5 active torsions:
REMARK  status: ('A' for Active; 'I' for Inactive)
REMARK    1  A    between atoms: O1_2  and  C2_3 
REMARK    2  A    between atoms: C3_4  and  O2_5 
REMARK    3  A    between atoms: C4_7  and  N1_8 
REMARK    4  A    between atoms: C5_10  and  C6_11 
REMARK    5  A    between atoms: C6_11  and  C7_12 
REMARK       I    between atoms: N2_22  and  C13_24 
REMARK       I    between atoms: C13_24  and  N3_26 
ROOT
HETATM    1  C2  UNL     1      -2.963   1.257  11.848  1.00  0.00     0.137 A 
HETATM    2  C3  UNL     1      -3.976   1.328  12.783  1.00  0.00     0.129 A 
HETATM    3  C4  UNL     1      -4.397   2.566  13.215  1.00  0.00     0.068 A 
HETATM    4  C8  UNL     1      -3.781   3.701  12.691  1.00  0.00     0.042 A 
HETATM    5  C9  UNL     1      -2.769   3.628  11.758  1.00  0.00    -0.019 A 
HETATM    6  C10 UNL     1      -2.356   2.390  11.332  1.00  0.00     0.111 A 
HETATM    7  O3  UNL     1      -1.363   2.095  10.408  1.00  0.00    -0.342 OA
HETATM    8  C11 UNL     1      -0.914   2.911   9.322  1.00  0.00     0.228 C 
HETATM    9  C12 UNL     1      -0.361   4.166   9.888  1.00  0.00     0.015 C 
HETATM   10  N2  UNL     1       0.607   4.684   9.210  1.00  0.00    -0.314 N 
ATOM     11  H2  UNL     1       1.016   5.548   9.565  1.00  0.00     0.170 HD
HETATM   12  C13 UNL     1       1.141   4.159   8.029  1.00  0.00     0.321 C 
HETATM   13  O4  UNL     1       0.392   3.979   7.040  1.00  0.00    -0.247 OA
HETATM   14  N3  UNL     1       2.512   3.821   7.903  1.00  0.00    -0.343 N 
HETATM   15  C14 UNL     1       3.055   3.278   6.673  1.00  0.00     0.154 C 
HETATM   16  C15 UNL     1       3.450   3.999   9.004  1.00  0.00     0.154 C 
HETATM   17  C16 UNL     1      -0.748   4.901  11.098  1.00  0.00     0.059 C 
HETATM   18  C17 UNL     1      -2.244   4.935  11.324  1.00  0.00     0.047 C 
ENDROOT
BRANCH   3  19
HETATM   19  N1  UNL     1      -5.430   2.654  14.167  1.00  0.00    -0.367 N 
HETATM   20  C5  UNL     1      -5.210   2.763  15.443  1.00  0.00     0.070 C 
ATOM     21  H1  UNL     1      -6.396   2.630  13.841  1.00  0.00     0.165 HD
BRANCH  20  22
HETATM   22  C6  UNL     1      -6.350   2.851  16.392  1.00  0.00     0.162 C 
BRANCH  22  23
HETATM   23  C7  UNL     1      -6.201   1.745  17.404  1.00  0.00     0.392 C 
HETATM   24  F1  UNL     1      -4.939   1.199  17.273  1.00  0.00    -0.171 F 
HETATM   25  F2  UNL     1      -6.314   2.242  18.692  1.00  0.00    -0.171 F 
HETATM   26  F3  UNL     1      -7.201   0.807  17.225  1.00  0.00    -0.171 F 
ENDBRANCH  22  23
ENDBRANCH  20  22
ENDBRANCH   3  19
BRANCH   2  27
HETATM   27  O2  UNL     1      -4.515   0.131  13.234  1.00  0.00    -0.356 OA
ATOM     28  H2  UNL     1      -5.145  -0.305  12.673  1.00  0.00     0.218 HD
ENDBRANCH   2  27
BRANCH   1  29
HETATM   29  O1  UNL     1      -2.508   0.029  11.385  1.00  0.00    -0.351 OA
HETATM   30  C1  UNL     1      -3.313  -0.601  10.386  1.00  0.00     0.210 C 
ENDBRANCH   1  29
TORSDOF 5
ENDMDL
MODEL 2
REMARK VINA RESULT: -7.780402819      2.226      2.463
REMARK  5 active torsions:
REMARK  status: ('A' for Active; 'I' for Inactive)
REMARK    1  A    between atoms: O1_2  and  C2_3 
REMARK    2  A    between atoms: C3_4  and  O2_5 
REMARK    3  A    between atoms: C4_7  and  N1_8 
REMARK    4  A    between atoms: C5_10  and  C6_11 
REMARK    5  A    between atoms: C6_11  and  C7_12 
REMARK       I    between atoms: N2_22  and  C13_24 
REMARK       I    between atoms: C13_24  and  N3_26 
ROOT
HETATM    1  C2  UNL     1      -3.741   1.462  11.649  1.00  0.00     0.137 A 
HETATM    2  C3  UNL     1      -4.186   0.931  12.843  1.00  0.00     0.129 A 
HETATM    3  C4  UNL     1      -4.382   1.774  13.914  1.00  0.00     0.068 A 
HETATM    4  C8  UNL     1      -4.122   3.133  13.750  1.00  0.00     0.042 A 
HETATM    5  C9  UNL     1      -3.677   3.661  12.557  1.00  0.00    -0.019 A 
HETATM    6  C10 UNL     1      -3.484   2.814  11.495  1.00  0.00     0.111 A 
HETATM    7  O3  UNL     1      -3.045   3.136  10.218  1.00  0.00    -0.342 OA
HETATM    8  C11 UNL     1      -3.191   4.386   9.536  1.00  0.00     0.228 C 
HETATM    9  C12 UNL     1      -2.469   5.421  10.315  1.00  0.00     0.015 C 
HETATM   10  N2  UNL     1      -1.957   6.370   9.607  1.00  0.00    -0.314 N 
ATOM     11  H2  UNL     1      -1.450   7.104  10.104  1.00  0.00     0.170 HD
HETATM   12  C13 UNL     1      -2.037   6.478   8.216  1.00  0.00     0.321 C 
HETATM   13  O4  UNL     1      -3.162   6.518   7.664  1.00  0.00    -0.247 OA
HETATM   14  N3  UNL     1      -0.884   6.545   7.393  1.00  0.00    -0.343 N 
HETATM   15  C14 UNL     1      -0.980   6.657   5.950  1.00  0.00     0.154 C 
HETATM   16  C15 UNL     1       0.460   6.504   7.954  1.00  0.00     0.154 C 
HETATM   17  C16 UNL     1      -2.251   5.526  11.762  1.00  0.00     0.059 C 
HETATM   18  C17 UNL     1      -3.458   5.119  12.580  1.00  0.00     0.047 C 
ENDROOT
BRANCH   3  19
HETATM   19  N1  UNL     1      -4.837   1.246  15.137  1.00  0.00    -0.367 N 
HETATM   20  C5  UNL     1      -4.664   1.846  16.276  1.00  0.00     0.070 C 
ATOM     21  H1  UNL     1      -5.326   0.351  15.129  1.00  0.00     0.165 HD
BRANCH  20  22
HETATM   22  C6  UNL     1      -5.171   1.231  17.530  1.00  0.00     0.162 C 
BRANCH  22  23
HETATM   23  C7  UNL     1      -6.430   1.956  17.929  1.00  0.00     0.392 C 
HETATM   24  F1  UNL     1      -6.319   2.326  19.255  1.00  0.00    -0.171 F 
HETATM   25  F2  UNL     1      -6.588   3.110  17.180  1.00  0.00    -0.171 F 
HETATM   26  F3  UNL     1      -7.529   1.149  17.697  1.00  0.00    -0.171 F 
ENDBRANCH  22  23
ENDBRANCH  20  22
ENDBRANCH   3  19
BRANCH   2  27
HETATM   27  O2  UNL     1      -4.412  -0.438  12.889  1.00  0.00    -0.356 OA
ATOM     28  H2  UNL     1      -3.747  -0.978  13.298  1.00  0.00     0.218 HD
ENDBRANCH   2  27
BRANCH   1  29
HETATM   29  O1  UNL     1      -3.529   0.648  10.544  1.00  0.00    -0.351 OA
HETATM   30  C1  UNL     1      -2.342  -0.149  10.572  1.00  0.00     0.210 C 
ENDBRANCH   1  29
TORSDOF 5
ENDMDL
MODEL 3
REMARK VINA RESULT: -7.523989892      1.261      1.530
REMARK  5 active torsions:
REMARK  status: ('A' for Active; 'I' for Inactive)
REMARK    1  A    between atoms: O1_2  and  C2_3 
REMARK    2  A    between atoms: C3_4  and  O2_5 
REMARK    3  A    between atoms: C4_7  and  N1_8 
REMARK    4  A    between atoms: C5_10  and  C6_11 
REMARK    5  A    between atoms: C6_11  and  C7_12 
REMARK       I    between atoms: N2_22  and  C13_24 
REMARK       I    between atoms: C13_24  and  N3_26 
ROOT
HETATM    1  C2  UNL     1      -3.361   2.276  11.573  1.00  0.00     0.137 A 
HETATM    2  C3  UNL     1      -4.388   2.109  12.481  1.00  0.00     0.129 A 
HETATM    3  C4  UNL     1      -4.611   3.089  13.422  1.00  0.00     0.068 A 
HETATM    4  C8  UNL     1      -3.789   4.214  13.422  1.00  0.00     0.042 A 
HETATM    5  C9  UNL     1      -2.763   4.379  12.515  1.00  0.00    -0.019 A 
HETATM    6  C10 UNL     1      -2.548   3.398  11.580  1.00  0.00     0.111 A 
HETATM    7  O3  UNL     1      -1.580   3.365  10.586  1.00  0.00    -0.342 OA
HETATM    8  C11 UNL     1      -0.951   4.481   9.948  1.00  0.00     0.228 C 
HETATM    9  C12 UNL     1      -0.218   5.250  10.983  1.00  0.00     0.015 C 
HETATM   10  N2  UNL     1       0.852   5.835  10.564  1.00  0.00    -0.314 N 
ATOM     11  H2  UNL     1       1.387   6.375  11.245  1.00  0.00     0.170 HD
HETATM   12  C13 UNL     1       1.341   5.791   9.255  1.00  0.00     0.321 C 
HETATM   13  O4  UNL     1       0.617   6.189   8.312  1.00  0.00    -0.247 OA
HETATM   14  N3  UNL     1       2.639   5.310   8.947  1.00  0.00    -0.343 N 
HETATM   15  C14 UNL     1       3.136   5.269   7.585  1.00  0.00     0.154 C 
HETATM   16  C15 UNL     1       3.544   4.829   9.984  1.00  0.00     0.154 C 
HETATM   17  C16 UNL     1      -0.527   5.443  12.404  1.00  0.00     0.059 C 
HETATM   18  C17 UNL     1      -2.004   5.633  12.674  1.00  0.00     0.047 C 
ENDROOT
BRANCH   3  19
HETATM   19  N1  UNL     1      -5.655   2.932  14.353  1.00  0.00    -0.367 N 
HETATM   20  C5  UNL     1      -5.468   2.953  15.638  1.00  0.00     0.070 C 
ATOM     21  H1  UNL     1      -6.603   2.796  14.002  1.00  0.00     0.165 HD
BRANCH  20  22
HETATM   22  C6  UNL     1      -6.617   2.780  16.564  1.00  0.00     0.162 C 
BRANCH  22  23
HETATM   23  C7  UNL     1      -6.277   1.676  17.530  1.00  0.00     0.392 C 
HETATM   24  F1  UNL     1      -7.178   0.645  17.351  1.00  0.00    -0.171 F 
HETATM   25  F2  UNL     1      -5.009   1.178  17.277  1.00  0.00    -0.171 F 
HETATM   26  F3  UNL     1      -6.287   2.165  18.823  1.00  0.00    -0.171 F 
ENDBRANCH  22  23
ENDBRANCH  20  22
ENDBRANCH   3  19
BRANCH   2  27
HETATM   27  O2  UNL     1      -5.143   0.947  12.386  1.00  0.00    -0.356 OA
ATOM     28  H2  UNL     1      -5.709   0.853  11.629  1.00  0.00     0.218 HD
ENDBRANCH   2  27
BRANCH   1  29
HETATM   29  O1  UNL     1      -3.102   1.313  10.608  1.00  0.00    -0.351 OA
HETATM   30  C1  UNL     1      -2.212   0.262  10.996  1.00  0.00     0.210 C 
ENDBRANCH   1  29
TORSDOF 5
ENDMDL
MODEL 4
REMARK VINA RESULT: -7.412969498      2.166      2.420
REMARK  5 active torsions:
REMARK  status: ('A' for Active; 'I' for Inactive)
REMARK    1  A    between atoms: O1_2  and  C2_3 
REMARK    2  A    between atoms: C3_4  and  O2_5 
REMARK    3  A    between atoms: C4_7  and  N1_8 
REMARK    4  A    between atoms: C5_10  and  C6_11 
REMARK    5  A    between atoms: C6_11  and  C7_12 
REMARK       I    between atoms: N2_22  and  C13_24 
REMARK       I    between atoms: C13_24  and  N3_26 
ROOT
HETATM    1  C2  UNL     1      -3.400   1.882  11.874  1.00  0.00     0.137 A 
HETATM    2  C3  UNL     1      -4.013   1.285  12.958  1.00  0.00     0.129 A 
HETATM    3  C4  UNL     1      -4.276   2.045  14.075  1.00  0.00     0.068 A 
HETATM    4  C8  UNL     1      -3.913   3.390  14.069  1.00  0.00     0.042 A 
HETATM    5  C9  UNL     1      -3.300   3.984  12.986  1.00  0.00    -0.019 A 
HETATM    6  C10 UNL     1      -3.041   3.219  11.877  1.00  0.00     0.111 A 
HETATM    7  O3  UNL     1      -2.438   3.616  10.691  1.00  0.00    -0.342 OA
HETATM    8  C11 UNL     1      -2.424   4.927  10.118  1.00  0.00     0.228 C 
HETATM    9  C12 UNL     1      -1.731   5.835  11.064  1.00  0.00     0.015 C 
HETATM   10  N2  UNL     1      -1.081   6.801  10.508  1.00  0.00    -0.314 N 
ATOM     11  H2  UNL     1      -0.589   7.449  11.123  1.00  0.00     0.170 HD
HETATM   12  C13 UNL     1      -0.994   7.033   9.132  1.00  0.00     0.321 C 
HETATM   13  O4  UNL     1      -2.043   7.204   8.468  1.00  0.00    -0.247 OA
HETATM   14  N3  UNL     1       0.248   7.084   8.450  1.00  0.00    -0.343 N 
HETATM   15  C14 UNL     1       0.327   7.327   7.022  1.00  0.00     0.154 C 
HETATM   16  C15 UNL     1       1.514   6.896   9.147  1.00  0.00     0.154 C 
HETATM   17  C16 UNL     1      -1.675   5.799  12.530  1.00  0.00     0.059 C 
HETATM   18  C17 UNL     1      -2.991   5.414  13.169  1.00  0.00     0.047 C 
ENDROOT
BRANCH   3  19
HETATM   19  N1  UNL     1      -4.902   1.449  15.187  1.00  0.00    -0.367 N 
HETATM   20  C5  UNL     1      -4.587   1.734  16.414  1.00  0.00     0.070 C 
ATOM     21  H1  UNL     1      -5.638   0.762  15.021  1.00  0.00     0.165 HD
BRANCH  20  22
HETATM   22  C6  UNL     1      -5.289   1.067  17.541  1.00  0.00     0.162 C 
BRANCH  22  23
HETATM   23  C7  UNL     1      -6.480   1.911  17.914  1.00  0.00     0.392 C 
HETATM   24  F1  UNL     1      -6.464   3.055  17.141  1.00  0.00    -0.171 F 
HETATM   25  F2  UNL     1      -7.661   1.237  17.646  1.00  0.00    -0.171 F 
HETATM   26  F3  UNL     1      -6.452   2.189  19.268  1.00  0.00    -0.171 F 
ENDBRANCH  22  23
ENDBRANCH  20  22
ENDBRANCH   3  19
BRANCH   2  27
HETATM   27  O2  UNL     1      -4.330  -0.063  12.851  1.00  0.00    -0.356 OA
ATOM     28  H2  UNL     1      -4.945  -0.419  13.481  1.00  0.00     0.218 HD
ENDBRANCH   2  27
BRANCH   1  29
HETATM   29  O1  UNL     1      -3.115   1.152  10.728  1.00  0.00    -0.351 OA
HETATM   30  C1  UNL     1      -1.876   0.438  10.732  1.00  0.00     0.210 C 
ENDBRANCH   1  29
TORSDOF 5
ENDMDL
MODEL 5
REMARK VINA RESULT: -7.380496924      2.928      3.259
REMARK  5 active torsions:
REMARK  status: ('A' for Active; 'I' for Inactive)
REMARK    1  A    between atoms: O1_2  and  C2_3 
REMARK    2  A    between atoms: C3_4  and  O2_5 
REMARK    3  A    between atoms: C4_7  and  N1_8 
REMARK    4  A    between atoms: C5_10  and  C6_11 
REMARK    5  A    between atoms: C6_11  and  C7_12 
REMARK       I    between atoms: N2_22  and  C13_24 
REMARK       I    between atoms: C13_24  and  N3_26 
ROOT
HETATM    1  C2  UNL     1      -3.423   2.138  11.543  1.00  0.00     0.137 A 
HETATM    2  C3  UNL     1      -3.824   1.475  12.686  1.00  0.00     0.129 A 
HETATM    3  C4  UNL     1      -4.407   2.197  13.703  1.00  0.00     0.068 A 
HETATM    4  C8  UNL     1      -4.570   3.571  13.539  1.00  0.00     0.042 A 
HETATM    5  C9  UNL     1      -4.168   4.231  12.397  1.00  0.00    -0.019 A 
HETATM    6  C10 UNL     1      -3.587   3.504  11.388  1.00  0.00     0.111 A 
HETATM    7  O3  UNL     1      -3.116   3.968  10.167  1.00  0.00    -0.342 OA
HETATM    8  C11 UNL     1      -3.561   5.118   9.443  1.00  0.00     0.228 C 
HETATM    9  C12 UNL     1      -3.304   6.316  10.279  1.00  0.00     0.015 C 
HETATM   10  N2  UNL     1      -3.033   7.389   9.616  1.00  0.00    -0.314 N 
ATOM     11  H2  UNL     1      -2.849   8.237  10.153  1.00  0.00     0.170 HD
HETATM   12  C13 UNL     1      -2.968   7.487   8.223  1.00  0.00     0.321 C 
HETATM   13  O4  UNL     1      -3.971   7.179   7.536  1.00  0.00    -0.247 OA
HETATM   14  N3  UNL     1      -1.802   7.927   7.547  1.00  0.00    -0.343 N 
HETATM   15  C14 UNL     1      -1.747   8.026   6.101  1.00  0.00     0.154 C 
HETATM   16  C15 UNL     1      -0.594   8.304   8.270  1.00  0.00     0.154 C 
HETATM   17  C16 UNL     1      -3.313   6.462  11.739  1.00  0.00     0.059 C 
HETATM   18  C17 UNL     1      -4.423   5.683  12.411  1.00  0.00     0.047 C 
ENDROOT
BRANCH   3  19
HETATM   19  N1  UNL     1      -4.823   1.534  14.874  1.00  0.00    -0.367 N 
HETATM   20  C5  UNL     1      -4.671   2.034  16.062  1.00  0.00     0.070 C 
ATOM     21  H1  UNL     1      -5.262   0.618  14.784  1.00  0.00     0.165 HD
BRANCH  20  22
HETATM   22  C6  UNL     1      -5.133   1.278  17.256  1.00  0.00     0.162 C 
BRANCH  22  23
HETATM   23  C7  UNL     1      -6.392   1.931  17.763  1.00  0.00     0.392 C 
HETATM   24  F1  UNL     1      -6.586   3.108  17.066  1.00  0.00    -0.171 F 
HETATM   25  F2  UNL     1      -7.491   1.118  17.533  1.00  0.00    -0.171 F 
HETATM   26  F3  UNL     1      -6.298   2.136  19.127  1.00  0.00    -0.171 F 
ENDBRANCH  22  23
ENDBRANCH  20  22
ENDBRANCH   3  19
BRANCH   2  27
HETATM   27  O2  UNL     1      -3.612   0.104  12.738  1.00  0.00    -0.356 OA
ATOM     28  H2  UNL     1      -3.680  -0.381  11.924  1.00  0.00     0.218 HD
ENDBRANCH   2  27
BRANCH   1  29
HETATM   29  O1  UNL     1      -2.830   1.449  10.493  1.00  0.00    -0.351 OA
HETATM   30  C1  UNL     1      -1.441   1.142  10.650  1.00  0.00     0.210 C 
ENDBRANCH   1  29
TORSDOF 5
ENDMDL
