MODEL 1
REMARK VINA RESULT: -8.295283516      0.000      0.000
REMARK  8 active torsions:
REMARK  status: ('A' for Active; 'I' for Inactive)
REMARK    1  A    between atoms: C1_2  and  C2_3 
REMARK       I    between atoms: C1_2  and  N3_24 
REMARK    2  A    between atoms: C3_4  and  C4_5 
REMARK    3  A    between atoms: C4_5  and  N1_6 
REMARK    4  A    between atoms: C10_12  and  O2_13 
REMARK    5  A    between atoms: O2_13  and  C11_14 
REMARK    6  A    between atoms: C11_14  and  C12_15 
REMARK    7  A    between atoms: C12_15  and  N2_16 
REMARK    8  A    between atoms: N4_27  and  O3_29 
ROOT
HETATM    1  O1  UNL     1       7.632  54.600  89.996  1.00  0.00    -0.268 OA
HETATM    2  C1  UNL     1       8.855  54.215  89.858  1.00  0.00     0.248 C 
HETATM    3  N3  UNL     1       9.526  53.882  91.018  1.00  0.00    -0.304 N 
HETATM    4  C20 UNL     1       8.843  53.112  92.111  1.00  0.00     0.219 C 
HETATM    5  C21 UNL     1       9.695  51.853  92.145  1.00  0.00     0.162 C 
HETATM    6  N4  UNL     1       9.207  50.685  91.995  1.00  0.00    -0.249 N 
ATOM      7  H4  UNL     1       9.808  49.862  92.022  1.00  0.00     0.196 HD
HETATM    8  O4  UNL     1      11.071  52.085  92.354  1.00  0.00    -0.292 OA
HETATM    9  C22 UNL     1      11.691  53.241  91.889  1.00  0.00     0.106 A 
HETATM   10  C23 UNL     1      13.006  53.544  92.057  1.00  0.00     0.071 A 
HETATM   11  C24 UNL     1      13.558  54.732  91.573  1.00  0.00     0.066 A 
HETATM   12  N5  UNL     1      14.798  55.245  91.616  1.00  0.00    -0.306 N 
ATOM     13  H5  UNL     1      15.603  54.796  92.053  1.00  0.00     0.170 HD
HETATM   14  C25 UNL     1      14.822  56.454  90.991  1.00  0.00     0.325 A 
HETATM   15  O5  UNL     1      15.842  57.196  90.859  1.00  0.00    -0.247 OA
HETATM   16  N6  UNL     1      13.575  56.666  90.566  1.00  0.00    -0.306 N 
ATOM     17  H6  UNL     1      13.269  57.494  90.056  1.00  0.00     0.170 HD
HETATM   18  C26 UNL     1      12.776  55.639  90.903  1.00  0.00     0.065 A 
HETATM   19  C27 UNL     1      11.445  55.342  90.724  1.00  0.00     0.064 A 
HETATM   20  C28 UNL     1      10.906  54.154  91.210  1.00  0.00     0.074 A 
ENDROOT
BRANCH   2  21
HETATM   21  C2  UNL     1       9.349  54.180  88.518  1.00  0.00     0.076 C 
HETATM   22  C3  UNL     1       9.840  53.172  87.837  1.00  0.00     0.023 C 
BRANCH  22  23
HETATM   23  C4  UNL     1      10.309  53.375  86.426  1.00  0.00     0.095 C 
BRANCH  23  24
HETATM   24  N1  UNL     1      11.709  53.370  86.267  1.00  0.00    -0.346 N 
HETATM   25  C5  UNL     1      12.446  54.546  86.445  1.00  0.00     0.073 C 
HETATM   26  C6  UNL     1      13.944  54.326  86.563  1.00  0.00     0.084 C 
HETATM   27  C7  UNL     1      14.329  53.518  85.379  1.00  0.00    -0.042 A 
HETATM   28  C8  UNL     1      15.450  53.825  84.613  1.00  0.00     0.011 A 
HETATM   29  C18 UNL     1      13.524  52.451  85.058  1.00  0.00    -0.011 A 
HETATM   30  C9  UNL     1      15.739  53.038  83.523  1.00  0.00     0.037 A 
HETATM   31  C10 UNL     1      14.959  51.967  83.171  1.00  0.00     0.069 A 
HETATM   32  C17 UNL     1      13.846  51.690  83.960  1.00  0.00     0.050 A 
HETATM   33  C19 UNL     1      12.351  52.169  85.920  1.00  0.00     0.107 C 
BRANCH  31  34
HETATM   34  O2  UNL     1      15.154  51.131  82.120  1.00  0.00    -0.349 OA
BRANCH  34  35
HETATM   35  C11 UNL     1      14.485  50.905  80.949  1.00  0.00     0.206 C 
BRANCH  35  36
HETATM   36  C12 UNL     1      13.550  49.753  80.882  1.00  0.00     0.299 C 
BRANCH  36  37
HETATM   37  N2  UNL     1      12.179  50.279  80.815  1.00  0.00     0.090 N 
HETATM   38  C13 UNL     1      12.181  51.728  80.779  1.00  0.00     0.272 C 
HETATM   39  C14 UNL     1      10.702  52.034  81.050  1.00  0.00     0.032 C 
HETATM   40  C15 UNL     1      10.398  51.040  82.148  1.00  0.00     0.032 C 
HETATM   41  C16 UNL     1      11.465  49.971  82.044  1.00  0.00     0.272 C 
ENDBRANCH  36  37
ENDBRANCH  35  36
ENDBRANCH  34  35
ENDBRANCH  31  34
ENDBRANCH  23  24
ENDBRANCH  22  23
ENDBRANCH   2  21
BRANCH   6  42
HETATM   42  O3  UNL     1       7.871  50.560  91.797  1.00  0.00    -0.288 OA
ATOM     43  H3  UNL     1       7.350  50.138  92.470  1.00  0.00     0.244 HD
ENDBRANCH   6  42
TORSDOF 8
ENDMDL
MODEL 2
REMARK VINA RESULT: -7.808318793      3.624      9.323
REMARK  8 active torsions:
REMARK  status: ('A' for Active; 'I' for Inactive)
REMARK    1  A    between atoms: C1_2  and  C2_3 
REMARK       I    between atoms: C1_2  and  N3_24 
REMARK    2  A    between atoms: C3_4  and  C4_5 
REMARK    3  A    between atoms: C4_5  and  N1_6 
REMARK    4  A    between atoms: C10_12  and  O2_13 
REMARK    5  A    between atoms: O2_13  and  C11_14 
REMARK    6  A    between atoms: C11_14  and  C12_15 
REMARK    7  A    between atoms: C12_15  and  N2_16 
REMARK    8  A    between atoms: N4_27  and  O3_29 
ROOT
HETATM    1  O1  UNL     1      10.689  51.619  86.336  1.00  0.00    -0.268 OA
HETATM    2  C1  UNL     1      11.938  51.477  86.045  1.00  0.00     0.248 C 
HETATM    3  N3  UNL     1      12.589  52.603  85.581  1.00  0.00    -0.304 N 
HETATM    4  C20 UNL     1      12.331  53.951  86.190  1.00  0.00     0.219 C 
HETATM    5  C21 UNL     1      13.712  54.288  86.726  1.00  0.00     0.162 C 
HETATM    6  N4  UNL     1      13.928  54.569  87.951  1.00  0.00    -0.249 N 
ATOM      7  H4  UNL     1      14.869  54.790  88.277  1.00  0.00     0.196 HD
HETATM    8  O4  UNL     1      14.737  54.263  85.757  1.00  0.00    -0.292 OA
HETATM    9  C22 UNL     1      14.689  53.392  84.673  1.00  0.00     0.106 A 
HETATM   10  C23 UNL     1      15.628  53.312  83.692  1.00  0.00     0.071 A 
HETATM   11  C24 UNL     1      15.507  52.420  82.625  1.00  0.00     0.066 A 
HETATM   12  N5  UNL     1      16.282  52.163  81.558  1.00  0.00    -0.306 N 
ATOM     13  H5  UNL     1      17.165  52.629  81.350  1.00  0.00     0.170 HD
HETATM   14  C25 UNL     1      15.714  51.189  80.795  1.00  0.00     0.325 A 
HETATM   15  O5  UNL     1      16.196  50.720  79.720  1.00  0.00    -0.247 OA
HETATM   16  N6  UNL     1      14.581  50.857  81.418  1.00  0.00    -0.306 N 
ATOM     17  H6  UNL     1      13.927  50.147  81.090  1.00  0.00     0.170 HD
HETATM   18  C26 UNL     1      14.421  51.587  82.536  1.00  0.00     0.065 A 
HETATM   19  C27 UNL     1      13.466  51.656  83.523  1.00  0.00     0.064 A 
HETATM   20  C28 UNL     1      13.598  52.548  84.583  1.00  0.00     0.074 A 
ENDROOT
BRANCH   2  21
HETATM   21  C2  UNL     1      12.481  50.172  86.250  1.00  0.00     0.076 C 
HETATM   22  C3  UNL     1      12.113  49.025  85.730  1.00  0.00     0.023 C 
BRANCH  22  23
HETATM   23  C4  UNL     1      12.837  47.764  86.101  1.00  0.00     0.095 C 
BRANCH  23  24
HETATM   24  N1  UNL     1      12.742  47.411  87.461  1.00  0.00    -0.346 N 
HETATM   25  C5  UNL     1      11.557  46.871  87.973  1.00  0.00     0.073 C 
HETATM   26  C6  UNL     1      11.704  46.246  89.348  1.00  0.00     0.084 C 
HETATM   27  C7  UNL     1      12.337  47.284  90.199  1.00  0.00    -0.042 A 
HETATM   28  C8  UNL     1      11.875  47.566  91.481  1.00  0.00     0.011 A 
HETATM   29  C18 UNL     1      13.401  47.972  89.664  1.00  0.00    -0.011 A 
HETATM   30  C9  UNL     1      12.504  48.550  92.207  1.00  0.00     0.037 A 
HETATM   31  C10 UNL     1      13.567  49.258  91.707  1.00  0.00     0.069 A 
HETATM   32  C17 UNL     1      14.002  48.949  90.421  1.00  0.00     0.050 A 
HETATM   33  C19 UNL     1      13.853  47.618  88.298  1.00  0.00     0.107 C 
BRANCH  31  34
HETATM   34  O2  UNL     1      14.255  50.243  92.336  1.00  0.00    -0.349 OA
BRANCH  34  35
HETATM   35  C11 UNL     1      14.009  51.023  93.432  1.00  0.00     0.206 C 
BRANCH  35  36
HETATM   36  C12 UNL     1      13.034  52.136  93.301  1.00  0.00     0.299 C 
BRANCH  36  37
HETATM   37  N2  UNL     1      13.689  53.373  93.748  1.00  0.00     0.090 N 
HETATM   38  C13 UNL     1      12.877  54.063  94.730  1.00  0.00     0.272 C 
HETATM   39  C14 UNL     1      13.571  55.431  94.783  1.00  0.00     0.032 C 
HETATM   40  C15 UNL     1      13.830  55.680  93.313  1.00  0.00     0.032 C 
HETATM   41  C16 UNL     1      13.771  54.321  92.648  1.00  0.00     0.272 C 
ENDBRANCH  36  37
ENDBRANCH  35  36
ENDBRANCH  34  35
ENDBRANCH  31  34
ENDBRANCH  23  24
ENDBRANCH  22  23
ENDBRANCH   2  21
BRANCH   6  42
HETATM   42  O3  UNL     1      12.880  54.568  88.812  1.00  0.00    -0.288 OA
ATOM     43  H3  UNL     1      12.074  54.997  88.548  1.00  0.00     0.244 HD
ENDBRANCH   6  42
TORSDOF 8
ENDMDL
MODEL 3
REMARK VINA RESULT: -7.664535910      2.214      3.126
REMARK  8 active torsions:
REMARK  status: ('A' for Active; 'I' for Inactive)
REMARK    1  A    between atoms: C1_2  and  C2_3 
REMARK       I    between atoms: C1_2  and  N3_24 
REMARK    2  A    between atoms: C3_4  and  C4_5 
REMARK    3  A    between atoms: C4_5  and  N1_6 
REMARK    4  A    between atoms: C10_12  and  O2_13 
REMARK    5  A    between atoms: O2_13  and  C11_14 
REMARK    6  A    between atoms: C11_14  and  C12_15 
REMARK    7  A    between atoms: C12_15  and  N2_16 
REMARK    8  A    between atoms: N4_27  and  O3_29 
ROOT
HETATM    1  O1  UNL     1       9.233  53.814  86.360  1.00  0.00    -0.268 OA
HETATM    2  C1  UNL     1      10.303  53.466  86.991  1.00  0.00     0.248 C 
HETATM    3  N3  UNL     1      10.124  52.672  88.107  1.00  0.00    -0.304 N 
HETATM    4  C20 UNL     1       9.116  51.559  88.109  1.00  0.00     0.219 C 
HETATM    5  C21 UNL     1      10.022  50.357  88.321  1.00  0.00     0.162 C 
HETATM    6  N4  UNL     1      10.053  49.366  87.520  1.00  0.00    -0.249 N 
ATOM      7  H4  UNL     1      10.674  48.575  87.693  1.00  0.00     0.196 HD
HETATM    8  O4  UNL     1      10.827  50.429  89.478  1.00  0.00    -0.292 OA
HETATM    9  C22 UNL     1      11.290  51.648  89.965  1.00  0.00     0.106 A 
HETATM   10  C23 UNL     1      12.059  51.805  91.075  1.00  0.00     0.071 A 
HETATM   11  C24 UNL     1      12.478  53.063  91.512  1.00  0.00     0.066 A 
HETATM   12  N5  UNL     1      13.222  53.465  92.555  1.00  0.00    -0.306 N 
ATOM     13  H5  UNL     1      13.635  52.847  93.253  1.00  0.00     0.170 HD
HETATM   14  C25 UNL     1      13.344  54.821  92.543  1.00  0.00     0.325 A 
HETATM   15  O5  UNL     1      13.984  55.511  93.392  1.00  0.00    -0.247 OA
HETATM   16  N6  UNL     1      12.662  55.235  91.473  1.00  0.00    -0.306 N 
ATOM     17  H6  UNL     1      12.565  56.210  91.190  1.00  0.00     0.170 HD
HETATM   18  C26 UNL     1      12.120  54.193  90.821  1.00  0.00     0.065 A 
HETATM   19  C27 UNL     1      11.344  54.047  89.695  1.00  0.00     0.064 A 
HETATM   20  C28 UNL     1      10.933  52.787  89.267  1.00  0.00     0.074 A 
ENDROOT
BRANCH   2  21
HETATM   21  C2  UNL     1      11.532  53.946  86.444  1.00  0.00     0.076 C 
HETATM   22  C3  UNL     1      12.721  53.390  86.451  1.00  0.00     0.023 C 
BRANCH  22  23
HETATM   23  C4  UNL     1      13.883  54.092  85.811  1.00  0.00     0.095 C 
BRANCH  23  24
HETATM   24  N1  UNL     1      14.610  53.307  84.895  1.00  0.00    -0.346 N 
HETATM   25  C5  UNL     1      15.757  53.817  84.277  1.00  0.00     0.073 C 
HETATM   26  C6  UNL     1      16.605  52.768  83.581  1.00  0.00     0.084 C 
HETATM   27  C7  UNL     1      15.683  52.034  82.679  1.00  0.00    -0.042 A 
HETATM   28  C8  UNL     1      16.024  51.734  81.364  1.00  0.00     0.011 A 
HETATM   29  C18 UNL     1      14.461  51.668  83.195  1.00  0.00    -0.011 A 
HETATM   30  C9  UNL     1      15.113  51.061  80.584  1.00  0.00     0.037 A 
HETATM   31  C10 UNL     1      13.885  50.680  81.062  1.00  0.00     0.069 A 
HETATM   32  C17 UNL     1      13.578  50.997  82.382  1.00  0.00     0.050 A 
HETATM   33  C19 UNL     1      14.161  52.006  84.606  1.00  0.00     0.107 C 
BRANCH  31  34
HETATM   34  O2  UNL     1      12.919  50.016  80.379  1.00  0.00    -0.349 OA
BRANCH  34  35
HETATM   35  C11 UNL     1      11.667  49.568  80.699  1.00  0.00     0.206 C 
BRANCH  35  36
HETATM   36  C12 UNL     1      10.496  50.317  80.179  1.00  0.00     0.299 C 
BRANCH  36  37
HETATM   37  N2  UNL     1       9.860  51.014  81.306  1.00  0.00     0.090 N 
HETATM   38  C13 UNL     1      10.441  52.328  81.497  1.00  0.00     0.272 C 
HETATM   39  C14 UNL     1       9.884  52.703  82.877  1.00  0.00     0.032 C 
HETATM   40  C15 UNL     1      10.048  51.395  83.619  1.00  0.00     0.032 C 
HETATM   41  C16 UNL     1      10.159  50.326  82.552  1.00  0.00     0.272 C 
ENDBRANCH  36  37
ENDBRANCH  35  36
ENDBRANCH  34  35
ENDBRANCH  31  34
ENDBRANCH  23  24
ENDBRANCH  22  23
ENDBRANCH   2  21
BRANCH   6  42
HETATM   42  O3  UNL     1       9.244  49.384  86.432  1.00  0.00    -0.288 OA
ATOM     43  H3  UNL     1       9.133  48.583  85.934  1.00  0.00     0.244 HD
ENDBRANCH   6  42
TORSDOF 8
ENDMDL
MODEL 4
REMARK VINA RESULT: -7.583176878      4.364      6.718
REMARK  8 active torsions:
REMARK  status: ('A' for Active; 'I' for Inactive)
REMARK    1  A    between atoms: C1_2  and  C2_3 
REMARK       I    between atoms: C1_2  and  N3_24 
REMARK    2  A    between atoms: C3_4  and  C4_5 
REMARK    3  A    between atoms: C4_5  and  N1_6 
REMARK    4  A    between atoms: C10_12  and  O2_13 
REMARK    5  A    between atoms: O2_13  and  C11_14 
REMARK    6  A    between atoms: C11_14  and  C12_15 
REMARK    7  A    between atoms: C12_15  and  N2_16 
REMARK    8  A    between atoms: N4_27  and  O3_29 
ROOT
HETATM    1  O1  UNL     1      12.541  54.721  95.791  1.00  0.00    -0.268 OA
HETATM    2  C1  UNL     1      11.424  55.246  95.415  1.00  0.00     0.248 C 
HETATM    3  N3  UNL     1      10.715  55.932  96.381  1.00  0.00    -0.304 N 
HETATM    4  C20 UNL     1      11.415  56.816  97.371  1.00  0.00     0.219 C 
HETATM    5  C21 UNL     1      10.801  58.165  97.030  1.00  0.00     0.162 C 
HETATM    6  N4  UNL     1      11.501  59.180  96.707  1.00  0.00    -0.249 N 
ATOM      7  H4  UNL     1      11.055  60.070  96.483  1.00  0.00     0.196 HD
HETATM    8  O4  UNL     1       9.392  58.199  97.098  1.00  0.00    -0.292 OA
HETATM    9  C22 UNL     1       8.624  57.076  96.805  1.00  0.00     0.106 A 
HETATM   10  C23 UNL     1       7.267  57.022  96.856  1.00  0.00     0.071 A 
HETATM   11  C24 UNL     1       6.561  55.854  96.560  1.00  0.00     0.066 A 
HETATM   12  N5  UNL     1       5.251  55.559  96.544  1.00  0.00    -0.306 N 
ATOM     13  H5  UNL     1       4.501  56.212  96.767  1.00  0.00     0.170 HD
HETATM   14  C25 UNL     1       5.073  54.257  96.185  1.00  0.00     0.325 A 
HETATM   15  O5  UNL     1       3.956  53.669  96.076  1.00  0.00    -0.247 OA
HETATM   16  N6  UNL     1       6.298  53.768  95.983  1.00  0.00    -0.306 N 
ATOM     17  H6  UNL     1       6.499  52.809  95.701  1.00  0.00     0.170 HD
HETATM   18  C26 UNL     1       7.231  54.711  96.203  1.00  0.00     0.065 A 
HETATM   19  C27 UNL     1       8.604  54.753  96.144  1.00  0.00     0.064 A 
HETATM   20  C28 UNL     1       9.296  55.924  96.440  1.00  0.00     0.074 A 
ENDROOT
BRANCH   2  21
HETATM   21  C2  UNL     1      11.075  55.051  94.043  1.00  0.00     0.076 C 
HETATM   22  C3  UNL     1      11.759  54.475  93.083  1.00  0.00     0.023 C 
BRANCH  22  23
HETATM   23  C4  UNL     1      11.186  54.390  91.698  1.00  0.00     0.095 C 
BRANCH  23  24
HETATM   24  N1  UNL     1      12.146  54.322  90.670  1.00  0.00    -0.346 N 
HETATM   25  C5  UNL     1      12.954  55.426  90.379  1.00  0.00     0.073 C 
HETATM   26  C6  UNL     1      14.141  55.108  89.489  1.00  0.00     0.084 C 
HETATM   27  C7  UNL     1      13.584  54.412  88.303  1.00  0.00    -0.042 A 
HETATM   28  C8  UNL     1      13.978  54.733  87.008  1.00  0.00     0.011 A 
HETATM   29  C18 UNL     1      12.645  53.434  88.534  1.00  0.00    -0.011 A 
HETATM   30  C9  UNL     1      13.409  54.053  85.957  1.00  0.00     0.037 A 
HETATM   31  C10 UNL     1      12.469  53.073  86.147  1.00  0.00     0.069 A 
HETATM   32  C17 UNL     1      12.098  52.778  87.456  1.00  0.00     0.050 A 
HETATM   33  C19 UNL     1      12.275  53.129  89.936  1.00  0.00     0.107 C 
BRANCH  31  34
HETATM   34  O2  UNL     1      11.849  52.345  85.185  1.00  0.00    -0.349 OA
BRANCH  34  35
HETATM   35  C11 UNL     1      12.215  51.902  83.945  1.00  0.00     0.206 C 
BRANCH  35  36
HETATM   36  C12 UNL     1      13.519  51.206  83.802  1.00  0.00     0.299 C 
BRANCH  36  37
HETATM   37  N2  UNL     1      14.366  52.001  82.900  1.00  0.00     0.090 N 
HETATM   38  C13 UNL     1      14.764  51.222  81.744  1.00  0.00     0.272 C 
HETATM   39  C14 UNL     1      15.871  52.108  81.156  1.00  0.00     0.032 C 
HETATM   40  C15 UNL     1      16.606  52.524  82.411  1.00  0.00     0.032 C 
HETATM   41  C16 UNL     1      15.629  52.316  83.549  1.00  0.00     0.272 C 
ENDBRANCH  36  37
ENDBRANCH  35  36
ENDBRANCH  34  35
ENDBRANCH  31  34
ENDBRANCH  23  24
ENDBRANCH  22  23
ENDBRANCH   2  21
BRANCH   6  42
HETATM   42  O3  UNL     1      12.850  59.053  96.667  1.00  0.00    -0.288 OA
ATOM     43  H3  UNL     1      13.327  59.483  95.967  1.00  0.00     0.244 HD
ENDBRANCH   6  42
TORSDOF 8
ENDMDL
MODEL 5
REMARK VINA RESULT: -7.563720926      3.012      5.844
REMARK  8 active torsions:
REMARK  status: ('A' for Active; 'I' for Inactive)
REMARK    1  A    between atoms: C1_2  and  C2_3 
REMARK       I    between atoms: C1_2  and  N3_24 
REMARK    2  A    between atoms: C3_4  and  C4_5 
REMARK    3  A    between atoms: C4_5  and  N1_6 
REMARK    4  A    between atoms: C10_12  and  O2_13 
REMARK    5  A    between atoms: O2_13  and  C11_14 
REMARK    6  A    between atoms: C11_14  and  C12_15 
REMARK    7  A    between atoms: C12_15  and  N2_16 
REMARK    8  A    between atoms: N4_27  and  O3_29 
ROOT
HETATM    1  O1  UNL     1      11.252  54.899  92.728  1.00  0.00    -0.268 OA
HETATM    2  C1  UNL     1      11.674  54.103  91.806  1.00  0.00     0.248 C 
HETATM    3  N3  UNL     1      12.153  54.698  90.655  1.00  0.00    -0.304 N 
HETATM    4  C20 UNL     1      13.001  55.935  90.722  1.00  0.00     0.219 C 
HETATM    5  C21 UNL     1      14.292  55.428  90.102  1.00  0.00     0.162 C 
HETATM    6  N4  UNL     1      15.417  55.489  90.700  1.00  0.00    -0.249 N 
ATOM      7  H4  UNL     1      16.264  55.138  90.254  1.00  0.00     0.196 HD
HETATM    8  O4  UNL     1      14.144  54.880  88.810  1.00  0.00    -0.292 OA
HETATM    9  C22 UNL     1      12.975  54.230  88.428  1.00  0.00     0.106 A 
HETATM   10  C23 UNL     1      12.748  53.685  87.202  1.00  0.00     0.071 A 
HETATM   11  C24 UNL     1      11.543  53.056  86.884  1.00  0.00     0.066 A 
HETATM   12  N5  UNL     1      11.091  52.460  85.769  1.00  0.00    -0.306 N 
ATOM     13  H5  UNL     1      11.618  52.367  84.901  1.00  0.00     0.170 HD
HETATM   14  C25 UNL     1       9.827  51.997  85.969  1.00  0.00     0.325 A 
HETATM   15  O5  UNL     1       9.121  51.387  85.112  1.00  0.00    -0.247 OA
HETATM   16  N6  UNL     1       9.518  52.322  87.227  1.00  0.00    -0.306 N 
ATOM     17  H6  UNL     1       8.629  52.109  87.678  1.00  0.00     0.170 HD
HETATM   18  C26 UNL     1      10.539  52.969  87.815  1.00  0.00     0.065 A 
HETATM   19  C27 UNL     1      10.757  53.514  89.059  1.00  0.00     0.064 A 
HETATM   20  C28 UNL     1      11.963  54.137  89.366  1.00  0.00     0.074 A 
ENDROOT
BRANCH   2  21
HETATM   21  C2  UNL     1      11.593  52.708  92.103  1.00  0.00     0.076 C 
HETATM   22  C3  UNL     1      12.537  51.797  92.088  1.00  0.00     0.023 C 
BRANCH  22  23
HETATM   23  C4  UNL     1      12.213  50.373  92.435  1.00  0.00     0.095 C 
BRANCH  23  24
HETATM   24  N1  UNL     1      12.496  49.441  91.417  1.00  0.00    -0.346 N 
HETATM   25  C5  UNL     1      13.602  48.590  91.523  1.00  0.00     0.073 C 
HETATM   26  C6  UNL     1      13.595  47.441  90.532  1.00  0.00     0.084 C 
HETATM   27  C7  UNL     1      13.406  48.058  89.196  1.00  0.00    -0.042 A 
HETATM   28  C8  UNL     1      14.170  47.679  88.096  1.00  0.00     0.011 A 
HETATM   29  C18 UNL     1      12.445  49.035  89.087  1.00  0.00    -0.011 A 
HETATM   30  C9  UNL     1      13.946  48.304  86.892  1.00  0.00     0.037 A 
HETATM   31  C10 UNL     1      12.997  49.283  86.744  1.00  0.00     0.069 A 
HETATM   32  C17 UNL     1      12.252  49.637  87.866  1.00  0.00     0.050 A 
HETATM   33  C19 UNL     1      11.656  49.386  90.292  1.00  0.00     0.107 C 
BRANCH  31  34
HETATM   34  O2  UNL     1      12.699  49.959  85.607  1.00  0.00    -0.349 OA
BRANCH  34  35
HETATM   35  C11 UNL     1      12.850  49.691  84.274  1.00  0.00     0.206 C 
BRANCH  35  36
HETATM   36  C12 UNL     1      13.079  50.829  83.348  1.00  0.00     0.299 C 
BRANCH  36  37
HETATM   37  N2  UNL     1      14.449  51.320  83.555  1.00  0.00     0.090 N 
HETATM   38  C13 UNL     1      14.440  52.646  84.140  1.00  0.00     0.272 C 
HETATM   39  C14 UNL     1      15.904  53.066  83.946  1.00  0.00     0.032 C 
HETATM   40  C15 UNL     1      16.163  52.570  82.541  1.00  0.00     0.032 C 
HETATM   41  C16 UNL     1      15.107  51.518  82.273  1.00  0.00     0.272 C 
ENDBRANCH  36  37
ENDBRANCH  35  36
ENDBRANCH  34  35
ENDBRANCH  31  34
ENDBRANCH  23  24
ENDBRANCH  22  23
ENDBRANCH   2  21
BRANCH   6  42
HETATM   42  O3  UNL     1      15.463  56.031  91.942  1.00  0.00    -0.288 OA
ATOM     43  H3  UNL     1      15.898  56.868  92.058  1.00  0.00     0.244 HD
ENDBRANCH   6  42
TORSDOF 8
ENDMDL
