MODEL 1
REMARK VINA RESULT: -5.645402765      0.000      0.000
REMARK  9 active torsions:
REMARK  status: ('A' for Active; 'I' for Inactive)
REMARK    1  A    between atoms: C2_2  and  C3_3 
REMARK    2  A    between atoms: C3_3  and  C5_5 
REMARK    3  A    between atoms: C12_15  and  C13_16 
REMARK    4  A    between atoms: C13_16  and  N2_17 
REMARK    5  A    between atoms: C17_26  and  C18_27 
REMARK    6  A    between atoms: C18_27  and  C20_29 
REMARK    7  A    between atoms: C23_34  and  C24_35 
REMARK    8  A    between atoms: C24_35  and  C26_37 
REMARK    9  A    between atoms: C28_41  and  O6_42 
ROOT
HETATM    1  C5  UNL     1      12.412  52.573  85.303  1.00  0.00     0.162 C 
HETATM    2  N1  UNL     1      12.146  52.313  86.741  1.00  0.00    -0.349 N 
ATOM      3  H1  UNL     1      12.406  51.390  87.090  1.00  0.00     0.163 HD
HETATM    4  C6  UNL     1      11.587  53.182  87.658  1.00  0.00     0.219 C 
HETATM    5  O1  UNL     1      12.289  53.446  88.707  1.00  0.00    -0.274 OA
HETATM    6  C7  UNL     1      10.276  53.851  87.590  1.00  0.00     0.115 C 
HETATM    7  C8  UNL     1       9.152  52.975  88.171  1.00  0.00    -0.021 C 
HETATM    8  C9  UNL     1       9.092  53.500  89.633  1.00  0.00     0.019 C 
HETATM    9  C10 UNL     1       9.647  51.580  88.377  1.00  0.00     0.019 C 
HETATM   10  C11 UNL     1       7.916  53.203  87.446  1.00  0.00    -0.010 C 
HETATM   11  C12 UNL     1       7.079  52.194  86.812  1.00  0.00    -0.029 C 
HETATM   12  C14 UNL     1       7.377  51.870  85.355  1.00  0.00     0.158 C 
HETATM   13  C15 UNL     1       7.726  50.381  85.168  1.00  0.00     0.045 C 
HETATM   14  O2  UNL     1       8.360  52.602  84.772  1.00  0.00    -0.310 OA
HETATM   15  C16 UNL     1       8.542  53.368  83.684  1.00  0.00     0.289 C 
HETATM   16  O3  UNL     1       8.951  54.570  83.927  1.00  0.00    -0.262 OA
HETATM   17  C17 UNL     1       8.362  53.087  82.258  1.00  0.00     0.235 C 
HETATM   18  O4  UNL     1       9.310  52.326  81.652  1.00  0.00    -0.304 OA
HETATM   19  C22 UNL     1      10.564  52.289  81.228  1.00  0.00     0.283 C 
HETATM   20  O5  UNL     1      11.067  52.827  80.165  1.00  0.00    -0.263 OA
HETATM   21  C23 UNL     1      11.619  51.558  81.992  1.00  0.00     0.187 C 
HETATM   22  N3  UNL     1      11.310  51.239  83.340  1.00  0.00    -0.359 N 
ATOM     23  H3  UNL     1      10.381  50.836  83.460  1.00  0.00     0.162 HD
HETATM   24  C28 UNL     1      12.022  51.365  84.534  1.00  0.00     0.135 C 
ENDROOT
BRANCH  11  25
HETATM   25  C13 UNL     1       6.753  50.924  87.511  1.00  0.00     0.266 C 
BRANCH  25  26
HETATM   26  N2  UNL     1       6.005  51.149  88.760  1.00  0.00    -0.076 N 
ATOM     27  H23 UNL     1       5.859  52.144  88.928  1.00  0.00     0.274 HD
ATOM     28  H22 UNL     1       5.033  50.855  88.665  1.00  0.00     0.274 HD
ATOM     29  H21 UNL     1       6.448  50.702  89.563  1.00  0.00     0.274 HD
ENDBRANCH  25  26
ENDBRANCH  11  25
BRANCH  17  30
HETATM   30  C18 UNL     1       7.001  52.443  81.915  1.00  0.00     0.021 C 
HETATM   31  C19 UNL     1       7.368  50.991  81.557  1.00  0.00     0.013 C 
BRANCH  30  32
HETATM   32  C20 UNL     1       6.456  52.995  80.606  1.00  0.00     0.003 C 
HETATM   33  C21 UNL     1       6.619  54.469  80.488  1.00  0.00     0.005 C 
ENDBRANCH  30  32
ENDBRANCH  17  30
BRANCH   1  34
HETATM   34  C3  UNL     1      13.895  52.874  85.272  1.00  0.00     0.012 C 
HETATM   35  C4  UNL     1      14.219  54.243  85.792  1.00  0.00     0.012 C 
BRANCH  34  36
HETATM   36  C2  UNL     1      14.571  52.534  83.981  1.00  0.00     0.002 C 
HETATM   37  C1  UNL     1      15.947  53.159  83.878  1.00  0.00     0.005 C 
ENDBRANCH  34  36
ENDBRANCH   1  34
BRANCH  24  38
HETATM   38  O6  UNL     1      12.432  50.276  85.115  1.00  0.00    -0.348 OA
ATOM     39  H6  UNL     1      13.260  49.979  84.754  1.00  0.00     0.219 HD
ENDBRANCH  24  38
BRANCH  21  40
HETATM   40  C24 UNL     1      11.894  50.269  81.176  1.00  0.00     0.014 C 
HETATM   41  C25 UNL     1      10.938  49.206  81.574  1.00  0.00     0.012 C 
BRANCH  40  42
HETATM   42  C26 UNL     1      13.323  49.834  81.346  1.00  0.00     0.002 C 
HETATM   43  C27 UNL     1      14.302  50.856  80.845  1.00  0.00     0.005 C 
ENDBRANCH  40  42
ENDBRANCH  21  40
TORSDOF 9
ENDMDL
MODEL 2
REMARK VINA RESULT: -5.301842676      9.071     12.318
REMARK  9 active torsions:
REMARK  status: ('A' for Active; 'I' for Inactive)
REMARK    1  A    between atoms: C2_2  and  C3_3 
REMARK    2  A    between atoms: C3_3  and  C5_5 
REMARK    3  A    between atoms: C12_15  and  C13_16 
REMARK    4  A    between atoms: C13_16  and  N2_17 
REMARK    5  A    between atoms: C17_26  and  C18_27 
REMARK    6  A    between atoms: C18_27  and  C20_29 
REMARK    7  A    between atoms: C23_34  and  C24_35 
REMARK    8  A    between atoms: C24_35  and  C26_37 
REMARK    9  A    between atoms: C28_41  and  O6_42 
ROOT
HETATM    1  C5  UNL     1      13.291  52.367  98.115  1.00  0.00     0.162 C 
HETATM    2  N1  UNL     1      12.273  52.901  99.055  1.00  0.00    -0.349 N 
ATOM      3  H1  UNL     1      11.535  52.256  99.338  1.00  0.00     0.163 HD
HETATM    4  C6  UNL     1      12.215  54.174  99.591  1.00  0.00     0.219 C 
HETATM    5  O1  UNL     1      12.219  54.260 100.878  1.00  0.00    -0.274 OA
HETATM    6  C7  UNL     1      12.148  55.457  98.871  1.00  0.00     0.115 C 
HETATM    7  C8  UNL     1      10.700  55.851  98.529  1.00  0.00    -0.021 C 
HETATM    8  C9  UNL     1      10.348  56.765  99.735  1.00  0.00     0.019 C 
HETATM    9  C10 UNL     1       9.788  54.689  98.761  1.00  0.00     0.019 C 
HETATM   10  C11 UNL     1      10.660  56.557  97.263  1.00  0.00    -0.010 C 
HETATM   11  C12 UNL     1       9.839  56.229  96.107  1.00  0.00    -0.029 C 
HETATM   12  C14 UNL     1      10.447  55.288  95.077  1.00  0.00     0.158 C 
HETATM   13  C15 UNL     1       9.589  54.020  94.897  1.00  0.00     0.045 C 
HETATM   14  O2  UNL     1      11.724  54.894  95.311  1.00  0.00    -0.310 OA
HETATM   15  C16 UNL     1      12.908  54.873  94.679  1.00  0.00     0.289 C 
HETATM   16  O3  UNL     1      13.870  55.470  95.304  1.00  0.00    -0.262 OA
HETATM   17  C17 UNL     1      13.316  54.290  93.398  1.00  0.00     0.235 C 
HETATM   18  O4  UNL     1      13.479  52.942  93.356  1.00  0.00    -0.304 OA
HETATM   19  C22 UNL     1      14.230  51.927  93.753  1.00  0.00     0.283 C 
HETATM   20  O5  UNL     1      15.379  51.553  93.294  1.00  0.00    -0.263 OA
HETATM   21  C23 UNL     1      13.794  51.028  94.863  1.00  0.00     0.187 C 
HETATM   22  N3  UNL     1      12.757  51.519  95.698  1.00  0.00    -0.359 N 
ATOM     23  H3  UNL     1      11.974  51.921  95.181  1.00  0.00     0.162 HD
HETATM   24  C28 UNL     1      12.591  51.562  97.083  1.00  0.00     0.135 C 
ENDROOT
BRANCH  11  25
HETATM   25  C13 UNL     1       8.404  55.877  96.266  1.00  0.00     0.266 C 
BRANCH  25  26
HETATM   26  N2  UNL     1       7.547  57.067  96.401  1.00  0.00    -0.076 N 
ATOM     27  H23 UNL     1       6.950  56.999  97.225  1.00  0.00     0.274 HD
ATOM     28  H22 UNL     1       8.094  57.887  96.664  1.00  0.00     0.274 HD
ATOM     29  H21 UNL     1       6.996  57.245  95.561  1.00  0.00     0.274 HD
ENDBRANCH  25  26
ENDBRANCH  11  25
BRANCH  17  30
HETATM   30  C18 UNL     1      12.384  54.654  92.223  1.00  0.00     0.021 C 
HETATM   31  C19 UNL     1      11.903  53.286  91.705  1.00  0.00     0.013 C 
BRANCH  30  32
HETATM   32  C20 UNL     1      13.183  55.206  91.051  1.00  0.00     0.003 C 
HETATM   33  C21 UNL     1      14.543  55.663  91.443  1.00  0.00     0.005 C 
ENDBRANCH  30  32
ENDBRANCH  17  30
BRANCH   1  34
HETATM   34  C3  UNL     1      14.207  51.563  99.012  1.00  0.00     0.012 C 
HETATM   35  C4  UNL     1      15.008  52.424  99.943  1.00  0.00     0.012 C 
BRANCH  34  36
HETATM   36  C2  UNL     1      15.007  50.516  98.304  1.00  0.00     0.002 C 
HETATM   37  C1  UNL     1      16.251  51.091  97.660  1.00  0.00     0.005 C 
ENDBRANCH  34  36
ENDBRANCH   1  34
BRANCH  24  38
HETATM   38  O6  UNL     1      11.685  50.794  97.611  1.00  0.00    -0.348 OA
ATOM     39  H6  UNL     1      10.933  51.294  97.908  1.00  0.00     0.219 HD
ENDBRANCH  24  38
BRANCH  21  40
HETATM   40  C24 UNL     1      13.360  49.709  94.174  1.00  0.00     0.014 C 
HETATM   41  C25 UNL     1      11.902  49.737  93.902  1.00  0.00     0.012 C 
BRANCH  40  42
HETATM   42  C26 UNL     1      13.754  48.524  95.010  1.00  0.00     0.002 C 
HETATM   43  C27 UNL     1      15.241  48.407  95.183  1.00  0.00     0.005 C 
ENDBRANCH  40  42
ENDBRANCH  21  40
TORSDOF 9
ENDMDL
MODEL 3
REMARK VINA RESULT: -5.220719013      2.369      6.690
REMARK  9 active torsions:
REMARK  status: ('A' for Active; 'I' for Inactive)
REMARK    1  A    between atoms: C2_2  and  C3_3 
REMARK    2  A    between atoms: C3_3  and  C5_5 
REMARK    3  A    between atoms: C12_15  and  C13_16 
REMARK    4  A    between atoms: C13_16  and  N2_17 
REMARK    5  A    between atoms: C17_26  and  C18_27 
REMARK    6  A    between atoms: C18_27  and  C20_29 
REMARK    7  A    between atoms: C23_34  and  C24_35 
REMARK    8  A    between atoms: C24_35  and  C26_37 
REMARK    9  A    between atoms: C28_41  and  O6_42 
ROOT
HETATM    1  C5  UNL     1      11.706  52.560  85.450  1.00  0.00     0.162 C 
HETATM    2  N1  UNL     1      10.787  52.967  84.357  1.00  0.00    -0.349 N 
ATOM      3  H1  UNL     1      10.682  53.970  84.203  1.00  0.00     0.163 HD
HETATM    4  C6  UNL     1      10.059  52.137  83.524  1.00  0.00     0.219 C 
HETATM    5  O1  UNL     1      10.262  52.269  82.257  1.00  0.00    -0.274 OA
HETATM    6  C7  UNL     1       9.071  51.114  83.904  1.00  0.00     0.115 C 
HETATM    7  C8  UNL     1       7.660  51.707  84.065  1.00  0.00    -0.021 C 
HETATM    8  C9  UNL     1       7.063  51.438  82.655  1.00  0.00     0.019 C 
HETATM    9  C10 UNL     1       7.733  53.200  84.077  1.00  0.00     0.019 C 
HETATM   10  C11 UNL     1       6.942  51.011  85.116  1.00  0.00    -0.010 C 
HETATM   11  C12 UNL     1       6.294  51.610  86.274  1.00  0.00    -0.029 C 
HETATM   12  C14 UNL     1       7.137  51.760  87.533  1.00  0.00     0.158 C 
HETATM   13  C15 UNL     1       7.237  53.234  87.973  1.00  0.00     0.045 C 
HETATM   14  O2  UNL     1       8.397  51.261  87.467  1.00  0.00    -0.310 OA
HETATM   15  C16 UNL     1       9.186  50.412  88.145  1.00  0.00     0.289 C 
HETATM   16  O3  UNL     1       9.669  49.440  87.444  1.00  0.00    -0.262 OA
HETATM   17  C17 UNL     1       9.605  50.386  89.549  1.00  0.00     0.235 C 
HETATM   18  O4  UNL     1      10.556  51.279  89.928  1.00  0.00    -0.304 OA
HETATM   19  C22 UNL     1      11.834  51.609  89.830  1.00  0.00     0.283 C 
HETATM   20  O5  UNL     1      12.849  51.072  90.425  1.00  0.00    -0.263 OA
HETATM   21  C23 UNL     1      12.279  52.733  88.952  1.00  0.00     0.187 C 
HETATM   22  N3  UNL     1      11.351  53.168  87.971  1.00  0.00    -0.359 N 
ATOM     23  H3  UNL     1      10.406  53.296  88.332  1.00  0.00     0.162 HD
HETATM   24  C28 UNL     1      11.471  53.455  86.610  1.00  0.00     0.135 C 
ENDROOT
BRANCH  11  25
HETATM   25  C13 UNL     1       5.455  52.828  86.132  1.00  0.00     0.266 C 
BRANCH  25  26
HETATM   26  N2  UNL     1       4.286  52.604  85.263  1.00  0.00    -0.076 N 
ATOM     27  H23 UNL     1       3.628  53.381  85.325  1.00  0.00     0.274 HD
ATOM     28  H22 UNL     1       4.539  52.683  84.278  1.00  0.00     0.274 HD
ATOM     29  H21 UNL     1       3.825  51.715  85.455  1.00  0.00     0.274 HD
ENDBRANCH  25  26
ENDBRANCH  11  25
BRANCH  17  30
HETATM   30  C18 UNL     1       8.440  50.538  90.551  1.00  0.00     0.021 C 
HETATM   31  C19 UNL     1       8.649  51.947  91.136  1.00  0.00     0.013 C 
BRANCH  30  32
HETATM   32  C20 UNL     1       8.641  49.630  91.755  1.00  0.00     0.003 C 
HETATM   33  C21 UNL     1       9.200  48.301  91.390  1.00  0.00     0.005 C 
ENDBRANCH  30  32
ENDBRANCH  17  30
BRANCH   1  34
HETATM   34  C3  UNL     1      13.077  52.704  84.825  1.00  0.00     0.012 C 
HETATM   35  C4  UNL     1      13.658  51.390  84.396  1.00  0.00     0.012 C 
BRANCH  34  36
HETATM   36  C2  UNL     1      14.023  53.570  85.595  1.00  0.00     0.002 C 
HETATM   37  C1  UNL     1      15.266  53.904  84.796  1.00  0.00     0.005 C 
ENDBRANCH  34  36
ENDBRANCH   1  34
BRANCH  24  38
HETATM   38  O6  UNL     1      11.363  54.697  86.240  1.00  0.00    -0.348 OA
ATOM     39  H6  UNL     1      12.186  55.163  86.336  1.00  0.00     0.219 HD
ENDBRANCH  24  38
BRANCH  21  40
HETATM   40  C24 UNL     1      12.632  53.892  89.919  1.00  0.00     0.014 C 
HETATM   41  C25 UNL     1      11.400  54.630  90.293  1.00  0.00     0.012 C 
BRANCH  40  42
HETATM   42  C26 UNL     1      13.665  54.794  89.305  1.00  0.00     0.002 C 
HETATM   43  C27 UNL     1      14.305  55.708  90.310  1.00  0.00     0.005 C 
ENDBRANCH  40  42
ENDBRANCH  21  40
TORSDOF 9
ENDMDL
MODEL 4
REMARK VINA RESULT: -5.220578572      5.623      9.208
REMARK  9 active torsions:
REMARK  status: ('A' for Active; 'I' for Inactive)
REMARK    1  A    between atoms: C2_2  and  C3_3 
REMARK    2  A    between atoms: C3_3  and  C5_5 
REMARK    3  A    between atoms: C12_15  and  C13_16 
REMARK    4  A    between atoms: C13_16  and  N2_17 
REMARK    5  A    between atoms: C17_26  and  C18_27 
REMARK    6  A    between atoms: C18_27  and  C20_29 
REMARK    7  A    between atoms: C23_34  and  C24_35 
REMARK    8  A    between atoms: C24_35  and  C26_37 
REMARK    9  A    between atoms: C28_41  and  O6_42 
ROOT
HETATM    1  C5  UNL     1      12.895  53.127  94.397  1.00  0.00     0.162 C 
HETATM    2  N1  UNL     1      13.595  51.945  94.962  1.00  0.00    -0.349 N 
ATOM      3  H1  UNL     1      14.606  51.909  94.826  1.00  0.00     0.163 HD
HETATM    4  C6  UNL     1      13.031  50.889  95.654  1.00  0.00     0.219 C 
HETATM    5  O1  UNL     1      13.485  50.667  96.839  1.00  0.00    -0.274 OA
HETATM    6  C7  UNL     1      11.966  49.978  95.202  1.00  0.00     0.115 C 
HETATM    7  C8  UNL     1      12.528  48.781  94.414  1.00  0.00    -0.021 C 
HETATM    8  C9  UNL     1      12.653  47.717  95.540  1.00  0.00     0.019 C 
HETATM    9  C10 UNL     1      13.964  49.023  94.075  1.00  0.00     0.019 C 
HETATM   10  C11 UNL     1      11.598  48.386  93.374  1.00  0.00    -0.010 C 
HETATM   11  C12 UNL     1      11.887  48.239  91.955  1.00  0.00    -0.029 C 
HETATM   12  C14 UNL     1      11.682  49.468  91.081  1.00  0.00     0.158 C 
HETATM   13  C15 UNL     1      12.986  49.878  90.369  1.00  0.00     0.045 C 
HETATM   14  O2  UNL     1      11.189  50.567  91.706  1.00  0.00    -0.310 OA
HETATM   15  C16 UNL     1      10.173  51.436  91.575  1.00  0.00     0.289 C 
HETATM   16  O3  UNL     1       9.408  51.539  92.612  1.00  0.00    -0.262 OA
HETATM   17  C17 UNL     1       9.770  52.298  90.461  1.00  0.00     0.235 C 
HETATM   18  O4  UNL     1      10.510  53.416  90.245  1.00  0.00    -0.304 OA
HETATM   19  C22 UNL     1      10.826  54.615  90.709  1.00  0.00     0.283 C 
HETATM   20  O5  UNL     1      10.128  55.702  90.659  1.00  0.00    -0.263 OA
HETATM   21  C23 UNL     1      12.129  54.863  91.394  1.00  0.00     0.187 C 
HETATM   22  N3  UNL     1      12.828  53.714  91.848  1.00  0.00    -0.359 N 
ATOM     23  H3  UNL     1      12.879  52.967  91.154  1.00  0.00     0.162 HD
HETATM   24  C28 UNL     1      13.460  53.400  93.052  1.00  0.00     0.135 C 
ENDROOT
BRANCH  11  25
HETATM   25  C13 UNL     1      13.118  47.545  91.495  1.00  0.00     0.266 C 
BRANCH  25  26
HETATM   26  N2  UNL     1      13.161  46.137  91.927  1.00  0.00    -0.076 N 
ATOM     27  H23 UNL     1      12.228  45.726  91.935  1.00  0.00     0.274 HD
ATOM     28  H22 UNL     1      13.593  45.547  91.216  1.00  0.00     0.274 HD
ATOM     29  H21 UNL     1      13.621  46.022  92.830  1.00  0.00     0.274 HD
ENDBRANCH  25  26
ENDBRANCH  11  25
BRANCH  17  30
HETATM   30  C18 UNL     1       9.681  51.564  89.105  1.00  0.00     0.021 C 
HETATM   31  C19 UNL     1      10.880  52.120  88.315  1.00  0.00     0.013 C 
BRANCH  30  32
HETATM   32  C20 UNL     1       8.482  52.053  88.305  1.00  0.00     0.003 C 
HETATM   33  C21 UNL     1       8.855  53.025  87.242  1.00  0.00     0.005 C 
ENDBRANCH  30  32
ENDBRANCH  17  30
BRANCH   1  34
HETATM   34  C3  UNL     1      13.167  54.213  95.415  1.00  0.00     0.012 C 
HETATM   35  C4  UNL     1      12.319  54.078  96.646  1.00  0.00     0.012 C 
BRANCH  34  36
HETATM   36  C2  UNL     1      13.209  55.597  94.850  1.00  0.00     0.002 C 
HETATM   37  C1  UNL     1      12.358  56.563  95.648  1.00  0.00     0.005 C 
ENDBRANCH  34  36
ENDBRANCH   1  34
BRANCH  24  38
HETATM   38  O6  UNL     1      14.757  53.315  93.053  1.00  0.00    -0.348 OA
ATOM     39  H6  UNL     1      15.158  54.089  92.672  1.00  0.00     0.219 HD
ENDBRANCH  24  38
BRANCH  21  40
HETATM   40  C24 UNL     1      12.986  55.651  90.369  1.00  0.00     0.014 C 
HETATM   41  C25 UNL     1      13.682  54.706  89.461  1.00  0.00     0.012 C 
BRANCH  40  42
HETATM   42  C26 UNL     1      13.947  56.562  91.078  1.00  0.00     0.002 C 
HETATM   43  C27 UNL     1      15.377  56.132  90.917  1.00  0.00     0.005 C 
ENDBRANCH  40  42
ENDBRANCH  21  40
TORSDOF 9
ENDMDL
MODEL 5
REMARK VINA RESULT: -5.117546237      2.497      7.452
REMARK  9 active torsions:
REMARK  status: ('A' for Active; 'I' for Inactive)
REMARK    1  A    between atoms: C2_2  and  C3_3 
REMARK    2  A    between atoms: C3_3  and  C5_5 
REMARK    3  A    between atoms: C12_15  and  C13_16 
REMARK    4  A    between atoms: C13_16  and  N2_17 
REMARK    5  A    between atoms: C17_26  and  C18_27 
REMARK    6  A    between atoms: C18_27  and  C20_29 
REMARK    7  A    between atoms: C23_34  and  C24_35 
REMARK    8  A    between atoms: C24_35  and  C26_37 
REMARK    9  A    between atoms: C28_41  and  O6_42 
ROOT
HETATM    1  C5  UNL     1       8.890  51.213  83.385  1.00  0.00     0.162 C 
HETATM    2  N1  UNL     1       8.110  50.306  82.506  1.00  0.00    -0.349 N 
ATOM      3  H1  UNL     1       7.793  49.431  82.925  1.00  0.00     0.163 HD
HETATM    4  C6  UNL     1       7.765  50.514  81.183  1.00  0.00     0.219 C 
HETATM    5  O1  UNL     1       6.507  50.487  80.904  1.00  0.00    -0.274 OA
HETATM    6  C7  UNL     1       8.663  50.763  80.043  1.00  0.00     0.115 C 
HETATM    7  C8  UNL     1       9.160  49.454  79.404  1.00  0.00    -0.021 C 
HETATM    8  C9  UNL     1       8.124  49.270  78.260  1.00  0.00     0.019 C 
HETATM    9  C10 UNL     1       8.831  48.297  80.291  1.00  0.00     0.019 C 
HETATM   10  C11 UNL     1      10.513  49.623  78.908  1.00  0.00    -0.010 C 
HETATM   11  C12 UNL     1      11.667  48.794  79.226  1.00  0.00    -0.029 C 
HETATM   12  C14 UNL     1      12.507  49.214  80.423  1.00  0.00     0.158 C 
HETATM   13  C15 UNL     1      12.567  48.103  81.489  1.00  0.00     0.045 C 
HETATM   14  O2  UNL     1      12.128  50.361  81.042  1.00  0.00    -0.310 OA
HETATM   15  C16 UNL     1      12.665  51.534  81.415  1.00  0.00     0.289 C 
HETATM   16  O3  UNL     1      12.063  52.580  80.951  1.00  0.00    -0.262 OA
HETATM   17  C17 UNL     1      13.818  51.850  82.262  1.00  0.00     0.235 C 
HETATM   18  O4  UNL     1      13.657  51.708  83.604  1.00  0.00    -0.304 OA
HETATM   19  C22 UNL     1      13.067  52.197  84.683  1.00  0.00     0.283 C 
HETATM   20  O5  UNL     1      13.386  53.251  85.362  1.00  0.00    -0.263 OA
HETATM   21  C23 UNL     1      11.875  51.529  85.285  1.00  0.00     0.187 C 
HETATM   22  N3  UNL     1      11.195  50.596  84.460  1.00  0.00    -0.359 N 
ATOM     23  H3  UNL     1      11.818  49.944  83.983  1.00  0.00     0.162 HD
HETATM   24  C28 UNL     1       9.845  50.392  84.169  1.00  0.00     0.135 C 
ENDROOT
BRANCH  11  25
HETATM   25  C13 UNL     1      11.563  47.311  79.232  1.00  0.00     0.266 C 
BRANCH  25  26
HETATM   26  N2  UNL     1      11.178  46.772  77.916  1.00  0.00    -0.076 N 
ATOM     27  H23 UNL     1      11.863  47.020  77.202  1.00  0.00     0.274 HD
ATOM     28  H22 UNL     1      11.277  45.757  77.891  1.00  0.00     0.274 HD
ATOM     29  H21 UNL     1      10.240  47.058  77.639  1.00  0.00     0.274 HD
ENDBRANCH  25  26
ENDBRANCH  11  25
BRANCH  17  30
HETATM   30  C18 UNL     1      15.097  51.069  81.891  1.00  0.00     0.021 C 
HETATM   31  C19 UNL     1      16.146  51.603  82.883  1.00  0.00     0.013 C 
BRANCH  30  32
HETATM   32  C20 UNL     1      15.634  51.523  80.542  1.00  0.00     0.003 C 
HETATM   33  C21 UNL     1      16.148  52.919  80.564  1.00  0.00     0.005 C 
ENDBRANCH  30  32
ENDBRANCH  17  30
BRANCH   1  34
HETATM   34  C3  UNL     1       7.825  51.891  84.220  1.00  0.00     0.012 C 
HETATM   35  C4  UNL     1       7.023  52.888  83.437  1.00  0.00     0.012 C 
BRANCH  34  36
HETATM   36  C2  UNL     1       8.301  52.393  85.546  1.00  0.00     0.002 C 
HETATM   37  C1  UNL     1       9.031  53.715  85.424  1.00  0.00     0.005 C 
ENDBRANCH  34  36
ENDBRANCH   1  34
BRANCH  24  38
HETATM   38  O6  UNL     1       9.280  49.316  84.634  1.00  0.00    -0.348 OA
ATOM     39  H6  UNL     1       9.526  49.156  85.538  1.00  0.00     0.219 HD
ENDBRANCH  24  38
BRANCH  21  40
HETATM   40  C24 UNL     1      12.400  50.837  86.570  1.00  0.00     0.014 C 
HETATM   41  C25 UNL     1      12.800  49.441  86.265  1.00  0.00     0.012 C 
BRANCH  40  42
HETATM   42  C26 UNL     1      11.369  50.902  87.661  1.00  0.00     0.002 C 
HETATM   43  C27 UNL     1      11.134  52.301  88.154  1.00  0.00     0.005 C 
ENDBRANCH  40  42
ENDBRANCH  21  40
TORSDOF 9
ENDMDL
