MODEL 1
REMARK VINA RESULT: -6.779245519      0.000      0.000
REMARK  9 active torsions:
REMARK  status: ('A' for Active; 'I' for Inactive)
REMARK    1  A    between atoms: C3_4  and  C4_5 
REMARK       I    between atoms: C4_5  and  N1_7 
REMARK    2  A    between atoms: N1_7  and  C5_9 
REMARK    3  A    between atoms: C5_9  and  C13_26 
REMARK    4  A    between atoms: N2_10  and  N3_12 
REMARK    5  A    between atoms: N3_12  and  C6_14 
REMARK    6  A    between atoms: C6_14  and  N4_16 
REMARK    7  A    between atoms: N4_16  and  C7_18 
REMARK    8  A    between atoms: C7_18  and  C8_19 
REMARK    9  A    between atoms: C8_19  and  N5_20 
ROOT
HETATM    1  C5  UNL     1      23.544   6.732  14.936  1.00  0.00     0.165 C 
HETATM    2  N2  UNL     1      23.898   6.380  13.740  1.00  0.00    -0.282 N 
ATOM      3  H2  UNL     1      24.157   7.132  13.100  1.00  0.00     0.188 HD
ENDROOT
BRANCH   1   4
HETATM    4  N1  UNL     1      23.550   8.141  15.253  1.00  0.00    -0.306 N 
HETATM    5  C4  UNL     1      24.650   8.858  15.596  1.00  0.00     0.265 C 
HETATM    6  O1  UNL     1      25.803   8.298  15.662  1.00  0.00    -0.267 OA
ATOM      7  H1  UNL     1      22.659   8.635  15.216  1.00  0.00     0.170 HD
BRANCH   5   8
HETATM    8  C3  UNL     1      24.703  10.297  15.925  1.00  0.00     0.095 A 
HETATM    9  S1  UNL     1      25.516  10.970  17.304  1.00  0.00    -0.087 SA
HETATM   10  C2  UNL     1      25.178  12.611  17.059  1.00  0.00    -0.013 A 
HETATM   11  C1  UNL     1      25.586  13.797  17.896  1.00  0.00     0.057 C 
HETATM   12  C15 UNL     1      24.440  12.605  15.913  1.00  0.00    -0.026 A 
HETATM   13  C14 UNL     1      24.194  11.409  15.327  1.00  0.00     0.063 A 
HETATM   14  C16 UNL     1      23.924  13.923  15.336  1.00  0.00     0.051 C 
HETATM   15 CL1  UNL     1      23.223  11.312  13.807  1.00  0.00    -0.082 Cl
ENDBRANCH   5   8
ENDBRANCH   1   4
BRANCH   1  16
HETATM   16  C13 UNL     1      23.166   5.684  15.896  1.00  0.00     0.421 C 
HETATM   17  F1  UNL     1      23.604   5.919  17.193  1.00  0.00    -0.206 F 
HETATM   18  F2  UNL     1      21.754   5.650  15.904  1.00  0.00    -0.206 F 
ENDBRANCH   1  16
BRANCH   2  19
HETATM   19  N3  UNL     1      23.960   5.119  13.249  1.00  0.00    -0.275 N 
ATOM     20  H3  UNL     1      23.487   4.393  13.787  1.00  0.00     0.189 HD
BRANCH  19  21
HETATM   21  C6  UNL     1      24.620   4.706  12.057  1.00  0.00     0.186 C 
HETATM   22  S2  UNL     1      23.672   4.079  10.844  1.00  0.00    -0.040 SA
BRANCH  21  23
HETATM   23  N4  UNL     1      25.992   4.778  11.807  1.00  0.00    -0.364 N 
ATOM     24  H4  UNL     1      26.620   4.685  12.605  1.00  0.00     0.162 HD
BRANCH  23  25
HETATM   25  C7  UNL     1      26.591   4.974  10.511  1.00  0.00     0.152 C 
BRANCH  25  26
HETATM   26  C8  UNL     1      27.409   6.253  10.461  1.00  0.00     0.292 C 
BRANCH  26  27
HETATM   27  N5  UNL     1      28.156   6.467  11.661  1.00  0.00     0.094 N 
HETATM   28  C9  UNL     1      29.577   6.322  11.452  1.00  0.00     0.298 C 
HETATM   29  C10 UNL     1      30.391   7.128  12.419  1.00  0.00     0.198 C 
HETATM   30  O2  UNL     1      29.728   7.190  13.636  1.00  0.00    -0.388 OA
HETATM   31  C11 UNL     1      28.578   7.978  13.538  1.00  0.00     0.198 C 
HETATM   32  C12 UNL     1      27.896   7.767  12.200  1.00  0.00     0.298 C 
ENDBRANCH  26  27
ENDBRANCH  25  26
ENDBRANCH  23  25
ENDBRANCH  21  23
ENDBRANCH  19  21
ENDBRANCH   2  19
TORSDOF 9
ENDMDL
MODEL 2
REMARK VINA RESULT: -6.776332813      3.481      6.126
REMARK  9 active torsions:
REMARK  status: ('A' for Active; 'I' for Inactive)
REMARK    1  A    between atoms: C3_4  and  C4_5 
REMARK       I    between atoms: C4_5  and  N1_7 
REMARK    2  A    between atoms: N1_7  and  C5_9 
REMARK    3  A    between atoms: C5_9  and  C13_26 
REMARK    4  A    between atoms: N2_10  and  N3_12 
REMARK    5  A    between atoms: N3_12  and  C6_14 
REMARK    6  A    between atoms: C6_14  and  N4_16 
REMARK    7  A    between atoms: N4_16  and  C7_18 
REMARK    8  A    between atoms: C7_18  and  C8_19 
REMARK    9  A    between atoms: C8_19  and  N5_20 
ROOT
HETATM    1  C5  UNL     1      24.250   4.438  12.044  1.00  0.00     0.165 C 
HETATM    2  N2  UNL     1      24.210   4.600  13.330  1.00  0.00    -0.282 N 
ATOM      3  H2  UNL     1      24.963   5.149  13.745  1.00  0.00     0.188 HD
ENDROOT
BRANCH   1   4
HETATM    4  N1  UNL     1      25.344   5.045  11.324  1.00  0.00    -0.306 N 
HETATM    5  C4  UNL     1      25.458   6.369  11.049  1.00  0.00     0.265 C 
HETATM    6  O1  UNL     1      24.556   7.198  11.433  1.00  0.00    -0.267 OA
ATOM      7  H1  UNL     1      26.089   4.430  10.996  1.00  0.00     0.170 HD
BRANCH   5   8
HETATM    8  C3  UNL     1      26.558   7.031  10.319  1.00  0.00     0.095 A 
HETATM    9  S1  UNL     1      27.794   6.204   9.422  1.00  0.00    -0.087 SA
HETATM   10  C2  UNL     1      28.682   7.536   8.869  1.00  0.00    -0.013 A 
HETATM   11  C1  UNL     1      29.922   7.557   8.011  1.00  0.00     0.057 C 
HETATM   12  C15 UNL     1      28.004   8.596   9.392  1.00  0.00    -0.026 A 
HETATM   13  C14 UNL     1      26.906   8.336  10.142  1.00  0.00     0.063 A 
HETATM   14  C16 UNL     1      28.493  10.019   9.121  1.00  0.00     0.051 C 
HETATM   15 CL1  UNL     1      25.950   9.683  10.872  1.00  0.00    -0.082 Cl
ENDBRANCH   5   8
ENDBRANCH   1   4
BRANCH   1  16
HETATM   16  C13 UNL     1      23.183   3.658  11.399  1.00  0.00     0.421 C 
HETATM   17  F1  UNL     1      22.485   4.355  10.420  1.00  0.00    -0.206 F 
HETATM   18  F2  UNL     1      23.819   2.555  10.790  1.00  0.00    -0.206 F 
ENDBRANCH   1  16
BRANCH   2  19
HETATM   19  N3  UNL     1      23.273   4.117  14.180  1.00  0.00    -0.275 N 
ATOM     20  H3  UNL     1      22.781   3.272  13.890  1.00  0.00     0.189 HD
BRANCH  19  21
HETATM   21  C6  UNL     1      22.906   4.672  15.440  1.00  0.00     0.186 C 
HETATM   22  S2  UNL     1      21.501   4.115  16.133  1.00  0.00    -0.040 SA
BRANCH  21  23
HETATM   23  N4  UNL     1      23.615   5.641  16.152  1.00  0.00    -0.364 N 
ATOM     24  H4  UNL     1      24.354   5.317  16.776  1.00  0.00     0.162 HD
BRANCH  23  25
HETATM   25  C7  UNL     1      23.386   7.062  16.076  1.00  0.00     0.152 C 
BRANCH  25  26
HETATM   26  C8  UNL     1      24.040   7.668  14.846  1.00  0.00     0.292 C 
BRANCH  26  27
HETATM   27  N5  UNL     1      25.381   8.095  15.100  1.00  0.00     0.094 N 
HETATM   28  C9  UNL     1      26.354   7.249  14.451  1.00  0.00     0.298 C 
HETATM   29  C10 UNL     1      27.632   7.969  14.138  1.00  0.00     0.198 C 
HETATM   30  O2  UNL     1      27.874   8.919  15.119  1.00  0.00    -0.388 OA
HETATM   31  C11 UNL     1      26.954   9.968  15.035  1.00  0.00     0.198 C 
HETATM   32  C12 UNL     1      25.578   9.445  14.669  1.00  0.00     0.298 C 
ENDBRANCH  26  27
ENDBRANCH  25  26
ENDBRANCH  23  25
ENDBRANCH  21  23
ENDBRANCH  19  21
ENDBRANCH   2  19
TORSDOF 9
ENDMDL
MODEL 3
REMARK VINA RESULT: -6.764805074      1.231      1.614
REMARK  9 active torsions:
REMARK  status: ('A' for Active; 'I' for Inactive)
REMARK    1  A    between atoms: C3_4  and  C4_5 
REMARK       I    between atoms: C4_5  and  N1_7 
REMARK    2  A    between atoms: N1_7  and  C5_9 
REMARK    3  A    between atoms: C5_9  and  C13_26 
REMARK    4  A    between atoms: N2_10  and  N3_12 
REMARK    5  A    between atoms: N3_12  and  C6_14 
REMARK    6  A    between atoms: C6_14  and  N4_16 
REMARK    7  A    between atoms: N4_16  and  C7_18 
REMARK    8  A    between atoms: C7_18  and  C8_19 
REMARK    9  A    between atoms: C8_19  and  N5_20 
ROOT
HETATM    1  C5  UNL     1      23.513   6.777  14.950  1.00  0.00     0.165 C 
HETATM    2  N2  UNL     1      23.874   6.426  13.756  1.00  0.00    -0.282 N 
ATOM      3  H2  UNL     1      24.132   7.178  13.117  1.00  0.00     0.188 HD
ENDROOT
BRANCH   1   4
HETATM    4  N1  UNL     1      23.510   8.186  15.265  1.00  0.00    -0.306 N 
HETATM    5  C4  UNL     1      24.606   8.912  15.599  1.00  0.00     0.265 C 
HETATM    6  O1  UNL     1      25.764   8.362  15.657  1.00  0.00    -0.267 OA
ATOM      7  H1  UNL     1      22.614   8.673  15.234  1.00  0.00     0.170 HD
BRANCH   5   8
HETATM    8  C3  UNL     1      24.650  10.352  15.927  1.00  0.00     0.095 A 
HETATM    9  S1  UNL     1      25.415  11.028  17.332  1.00  0.00    -0.087 SA
HETATM   10  C2  UNL     1      25.089  12.669  17.071  1.00  0.00    -0.013 A 
HETATM   11  C1  UNL     1      25.468  13.857  17.919  1.00  0.00     0.057 C 
HETATM   12  C15 UNL     1      24.392  12.661  15.900  1.00  0.00    -0.026 A 
HETATM   13  C14 UNL     1      24.164  11.464  15.308  1.00  0.00     0.063 A 
HETATM   14  C16 UNL     1      23.899  13.978  15.301  1.00  0.00     0.051 C 
HETATM   15 CL1  UNL     1      23.248  11.365  13.755  1.00  0.00    -0.082 Cl
ENDBRANCH   5   8
ENDBRANCH   1   4
BRANCH   1  16
HETATM   16  C13 UNL     1      23.136   5.728  15.909  1.00  0.00     0.421 C 
HETATM   17  F1  UNL     1      23.611   5.941  17.197  1.00  0.00    -0.206 F 
HETATM   18  F2  UNL     1      21.725   5.725  15.952  1.00  0.00    -0.206 F 
ENDBRANCH   1  16
BRANCH   2  19
HETATM   19  N3  UNL     1      23.946   5.165  13.267  1.00  0.00    -0.275 N 
ATOM     20  H3  UNL     1      23.428   4.446  13.772  1.00  0.00     0.189 HD
BRANCH  19  21
HETATM   21  C6  UNL     1      24.673   4.742  12.117  1.00  0.00     0.186 C 
HETATM   22  S2  UNL     1      23.800   4.062  10.877  1.00  0.00    -0.040 SA
BRANCH  21  23
HETATM   23  N4  UNL     1      26.052   4.844  11.931  1.00  0.00    -0.364 N 
ATOM     24  H4  UNL     1      26.649   4.667  12.738  1.00  0.00     0.162 HD
BRANCH  23  25
HETATM   25  C7  UNL     1      26.700   5.182  10.688  1.00  0.00     0.152 C 
BRANCH  25  26
HETATM   26  C8  UNL     1      26.594   6.667  10.388  1.00  0.00     0.292 C 
BRANCH  26  27
HETATM   27  N5  UNL     1      27.845   7.230   9.986  1.00  0.00     0.094 N 
HETATM   28  C9  UNL     1      28.889   6.986  10.953  1.00  0.00     0.298 C 
HETATM   29  C10 UNL     1      30.256   6.956  10.337  1.00  0.00     0.198 C 
HETATM   30  O2  UNL     1      30.297   7.841   9.270  1.00  0.00    -0.388 OA
HETATM   31  C11 UNL     1      29.518   7.376   8.206  1.00  0.00     0.198 C 
HETATM   32  C12 UNL     1      28.256   6.708   8.718  1.00  0.00     0.298 C 
ENDBRANCH  26  27
ENDBRANCH  25  26
ENDBRANCH  23  25
ENDBRANCH  21  23
ENDBRANCH  19  21
ENDBRANCH   2  19
TORSDOF 9
ENDMDL
MODEL 4
REMARK VINA RESULT: -6.764394111      3.809      6.192
REMARK  9 active torsions:
REMARK  status: ('A' for Active; 'I' for Inactive)
REMARK    1  A    between atoms: C3_4  and  C4_5 
REMARK       I    between atoms: C4_5  and  N1_7 
REMARK    2  A    between atoms: N1_7  and  C5_9 
REMARK    3  A    between atoms: C5_9  and  C13_26 
REMARK    4  A    between atoms: N2_10  and  N3_12 
REMARK    5  A    between atoms: N3_12  and  C6_14 
REMARK    6  A    between atoms: C6_14  and  N4_16 
REMARK    7  A    between atoms: N4_16  and  C7_18 
REMARK    8  A    between atoms: C7_18  and  C8_19 
REMARK    9  A    between atoms: C8_19  and  N5_20 
ROOT
HETATM    1  C5  UNL     1      24.490   4.638  11.871  1.00  0.00     0.165 C 
HETATM    2  N2  UNL     1      24.414   4.741  13.161  1.00  0.00    -0.282 N 
ATOM      3  H2  UNL     1      25.134   5.302  13.617  1.00  0.00     0.188 HD
ENDROOT
BRANCH   1   4
HETATM    4  N1  UNL     1      25.573   5.320  11.204  1.00  0.00    -0.306 N 
HETATM    5  C4  UNL     1      25.643   6.660  11.002  1.00  0.00     0.265 C 
HETATM    6  O1  UNL     1      24.706   7.436  11.413  1.00  0.00    -0.267 OA
ATOM      7  H1  UNL     1      26.344   4.751  10.856  1.00  0.00     0.170 HD
BRANCH   5   8
HETATM    8  C3  UNL     1      26.730   7.400  10.328  1.00  0.00     0.095 A 
HETATM    9  S1  UNL     1      27.055   9.093  10.535  1.00  0.00    -0.087 SA
HETATM   10  C2  UNL     1      28.387   9.254   9.502  1.00  0.00    -0.013 A 
HETATM   11  C1  UNL     1      29.198  10.486   9.187  1.00  0.00     0.057 C 
HETATM   12  C15 UNL     1      28.554   7.992   9.017  1.00  0.00    -0.026 A 
HETATM   13  C14 UNL     1      27.697   7.033   9.443  1.00  0.00     0.063 A 
HETATM   14  C16 UNL     1      29.681   7.703   8.025  1.00  0.00     0.051 C 
HETATM   15 CL1  UNL     1      27.847   5.335   8.847  1.00  0.00    -0.082 Cl
ENDBRANCH   5   8
ENDBRANCH   1   4
BRANCH   1  16
HETATM   16  C13 UNL     1      23.472   3.843  11.167  1.00  0.00     0.421 C 
HETATM   17  F1  UNL     1      22.850   4.516  10.123  1.00  0.00    -0.206 F 
HETATM   18  F2  UNL     1      24.149   2.724  10.634  1.00  0.00    -0.206 F 
ENDBRANCH   1  16
BRANCH   2  19
HETATM   19  N3  UNL     1      23.480   4.183  13.967  1.00  0.00    -0.275 N 
ATOM     20  H3  UNL     1      23.005   3.353  13.613  1.00  0.00     0.189 HD
BRANCH  19  21
HETATM   21  C6  UNL     1      23.095   4.640  15.260  1.00  0.00     0.186 C 
HETATM   22  S2  UNL     1      21.684   4.027  15.891  1.00  0.00    -0.040 SA
BRANCH  21  23
HETATM   23  N4  UNL     1      23.790   5.555  16.051  1.00  0.00    -0.364 N 
ATOM     24  H4  UNL     1      24.528   5.190  16.653  1.00  0.00     0.162 HD
BRANCH  23  25
HETATM   25  C7  UNL     1      23.547   6.976  16.087  1.00  0.00     0.152 C 
BRANCH  25  26
HETATM   26  C8  UNL     1      24.097   7.667  14.852  1.00  0.00     0.292 C 
BRANCH  26  27
HETATM   27  N5  UNL     1      25.421   8.168  15.054  1.00  0.00     0.094 N 
HETATM   28  C9  UNL     1      26.429   7.251  14.578  1.00  0.00     0.298 C 
HETATM   29  C10 UNL     1      27.696   7.941  14.171  1.00  0.00     0.198 C 
HETATM   30  O2  UNL     1      27.892   9.053  14.978  1.00  0.00    -0.388 OA
HETATM   31  C11 UNL     1      26.949  10.045  14.697  1.00  0.00     0.198 C 
HETATM   32  C12 UNL     1      25.595   9.429  14.400  1.00  0.00     0.298 C 
ENDBRANCH  26  27
ENDBRANCH  25  26
ENDBRANCH  23  25
ENDBRANCH  21  23
ENDBRANCH  19  21
ENDBRANCH   2  19
TORSDOF 9
ENDMDL
MODEL 5
REMARK VINA RESULT: -6.741272971      1.795      2.298
REMARK  9 active torsions:
REMARK  status: ('A' for Active; 'I' for Inactive)
REMARK    1  A    between atoms: C3_4  and  C4_5 
REMARK       I    between atoms: C4_5  and  N1_7 
REMARK    2  A    between atoms: N1_7  and  C5_9 
REMARK    3  A    between atoms: C5_9  and  C13_26 
REMARK    4  A    between atoms: N2_10  and  N3_12 
REMARK    5  A    between atoms: N3_12  and  C6_14 
REMARK    6  A    between atoms: C6_14  and  N4_16 
REMARK    7  A    between atoms: N4_16  and  C7_18 
REMARK    8  A    between atoms: C7_18  and  C8_19 
REMARK    9  A    between atoms: C8_19  and  N5_20 
ROOT
HETATM    1  C5  UNL     1      23.599   6.684  14.695  1.00  0.00     0.165 C 
HETATM    2  N2  UNL     1      24.067   6.198  13.589  1.00  0.00    -0.282 N 
ATOM      3  H2  UNL     1      24.273   6.868  12.847  1.00  0.00     0.188 HD
ENDROOT
BRANCH   1   4
HETATM    4  N1  UNL     1      23.414   8.113  14.778  1.00  0.00    -0.306 N 
HETATM    5  C4  UNL     1      24.361   9.000  15.175  1.00  0.00     0.265 C 
HETATM    6  O1  UNL     1      25.533   8.601  15.515  1.00  0.00    -0.267 OA
ATOM      7  H1  UNL     1      22.501   8.485  14.519  1.00  0.00     0.170 HD
BRANCH   5   8
HETATM    8  C3  UNL     1      24.218  10.467  15.272  1.00  0.00     0.095 A 
HETATM    9  S1  UNL     1      23.587  11.488  14.017  1.00  0.00    -0.087 SA
HETATM   10  C2  UNL     1      23.707  12.992  14.787  1.00  0.00    -0.013 A 
HETATM   11  C1  UNL     1      23.329  14.355  14.266  1.00  0.00     0.057 C 
HETATM   12  C15 UNL     1      24.235  12.673  16.002  1.00  0.00    -0.026 A 
HETATM   13  C14 UNL     1      24.500  11.368  16.253  1.00  0.00     0.063 A 
HETATM   14  C16 UNL     1      24.508  13.776  17.024  1.00  0.00     0.051 C 
HETATM   15 CL1  UNL     1      25.202  10.861  17.837  1.00  0.00    -0.082 Cl
ENDBRANCH   5   8
ENDBRANCH   1   4
BRANCH   1  16
HETATM   16  C13 UNL     1      23.292   5.758  15.796  1.00  0.00     0.421 C 
HETATM   17  F1  UNL     1      23.762   6.176  17.035  1.00  0.00    -0.206 F 
HETATM   18  F2  UNL     1      21.883   5.680  15.860  1.00  0.00    -0.206 F 
ENDBRANCH   1  16
BRANCH   2  19
HETATM   19  N3  UNL     1      24.313   4.896  13.314  1.00  0.00    -0.275 N 
ATOM     20  H3  UNL     1      24.480   4.281  14.111  1.00  0.00     0.189 HD
BRANCH  19  21
HETATM   21  C6  UNL     1      24.362   4.297  12.022  1.00  0.00     0.186 C 
HETATM   22  S2  UNL     1      22.952   3.638  11.438  1.00  0.00    -0.040 SA
BRANCH  21  23
HETATM   23  N4  UNL     1      25.484   4.211  11.196  1.00  0.00    -0.364 N 
ATOM     24  H4  UNL     1      25.430   3.580  10.396  1.00  0.00     0.162 HD
BRANCH  23  25
HETATM   25  C7  UNL     1      26.712   4.942  11.383  1.00  0.00     0.152 C 
BRANCH  25  26
HETATM   26  C8  UNL     1      26.945   5.939  10.261  1.00  0.00     0.292 C 
BRANCH  26  27
HETATM   27  N5  UNL     1      26.859   7.293  10.712  1.00  0.00     0.094 N 
HETATM   28  C9  UNL     1      25.520   7.821  10.599  1.00  0.00     0.298 C 
HETATM   29  C10 UNL     1      25.238   8.905  11.596  1.00  0.00     0.198 C 
HETATM   30  O2  UNL     1      26.401   9.622  11.836  1.00  0.00    -0.388 OA
HETATM   31  C11 UNL     1      27.328   8.849  12.541  1.00  0.00     0.198 C 
HETATM   32  C12 UNL     1      27.290   7.407  12.072  1.00  0.00     0.298 C 
ENDBRANCH  26  27
ENDBRANCH  25  26
ENDBRANCH  23  25
ENDBRANCH  21  23
ENDBRANCH  19  21
ENDBRANCH   2  19
TORSDOF 9
ENDMDL
