MODEL 1
REMARK VINA RESULT: -8.241435127      0.000      0.000
REMARK  10 active torsions:
REMARK  status: ('A' for Active; 'I' for Inactive)
REMARK    1  A    between atoms: C3_3  and  C4_4 
REMARK    2  A    between atoms: C4_4  and  C5_5 
REMARK    3  A    between atoms: C5_5  and  N1_6 
REMARK    4  A    between atoms: C6_7  and  O1_8 
REMARK    5  A    between atoms: C7_10  and  C8_11 
REMARK    6  A    between atoms: C8_11  and  C9_12 
REMARK    7  A    between atoms: C13_19  and  O2_20 
REMARK    8  A    between atoms: C14_22  and  C15_23 
REMARK    9  A    between atoms: C15_23  and  C16_24 
REMARK   10  A    between atoms: C16_24  and  C17_25 
ROOT
HETATM    1  C1  UNL     1      33.151   6.677  14.556  1.00  0.00     0.012 C 
HETATM    2  C2  UNL     1      32.209   7.001  13.878  1.00  0.00    -0.117 C 
HETATM    3  C3  UNL     1      31.083   7.397  13.034  1.00  0.00     0.094 C 
ENDROOT
BRANCH   3   4
HETATM    4  C4  UNL     1      31.438   7.742  11.638  1.00  0.00     0.032 C 
BRANCH   4   5
HETATM    5  C5  UNL     1      30.744   7.018  10.540  1.00  0.00     0.137 C 
BRANCH   5   6
HETATM    6  N1  UNL     1      29.365   7.430  10.341  1.00  0.00    -0.278 N 
HETATM    7  C6  UNL     1      28.275   6.719  10.799  1.00  0.00     0.174 A 
HETATM    8  C7  UNL     1      27.124   7.401  10.466  1.00  0.00     0.090 A 
HETATM    9  N2  UNL     1      27.486   8.511   9.813  1.00  0.00    -0.300 N 
HETATM   10  C18 UNL     1      26.597   9.550   9.274  1.00  0.00     0.161 C 
HETATM   11  C19 UNL     1      28.843   8.505   9.751  1.00  0.00     0.331 A 
HETATM   12  O5  UNL     1      29.470   9.442   9.189  1.00  0.00    -0.246 OA
BRANCH   7  13
HETATM   13  O1  UNL     1      28.371   5.514  11.484  1.00  0.00    -0.344 OA
ATOM     14  H1  UNL     1      28.292   5.434  12.427  1.00  0.00     0.219 HD
ENDBRANCH   7  13
BRANCH   8  15
HETATM   15  C8  UNL     1      25.795   6.981  10.874  1.00  0.00     0.048 C 
BRANCH  15  16
HETATM   16  C9  UNL     1      25.263   6.749  12.035  1.00  0.00     0.002 A 
HETATM   17  C10 UNL     1      24.959   7.790  12.883  1.00  0.00     0.068 A 
HETATM   18 CL1  UNL     1      25.256   9.490  12.476  1.00  0.00    -0.082 Cl
HETATM   19  C11 UNL     1      24.391   7.610  14.141  1.00  0.00     0.081 A 
HETATM   20 CL2  UNL     1      24.028   9.010  15.177  1.00  0.00    -0.081 Cl
HETATM   21  C12 UNL     1      24.121   6.345  14.554  1.00  0.00     0.091 A 
HETATM   22 CL3  UNL     1      23.402   6.091  16.139  1.00  0.00    -0.079 Cl
HETATM   23  C13 UNL     1      24.425   5.270  13.701  1.00  0.00     0.100 A 
HETATM   24  C14 UNL     1      24.982   5.435  12.467  1.00  0.00     0.008 A 
BRANCH  23  25
HETATM   25  O2  UNL     1      24.098   4.025  14.247  1.00  0.00    -0.358 OA
ATOM     26  H2  UNL     1      23.880   3.375  13.590  1.00  0.00     0.217 HD
ENDBRANCH  23  25
BRANCH  24  27
HETATM   27  C15 UNL     1      25.244   4.410  11.706  1.00  0.00    -0.001 C 
BRANCH  27  28
HETATM   28  C16 UNL     1      24.410   3.849  10.602  1.00  0.00     0.141 C 
BRANCH  28  29
HETATM   29  C17 UNL     1      22.998   3.650  10.994  1.00  0.00     0.176 C 
HETATM   30  O3  UNL     1      22.120   4.352  10.440  1.00  0.00    -0.648 OA
HETATM   31  O4  UNL     1      22.664   2.710  11.951  1.00  0.00    -0.648 OA
ENDBRANCH  28  29
ENDBRANCH  27  28
ENDBRANCH  24  27
ENDBRANCH  15  16
ENDBRANCH   8  15
ENDBRANCH   5   6
ENDBRANCH   4   5
ENDBRANCH   3   4
TORSDOF 10
ENDMDL
MODEL 2
REMARK VINA RESULT: -7.861706498      2.443      3.967
REMARK  10 active torsions:
REMARK  status: ('A' for Active; 'I' for Inactive)
REMARK    1  A    between atoms: C3_3  and  C4_4 
REMARK    2  A    between atoms: C4_4  and  C5_5 
REMARK    3  A    between atoms: C5_5  and  N1_6 
REMARK    4  A    between atoms: C6_7  and  O1_8 
REMARK    5  A    between atoms: C7_10  and  C8_11 
REMARK    6  A    between atoms: C8_11  and  C9_12 
REMARK    7  A    between atoms: C13_19  and  O2_20 
REMARK    8  A    between atoms: C14_22  and  C15_23 
REMARK    9  A    between atoms: C15_23  and  C16_24 
REMARK   10  A    between atoms: C16_24  and  C17_25 
ROOT
HETATM    1  C1  UNL     1      24.504  10.083  13.947  1.00  0.00     0.012 C 
HETATM    2  C2  UNL     1      24.763  10.883  13.083  1.00  0.00    -0.117 C 
HETATM    3  C3  UNL     1      25.099  11.839  12.030  1.00  0.00     0.094 C 
ENDROOT
BRANCH   3   4
HETATM    4  C4  UNL     1      26.340  11.533  11.281  1.00  0.00     0.032 C 
BRANCH   4   5
HETATM    5  C5  UNL     1      26.227  10.720  10.040  1.00  0.00     0.137 C 
BRANCH   5   6
HETATM    6  N1  UNL     1      26.621   9.332  10.207  1.00  0.00    -0.278 N 
HETATM    7  C6  UNL     1      25.740   8.310  10.493  1.00  0.00     0.174 A 
HETATM    8  C7  UNL     1      26.437   7.122  10.556  1.00  0.00     0.090 A 
HETATM    9  N2  UNL     1      27.724   7.396  10.317  1.00  0.00    -0.300 N 
HETATM   10  C18 UNL     1      28.839   6.438  10.271  1.00  0.00     0.161 C 
HETATM   11  C19 UNL     1      27.809   8.735  10.109  1.00  0.00     0.331 A 
HETATM   12  O5  UNL     1      28.915   9.283   9.854  1.00  0.00    -0.246 OA
BRANCH   7  13
HETATM   13  O1  UNL     1      24.375   8.496  10.678  1.00  0.00    -0.344 OA
ATOM     14  H1  UNL     1      23.710   7.926  10.311  1.00  0.00     0.219 HD
ENDBRANCH   7  13
BRANCH   8  15
HETATM   15  C8  UNL     1      25.805   5.829  10.750  1.00  0.00     0.048 C 
BRANCH  15  16
HETATM   16  C9  UNL     1      25.091   5.335  11.715  1.00  0.00     0.002 A 
HETATM   17  C10 UNL     1      25.338   5.697  13.020  1.00  0.00     0.068 A 
HETATM   18 CL1  UNL     1      26.613   6.838  13.485  1.00  0.00    -0.082 Cl
HETATM   19  C11 UNL     1      24.611   5.204  14.100  1.00  0.00     0.081 A 
HETATM   20 CL2  UNL     1      24.993   5.723  15.759  1.00  0.00    -0.081 Cl
HETATM   21  C12 UNL     1      23.608   4.322  13.857  1.00  0.00     0.091 A 
HETATM   22 CL3  UNL     1      22.675   3.685  15.205  1.00  0.00    -0.079 Cl
HETATM   23  C13 UNL     1      23.343   3.941  12.530  1.00  0.00     0.100 A 
HETATM   24  C14 UNL     1      24.048   4.417  11.465  1.00  0.00     0.008 A 
BRANCH  23  25
HETATM   25  O2  UNL     1      22.287   3.030  12.421  1.00  0.00    -0.358 OA
ATOM     26  H2  UNL     1      21.482   3.344  12.814  1.00  0.00     0.217 HD
ENDBRANCH  23  25
BRANCH  24  27
HETATM   27  C15 UNL     1      23.765   4.041  10.250  1.00  0.00    -0.001 C 
BRANCH  27  28
HETATM   28  C16 UNL     1      24.410   2.958   9.451  1.00  0.00     0.141 C 
BRANCH  28  29
HETATM   29  C17 UNL     1      23.906   1.611   9.798  1.00  0.00     0.176 C 
HETATM   30  O3  UNL     1      24.712   0.651   9.788  1.00  0.00    -0.648 OA
HETATM   31  O4  UNL     1      22.575   1.426  10.124  1.00  0.00    -0.648 OA
ENDBRANCH  28  29
ENDBRANCH  27  28
ENDBRANCH  24  27
ENDBRANCH  15  16
ENDBRANCH   8  15
ENDBRANCH   5   6
ENDBRANCH   4   5
ENDBRANCH   3   4
TORSDOF 10
ENDMDL
MODEL 3
REMARK VINA RESULT: -7.742905192      1.463      1.935
REMARK  10 active torsions:
REMARK  status: ('A' for Active; 'I' for Inactive)
REMARK    1  A    between atoms: C3_3  and  C4_4 
REMARK    2  A    between atoms: C4_4  and  C5_5 
REMARK    3  A    between atoms: C5_5  and  N1_6 
REMARK    4  A    between atoms: C6_7  and  O1_8 
REMARK    5  A    between atoms: C7_10  and  C8_11 
REMARK    6  A    between atoms: C8_11  and  C9_12 
REMARK    7  A    between atoms: C13_19  and  O2_20 
REMARK    8  A    between atoms: C14_22  and  C15_23 
REMARK    9  A    between atoms: C15_23  and  C16_24 
REMARK   10  A    between atoms: C16_24  and  C17_25 
ROOT
HETATM    1  C1  UNL     1      30.752  10.181  13.082  1.00  0.00     0.012 C 
HETATM    2  C2  UNL     1      31.261   9.190  12.623  1.00  0.00    -0.117 C 
HETATM    3  C3  UNL     1      31.855   7.974  12.070  1.00  0.00     0.094 C 
ENDROOT
BRANCH   3   4
HETATM    4  C4  UNL     1      30.964   6.791  12.059  1.00  0.00     0.032 C 
BRANCH   4   5
HETATM    5  C5  UNL     1      30.360   6.380  10.764  1.00  0.00     0.137 C 
BRANCH   5   6
HETATM    6  N1  UNL     1      29.010   6.878  10.557  1.00  0.00    -0.278 N 
HETATM    7  C6  UNL     1      27.871   6.135  10.789  1.00  0.00     0.174 A 
HETATM    8  C7  UNL     1      26.767   6.914  10.521  1.00  0.00     0.090 A 
HETATM    9  N2  UNL     1      27.205   8.115  10.128  1.00  0.00    -0.300 N 
HETATM   10  C18 UNL     1      26.385   9.275   9.749  1.00  0.00     0.161 C 
HETATM   11  C19 UNL     1      28.562   8.068  10.160  1.00  0.00     0.331 A 
HETATM   12  O5  UNL     1      29.253   9.072   9.840  1.00  0.00    -0.246 OA
BRANCH   7  13
HETATM   13  O1  UNL     1      27.885   4.815  11.224  1.00  0.00    -0.344 OA
ATOM     14  H1  UNL     1      28.005   4.559  12.131  1.00  0.00     0.219 HD
ENDBRANCH   7  13
BRANCH   8  15
HETATM   15  C8  UNL     1      25.400   6.475  10.745  1.00  0.00     0.048 C 
BRANCH  15  16
HETATM   16  C9  UNL     1      24.819   5.882  11.743  1.00  0.00     0.002 A 
HETATM   17  C10 UNL     1      24.916   6.401  13.014  1.00  0.00     0.068 A 
HETATM   18 CL1  UNL     1      25.812   7.884  13.391  1.00  0.00    -0.082 Cl
HETATM   19  C11 UNL     1      24.319   5.814  14.126  1.00  0.00     0.081 A 
HETATM   20 CL2  UNL     1      24.491   6.550  15.738  1.00  0.00    -0.081 Cl
HETATM   21  C12 UNL     1      23.606   4.673  13.952  1.00  0.00     0.091 A 
HETATM   22 CL3  UNL     1      22.843   3.912  15.341  1.00  0.00    -0.079 Cl
HETATM   23  C13 UNL     1      23.498   4.127  12.660  1.00  0.00     0.100 A 
HETATM   24  C14 UNL     1      24.078   4.694  11.563  1.00  0.00     0.008 A 
BRANCH  23  25
HETATM   25  O2  UNL     1      22.738   2.954  12.620  1.00  0.00    -0.358 OA
ATOM     26  H2  UNL     1      22.162   2.909  11.867  1.00  0.00     0.217 HD
ENDBRANCH  23  25
BRANCH  24  27
HETATM   27  C15 UNL     1      23.949   4.158  10.383  1.00  0.00    -0.001 C 
BRANCH  27  28
HETATM   28  C16 UNL     1      24.748   3.048   9.786  1.00  0.00     0.141 C 
BRANCH  28  29
HETATM   29  C17 UNL     1      24.063   1.739   9.868  1.00  0.00     0.176 C 
HETATM   30  O3  UNL     1      24.749   0.698   9.747  1.00  0.00    -0.648 OA
HETATM   31  O4  UNL     1      22.697   1.677  10.074  1.00  0.00    -0.648 OA
ENDBRANCH  28  29
ENDBRANCH  27  28
ENDBRANCH  24  27
ENDBRANCH  15  16
ENDBRANCH   8  15
ENDBRANCH   5   6
ENDBRANCH   4   5
ENDBRANCH   3   4
TORSDOF 10
ENDMDL
MODEL 4
REMARK VINA RESULT: -7.679767199      1.514      2.120
REMARK  10 active torsions:
REMARK  status: ('A' for Active; 'I' for Inactive)
REMARK    1  A    between atoms: C3_3  and  C4_4 
REMARK    2  A    between atoms: C4_4  and  C5_5 
REMARK    3  A    between atoms: C5_5  and  N1_6 
REMARK    4  A    between atoms: C6_7  and  O1_8 
REMARK    5  A    between atoms: C7_10  and  C8_11 
REMARK    6  A    between atoms: C8_11  and  C9_12 
REMARK    7  A    between atoms: C13_19  and  O2_20 
REMARK    8  A    between atoms: C14_22  and  C15_23 
REMARK    9  A    between atoms: C15_23  and  C16_24 
REMARK   10  A    between atoms: C16_24  and  C17_25 
ROOT
HETATM    1  C1  UNL     1      29.870  10.505  10.098  1.00  0.00     0.012 C 
HETATM    2  C2  UNL     1      30.784   9.891  10.589  1.00  0.00    -0.117 C 
HETATM    3  C3  UNL     1      31.876   9.139  11.203  1.00  0.00     0.094 C 
ENDROOT
BRANCH   3   4
HETATM    4  C4  UNL     1      31.528   8.453  12.469  1.00  0.00     0.032 C 
BRANCH   4   5
HETATM    5  C5  UNL     1      31.060   7.043  12.396  1.00  0.00     0.137 C 
BRANCH   5   6
HETATM    6  N1  UNL     1      29.795   6.877  11.701  1.00  0.00    -0.278 N 
HETATM    7  C6  UNL     1      28.561   7.058  12.291  1.00  0.00     0.174 A 
HETATM    8  C7  UNL     1      27.579   6.849  11.348  1.00  0.00     0.090 A 
HETATM    9  N2  UNL     1      28.184   6.542  10.194  1.00  0.00    -0.300 N 
HETATM   10  C18 UNL     1      27.538   6.248   8.907  1.00  0.00     0.161 C 
HETATM   11  C19 UNL     1      29.521   6.566  10.434  1.00  0.00     0.331 A 
HETATM   12  O5  UNL     1      30.348   6.317   9.517  1.00  0.00    -0.246 OA
BRANCH   7  13
HETATM   13  O1  UNL     1      28.387   7.397  13.627  1.00  0.00    -0.344 OA
ATOM     14  H1  UNL     1      27.809   8.090  13.925  1.00  0.00     0.219 HD
ENDBRANCH   7  13
BRANCH   8  15
HETATM   15  C8  UNL     1      26.163   7.044  11.605  1.00  0.00     0.048 C 
BRANCH  15  16
HETATM   16  C9  UNL     1      25.388   6.683  12.582  1.00  0.00     0.002 A 
HETATM   17  C10 UNL     1      24.995   7.597  13.534  1.00  0.00     0.068 A 
HETATM   18 CL1  UNL     1      25.493   9.298  13.509  1.00  0.00    -0.082 Cl
HETATM   19  C11 UNL     1      24.168   7.275  14.606  1.00  0.00     0.081 A 
HETATM   20 CL2  UNL     1      23.704   8.516  15.794  1.00  0.00    -0.081 Cl
HETATM   21  C12 UNL     1      23.726   5.997  14.722  1.00  0.00     0.091 A 
HETATM   22 CL3  UNL     1      22.680   5.565  16.068  1.00  0.00    -0.079 Cl
HETATM   23  C13 UNL     1      24.119   5.050  13.759  1.00  0.00     0.100 A 
HETATM   24  C14 UNL     1      24.928   5.354  12.704  1.00  0.00     0.008 A 
BRANCH  23  25
HETATM   25  O2  UNL     1      23.595   3.776  13.995  1.00  0.00    -0.358 OA
ATOM     26  H2  UNL     1      24.160   3.232  14.531  1.00  0.00     0.217 HD
ENDBRANCH  23  25
BRANCH  24  27
HETATM   27  C15 UNL     1      25.264   4.447  11.832  1.00  0.00    -0.001 C 
BRANCH  27  28
HETATM   28  C16 UNL     1      24.580   4.109  10.549  1.00  0.00     0.141 C 
BRANCH  28  29
HETATM   29  C17 UNL     1      23.134   3.847  10.722  1.00  0.00     0.176 C 
HETATM   30  O3  UNL     1      22.317   4.654  10.219  1.00  0.00    -0.648 OA
HETATM   31  O4  UNL     1      22.703   2.736  11.423  1.00  0.00    -0.648 OA
ENDBRANCH  28  29
ENDBRANCH  27  28
ENDBRANCH  24  27
ENDBRANCH  15  16
ENDBRANCH   8  15
ENDBRANCH   5   6
ENDBRANCH   4   5
ENDBRANCH   3   4
TORSDOF 10
ENDMDL
MODEL 5
REMARK VINA RESULT: -7.530649753      1.876      2.675
REMARK  10 active torsions:
REMARK  status: ('A' for Active; 'I' for Inactive)
REMARK    1  A    between atoms: C3_3  and  C4_4 
REMARK    2  A    between atoms: C4_4  and  C5_5 
REMARK    3  A    between atoms: C5_5  and  N1_6 
REMARK    4  A    between atoms: C6_7  and  O1_8 
REMARK    5  A    between atoms: C7_10  and  C8_11 
REMARK    6  A    between atoms: C8_11  and  C9_12 
REMARK    7  A    between atoms: C13_19  and  O2_20 
REMARK    8  A    between atoms: C14_22  and  C15_23 
REMARK    9  A    between atoms: C15_23  and  C16_24 
REMARK   10  A    between atoms: C16_24  and  C17_25 
ROOT
HETATM    1  C1  UNL     1      30.969   7.021  11.268  1.00  0.00     0.012 C 
HETATM    2  C2  UNL     1      30.538   7.626  10.319  1.00  0.00    -0.117 C 
HETATM    3  C3  UNL     1      30.005   8.337   9.159  1.00  0.00     0.094 C 
ENDROOT
BRANCH   3   4
HETATM    4  C4  UNL     1      29.255   7.494   8.199  1.00  0.00     0.032 C 
BRANCH   4   5
HETATM    5  C5  UNL     1      27.777   7.655   8.132  1.00  0.00     0.137 C 
BRANCH   5   6
HETATM    6  N1  UNL     1      27.118   7.599   9.425  1.00  0.00    -0.278 N 
HETATM    7  C6  UNL     1      27.110   6.485  10.239  1.00  0.00     0.174 A 
HETATM    8  C7  UNL     1      26.424   6.781  11.396  1.00  0.00     0.090 A 
HETATM    9  N2  UNL     1      26.010   8.050  11.308  1.00  0.00    -0.300 N 
HETATM   10  C18 UNL     1      25.248   8.805  12.314  1.00  0.00     0.161 C 
HETATM   11  C19 UNL     1      26.443   8.522  10.110  1.00  0.00     0.331 A 
HETATM   12  O5  UNL     1      26.200   9.706   9.754  1.00  0.00    -0.246 OA
BRANCH   7  13
HETATM   13  O1  UNL     1      27.713   5.279   9.902  1.00  0.00    -0.344 OA
ATOM     14  H1  UNL     1      27.253   4.555   9.494  1.00  0.00     0.219 HD
ENDBRANCH   7  13
BRANCH   8  15
HETATM   15  C8  UNL     1      26.299   5.862  12.514  1.00  0.00     0.048 C 
BRANCH  15  16
HETATM   16  C9  UNL     1      25.276   5.423  13.182  1.00  0.00     0.002 A 
HETATM   17  C10 UNL     1      24.991   5.927  14.431  1.00  0.00     0.068 A 
HETATM   18 CL1  UNL     1      25.965   7.184  15.215  1.00  0.00    -0.082 Cl
HETATM   19  C11 UNL     1      23.911   5.499  15.199  1.00  0.00     0.081 A 
HETATM   20 CL2  UNL     1      23.610   6.202  16.806  1.00  0.00    -0.081 Cl
HETATM   21  C12 UNL     1      23.098   4.538  14.693  1.00  0.00     0.091 A 
HETATM   22 CL3  UNL     1      21.727   3.981  15.644  1.00  0.00    -0.079 Cl
HETATM   23  C13 UNL     1      23.375   4.011  13.419  1.00  0.00     0.100 A 
HETATM   24  C14 UNL     1      24.429   4.423  12.658  1.00  0.00     0.008 A 
BRANCH  23  25
HETATM   25  O2  UNL     1      22.461   3.031  13.019  1.00  0.00    -0.358 OA
ATOM     26  H2  UNL     1      21.564   3.243  13.244  1.00  0.00     0.217 HD
ENDBRANCH  23  25
BRANCH  24  27
HETATM   27  C15 UNL     1      24.647   3.912  11.479  1.00  0.00    -0.001 C 
BRANCH  27  28
HETATM   28  C16 UNL     1      23.816   4.057  10.248  1.00  0.00     0.141 C 
BRANCH  28  29
HETATM   29  C17 UNL     1      23.444   2.757   9.649  1.00  0.00     0.176 C 
HETATM   30  O3  UNL     1      23.858   2.490   8.497  1.00  0.00    -0.648 OA
HETATM   31  O4  UNL     1      22.659   1.863  10.353  1.00  0.00    -0.648 OA
ENDBRANCH  28  29
ENDBRANCH  27  28
ENDBRANCH  24  27
ENDBRANCH  15  16
ENDBRANCH   8  15
ENDBRANCH   5   6
ENDBRANCH   4   5
ENDBRANCH   3   4
TORSDOF 10
ENDMDL
