MODEL 1
REMARK VINA RESULT: -7.003658129      0.000      0.000
REMARK  9 active torsions:
REMARK  status: ('A' for Active; 'I' for Inactive)
REMARK    1  A    between atoms: C2_2  and  N1_5 
REMARK    2  A    between atoms: C5_11  and  N4_12 
REMARK    3  A    between atoms: N4_12  and  C6_14 
REMARK    4  A    between atoms: C6_14  and  C7_15 
REMARK    5  A    between atoms: N5_18  and  C10_19 
REMARK    6  A    between atoms: C10_19  and  C11_20 
REMARK       I    between atoms: C11_20  and  N6_22 
REMARK    7  A    between atoms: N6_22  and  C12_24 
REMARK    8  A    between atoms: C15_27  and  C16_29 
REMARK    9  A    between atoms: C16_29  and  O2_30 
ROOT
HETATM    1  C7  UNL     1      26.307   8.173  12.603  1.00  0.00     0.010 C 
HETATM    2  C8  UNL     1      24.882   8.579  12.753  1.00  0.00     0.027 C 
HETATM    3  C9  UNL     1      24.577   8.714  14.230  1.00  0.00     0.128 C 
HETATM    4  N5  UNL     1      24.780   7.441  14.846  1.00  0.00    -0.365 N 
HETATM    5  C19 UNL     1      26.067   6.888  14.750  1.00  0.00     0.064 C 
HETATM    6  C20 UNL     1      26.745   7.013  13.421  1.00  0.00     0.051 C 
ENDROOT
BRANCH   4   7
HETATM    7  C10 UNL     1      23.683   6.559  14.889  1.00  0.00     0.164 C 
BRANCH   7   8
HETATM    8  C11 UNL     1      23.895   5.337  14.113  1.00  0.00     0.257 C 
HETATM    9  O1  UNL     1      24.101   4.244  14.764  1.00  0.00    -0.267 OA
HETATM   10  N6  UNL     1      23.877   5.324  12.707  1.00  0.00    -0.352 N 
ATOM     11  H6  UNL     1      23.708   6.178  12.175  1.00  0.00     0.163 HD
BRANCH  10  12
HETATM   12  C12 UNL     1      24.112   4.037  12.026  1.00  0.00     0.085 C 
HETATM   13  C13 UNL     1      25.046   4.316  10.879  1.00  0.00     0.028 C 
HETATM   14  C14 UNL     1      25.248   3.154   9.974  1.00  0.00     0.048 C 
HETATM   15  C15 UNL     1      24.049   2.318   9.690  1.00  0.00     0.124 C 
HETATM   16  F1  UNL     1      24.507   0.990   9.610  1.00  0.00    -0.241 F 
HETATM   17  C17 UNL     1      22.986   2.313  10.732  1.00  0.00     0.048 C 
HETATM   18  C18 UNL     1      22.788   3.595  11.469  1.00  0.00     0.028 C 
BRANCH  15  19
HETATM   19  C16 UNL     1      23.482   2.594   8.289  1.00  0.00     0.207 C 
BRANCH  19  20
HETATM   20  O2  UNL     1      24.421   2.454   7.301  1.00  0.00    -0.398 OA
ATOM     21  H2  UNL     1      24.364   1.616   6.857  1.00  0.00     0.209 HD
ENDBRANCH  19  20
ENDBRANCH  15  19
ENDBRANCH  10  12
ENDBRANCH   7   8
ENDBRANCH   4   7
BRANCH   1  22
HETATM   22  C6  UNL     1      27.284   9.346  12.767  1.00  0.00     0.143 C 
BRANCH  22  23
HETATM   23  N4  UNL     1      28.509   8.981  12.087  1.00  0.00    -0.224 N 
ATOM     24  H4  UNL     1      29.131   8.324  12.558  1.00  0.00     0.177 HD
BRANCH  23  25
HETATM   25  C5  UNL     1      28.872   9.416  10.947  1.00  0.00     0.697 A 
HETATM   26  N1  UNL     1      29.126   8.643   9.863  1.00  0.00    -0.099 N 
HETATM   27  N2  UNL     1      29.478   9.414   8.852  1.00  0.00    -0.277 N 
HETATM   28  C4  UNL     1      29.462  10.692   9.251  1.00  0.00     0.215 A 
ATOM     29  H2  UNL     1      29.724   9.089   7.918  1.00  0.00     0.188 HD
HETATM   30  N3  UNL     1      29.087  10.683  10.543  1.00  0.00    -0.185 N 
ATOM     31  H3  UNL     1      28.980  11.512  11.129  1.00  0.00     0.185 HD
BRANCH  26  32
HETATM   32  C2  UNL     1      29.035   7.191   9.785  1.00  0.00     0.140 C 
HETATM   33  C1  UNL     1      29.794   6.697   8.550  1.00  0.00     0.058 C 
HETATM   34  C3  UNL     1      27.608   6.728   9.677  1.00  0.00     0.058 C 
HETATM   35 CL1  UNL     1      29.813   6.463  11.205  1.00  0.00    -0.094 Cl
ENDBRANCH  26  32
ENDBRANCH  23  25
ENDBRANCH  22  23
ENDBRANCH   1  22
TORSDOF 9
ENDMDL
MODEL 2
REMARK VINA RESULT: -6.644538631      4.331      8.503
REMARK  9 active torsions:
REMARK  status: ('A' for Active; 'I' for Inactive)
REMARK    1  A    between atoms: C2_2  and  N1_5 
REMARK    2  A    between atoms: C5_11  and  N4_12 
REMARK    3  A    between atoms: N4_12  and  C6_14 
REMARK    4  A    between atoms: C6_14  and  C7_15 
REMARK    5  A    between atoms: N5_18  and  C10_19 
REMARK    6  A    between atoms: C10_19  and  C11_20 
REMARK       I    between atoms: C11_20  and  N6_22 
REMARK    7  A    between atoms: N6_22  and  C12_24 
REMARK    8  A    between atoms: C15_27  and  C16_29 
REMARK    9  A    between atoms: C16_29  and  O2_30 
ROOT
HETATM    1  C7  UNL     1      26.828   6.114  11.721  1.00  0.00     0.010 C 
HETATM    2  C8  UNL     1      26.505   7.566  11.644  1.00  0.00     0.027 C 
HETATM    3  C9  UNL     1      26.257   7.923  10.193  1.00  0.00     0.128 C 
HETATM    4  N5  UNL     1      27.453   7.658   9.459  1.00  0.00    -0.365 N 
HETATM    5  C19 UNL     1      27.927   6.336   9.471  1.00  0.00     0.064 C 
HETATM    6  C20 UNL     1      27.878   5.627  10.790  1.00  0.00     0.051 C 
ENDROOT
BRANCH   4   7
HETATM    7  C10 UNL     1      28.398   8.698   9.361  1.00  0.00     0.164 C 
BRANCH   7   8
HETATM    8  C11 UNL     1      29.692   8.359   9.954  1.00  0.00     0.257 C 
HETATM    9  O1  UNL     1      30.616   7.927   9.167  1.00  0.00    -0.267 OA
HETATM   10  N6  UNL     1      29.947   8.491  11.331  1.00  0.00    -0.352 N 
ATOM     11  H6  UNL     1      29.231   8.839  11.968  1.00  0.00     0.163 HD
BRANCH  10  12
HETATM   12  C12 UNL     1      31.285   8.112  11.824  1.00  0.00     0.085 C 
HETATM   13  C13 UNL     1      31.073   7.297  13.072  1.00  0.00     0.028 C 
HETATM   14  C14 UNL     1      32.329   6.982  13.802  1.00  0.00     0.048 C 
HETATM   15  C15 UNL     1      33.354   8.060  13.856  1.00  0.00     0.124 C 
HETATM   16  F1  UNL     1      34.603   7.419  13.769  1.00  0.00    -0.241 F 
HETATM   17  C17 UNL     1      33.333   9.048  12.743  1.00  0.00     0.048 C 
HETATM   18  C18 UNL     1      31.987   9.388  12.197  1.00  0.00     0.028 C 
BRANCH  15  19
HETATM   19  C16 UNL     1      33.389   8.743  15.232  1.00  0.00     0.207 C 
BRANCH  19  20
HETATM   20  O2  UNL     1      33.340   7.847  16.268  1.00  0.00    -0.398 OA
ATOM     21  H2  UNL     1      34.197   7.510  16.502  1.00  0.00     0.209 HD
ENDBRANCH  19  20
ENDBRANCH  15  19
ENDBRANCH  10  12
ENDBRANCH   7   8
ENDBRANCH   4   7
BRANCH   1  22
HETATM   22  C6  UNL     1      25.583   5.218  11.642  1.00  0.00     0.143 C 
BRANCH  22  23
HETATM   23  N4  UNL     1      24.551   5.849  12.439  1.00  0.00    -0.224 N 
ATOM     24  H4  UNL     1      24.201   6.754  12.124  1.00  0.00     0.177 HD
BRANCH  23  25
HETATM   25  C5  UNL     1      24.045   5.363  13.500  1.00  0.00     0.697 A 
HETATM   26  N1  UNL     1      23.901   6.032  14.671  1.00  0.00    -0.099 N 
HETATM   27  N2  UNL     1      23.345   5.233  15.561  1.00  0.00    -0.277 N 
HETATM   28  C4  UNL     1      23.115   4.040  14.997  1.00  0.00     0.215 A 
ATOM     29  H2  UNL     1      23.124   5.483  16.525  1.00  0.00     0.188 HD
HETATM   30  N3  UNL     1      23.550   4.131  13.727  1.00  0.00    -0.185 N 
ATOM     31  H3  UNL     1      23.511   3.379  13.038  1.00  0.00     0.185 HD
BRANCH  26  32
HETATM   32  C2  UNL     1      24.286   7.410  14.944  1.00  0.00     0.140 C 
HETATM   33  C1  UNL     1      23.720   7.841  16.299  1.00  0.00     0.058 C 
HETATM   34  C3  UNL     1      23.764   8.351  13.894  1.00  0.00     0.058 C 
HETATM   35 CL1  UNL     1      26.054   7.529  15.052  1.00  0.00    -0.094 Cl
ENDBRANCH  26  32
ENDBRANCH  23  25
ENDBRANCH  22  23
ENDBRANCH   1  22
TORSDOF 9
ENDMDL
MODEL 3
REMARK VINA RESULT: -6.628232882      4.794      8.906
REMARK  9 active torsions:
REMARK  status: ('A' for Active; 'I' for Inactive)
REMARK    1  A    between atoms: C2_2  and  N1_5 
REMARK    2  A    between atoms: C5_11  and  N4_12 
REMARK    3  A    between atoms: N4_12  and  C6_14 
REMARK    4  A    between atoms: C6_14  and  C7_15 
REMARK    5  A    between atoms: N5_18  and  C10_19 
REMARK    6  A    between atoms: C10_19  and  C11_20 
REMARK       I    between atoms: C11_20  and  N6_22 
REMARK    7  A    between atoms: N6_22  and  C12_24 
REMARK    8  A    between atoms: C15_27  and  C16_29 
REMARK    9  A    between atoms: C16_29  and  O2_30 
ROOT
HETATM    1  C7  UNL     1      27.786   6.439  11.224  1.00  0.00     0.010 C 
HETATM    2  C8  UNL     1      27.306   7.710  10.614  1.00  0.00     0.027 C 
HETATM    3  C9  UNL     1      27.678   7.705   9.146  1.00  0.00     0.128 C 
HETATM    4  N5  UNL     1      29.101   7.633   9.047  1.00  0.00    -0.365 N 
HETATM    5  C19 UNL     1      29.722   6.512   9.622  1.00  0.00     0.064 C 
HETATM    6  C20 UNL     1      29.203   6.081  10.960  1.00  0.00     0.051 C 
ENDROOT
BRANCH   4   7
HETATM    7  C10 UNL     1      29.814   8.849   9.033  1.00  0.00     0.164 C 
BRANCH   7   8
HETATM    8  C11 UNL     1      30.530   9.111  10.282  1.00  0.00     0.257 C 
HETATM    9  O1  UNL     1      29.925   9.806  11.183  1.00  0.00    -0.267 OA
HETATM   10  N6  UNL     1      31.831   8.633  10.519  1.00  0.00    -0.352 N 
ATOM     11  H6  UNL     1      32.322   8.075   9.820  1.00  0.00     0.163 HD
BRANCH  10  12
HETATM   12  C12 UNL     1      32.463   8.964  11.810  1.00  0.00     0.085 C 
HETATM   13  C13 UNL     1      33.947   9.032  11.563  1.00  0.00     0.028 C 
HETATM   14  C14 UNL     1      34.754   9.181  12.802  1.00  0.00     0.048 C 
HETATM   15  C15 UNL     1      34.295   8.410  13.990  1.00  0.00     0.124 C 
HETATM   16  F1  UNL     1      34.544   9.228  15.108  1.00  0.00    -0.241 F 
HETATM   17  C17 UNL     1      32.843   8.087  14.046  1.00  0.00     0.048 C 
HETATM   18  C18 UNL     1      32.184   7.813  12.736  1.00  0.00     0.028 C 
BRANCH  15  19
HETATM   19  C16 UNL     1      35.171   7.174  14.239  1.00  0.00     0.207 C 
BRANCH  19  20
HETATM   20  O2  UNL     1      34.438   6.062  14.561  1.00  0.00    -0.398 OA
ATOM     21  H2  UNL     1      34.944   5.260  14.502  1.00  0.00     0.209 HD
ENDBRANCH  19  20
ENDBRANCH  15  19
ENDBRANCH  10  12
ENDBRANCH   7   8
ENDBRANCH   4   7
BRANCH   1  22
HETATM   22  C6  UNL     1      26.866   5.247  10.924  1.00  0.00     0.143 C 
BRANCH  22  23
HETATM   23  N4  UNL     1      25.845   5.225  11.952  1.00  0.00    -0.224 N 
ATOM     24  H4  UNL     1      26.013   5.777  12.793  1.00  0.00     0.177 HD
BRANCH  23  25
HETATM   25  C5  UNL     1      24.755   4.571  11.887  1.00  0.00     0.697 A 
HETATM   26  N1  UNL     1      23.874   4.425  12.907  1.00  0.00    -0.099 N 
HETATM   27  N2  UNL     1      22.857   3.690  12.500  1.00  0.00    -0.277 N 
HETATM   28  C4  UNL     1      23.051   3.344  11.221  1.00  0.00     0.215 A 
ATOM     29  H2  UNL     1      22.053   3.426  13.068  1.00  0.00     0.188 HD
HETATM   30  N3  UNL     1      24.223   3.893  10.853  1.00  0.00    -0.185 N 
ATOM     31  H3  UNL     1      24.646   3.808   9.927  1.00  0.00     0.185 HD
BRANCH  26  32
HETATM   32  C2  UNL     1      23.992   4.975  14.251  1.00  0.00     0.140 C 
HETATM   33  C1  UNL     1      22.878   4.410  15.135  1.00  0.00     0.058 C 
HETATM   34  C3  UNL     1      23.878   6.475  14.250  1.00  0.00     0.058 C 
HETATM   35 CL1  UNL     1      25.537   4.476  14.970  1.00  0.00    -0.094 Cl
ENDBRANCH  26  32
ENDBRANCH  23  25
ENDBRANCH  22  23
ENDBRANCH   1  22
TORSDOF 9
ENDMDL
MODEL 4
REMARK VINA RESULT: -6.611653371      5.330      9.357
REMARK  9 active torsions:
REMARK  status: ('A' for Active; 'I' for Inactive)
REMARK    1  A    between atoms: C2_2  and  N1_5 
REMARK    2  A    between atoms: C5_11  and  N4_12 
REMARK    3  A    between atoms: N4_12  and  C6_14 
REMARK    4  A    between atoms: C6_14  and  C7_15 
REMARK    5  A    between atoms: N5_18  and  C10_19 
REMARK    6  A    between atoms: C10_19  and  C11_20 
REMARK       I    between atoms: C11_20  and  N6_22 
REMARK    7  A    between atoms: N6_22  and  C12_24 
REMARK    8  A    between atoms: C15_27  and  C16_29 
REMARK    9  A    between atoms: C16_29  and  O2_30 
ROOT
HETATM    1  C7  UNL     1      27.030   6.204  10.272  1.00  0.00     0.010 C 
HETATM    2  C8  UNL     1      28.062   5.655  11.196  1.00  0.00     0.027 C 
HETATM    3  C9  UNL     1      28.772   6.814  11.862  1.00  0.00     0.128 C 
HETATM    4  N5  UNL     1      29.404   7.594  10.846  1.00  0.00    -0.365 N 
HETATM    5  C19 UNL     1      28.572   8.147   9.859  1.00  0.00     0.064 C 
HETATM    6  C20 UNL     1      27.491   7.256   9.329  1.00  0.00     0.051 C 
ENDROOT
BRANCH   4   7
HETATM    7  C10 UNL     1      30.718   7.240  10.481  1.00  0.00     0.164 C 
BRANCH   7   8
HETATM    8  C11 UNL     1      31.740   7.914  11.281  1.00  0.00     0.257 C 
HETATM    9  O1  UNL     1      32.269   8.984  10.796  1.00  0.00    -0.267 OA
HETATM   10  N6  UNL     1      32.148   7.437  12.540  1.00  0.00    -0.352 N 
ATOM     11  H6  UNL     1      31.735   6.596  12.943  1.00  0.00     0.163 HD
BRANCH  10  12
HETATM   12  C12 UNL     1      33.194   8.191  13.258  1.00  0.00     0.085 C 
HETATM   13  C13 UNL     1      33.778   7.256  14.283  1.00  0.00     0.028 C 
HETATM   14  C14 UNL     1      34.727   7.912  15.220  1.00  0.00     0.048 C 
HETATM   15  C15 UNL     1      34.372   9.285  15.673  1.00  0.00     0.124 C 
HETATM   16  F1  UNL     1      35.584   9.992  15.772  1.00  0.00    -0.241 F 
HETATM   17  C17 UNL     1      33.517  10.083  14.751  1.00  0.00     0.048 C 
HETATM   18  C18 UNL     1      32.500   9.316  13.975  1.00  0.00     0.028 C 
BRANCH  15  19
HETATM   19  C16 UNL     1      33.829   9.287  17.109  1.00  0.00     0.207 C 
BRANCH  19  20
HETATM   20  O2  UNL     1      33.424   8.045  17.524  1.00  0.00    -0.398 OA
ATOM     21  H2  UNL     1      32.825   8.082  18.261  1.00  0.00     0.209 HD
ENDBRANCH  19  20
ENDBRANCH  15  19
ENDBRANCH  10  12
ENDBRANCH   7   8
ENDBRANCH   4   7
BRANCH   1  22
HETATM   22  C6  UNL     1      25.756   6.656  10.999  1.00  0.00     0.143 C 
BRANCH  22  23
HETATM   23  N4  UNL     1      25.449   5.648  11.993  1.00  0.00    -0.224 N 
ATOM     24  H4  UNL     1      26.040   5.612  12.823  1.00  0.00     0.177 HD
BRANCH  23  25
HETATM   25  C5  UNL     1      24.501   4.803  11.911  1.00  0.00     0.697 A 
HETATM   26  N1  UNL     1      23.730   4.396  12.949  1.00  0.00    -0.099 N 
HETATM   27  N2  UNL     1      22.848   3.516  12.515  1.00  0.00    -0.277 N 
HETATM   28  C4  UNL     1      23.022   3.333  11.200  1.00  0.00     0.215 A 
ATOM     29  H2  UNL     1      22.145   3.050  13.089  1.00  0.00     0.188 HD
HETATM   30  N3  UNL     1      24.044   4.131  10.838  1.00  0.00    -0.185 N 
ATOM     31  H3  UNL     1      24.416   4.214   9.891  1.00  0.00     0.185 HD
BRANCH  26  32
HETATM   32  C2  UNL     1      23.826   4.834  14.335  1.00  0.00     0.140 C 
HETATM   33  C1  UNL     1      22.821   4.058  15.188  1.00  0.00     0.058 C 
HETATM   34  C3  UNL     1      23.529   6.302  14.475  1.00  0.00     0.058 C 
HETATM   35 CL1  UNL     1      25.444   4.471  14.969  1.00  0.00    -0.094 Cl
ENDBRANCH  26  32
ENDBRANCH  23  25
ENDBRANCH  22  23
ENDBRANCH   1  22
TORSDOF 9
ENDMDL
MODEL 5
REMARK VINA RESULT: -6.608009194      3.917      6.572
REMARK  9 active torsions:
REMARK  status: ('A' for Active; 'I' for Inactive)
REMARK    1  A    between atoms: C2_2  and  N1_5 
REMARK    2  A    between atoms: C5_11  and  N4_12 
REMARK    3  A    between atoms: N4_12  and  C6_14 
REMARK    4  A    between atoms: C6_14  and  C7_15 
REMARK    5  A    between atoms: N5_18  and  C10_19 
REMARK    6  A    between atoms: C10_19  and  C11_20 
REMARK       I    between atoms: C11_20  and  N6_22 
REMARK    7  A    between atoms: N6_22  and  C12_24 
REMARK    8  A    between atoms: C15_27  and  C16_29 
REMARK    9  A    between atoms: C16_29  and  O2_30 
ROOT
HETATM    1  C7  UNL     1      24.478   6.907  15.619  1.00  0.00     0.010 C 
HETATM    2  C8  UNL     1      25.490   7.097  14.543  1.00  0.00     0.027 C 
HETATM    3  C9  UNL     1      24.842   6.766  13.215  1.00  0.00     0.128 C 
HETATM    4  N5  UNL     1      24.429   5.400  13.248  1.00  0.00    -0.365 N 
HETATM    5  C19 UNL     1      23.507   5.039  14.244  1.00  0.00     0.064 C 
HETATM    6  C20 UNL     1      23.746   5.614  15.607  1.00  0.00     0.051 C 
ENDROOT
BRANCH   4   7
HETATM    7  C10 UNL     1      25.359   4.430  12.825  1.00  0.00     0.164 C 
BRANCH   7   8
HETATM    8  C11 UNL     1      26.103   4.828  11.630  1.00  0.00     0.257 C 
HETATM    9  O1  UNL     1      25.670   4.413  10.490  1.00  0.00    -0.267 OA
HETATM   10  N6  UNL     1      27.253   5.636  11.693  1.00  0.00    -0.352 N 
ATOM     11  H6  UNL     1      27.606   5.981  12.586  1.00  0.00     0.163 HD
BRANCH  10  12
HETATM   12  C12 UNL     1      27.931   5.970  10.426  1.00  0.00     0.085 C 
HETATM   13  C13 UNL     1      29.381   6.201  10.758  1.00  0.00     0.028 C 
HETATM   14  C14 UNL     1      30.180   6.725   9.618  1.00  0.00     0.048 C 
HETATM   15  C15 UNL     1      29.512   7.728   8.744  1.00  0.00     0.124 C 
HETATM   16  F1  UNL     1      29.955   7.465   7.435  1.00  0.00    -0.241 F 
HETATM   17  C17 UNL     1      28.026   7.664   8.683  1.00  0.00     0.048 C 
HETATM   18  C18 UNL     1      27.337   7.265   9.945  1.00  0.00     0.028 C 
BRANCH  15  19
HETATM   19  C16 UNL     1      30.017   9.151   9.022  1.00  0.00     0.207 C 
BRANCH  19  20
HETATM   20  O2  UNL     1      31.137   9.171   9.811  1.00  0.00    -0.398 OA
ATOM     21  H2  UNL     1      31.437   8.299  10.043  1.00  0.00     0.209 HD
ENDBRANCH  19  20
ENDBRANCH  15  19
ENDBRANCH  10  12
ENDBRANCH   7   8
ENDBRANCH   4   7
BRANCH   1  22
HETATM   22  C6  UNL     1      23.494   8.080  15.730  1.00  0.00     0.143 C 
BRANCH  22  23
HETATM   23  N4  UNL     1      24.271   9.263  16.036  1.00  0.00    -0.224 N 
ATOM     24  H4  UNL     1      24.915   9.211  16.826  1.00  0.00     0.177 HD
BRANCH  23  25
HETATM   25  C5  UNL     1      24.215  10.362  15.398  1.00  0.00     0.697 A 
HETATM   26  N1  UNL     1      24.945  11.468  15.685  1.00  0.00    -0.099 N 
HETATM   27  N2  UNL     1      24.640  12.424  14.830  1.00  0.00    -0.277 N 
HETATM   28  C4  UNL     1      23.714  11.969  13.976  1.00  0.00     0.215 A 
ATOM     29  H2  UNL     1      25.043  13.361  14.820  1.00  0.00     0.188 HD
HETATM   30  N3  UNL     1      23.459  10.697  14.335  1.00  0.00    -0.185 N 
ATOM     31  H3  UNL     1      22.793  10.078  13.870  1.00  0.00     0.185 HD
BRANCH  26  32
HETATM   32  C2  UNL     1      25.921  11.617  16.756  1.00  0.00     0.140 C 
HETATM   33  C1  UNL     1      26.564  13.004  16.674  1.00  0.00     0.058 C 
HETATM   34  C3  UNL     1      27.013  10.586  16.661  1.00  0.00     0.058 C 
HETATM   35 CL1  UNL     1      25.108  11.508  18.330  1.00  0.00    -0.094 Cl
ENDBRANCH  26  32
ENDBRANCH  23  25
ENDBRANCH  22  23
ENDBRANCH   1  22
TORSDOF 9
ENDMDL
