MODEL 1
REMARK VINA RESULT: -7.258337269      0.000      0.000
REMARK  9 active torsions:
REMARK  status: ('A' for Active; 'I' for Inactive)
REMARK    1  A    between atoms: C2_2  and  C3_3 
REMARK    2  A    between atoms: C7_8  and  O1_9 
REMARK    3  A    between atoms: C8_11  and  O2_12 
REMARK    4  A    between atoms: C10_16  and  C11_17 
REMARK    5  A    between atoms: C11_17  and  C12_18 
REMARK    6  A    between atoms: C12_18  and  N1_19 
REMARK    7  A    between atoms: N1_19  and  C13_20 
REMARK       I    between atoms: N1_19  and  C16_25 
REMARK    8  A    between atoms: C13_20  and  C14_21 
REMARK    9  A    between atoms: C21_31  and  O5_32 
ROOT
HETATM    1  C3  UNL     1      31.161   8.820  11.727  1.00  0.00     0.040 C 
HETATM    2  C4  UNL     1      31.774   8.984  13.136  1.00  0.00     0.029 C 
HETATM    3  C5  UNL     1      30.013   9.694  11.623  1.00  0.00     0.029 C 
HETATM    4 CL1  UNL     1      29.801  10.790  13.028  1.00  0.00    -0.088 Cl
HETATM    5  C6  UNL     1      29.098   9.853  10.707  1.00  0.00     0.058 C 
HETATM    6  C7  UNL     1      28.878   9.201   9.417  1.00  0.00     0.107 C 
HETATM    7  C8  UNL     1      27.842   8.158   9.352  1.00  0.00     0.227 C 
HETATM    8  O3  UNL     1      27.976   7.337   8.218  1.00  0.00    -0.347 OA
HETATM    9  C9  UNL     1      28.620   6.385   9.009  1.00  0.00     0.192 C 
HETATM   10  C10 UNL     1      27.879   6.960  10.170  1.00  0.00     0.072 C 
HETATM   11  C18 UNL     1      28.560   6.991  11.471  1.00  0.00    -0.052 C 
HETATM   12  C19 UNL     1      27.820   7.437  12.502  1.00  0.00     0.020 C 
HETATM   13  C20 UNL     1      29.921   6.574  11.784  1.00  0.00     0.013 C 
HETATM   14  C21 UNL     1      31.078   7.401  11.469  1.00  0.00     0.158 C 
ENDROOT
BRANCH  10  15
HETATM   15  C11 UNL     1      26.526   6.262  10.290  1.00  0.00     0.042 C 
BRANCH  15  16
HETATM   16  C12 UNL     1      26.564   4.850  10.706  1.00  0.00     0.127 C 
BRANCH  16  17
HETATM   17  N1  UNL     1      25.196   4.542  11.189  1.00  0.00    -0.347 N 
HETATM   18  C16 UNL     1      24.967   4.616  12.565  1.00  0.00     0.215 C 
HETATM   19  C17 UNL     1      23.650   4.327  13.145  1.00  0.00     0.117 C 
HETATM   20  O4  UNL     1      25.890   4.935  13.347  1.00  0.00    -0.274 OA
BRANCH  17  21
HETATM   21  C13 UNL     1      24.202   4.169  10.235  1.00  0.00     0.204 C 
BRANCH  21  22
HETATM   22  C14 UNL     1      24.249   2.764   9.743  1.00  0.00     0.256 C 
HETATM   23  C15 UNL     1      22.912   2.074   9.677  1.00  0.00     0.091 C 
HETATM   24  F1  UNL     1      24.716   2.823   8.420  1.00  0.00    -0.205 F 
HETATM   25  F2  UNL     1      25.185   1.998  10.408  1.00  0.00    -0.205 F 
ENDBRANCH  21  22
ENDBRANCH  17  21
ENDBRANCH  16  17
ENDBRANCH  15  16
ENDBRANCH  10  15
BRANCH   7  26
HETATM   26  O2  UNL     1      26.561   8.760   9.437  1.00  0.00    -0.359 OA
ATOM     27  H2  UNL     1      25.969   8.178   9.900  1.00  0.00     0.213 HD
ENDBRANCH   7  26
BRANCH   6  28
HETATM   28  O1  UNL     1      30.042   8.901   8.698  1.00  0.00    -0.359 OA
ATOM     29  H1  UNL     1      30.271   7.980   8.669  1.00  0.00     0.217 HD
ENDBRANCH   6  28
BRANCH  14  30
HETATM   30  O5  UNL     1      32.147   6.798  12.231  1.00  0.00    -0.390 OA
ATOM     31  H5  UNL     1      32.241   5.915  11.892  1.00  0.00     0.210 HD
ENDBRANCH  14  30
BRANCH   1  32
HETATM   32  C2  UNL     1      32.230   9.418  10.850  1.00  0.00    -0.019 C 
HETATM   33  C1  UNL     1      33.427   9.766  11.247  1.00  0.00     0.008 C 
ENDBRANCH   1  32
TORSDOF 9
ENDMDL
MODEL 2
REMARK VINA RESULT: -7.083178622      1.636      2.329
REMARK  9 active torsions:
REMARK  status: ('A' for Active; 'I' for Inactive)
REMARK    1  A    between atoms: C2_2  and  C3_3 
REMARK    2  A    between atoms: C7_8  and  O1_9 
REMARK    3  A    between atoms: C8_11  and  O2_12 
REMARK    4  A    between atoms: C10_16  and  C11_17 
REMARK    5  A    between atoms: C11_17  and  C12_18 
REMARK    6  A    between atoms: C12_18  and  N1_19 
REMARK    7  A    between atoms: N1_19  and  C13_20 
REMARK       I    between atoms: N1_19  and  C16_25 
REMARK    8  A    between atoms: C13_20  and  C14_21 
REMARK    9  A    between atoms: C21_31  and  O5_32 
ROOT
HETATM    1  C3  UNL     1      31.365   8.892  11.795  1.00  0.00     0.040 C 
HETATM    2  C4  UNL     1      31.935   9.070  13.221  1.00  0.00     0.029 C 
HETATM    3  C5  UNL     1      30.267   9.818  11.623  1.00  0.00     0.029 C 
HETATM    4 CL1  UNL     1      30.059  10.966  12.986  1.00  0.00    -0.088 Cl
HETATM    5  C6  UNL     1      29.395   9.993  10.669  1.00  0.00     0.058 C 
HETATM    6  C7  UNL     1      29.188   9.312   9.391  1.00  0.00     0.107 C 
HETATM    7  C8  UNL     1      28.104   8.320   9.318  1.00  0.00     0.227 C 
HETATM    8  O3  UNL     1      28.237   7.458   8.214  1.00  0.00    -0.347 OA
HETATM    9  C9  UNL     1      28.804   6.501   9.057  1.00  0.00     0.192 C 
HETATM   10  C10 UNL     1      28.052   7.148  10.171  1.00  0.00     0.072 C 
HETATM   11  C18 UNL     1      28.686   7.186  11.495  1.00  0.00    -0.052 C 
HETATM   12  C19 UNL     1      27.933   7.700  12.485  1.00  0.00     0.020 C 
HETATM   13  C20 UNL     1      30.012   6.713  11.871  1.00  0.00     0.013 C 
HETATM   14  C21 UNL     1      31.220   7.472  11.576  1.00  0.00     0.158 C 
ENDROOT
BRANCH  10  15
HETATM   15  C11 UNL     1      26.662   6.522  10.262  1.00  0.00     0.042 C 
BRANCH  15  16
HETATM   16  C12 UNL     1      26.606   5.150  10.795  1.00  0.00     0.127 C 
BRANCH  16  17
HETATM   17  N1  UNL     1      25.211   4.961  11.259  1.00  0.00    -0.347 N 
HETATM   18  C16 UNL     1      24.499   3.880  10.736  1.00  0.00     0.215 C 
HETATM   19  C17 UNL     1      23.110   3.606  11.127  1.00  0.00     0.117 C 
HETATM   20  O4  UNL     1      25.032   3.107   9.910  1.00  0.00    -0.274 OA
BRANCH  17  21
HETATM   21  C13 UNL     1      24.668   5.896  12.192  1.00  0.00     0.204 C 
BRANCH  21  22
HETATM   22  C14 UNL     1      24.774   5.533  13.633  1.00  0.00     0.256 C 
HETATM   23  C15 UNL     1      25.146   6.673  14.544  1.00  0.00     0.091 C 
HETATM   24  F1  UNL     1      23.493   5.122  14.033  1.00  0.00    -0.205 F 
HETATM   25  F2  UNL     1      25.575   4.429  13.845  1.00  0.00    -0.205 F 
ENDBRANCH  21  22
ENDBRANCH  17  21
ENDBRANCH  16  17
ENDBRANCH  15  16
ENDBRANCH  10  15
BRANCH   7  26
HETATM   26  O2  UNL     1      26.853   8.986   9.337  1.00  0.00    -0.359 OA
ATOM     27  H2  UNL     1      26.627   9.207  10.233  1.00  0.00     0.213 HD
ENDBRANCH   7  26
BRANCH   6  28
HETATM   28  O1  UNL     1      30.362   8.933   8.725  1.00  0.00    -0.359 OA
ATOM     29  H1  UNL     1      30.448   8.001   8.561  1.00  0.00     0.217 HD
ENDBRANCH   6  28
BRANCH  14  30
HETATM   30  O5  UNL     1      32.229   6.841  12.395  1.00  0.00    -0.390 OA
ATOM     31  H5  UNL     1      31.948   5.939  12.505  1.00  0.00     0.210 HD
ENDBRANCH  14  30
BRANCH   1  32
HETATM   32  C2  UNL     1      32.494   9.409  10.941  1.00  0.00    -0.019 C 
HETATM   33  C1  UNL     1      33.643   9.842  11.390  1.00  0.00     0.008 C 
ENDBRANCH   1  32
TORSDOF 9
ENDMDL
MODEL 3
REMARK VINA RESULT: -6.907419677      3.734      5.849
REMARK  9 active torsions:
REMARK  status: ('A' for Active; 'I' for Inactive)
REMARK    1  A    between atoms: C2_2  and  C3_3 
REMARK    2  A    between atoms: C7_8  and  O1_9 
REMARK    3  A    between atoms: C8_11  and  O2_12 
REMARK    4  A    between atoms: C10_16  and  C11_17 
REMARK    5  A    between atoms: C11_17  and  C12_18 
REMARK    6  A    between atoms: C12_18  and  N1_19 
REMARK    7  A    between atoms: N1_19  and  C13_20 
REMARK       I    between atoms: N1_19  and  C16_25 
REMARK    8  A    between atoms: C13_20  and  C14_21 
REMARK    9  A    between atoms: C21_31  and  O5_32 
ROOT
HETATM    1  C3  UNL     1      25.097  11.434  14.009  1.00  0.00     0.040 C 
HETATM    2  C4  UNL     1      24.716  12.535  12.995  1.00  0.00     0.029 C 
HETATM    3  C5  UNL     1      26.432  10.970  13.700  1.00  0.00     0.029 C 
HETATM    4 CL1  UNL     1      27.258  11.922  12.424  1.00  0.00    -0.088 Cl
HETATM    5  C6  UNL     1      27.164   9.997  14.168  1.00  0.00     0.058 C 
HETATM    6  C7  UNL     1      26.915   8.989  15.197  1.00  0.00     0.107 C 
HETATM    7  C8  UNL     1      26.553   7.635  14.748  1.00  0.00     0.227 C 
HETATM    8  O3  UNL     1      25.960   6.870  15.767  1.00  0.00    -0.347 OA
HETATM    9  C9  UNL     1      24.706   7.178  15.239  1.00  0.00     0.192 C 
HETATM   10  C10 UNL     1      25.389   7.364  13.926  1.00  0.00     0.072 C 
HETATM   11  C18 UNL     1      24.877   8.405  13.027  1.00  0.00    -0.052 C 
HETATM   12  C19 UNL     1      25.470   8.476  11.821  1.00  0.00     0.020 C 
HETATM   13  C20 UNL     1      23.794   9.350  13.270  1.00  0.00     0.013 C 
HETATM   14  C21 UNL     1      23.968  10.536  14.097  1.00  0.00     0.158 C 
ENDROOT
BRANCH  10  15
HETATM   15  C11 UNL     1      25.452   6.019  13.204  1.00  0.00     0.042 C 
BRANCH  15  16
HETATM   16  C12 UNL     1      24.238   5.622  12.472  1.00  0.00     0.127 C 
BRANCH  16  17
HETATM   17  N1  UNL     1      24.694   4.666  11.435  1.00  0.00    -0.347 N 
HETATM   18  C16 UNL     1      23.716   4.064  10.639  1.00  0.00     0.215 C 
HETATM   19  C17 UNL     1      24.062   3.101   9.587  1.00  0.00     0.117 C 
HETATM   20  O4  UNL     1      22.506   4.334  10.805  1.00  0.00    -0.274 OA
BRANCH  17  21
HETATM   21  C13 UNL     1      26.092   4.398  11.319  1.00  0.00     0.204 C 
BRANCH  21  22
HETATM   22  C14 UNL     1      26.849   5.240  10.351  1.00  0.00     0.256 C 
HETATM   23  C15 UNL     1      28.210   5.678  10.827  1.00  0.00     0.091 C 
HETATM   24  F1  UNL     1      27.076   4.437   9.222  1.00  0.00    -0.205 F 
HETATM   25  F2  UNL     1      26.109   6.304   9.877  1.00  0.00    -0.205 F 
ENDBRANCH  21  22
ENDBRANCH  17  21
ENDBRANCH  16  17
ENDBRANCH  15  16
ENDBRANCH  10  15
BRANCH   7  26
HETATM   26  O2  UNL     1      27.694   7.003  14.191  1.00  0.00    -0.359 OA
ATOM     27  H2  UNL     1      27.600   6.957  13.246  1.00  0.00     0.213 HD
ENDBRANCH   7  26
BRANCH   6  28
HETATM   28  O1  UNL     1      26.187   9.440  16.306  1.00  0.00    -0.359 OA
ATOM     29  H1  UNL     1      26.573   9.237  17.150  1.00  0.00     0.217 HD
ENDBRANCH   6  28
BRANCH  14  30
HETATM   30  O5  UNL     1      22.803  11.337  13.797  1.00  0.00    -0.390 OA
ATOM     31  H5  UNL     1      22.253  11.294  14.571  1.00  0.00     0.210 HD
ENDBRANCH  14  30
BRANCH   1  32
HETATM   32  C2  UNL     1      25.206  12.215  15.293  1.00  0.00    -0.019 C 
HETATM   33  C1  UNL     1      25.468  13.493  15.380  1.00  0.00     0.008 C 
ENDBRANCH   1  32
TORSDOF 9
ENDMDL
MODEL 4
REMARK VINA RESULT: -6.781026691      3.460      4.495
REMARK  9 active torsions:
REMARK  status: ('A' for Active; 'I' for Inactive)
REMARK    1  A    between atoms: C2_2  and  C3_3 
REMARK    2  A    between atoms: C7_8  and  O1_9 
REMARK    3  A    between atoms: C8_11  and  O2_12 
REMARK    4  A    between atoms: C10_16  and  C11_17 
REMARK    5  A    between atoms: C11_17  and  C12_18 
REMARK    6  A    between atoms: C12_18  and  N1_19 
REMARK    7  A    between atoms: N1_19  and  C13_20 
REMARK       I    between atoms: N1_19  and  C16_25 
REMARK    8  A    between atoms: C13_20  and  C14_21 
REMARK    9  A    between atoms: C21_31  and  O5_32 
ROOT
HETATM    1  C3  UNL     1      26.154  10.675  15.324  1.00  0.00     0.040 C 
HETATM    2  C4  UNL     1      25.682  10.943  16.771  1.00  0.00     0.029 C 
HETATM    3  C5  UNL     1      25.046  10.925  14.428  1.00  0.00     0.029 C 
HETATM    4 CL1  UNL     1      23.604  11.632  15.230  1.00  0.00    -0.088 Cl
HETATM    5  C6  UNL     1      24.883  10.746  13.147  1.00  0.00     0.058 C 
HETATM    6  C7  UNL     1      25.767  10.217  12.110  1.00  0.00     0.107 C 
HETATM    7  C8  UNL     1      25.549   8.828  11.675  1.00  0.00     0.227 C 
HETATM    8  O3  UNL     1      26.659   8.296  10.995  1.00  0.00    -0.347 OA
HETATM    9  C9  UNL     1      27.054   7.667  12.175  1.00  0.00     0.192 C 
HETATM   10  C10 UNL     1      25.619   7.699  12.583  1.00  0.00     0.072 C 
HETATM   11  C18 UNL     1      25.314   7.893  14.006  1.00  0.00    -0.052 C 
HETATM   12  C19 UNL     1      24.011   7.827  14.336  1.00  0.00     0.020 C 
HETATM   13  C20 UNL     1      26.248   8.120  15.103  1.00  0.00     0.013 C 
HETATM   14  C21 UNL     1      26.864   9.417  15.342  1.00  0.00     0.158 C 
ENDROOT
BRANCH  10  15
HETATM   15  C11 UNL     1      24.924   6.447  12.053  1.00  0.00     0.042 C 
BRANCH  15  16
HETATM   16  C12 UNL     1      25.392   5.165  12.609  1.00  0.00     0.127 C 
BRANCH  16  17
HETATM   17  N1  UNL     1      24.169   4.455  13.054  1.00  0.00    -0.347 N 
HETATM   18  C16 UNL     1      23.999   4.262  14.426  1.00  0.00     0.215 C 
HETATM   19  C17 UNL     1      22.825   3.567  14.969  1.00  0.00     0.117 C 
HETATM   20  O4  UNL     1      24.854   4.680  15.238  1.00  0.00    -0.274 OA
BRANCH  17  21
HETATM   21  C13 UNL     1      23.248   3.993  12.064  1.00  0.00     0.204 C 
BRANCH  21  22
HETATM   22  C14 UNL     1      23.836   3.542  10.772  1.00  0.00     0.256 C 
HETATM   23  C15 UNL     1      23.179   2.328  10.170  1.00  0.00     0.091 C 
HETATM   24  F1  UNL     1      23.627   4.587   9.857  1.00  0.00    -0.205 F 
HETATM   25  F2  UNL     1      25.208   3.403  10.831  1.00  0.00    -0.205 F 
ENDBRANCH  21  22
ENDBRANCH  17  21
ENDBRANCH  16  17
ENDBRANCH  15  16
ENDBRANCH  10  15
BRANCH   7  26
HETATM   26  O2  UNL     1      24.358   8.756  10.908  1.00  0.00    -0.359 OA
ATOM     27  H2  UNL     1      24.553   8.381  10.057  1.00  0.00     0.213 HD
ENDBRANCH   7  26
BRANCH   6  28
HETATM   28  O1  UNL     1      27.116  10.573  12.242  1.00  0.00    -0.359 OA
ATOM     29  H1  UNL     1      27.647  10.434  11.466  1.00  0.00     0.217 HD
ENDBRANCH   6  28
BRANCH  14  30
HETATM   30  O5  UNL     1      27.416   9.294  16.671  1.00  0.00    -0.390 OA
ATOM     31  H5  UNL     1      26.671   9.212  17.255  1.00  0.00     0.210 HD
ENDBRANCH  14  30
BRANCH   1  32
HETATM   32  C2  UNL     1      27.138  11.794  15.105  1.00  0.00    -0.019 C 
HETATM   33  C1  UNL     1      27.002  13.018  15.545  1.00  0.00     0.008 C 
ENDBRANCH   1  32
TORSDOF 9
ENDMDL
MODEL 5
REMARK VINA RESULT: -6.735467637      4.381      5.824
REMARK  9 active torsions:
REMARK  status: ('A' for Active; 'I' for Inactive)
REMARK    1  A    between atoms: C2_2  and  C3_3 
REMARK    2  A    between atoms: C7_8  and  O1_9 
REMARK    3  A    between atoms: C8_11  and  O2_12 
REMARK    4  A    between atoms: C10_16  and  C11_17 
REMARK    5  A    between atoms: C11_17  and  C12_18 
REMARK    6  A    between atoms: C12_18  and  N1_19 
REMARK    7  A    between atoms: N1_19  and  C13_20 
REMARK       I    between atoms: N1_19  and  C16_25 
REMARK    8  A    between atoms: C13_20  and  C14_21 
REMARK    9  A    between atoms: C21_31  and  O5_32 
ROOT
HETATM    1  C3  UNL     1      29.396   7.683  10.576  1.00  0.00     0.040 C 
HETATM    2  C4  UNL     1      30.734   8.455  10.535  1.00  0.00     0.029 C 
HETATM    3  C5  UNL     1      28.385   8.486   9.921  1.00  0.00     0.029 C 
HETATM    4 CL1  UNL     1      29.027   9.961   9.127  1.00  0.00    -0.088 Cl
HETATM    5  C6  UNL     1      27.096   8.350   9.785  1.00  0.00     0.058 C 
HETATM    6  C7  UNL     1      26.162   7.324  10.247  1.00  0.00     0.107 C 
HETATM    7  C8  UNL     1      25.352   7.629  11.437  1.00  0.00     0.227 C 
HETATM    8  O3  UNL     1      24.802   6.475  12.024  1.00  0.00    -0.347 OA
HETATM    9  C9  UNL     1      25.838   6.482  12.958  1.00  0.00     0.192 C 
HETATM   10  C10 UNL     1      25.937   7.952  12.725  1.00  0.00     0.072 C 
HETATM   11  C18 UNL     1      27.268   8.568  12.783  1.00  0.00    -0.052 C 
HETATM   12  C19 UNL     1      27.295   9.907  12.654  1.00  0.00     0.020 C 
HETATM   13  C20 UNL     1      28.554   7.913  12.989  1.00  0.00     0.013 C 
HETATM   14  C21 UNL     1      29.238   7.191  11.925  1.00  0.00     0.158 C 
ENDROOT
BRANCH  10  15
HETATM   15  C11 UNL     1      24.974   8.669  13.668  1.00  0.00     0.042 C 
BRANCH  15  16
HETATM   16  C12 UNL     1      25.117   8.352  15.100  1.00  0.00     0.127 C 
BRANCH  16  17
HETATM   17  N1  UNL     1      25.208   9.662  15.790  1.00  0.00    -0.347 N 
HETATM   18  C16 UNL     1      26.451  10.032  16.306  1.00  0.00     0.215 C 
HETATM   19  C17 UNL     1      26.647  11.306  17.009  1.00  0.00     0.117 C 
HETATM   20  O4  UNL     1      27.442   9.279  16.182  1.00  0.00    -0.274 OA
BRANCH  17  21
HETATM   21  C13 UNL     1      24.027  10.457  15.905  1.00  0.00     0.204 C 
BRANCH  21  22
HETATM   22  C14 UNL     1      23.866  11.552  14.909  1.00  0.00     0.256 C 
HETATM   23  C15 UNL     1      23.557  12.902  15.500  1.00  0.00     0.091 C 
HETATM   24  F1  UNL     1      25.107  11.688  14.266  1.00  0.00    -0.205 F 
HETATM   25  F2  UNL     1      22.986  11.225  13.897  1.00  0.00    -0.205 F 
ENDBRANCH  21  22
ENDBRANCH  17  21
ENDBRANCH  16  17
ENDBRANCH  15  16
ENDBRANCH  10  15
BRANCH   7  26
HETATM   26  O2  UNL     1      24.365   8.589  11.102  1.00  0.00    -0.359 OA
ATOM     27  H2  UNL     1      23.818   8.758  11.860  1.00  0.00     0.213 HD
ENDBRANCH   7  26
BRANCH   6  28
HETATM   28  O1  UNL     1      26.656   6.013  10.208  1.00  0.00    -0.359 OA
ATOM     29  H1  UNL     1      27.421   5.888   9.659  1.00  0.00     0.217 HD
ENDBRANCH   6  28
BRANCH  14  30
HETATM   30  O5  UNL     1      30.576   7.010  12.439  1.00  0.00    -0.390 OA
ATOM     31  H5  UNL     1      30.646   7.588  13.190  1.00  0.00     0.210 HD
ENDBRANCH  14  30
BRANCH   1  32
HETATM   32  C2  UNL     1      29.676   6.522   9.658  1.00  0.00    -0.019 C 
HETATM   33  C1  UNL     1      29.903   6.612   8.373  1.00  0.00     0.008 C 
ENDBRANCH   1  32
TORSDOF 9
ENDMDL
