MODEL 1
REMARK VINA RESULT: -7.768104112      0.000      0.000
REMARK  8 active torsions:
REMARK  status: ('A' for Active; 'I' for Inactive)
REMARK    1  A    between atoms: N1_1  and  N2_4 
REMARK    2  A    between atoms: N3_6  and  C1_8 
REMARK    3  A    between atoms: C4_11  and  C5_12 
REMARK    4  A    between atoms: N4_14  and  C7_15 
REMARK    5  A    between atoms: C10_20  and  C11_21 
REMARK    6  A    between atoms: C12_24  and  O3_25 
REMARK    7  A    between atoms: C12_24  and  C13_27 
REMARK    8  A    between atoms: N5_28  and  N6_30 
ROOT
HETATM    1  C7  UNL     1      25.806   6.198  11.724  1.00  0.00     0.192 C 
HETATM    2  C8  UNL     1      26.049   5.110  10.708  1.00  0.00     0.058 C 
HETATM    3 CL1  UNL     1      27.455   5.089   9.662  1.00  0.00    -0.085 Cl
HETATM    4  C9  UNL     1      25.049   4.226  10.760  1.00  0.00     0.049 C 
HETATM    5 CL2  UNL     1      24.972   2.813   9.728  1.00  0.00    -0.086 Cl
HETATM    6  C10 UNL     1      24.072   4.674  11.821  1.00  0.00     0.175 C 
HETATM    7  C12 UNL     1      25.012   5.368  12.777  1.00  0.00     0.136 C 
ENDROOT
BRANCH   1   8
HETATM    8  N4  UNL     1      27.017   6.710  12.280  1.00  0.00    -0.271 N 
HETATM    9  C6  UNL     1      28.165   6.983  11.647  1.00  0.00     0.140 A 
HETATM   10  C5  UNL     1      29.076   7.460  12.554  1.00  0.00     0.073 A 
HETATM   11  N9  UNL     1      28.453   7.465  13.738  1.00  0.00    -0.282 N 
HETATM   12  N8  UNL     1      27.203   7.008  13.556  1.00  0.00    -0.019 NA
ATOM     13  H9  UNL     1      28.857   7.764  14.625  1.00  0.00     0.184 HD
BRANCH  10  14
HETATM   14  C4  UNL     1      30.447   7.876  12.296  1.00  0.00    -0.007 A 
HETATM   15  C3  UNL     1      31.481   7.441  13.110  1.00  0.00     0.016 A 
HETATM   16  C2  UNL     1      32.768   7.841  12.854  1.00  0.00     0.032 A 
HETATM   17  C1  UNL     1      33.066   8.669  11.802  1.00  0.00     0.049 A 
HETATM   18  C15 UNL     1      32.051   9.110  10.985  1.00  0.00     0.032 A 
HETATM   19  C14 UNL     1      30.769   8.702  11.253  1.00  0.00     0.016 A 
BRANCH  17  20
HETATM   20  N3  UNL     1      34.416   9.053  11.580  1.00  0.00    -0.287 N 
HETATM   21  N2  UNL     1      35.334   8.234  11.546  1.00  0.00    -0.249 N 
ATOM     22  H2  UNL     1      35.250   7.863  10.600  1.00  0.00     0.207 HD
ATOM     23  H3  UNL     1      34.631  10.041  11.446  1.00  0.00     0.188 HD
BRANCH  21  24
HETATM   24  N1  UNL     1      36.304   7.594  11.989  1.00  0.00    -0.331 N 
ATOM     25  H12 UNL     1      35.805   6.818  12.425  1.00  0.00     0.178 HD
ATOM     26  H11 UNL     1      37.290   7.398  12.167  1.00  0.00     0.178 HD
ENDBRANCH  21  24
ENDBRANCH  17  20
ENDBRANCH  10  14
ENDBRANCH   1   8
BRANCH   7  27
HETATM   27  O3  UNL     1      25.928   4.524  13.342  1.00  0.00    -0.380 OA
ATOM     28  H3  UNL     1      25.574   3.651  13.224  1.00  0.00     0.211 HD
ENDBRANCH   7  27
BRANCH   7  29
HETATM   29  C13 UNL     1      24.329   6.262  13.708  1.00  0.00     0.123 C 
HETATM   30  N5  UNL     1      24.298   6.217  14.974  1.00  0.00    -0.299 N 
ATOM     31  H5  UNL     1      23.748   6.959  15.409  1.00  0.00     0.187 HD
BRANCH  30  32
HETATM   32  N6  UNL     1      24.871   5.352  15.853  1.00  0.00    -0.250 N 
HETATM   33  N7  UNL     1      24.431   4.175  16.024  1.00  0.00    -0.331 N 
ATOM     34  H72 UNL     1      23.622   3.884  15.476  1.00  0.00     0.178 HD
ATOM     35  H71 UNL     1      24.861   3.526  16.683  1.00  0.00     0.178 HD
ATOM     36  H6  UNL     1      25.679   5.660  16.393  1.00  0.00     0.207 HD
ENDBRANCH  30  32
ENDBRANCH   7  29
BRANCH   6  37
HETATM   37  C11 UNL     1      23.270   3.601  12.375  1.00  0.00     0.186 C 
HETATM   38  O1  UNL     1      23.171   3.475  13.621  1.00  0.00    -0.647 OA
HETATM   39  O2  UNL     1      22.600   2.698  11.577  1.00  0.00    -0.647 OA
ENDBRANCH   6  37
TORSDOF 8
ENDMDL
MODEL 2
REMARK VINA RESULT: -7.710658856      5.011      9.006
REMARK  8 active torsions:
REMARK  status: ('A' for Active; 'I' for Inactive)
REMARK    1  A    between atoms: N1_1  and  N2_4 
REMARK    2  A    between atoms: N3_6  and  C1_8 
REMARK    3  A    between atoms: C4_11  and  C5_12 
REMARK    4  A    between atoms: N4_14  and  C7_15 
REMARK    5  A    between atoms: C10_20  and  C11_21 
REMARK    6  A    between atoms: C12_24  and  O3_25 
REMARK    7  A    between atoms: C12_24  and  C13_27 
REMARK    8  A    between atoms: N5_28  and  N6_30 
ROOT
HETATM    1  C7  UNL     1      26.213  10.668  10.780  1.00  0.00     0.192 C 
HETATM    2  C8  UNL     1      25.877  12.124  10.989  1.00  0.00     0.058 C 
HETATM    3 CL1  UNL     1      24.556  12.653  12.013  1.00  0.00    -0.085 Cl
HETATM    4  C9  UNL     1      26.726  12.878  10.287  1.00  0.00     0.049 C 
HETATM    5 CL2  UNL     1      26.657  14.629  10.272  1.00  0.00    -0.086 Cl
HETATM    6  C10 UNL     1      27.687  11.967   9.563  1.00  0.00     0.175 C 
HETATM    7  C12 UNL     1      27.744  10.811  10.533  1.00  0.00     0.136 C 
ENDROOT
BRANCH   1   8
HETATM    8  N4  UNL     1      25.949   9.873  11.936  1.00  0.00    -0.271 N 
HETATM    9  C6  UNL     1      25.239   8.741  12.015  1.00  0.00     0.140 A 
HETATM   10  C5  UNL     1      25.236   8.301  13.314  1.00  0.00     0.073 A 
HETATM   11  N9  UNL     1      25.955   9.191  14.008  1.00  0.00    -0.282 N 
HETATM   12  N8  UNL     1      26.382  10.139  13.158  1.00  0.00    -0.019 NA
ATOM     13  H9  UNL     1      26.146   9.155  15.009  1.00  0.00     0.184 HD
BRANCH  10  14
HETATM   14  C4  UNL     1      24.585   7.112  13.843  1.00  0.00    -0.007 A 
HETATM   15  C3  UNL     1      24.828   5.867  13.284  1.00  0.00     0.016 A 
HETATM   16  C2  UNL     1      24.207   4.755  13.794  1.00  0.00     0.032 A 
HETATM   17  C1  UNL     1      23.343   4.840  14.855  1.00  0.00     0.049 A 
HETATM   18  C15 UNL     1      23.091   6.067  15.421  1.00  0.00     0.032 A 
HETATM   19  C14 UNL     1      23.718   7.171  14.901  1.00  0.00     0.016 A 
BRANCH  17  20
HETATM   20  N3  UNL     1      22.727   3.656  15.346  1.00  0.00    -0.287 N 
HETATM   21  N2  UNL     1      21.589   3.656  15.815  1.00  0.00    -0.249 N 
ATOM     22  H2  UNL     1      21.013   3.647  14.974  1.00  0.00     0.207 HD
ATOM     23  H3  UNL     1      23.244   2.779  15.307  1.00  0.00     0.188 HD
BRANCH  21  24
HETATM   24  N1  UNL     1      20.730   3.661  16.716  1.00  0.00    -0.331 N 
ATOM     25  H12 UNL     1      21.321   3.921  17.506  1.00  0.00     0.178 HD
ATOM     26  H11 UNL     1      19.797   3.557  17.115  1.00  0.00     0.178 HD
ENDBRANCH  21  24
ENDBRANCH  17  20
ENDBRANCH  10  14
ENDBRANCH   1   8
BRANCH   7  27
HETATM   27  O3  UNL     1      28.279  11.149  11.746  1.00  0.00    -0.380 OA
ATOM     28  H3  UNL     1      27.922  10.523  12.365  1.00  0.00     0.211 HD
ENDBRANCH   7  27
BRANCH   7  29
HETATM   29  C13 UNL     1      28.272   9.586   9.939  1.00  0.00     0.123 C 
HETATM   30  N5  UNL     1      29.025   8.710  10.460  1.00  0.00    -0.299 N 
ATOM     31  H5  UNL     1      29.262   7.935   9.841  1.00  0.00     0.187 HD
BRANCH  30  32
HETATM   32  N6  UNL     1      29.572   8.625  11.703  1.00  0.00    -0.250 N 
HETATM   33  N7  UNL     1      28.935   8.141  12.687  1.00  0.00    -0.331 N 
ATOM     34  H72 UNL     1      27.984   7.811  12.525  1.00  0.00     0.178 HD
ATOM     35  H71 UNL     1      29.345   8.077  13.619  1.00  0.00     0.178 HD
ATOM     36  H6  UNL     1      30.524   8.960  11.848  1.00  0.00     0.207 HD
ENDBRANCH  30  32
ENDBRANCH   7  29
BRANCH   6  37
HETATM   37  C11 UNL     1      28.953  12.587   9.229  1.00  0.00     0.186 C 
HETATM   38  O1  UNL     1      29.811  12.778  10.127  1.00  0.00    -0.647 OA
HETATM   39  O2  UNL     1      29.260  12.986   7.945  1.00  0.00    -0.647 OA
ENDBRANCH   6  37
TORSDOF 8
ENDMDL
MODEL 3
REMARK VINA RESULT: -7.698410507      4.276      5.113
REMARK  8 active torsions:
REMARK  status: ('A' for Active; 'I' for Inactive)
REMARK    1  A    between atoms: N1_1  and  N2_4 
REMARK    2  A    between atoms: N3_6  and  C1_8 
REMARK    3  A    between atoms: C4_11  and  C5_12 
REMARK    4  A    between atoms: N4_14  and  C7_15 
REMARK    5  A    between atoms: C10_20  and  C11_21 
REMARK    6  A    between atoms: C12_24  and  O3_25 
REMARK    7  A    between atoms: C12_24  and  C13_27 
REMARK    8  A    between atoms: N5_28  and  N6_30 
ROOT
HETATM    1  C7  UNL     1      26.169   5.876  12.044  1.00  0.00     0.192 C 
HETATM    2  C8  UNL     1      25.375   6.631  13.080  1.00  0.00     0.058 C 
HETATM    3 CL1  UNL     1      25.761   8.274  13.555  1.00  0.00    -0.085 Cl
HETATM    4  C9  UNL     1      24.387   5.855  13.533  1.00  0.00     0.049 C 
HETATM    5 CL2  UNL     1      23.244   6.381  14.751  1.00  0.00    -0.086 Cl
HETATM    6  C10 UNL     1      24.463   4.525  12.822  1.00  0.00     0.175 C 
HETATM    7  C12 UNL     1      25.034   4.962  11.494  1.00  0.00     0.136 C 
ENDROOT
BRANCH   1   8
HETATM    8  N4  UNL     1      26.686   6.726  11.021  1.00  0.00    -0.271 N 
HETATM    9  C6  UNL     1      26.926   8.042  11.084  1.00  0.00     0.140 A 
HETATM   10  C5  UNL     1      27.422   8.468   9.879  1.00  0.00     0.073 A 
HETATM   11  N9  UNL     1      27.474   7.383   9.096  1.00  0.00    -0.282 N 
HETATM   12  N8  UNL     1      27.024   6.334   9.803  1.00  0.00    -0.019 NA
ATOM     13  H9  UNL     1      27.798   7.359   8.129  1.00  0.00     0.184 HD
BRANCH  10  14
HETATM   14  C4  UNL     1      27.815   9.820   9.512  1.00  0.00    -0.007 A 
HETATM   15  C3  UNL     1      29.141  10.215   9.592  1.00  0.00     0.016 A 
HETATM   16  C2  UNL     1      29.497  11.493   9.242  1.00  0.00     0.032 A 
HETATM   17  C1  UNL     1      28.567  12.403   8.809  1.00  0.00     0.049 A 
HETATM   18  C15 UNL     1      27.247  12.028   8.725  1.00  0.00     0.032 A 
HETATM   19  C14 UNL     1      26.906  10.746   9.078  1.00  0.00     0.016 A 
BRANCH  17  20
HETATM   20  N3  UNL     1      28.989  13.715   8.459  1.00  0.00    -0.287 N 
HETATM   21  N2  UNL     1      29.231  14.037   7.296  1.00  0.00    -0.249 N 
ATOM     22  H2  UNL     1      28.297  14.202   6.923  1.00  0.00     0.207 HD
ATOM     23  H3  UNL     1      29.093  14.412   9.195  1.00  0.00     0.188 HD
BRANCH  21  24
HETATM   24  N1  UNL     1      29.950  14.279   6.309  1.00  0.00    -0.331 N 
ATOM     25  H12 UNL     1      30.295  15.200   6.578  1.00  0.00     0.178 HD
ATOM     26  H11 UNL     1      30.385  14.094   5.405  1.00  0.00     0.178 HD
ENDBRANCH  21  24
ENDBRANCH  17  20
ENDBRANCH  10  14
ENDBRANCH   1   8
BRANCH   7  27
HETATM   27  O3  UNL     1      24.202   5.794  10.795  1.00  0.00    -0.380 OA
ATOM     28  H3  UNL     1      24.629   5.935   9.958  1.00  0.00     0.211 HD
ENDBRANCH   7  27
BRANCH   7  29
HETATM   29  C13 UNL     1      25.606   3.861  10.723  1.00  0.00     0.123 C 
HETATM   30  N5  UNL     1      25.044   3.118   9.864  1.00  0.00    -0.299 N 
ATOM     31  H5  UNL     1      25.655   2.410   9.455  1.00  0.00     0.187 HD
BRANCH  30  32
HETATM   32  N6  UNL     1      23.768   3.099   9.393  1.00  0.00    -0.250 N 
HETATM   33  N7  UNL     1      23.007   2.098   9.549  1.00  0.00    -0.331 N 
ATOM     34  H72 UNL     1      23.378   1.289  10.046  1.00  0.00     0.178 HD
ATOM     35  H71 UNL     1      22.050   2.084   9.196  1.00  0.00     0.178 HD
ATOM     36  H6  UNL     1      23.413   3.917   8.897  1.00  0.00     0.207 HD
ENDBRANCH  30  32
ENDBRANCH   7  29
BRANCH   6  37
HETATM   37  C11 UNL     1      23.204   3.808  12.774  1.00  0.00     0.186 C 
HETATM   38  O1  UNL     1      22.829   3.138  13.768  1.00  0.00    -0.647 OA
HETATM   39  O2  UNL     1      22.388   3.831  11.663  1.00  0.00    -0.647 OA
ENDBRANCH   6  37
TORSDOF 8
ENDMDL
MODEL 4
REMARK VINA RESULT: -7.686950966      1.165      1.545
REMARK  8 active torsions:
REMARK  status: ('A' for Active; 'I' for Inactive)
REMARK    1  A    between atoms: N1_1  and  N2_4 
REMARK    2  A    between atoms: N3_6  and  C1_8 
REMARK    3  A    between atoms: C4_11  and  C5_12 
REMARK    4  A    between atoms: N4_14  and  C7_15 
REMARK    5  A    between atoms: C10_20  and  C11_21 
REMARK    6  A    between atoms: C12_24  and  O3_25 
REMARK    7  A    between atoms: C12_24  and  C13_27 
REMARK    8  A    between atoms: N5_28  and  N6_30 
ROOT
HETATM    1  C7  UNL     1      25.583   6.418  11.611  1.00  0.00     0.192 C 
HETATM    2  C8  UNL     1      25.941   5.256  10.718  1.00  0.00     0.058 C 
HETATM    3 CL1  UNL     1      27.354   5.260   9.681  1.00  0.00    -0.085 Cl
HETATM    4  C9  UNL     1      25.031   4.290  10.865  1.00  0.00     0.049 C 
HETATM    5 CL2  UNL     1      25.102   2.774   9.990  1.00  0.00    -0.086 Cl
HETATM    6  C10 UNL     1      24.004   4.751  11.871  1.00  0.00     0.175 C 
HETATM    7  C12 UNL     1      24.863   5.632  12.747  1.00  0.00     0.136 C 
ENDROOT
BRANCH   1   8
HETATM    8  N4  UNL     1      26.733   7.102  12.108  1.00  0.00    -0.271 N 
HETATM    9  C6  UNL     1      28.000   6.669  12.145  1.00  0.00     0.140 A 
HETATM   10  C5  UNL     1      28.792   7.641  12.702  1.00  0.00     0.073 A 
HETATM   11  N9  UNL     1      27.975   8.660  12.998  1.00  0.00    -0.282 N 
HETATM   12  N8  UNL     1      26.729   8.318  12.632  1.00  0.00    -0.019 NA
ATOM     13  H9  UNL     1      28.252   9.542  13.427  1.00  0.00     0.184 HD
BRANCH  10  14
HETATM   14  C4  UNL     1      30.228   7.587  12.932  1.00  0.00    -0.007 A 
HETATM   15  C3  UNL     1      31.116   7.905  11.917  1.00  0.00     0.016 A 
HETATM   16  C2  UNL     1      32.468   7.851  12.149  1.00  0.00     0.032 A 
HETATM   17  C1  UNL     1      32.971   7.487  13.371  1.00  0.00     0.049 A 
HETATM   18  C15 UNL     1      32.103   7.168  14.388  1.00  0.00     0.032 A 
HETATM   19  C14 UNL     1      30.754   7.227  14.143  1.00  0.00     0.016 A 
BRANCH  17  20
HETATM   20  N3  UNL     1      34.380   7.447  13.558  1.00  0.00    -0.287 N 
HETATM   21  N2  UNL     1      34.968   6.418  13.888  1.00  0.00    -0.249 N 
ATOM     22  H2  UNL     1      35.040   5.921  13.000  1.00  0.00     0.207 HD
ATOM     23  H3  UNL     1      34.921   8.300  13.415  1.00  0.00     0.188 HD
BRANCH  21  24
HETATM   24  N1  UNL     1      35.527   5.628  14.671  1.00  0.00    -0.331 N 
ATOM     25  H12 UNL     1      34.732   5.032  14.899  1.00  0.00     0.178 HD
ATOM     26  H11 UNL     1      36.304   5.239  15.206  1.00  0.00     0.178 HD
ENDBRANCH  21  24
ENDBRANCH  17  20
ENDBRANCH  10  14
ENDBRANCH   1   8
BRANCH   7  27
HETATM   27  O3  UNL     1      25.850   4.947  13.400  1.00  0.00    -0.380 OA
ATOM     28  H3  UNL     1      25.435   4.579  14.172  1.00  0.00     0.211 HD
ENDBRANCH   7  27
BRANCH   7  29
HETATM   29  C13 UNL     1      24.086   6.550  13.576  1.00  0.00     0.123 C 
HETATM   30  N5  UNL     1      23.835   6.480  14.816  1.00  0.00    -0.299 N 
ATOM     31  H5  UNL     1      23.266   7.247  15.175  1.00  0.00     0.187 HD
BRANCH  30  32
HETATM   32  N6  UNL     1      24.193   5.560  15.752  1.00  0.00    -0.250 N 
HETATM   33  N7  UNL     1      23.334   4.935  16.444  1.00  0.00    -0.331 N 
ATOM     34  H72 UNL     1      22.348   5.140  16.282  1.00  0.00     0.178 HD
ATOM     35  H71 UNL     1      23.602   4.244  17.146  1.00  0.00     0.178 HD
ATOM     36  H6  UNL     1      25.183   5.367  15.902  1.00  0.00     0.207 HD
ENDBRANCH  30  32
ENDBRANCH   7  29
BRANCH   6  37
HETATM   37  C11 UNL     1      23.304   3.671  12.537  1.00  0.00     0.186 C 
HETATM   38  O1  UNL     1      23.391   3.546  13.784  1.00  0.00    -0.647 OA
HETATM   39  O2  UNL     1      22.533   2.759  11.847  1.00  0.00    -0.647 OA
ENDBRANCH   6  37
TORSDOF 8
ENDMDL
MODEL 5
REMARK VINA RESULT: -7.581555064      4.755      8.618
REMARK  8 active torsions:
REMARK  status: ('A' for Active; 'I' for Inactive)
REMARK    1  A    between atoms: N1_1  and  N2_4 
REMARK    2  A    between atoms: N3_6  and  C1_8 
REMARK    3  A    between atoms: C4_11  and  C5_12 
REMARK    4  A    between atoms: N4_14  and  C7_15 
REMARK    5  A    between atoms: C10_20  and  C11_21 
REMARK    6  A    between atoms: C12_24  and  O3_25 
REMARK    7  A    between atoms: C12_24  and  C13_27 
REMARK    8  A    between atoms: N5_28  and  N6_30 
ROOT
HETATM    1  C7  UNL     1      27.745  10.324  12.328  1.00  0.00     0.192 C 
HETATM    2  C8  UNL     1      28.563   9.319  11.557  1.00  0.00     0.058 C 
HETATM    3 CL1  UNL     1      28.877   7.699  12.150  1.00  0.00    -0.085 Cl
HETATM    4  C9  UNL     1      28.971   9.868  10.410  1.00  0.00     0.049 C 
HETATM    5 CL2  UNL     1      29.949   9.010   9.238  1.00  0.00    -0.086 Cl
HETATM    6  C10 UNL     1      28.448  11.283  10.347  1.00  0.00     0.175 C 
HETATM    7  C12 UNL     1      27.165  11.130  11.129  1.00  0.00     0.136 C 
ENDROOT
BRANCH   1   8
HETATM    8  N4  UNL     1      26.704   9.715  13.091  1.00  0.00    -0.271 N 
HETATM    9  C6  UNL     1      26.345   8.425  13.117  1.00  0.00     0.140 A 
HETATM   10  C5  UNL     1      25.297   8.267  13.987  1.00  0.00     0.073 A 
HETATM   11  N9  UNL     1      25.036   9.484  14.478  1.00  0.00    -0.282 N 
HETATM   12  N8  UNL     1      25.898  10.353  13.926  1.00  0.00    -0.019 NA
ATOM     13  H9  UNL     1      24.308   9.712  15.155  1.00  0.00     0.184 HD
BRANCH  10  14
HETATM   14  C4  UNL     1      24.599   7.033  14.315  1.00  0.00    -0.007 A 
HETATM   15  C3  UNL     1      23.569   7.031  15.243  1.00  0.00     0.016 A 
HETATM   16  C2  UNL     1      22.919   5.861  15.543  1.00  0.00     0.032 A 
HETATM   17  C1  UNL     1      23.263   4.677  14.943  1.00  0.00     0.049 A 
HETATM   18  C15 UNL     1      24.283   4.661  14.021  1.00  0.00     0.032 A 
HETATM   19  C14 UNL     1      24.924   5.839  13.731  1.00  0.00     0.016 A 
BRANCH  17  20
HETATM   20  N3  UNL     1      22.558   3.492  15.289  1.00  0.00    -0.287 N 
HETATM   21  N2  UNL     1      21.451   3.520  15.825  1.00  0.00    -0.249 N 
ATOM     22  H2  UNL     1      20.835   3.693  15.030  1.00  0.00     0.207 HD
ATOM     23  H3  UNL     1      22.985   2.588  15.086  1.00  0.00     0.188 HD
BRANCH  21  24
HETATM   24  N1  UNL     1      20.642   3.462  16.769  1.00  0.00    -0.331 N 
ATOM     25  H12 UNL     1      20.481   2.455  16.786  1.00  0.00     0.178 HD
ATOM     26  H11 UNL     1      20.058   3.829  17.520  1.00  0.00     0.178 HD
ENDBRANCH  21  24
ENDBRANCH  17  20
ENDBRANCH  10  14
ENDBRANCH   1   8
BRANCH   7  27
HETATM   27  O3  UNL     1      26.263  10.294  10.530  1.00  0.00    -0.380 OA
ATOM     28  H3  UNL     1      26.780   9.708   9.989  1.00  0.00     0.211 HD
ENDBRANCH   7  27
BRANCH   7  29
HETATM   29  C13 UNL     1      26.621  12.402  11.596  1.00  0.00     0.123 C 
HETATM   30  N5  UNL     1      25.426  12.690  11.906  1.00  0.00    -0.299 N 
ATOM     31  H5  UNL     1      25.289  13.655  12.207  1.00  0.00     0.187 HD
BRANCH  30  32
HETATM   32  N6  UNL     1      24.295  11.935  11.905  1.00  0.00    -0.250 N 
HETATM   33  N7  UNL     1      23.378  12.094  12.767  1.00  0.00    -0.331 N 
ATOM     34  H72 UNL     1      23.509  12.815  13.475  1.00  0.00     0.178 HD
ATOM     35  H71 UNL     1      22.529  11.527  12.766  1.00  0.00     0.178 HD
ATOM     36  H6  UNL     1      24.180  11.217  11.189  1.00  0.00     0.207 HD
ENDBRANCH  30  32
ENDBRANCH   7  29
BRANCH   6  37
HETATM   37  C11 UNL     1      28.320  11.806   9.001  1.00  0.00     0.186 C 
HETATM   38  O1  UNL     1      29.264  12.462   8.494  1.00  0.00    -0.647 OA
HETATM   39  O2  UNL     1      27.186  11.610   8.241  1.00  0.00    -0.647 OA
ENDBRANCH   6  37
TORSDOF 8
ENDMDL
