MODEL 1
REMARK VINA RESULT: -7.719428704      0.000      0.000
REMARK  8 active torsions:
REMARK  status: ('A' for Active; 'I' for Inactive)
REMARK    1  A    between atoms: C2_2  and  C3_3 
REMARK    2  A    between atoms: C3_3  and  C5_5 
REMARK    3  A    between atoms: C5_5  and  O1_6 
REMARK    4  A    between atoms: C5_5  and  N1_8 
REMARK    5  A    between atoms: C7_10  and  O2_11 
REMARK    6  A    between atoms: O2_11  and  C8_12 
REMARK    7  A    between atoms: C15_22  and  C16_23 
REMARK       I    between atoms: C16_23  and  N2_25 
REMARK    8  A    between atoms: N2_25  and  C17_27 
ROOT
HETATM    1  N1  UNL     1      25.656   5.707  12.857  1.00  0.00    -0.372 N 
HETATM    2  C6  UNL     1      26.032   7.064  12.717  1.00  0.00     0.152 C 
HETATM    3  C7  UNL     1      27.416   6.920  12.121  1.00  0.00     0.149 C 
HETATM    4  C14 UNL     1      27.179   5.780  11.138  1.00  0.00     0.069 C 
HETATM    5  C15 UNL     1      25.850   5.136  11.590  1.00  0.00     0.177 C 
ENDROOT
BRANCH   5   6
HETATM    6  C16 UNL     1      24.802   5.383  10.576  1.00  0.00     0.258 C 
HETATM    7  O3  UNL     1      24.297   6.513  10.443  1.00  0.00    -0.270 OA
HETATM    8  N2  UNL     1      24.349   4.338   9.735  1.00  0.00    -0.156 N 
ATOM      9  H2  UNL     1      24.620   4.371   8.753  1.00  0.00     0.187 HD
BRANCH   8  10
HETATM   10  C17 UNL     1      23.620   3.350  10.120  1.00  0.00     0.710 A 
HETATM   11  N3  UNL     1      23.474   2.192   9.429  1.00  0.00    -0.117 N 
HETATM   12  N4  UNL     1      22.660   1.391  10.099  1.00  0.00     0.006 NA
ATOM     13  H3  UNL     1      23.918   1.974   8.538  1.00  0.00     0.202 HD
HETATM   14  N5  UNL     1      22.278   2.005  11.207  1.00  0.00     0.006 NA
HETATM   15  N6  UNL     1      22.864   3.203  11.221  1.00  0.00    -0.117 N 
ATOM     16  H6  UNL     1      22.754   3.902  11.955  1.00  0.00     0.202 HD
ENDBRANCH   8  10
ENDBRANCH   5   6
BRANCH   1  17
HETATM   17  C5  UNL     1      24.522   5.360  13.586  1.00  0.00     0.220 C 
BRANCH  17  18
HETATM   18  C3  UNL     1      24.538   5.768  15.037  1.00  0.00     0.030 C 
HETATM   19  C4  UNL     1      23.270   6.557  15.282  1.00  0.00     0.014 C 
BRANCH  18  20
HETATM   20  C2  UNL     1      24.640   4.594  15.972  1.00  0.00     0.004 C 
HETATM   21  C1  UNL     1      26.034   4.319  16.434  1.00  0.00     0.005 C 
ENDBRANCH  18  20
ENDBRANCH  17  18
BRANCH  17  22
HETATM   22  O1  UNL     1      24.379   3.961  13.555  1.00  0.00    -0.377 OA
ATOM     23  H1  UNL     1      23.778   3.729  14.252  1.00  0.00     0.212 HD
ENDBRANCH  17  22
ENDBRANCH   1  17
BRANCH   3  24
HETATM   24  O2  UNL     1      27.877   8.081  11.475  1.00  0.00    -0.341 OA
BRANCH  24  25
HETATM   25  C8  UNL     1      29.214   8.436  11.481  1.00  0.00     0.112 A 
HETATM   26  C9  UNL     1      29.967   8.270  10.315  1.00  0.00     0.070 A 
HETATM   27 CL1  UNL     1      29.253   7.622   8.858  1.00  0.00    -0.081 Cl
HETATM   28  C10 UNL     1      31.309   8.615  10.281  1.00  0.00     0.050 A 
HETATM   29  C11 UNL     1      31.946   9.132  11.383  1.00  0.00     0.037 A 
HETATM   30 CL2  UNL     1      33.651   9.560  11.300  1.00  0.00    -0.084 Cl
HETATM   31  C12 UNL     1      31.220   9.300  12.534  1.00  0.00     0.050 A 
HETATM   32  C13 UNL     1      29.877   8.954  12.566  1.00  0.00     0.070 A 
HETATM   33 CL3  UNL     1      29.021   9.194  14.051  1.00  0.00    -0.081 Cl
ENDBRANCH  24  25
ENDBRANCH   3  24
TORSDOF 8
ENDMDL
MODEL 2
REMARK VINA RESULT: -7.696460889      0.062      1.674
REMARK  8 active torsions:
REMARK  status: ('A' for Active; 'I' for Inactive)
REMARK    1  A    between atoms: C2_2  and  C3_3 
REMARK    2  A    between atoms: C3_3  and  C5_5 
REMARK    3  A    between atoms: C5_5  and  O1_6 
REMARK    4  A    between atoms: C5_5  and  N1_8 
REMARK    5  A    between atoms: C7_10  and  O2_11 
REMARK    6  A    between atoms: O2_11  and  C8_12 
REMARK    7  A    between atoms: C15_22  and  C16_23 
REMARK       I    between atoms: C16_23  and  N2_25 
REMARK    8  A    between atoms: N2_25  and  C17_27 
ROOT
HETATM    1  N1  UNL     1      25.657   5.714  12.864  1.00  0.00    -0.372 N 
HETATM    2  C6  UNL     1      26.006   7.081  12.747  1.00  0.00     0.152 C 
HETATM    3  C7  UNL     1      27.392   6.973  12.149  1.00  0.00     0.149 C 
HETATM    4  C14 UNL     1      27.176   5.846  11.146  1.00  0.00     0.069 C 
HETATM    5  C15 UNL     1      25.861   5.169  11.587  1.00  0.00     0.177 C 
ENDROOT
BRANCH   5   6
HETATM    6  C16 UNL     1      24.808   5.412  10.578  1.00  0.00     0.258 C 
HETATM    7  O3  UNL     1      24.294   6.539  10.451  1.00  0.00    -0.270 OA
HETATM    8  N2  UNL     1      24.360   4.368   9.735  1.00  0.00    -0.156 N 
ATOM      9  H2  UNL     1      24.627   4.407   8.751  1.00  0.00     0.187 HD
BRANCH   8  10
HETATM   10  C17 UNL     1      23.639   3.372  10.117  1.00  0.00     0.710 A 
HETATM   11  N3  UNL     1      23.502   2.215   9.424  1.00  0.00    -0.117 N 
HETATM   12  N4  UNL     1      22.696   1.405  10.093  1.00  0.00     0.006 NA
ATOM     13  H3  UNL     1      23.948   2.003   8.532  1.00  0.00     0.202 HD
HETATM   14  N5  UNL     1      22.310   2.013  11.203  1.00  0.00     0.006 NA
HETATM   15  N6  UNL     1      22.885   3.216  11.219  1.00  0.00    -0.117 N 
ATOM     16  H6  UNL     1      22.770   3.913  11.955  1.00  0.00     0.202 HD
ENDBRANCH   8  10
ENDBRANCH   5   6
BRANCH   1  17
HETATM   17  C5  UNL     1      24.530   5.332  13.588  1.00  0.00     0.220 C 
BRANCH  17  18
HETATM   18  C3  UNL     1      24.533   5.730  15.041  1.00  0.00     0.030 C 
HETATM   19  C4  UNL     1      23.236   6.469  15.293  1.00  0.00     0.014 C 
BRANCH  18  20
HETATM   20  C2  UNL     1      24.678   4.553  15.968  1.00  0.00     0.004 C 
HETATM   21  C1  UNL     1      26.074   4.355  16.464  1.00  0.00     0.005 C 
ENDBRANCH  18  20
ENDBRANCH  17  18
BRANCH  17  22
HETATM   22  O1  UNL     1      24.424   3.931  13.546  1.00  0.00    -0.377 OA
ATOM     23  H1  UNL     1      25.104   3.619  12.961  1.00  0.00     0.212 HD
ENDBRANCH  17  22
ENDBRANCH   1  17
BRANCH   3  24
HETATM   24  O2  UNL     1      27.830   8.154  11.522  1.00  0.00    -0.341 OA
BRANCH  24  25
HETATM   25  C8  UNL     1      29.171   8.483  11.441  1.00  0.00     0.112 A 
HETATM   26  C9  UNL     1      29.809   9.021  12.561  1.00  0.00     0.070 A 
HETATM   27 CL1  UNL     1      28.946   9.286  14.057  1.00  0.00    -0.081 Cl
HETATM   28  C10 UNL     1      31.152   9.363  12.519  1.00  0.00     0.050 A 
HETATM   29  C11 UNL     1      31.902   9.186  11.382  1.00  0.00     0.037 A 
HETATM   30 CL2  UNL     1      33.605   9.630  11.368  1.00  0.00    -0.084 Cl
HETATM   31  C12 UNL     1      31.290   8.659  10.274  1.00  0.00     0.050 A 
HETATM   32  C13 UNL     1      29.946   8.318  10.319  1.00  0.00     0.070 A 
HETATM   33 CL3  UNL     1      29.238   7.657   8.885  1.00  0.00    -0.081 Cl
ENDBRANCH  24  25
ENDBRANCH   3  24
TORSDOF 8
ENDMDL
MODEL 3
REMARK VINA RESULT: -7.595889295      2.945      6.386
REMARK  8 active torsions:
REMARK  status: ('A' for Active; 'I' for Inactive)
REMARK    1  A    between atoms: C2_2  and  C3_3 
REMARK    2  A    between atoms: C3_3  and  C5_5 
REMARK    3  A    between atoms: C5_5  and  O1_6 
REMARK    4  A    between atoms: C5_5  and  N1_8 
REMARK    5  A    between atoms: C7_10  and  O2_11 
REMARK    6  A    between atoms: O2_11  and  C8_12 
REMARK    7  A    between atoms: C15_22  and  C16_23 
REMARK       I    between atoms: C16_23  and  N2_25 
REMARK    8  A    between atoms: N2_25  and  C17_27 
ROOT
HETATM    1  N1  UNL     1      27.822   7.352  11.547  1.00  0.00    -0.372 N 
HETATM    2  C6  UNL     1      27.880   7.481  12.955  1.00  0.00     0.152 C 
HETATM    3  C7  UNL     1      26.555   8.156  13.237  1.00  0.00     0.149 C 
HETATM    4  C14 UNL     1      25.645   7.395  12.281  1.00  0.00     0.069 C 
HETATM    5  C15 UNL     1      26.603   6.707  11.284  1.00  0.00     0.177 C 
ENDROOT
BRANCH   5   6
HETATM    6  C16 UNL     1      26.563   5.242  11.479  1.00  0.00     0.258 C 
HETATM    7  O3  UNL     1      27.530   4.529  11.153  1.00  0.00    -0.270 OA
HETATM    8  N2  UNL     1      25.423   4.618  12.040  1.00  0.00    -0.156 N 
ATOM      9  H2  UNL     1      25.504   4.250  12.987  1.00  0.00     0.187 HD
BRANCH   8  10
HETATM   10  C17 UNL     1      24.292   4.480  11.441  1.00  0.00     0.710 A 
HETATM   11  N3  UNL     1      23.242   3.783  11.940  1.00  0.00    -0.117 N 
HETATM   12  N4  UNL     1      22.239   3.839  11.078  1.00  0.00     0.006 NA
ATOM     13  H3  UNL     1      23.227   3.293  12.834  1.00  0.00     0.202 HD
HETATM   14  N5  UNL     1      22.617   4.559  10.033  1.00  0.00     0.006 NA
HETATM   15  N6  UNL     1      23.873   4.951  10.254  1.00  0.00    -0.117 N 
ATOM     16  H6  UNL     1      24.430   5.521   9.618  1.00  0.00     0.202 HD
ENDBRANCH   8  10
ENDBRANCH   5   6
BRANCH   1  17
HETATM   17  C5  UNL     1      28.952   6.976  10.825  1.00  0.00     0.220 C 
BRANCH  17  18
HETATM   18  C3  UNL     1      30.104   7.947  10.881  1.00  0.00     0.030 C 
HETATM   19  C4  UNL     1      31.347   7.132  11.165  1.00  0.00     0.014 C 
BRANCH  18  20
HETATM   20  C2  UNL     1      30.254   8.748   9.615  1.00  0.00     0.004 C 
HETATM   21  C1  UNL     1      29.630  10.103   9.692  1.00  0.00     0.005 C 
ENDBRANCH  18  20
ENDBRANCH  17  18
BRANCH  17  22
HETATM   22  O1  UNL     1      28.595   6.841   9.472  1.00  0.00    -0.377 OA
ATOM     23  H1  UNL     1      29.296   6.363   9.047  1.00  0.00     0.212 HD
ENDBRANCH  17  22
ENDBRANCH   1  17
BRANCH   3  24
HETATM   24  O2  UNL     1      26.131   8.033  14.573  1.00  0.00    -0.341 OA
BRANCH  24  25
HETATM   25  C8  UNL     1      25.132   7.149  14.942  1.00  0.00     0.112 A 
HETATM   26  C9  UNL     1      23.797   7.548  14.836  1.00  0.00     0.070 A 
HETATM   27 CL1  UNL     1      23.368   9.136  14.247  1.00  0.00    -0.081 Cl
HETATM   28  C10 UNL     1      22.769   6.692  15.196  1.00  0.00     0.050 A 
HETATM   29  C11 UNL     1      23.020   5.426  15.667  1.00  0.00     0.037 A 
HETATM   30 CL2  UNL     1      21.687   4.367  16.113  1.00  0.00    -0.084 Cl
HETATM   31  C12 UNL     1      24.326   5.021  15.778  1.00  0.00     0.050 A 
HETATM   32  C13 UNL     1      25.353   5.880  15.417  1.00  0.00     0.070 A 
HETATM   33 CL3  UNL     1      26.976   5.303  15.580  1.00  0.00    -0.081 Cl
ENDBRANCH  24  25
ENDBRANCH   3  24
TORSDOF 8
ENDMDL
MODEL 4
REMARK VINA RESULT: -7.586356458      2.999      6.439
REMARK  8 active torsions:
REMARK  status: ('A' for Active; 'I' for Inactive)
REMARK    1  A    between atoms: C2_2  and  C3_3 
REMARK    2  A    between atoms: C3_3  and  C5_5 
REMARK    3  A    between atoms: C5_5  and  O1_6 
REMARK    4  A    between atoms: C5_5  and  N1_8 
REMARK    5  A    between atoms: C7_10  and  O2_11 
REMARK    6  A    between atoms: O2_11  and  C8_12 
REMARK    7  A    between atoms: C15_22  and  C16_23 
REMARK       I    between atoms: C16_23  and  N2_25 
REMARK    8  A    between atoms: N2_25  and  C17_27 
ROOT
HETATM    1  N1  UNL     1      27.768   7.281  11.742  1.00  0.00    -0.372 N 
HETATM    2  C6  UNL     1      27.829   7.298  13.156  1.00  0.00     0.152 C 
HETATM    3  C7  UNL     1      26.498   7.937  13.493  1.00  0.00     0.149 C 
HETATM    4  C14 UNL     1      25.593   7.248  12.480  1.00  0.00     0.069 C 
HETATM    5  C15 UNL     1      26.555   6.649  11.430  1.00  0.00     0.177 C 
ENDROOT
BRANCH   5   6
HETATM    6  C16 UNL     1      26.527   5.173  11.508  1.00  0.00     0.258 C 
HETATM    7  O3  UNL     1      27.493   4.495  11.111  1.00  0.00    -0.270 OA
HETATM    8  N2  UNL     1      25.399   4.498  12.034  1.00  0.00    -0.156 N 
ATOM      9  H2  UNL     1      25.497   4.056  12.948  1.00  0.00     0.187 HD
BRANCH   8  10
HETATM   10  C17 UNL     1      24.260   4.400  11.443  1.00  0.00     0.710 A 
HETATM   11  N3  UNL     1      23.196   3.721  11.940  1.00  0.00    -0.117 N 
HETATM   12  N4  UNL     1      22.187   3.818  11.088  1.00  0.00     0.006 NA
ATOM     13  H3  UNL     1      23.176   3.217  12.826  1.00  0.00     0.202 HD
HETATM   14  N5  UNL     1      22.576   4.546  10.053  1.00  0.00     0.006 NA
HETATM   15  N6  UNL     1      23.843   4.902  10.268  1.00  0.00    -0.117 N 
ATOM     16  H6  UNL     1      24.410   5.468   9.637  1.00  0.00     0.202 HD
ENDBRANCH   8  10
ENDBRANCH   5   6
BRANCH   1  17
HETATM   17  C5  UNL     1      28.900   6.973  10.991  1.00  0.00     0.220 C 
BRANCH  17  18
HETATM   18  C3  UNL     1      30.115   7.817  11.281  1.00  0.00     0.030 C 
HETATM   19  C4  UNL     1      31.239   6.862  11.621  1.00  0.00     0.014 C 
BRANCH  18  20
HETATM   20  C2  UNL     1      30.489   8.714  10.132  1.00  0.00     0.004 C 
HETATM   21  C1  UNL     1      30.272  10.165  10.415  1.00  0.00     0.005 C 
ENDBRANCH  18  20
ENDBRANCH  17  18
BRANCH  17  22
HETATM   22  O1  UNL     1      28.595   7.146   9.630  1.00  0.00    -0.377 OA
ATOM     23  H1  UNL     1      29.421   7.168   9.161  1.00  0.00     0.212 HD
ENDBRANCH  17  22
ENDBRANCH   1  17
BRANCH   3  24
HETATM   24  O2  UNL     1      26.078   7.704  14.814  1.00  0.00    -0.341 OA
BRANCH  24  25
HETATM   25  C8  UNL     1      24.993   6.895  15.103  1.00  0.00     0.112 A 
HETATM   26  C9  UNL     1      25.218   5.587  15.540  1.00  0.00     0.070 A 
HETATM   27 CL1  UNL     1      26.837   4.958  15.727  1.00  0.00    -0.081 Cl
HETATM   28  C10 UNL     1      24.158   4.746  15.840  1.00  0.00     0.050 A 
HETATM   29  C11 UNL     1      22.854   5.163  15.720  1.00  0.00     0.037 A 
HETATM   30 CL2  UNL     1      21.535   4.066  16.111  1.00  0.00    -0.084 Cl
HETATM   31  C12 UNL     1      22.618   6.444  15.291  1.00  0.00     0.050 A 
HETATM   32  C13 UNL     1      23.681   7.284  14.992  1.00  0.00     0.070 A 
HETATM   33 CL3  UNL     1      23.311   8.888  14.458  1.00  0.00    -0.081 Cl
ENDBRANCH  24  25
ENDBRANCH   3  24
TORSDOF 8
ENDMDL
MODEL 5
REMARK VINA RESULT: -7.493116163      2.622      3.383
REMARK  8 active torsions:
REMARK  status: ('A' for Active; 'I' for Inactive)
REMARK    1  A    between atoms: C2_2  and  C3_3 
REMARK    2  A    between atoms: C3_3  and  C5_5 
REMARK    3  A    between atoms: C5_5  and  O1_6 
REMARK    4  A    between atoms: C5_5  and  N1_8 
REMARK    5  A    between atoms: C7_10  and  O2_11 
REMARK    6  A    between atoms: O2_11  and  C8_12 
REMARK    7  A    between atoms: C15_22  and  C16_23 
REMARK       I    between atoms: C16_23  and  N2_25 
REMARK    8  A    between atoms: N2_25  and  C17_27 
ROOT
HETATM    1  N1  UNL     1      25.266   5.742  13.195  1.00  0.00    -0.372 N 
HETATM    2  C6  UNL     1      25.493   7.139  13.162  1.00  0.00     0.152 C 
HETATM    3  C7  UNL     1      26.983   7.182  12.898  1.00  0.00     0.149 C 
HETATM    4  C14 UNL     1      27.117   6.063  11.872  1.00  0.00     0.069 C 
HETATM    5  C15 UNL     1      25.810   5.250  11.998  1.00  0.00     0.177 C 
ENDROOT
BRANCH   5   6
HETATM    6  C16 UNL     1      24.997   5.413  10.774  1.00  0.00     0.258 C 
HETATM    7  O3  UNL     1      24.415   6.487  10.533  1.00  0.00    -0.270 OA
HETATM    8  N2  UNL     1      24.860   4.350   9.851  1.00  0.00    -0.156 N 
ATOM      9  H2  UNL     1      25.340   4.437   8.955  1.00  0.00     0.187 HD
BRANCH   8  10
HETATM   10  C17 UNL     1      24.175   3.280  10.057  1.00  0.00     0.710 A 
HETATM   11  N3  UNL     1      24.603   2.027   9.764  1.00  0.00    -0.117 N 
HETATM   12  N4  UNL     1      23.661   1.160  10.100  1.00  0.00     0.006 NA
ATOM     13  H3  UNL     1      25.505   1.791   9.352  1.00  0.00     0.202 HD
HETATM   14  N5  UNL     1      22.633   1.825  10.604  1.00  0.00     0.006 NA
HETATM   15  N6  UNL     1      22.946   3.121  10.578  1.00  0.00    -0.117 N 
ATOM     16  H6  UNL     1      22.344   3.877  10.903  1.00  0.00     0.202 HD
ENDBRANCH   8  10
ENDBRANCH   5   6
BRANCH   1  17
HETATM   17  C5  UNL     1      24.048   5.236  13.640  1.00  0.00     0.220 C 
BRANCH  17  18
HETATM   18  C3  UNL     1      23.807   5.347  15.123  1.00  0.00     0.030 C 
HETATM   19  C4  UNL     1      22.964   6.587  15.336  1.00  0.00     0.014 C 
BRANCH  18  20
HETATM   20  C2  UNL     1      23.138   4.128  15.699  1.00  0.00     0.004 C 
HETATM   21  C1  UNL     1      21.715   4.359  16.091  1.00  0.00     0.005 C 
ENDBRANCH  18  20
ENDBRANCH  17  18
BRANCH  17  22
HETATM   22  O1  UNL     1      23.986   3.869  13.315  1.00  0.00    -0.377 OA
ATOM     23  H1  UNL     1      23.946   3.391  14.135  1.00  0.00     0.212 HD
ENDBRANCH  17  22
ENDBRANCH   1  17
BRANCH   3  24
HETATM   24  O2  UNL     1      27.431   8.414  12.389  1.00  0.00    -0.341 OA
BRANCH  24  25
HETATM   25  C8  UNL     1      26.727   9.588  12.593  1.00  0.00     0.112 A 
HETATM   26  C9  UNL     1      26.021  10.151  11.527  1.00  0.00     0.070 A 
HETATM   27 CL1  UNL     1      26.011   9.404   9.948  1.00  0.00    -0.081 Cl
HETATM   28  C10 UNL     1      25.303  11.325  11.691  1.00  0.00     0.050 A 
HETATM   29  C11 UNL     1      25.258  11.976  12.901  1.00  0.00     0.037 A 
HETATM   30 CL2  UNL     1      24.334  13.464  13.071  1.00  0.00    -0.084 Cl
HETATM   31  C12 UNL     1      25.947  11.435  13.956  1.00  0.00     0.050 A 
HETATM   32  C13 UNL     1      26.664  10.260  13.789  1.00  0.00     0.070 A 
HETATM   33 CL3  UNL     1      27.509   9.632  15.162  1.00  0.00    -0.081 Cl
ENDBRANCH  24  25
ENDBRANCH   3  24
TORSDOF 8
ENDMDL
