MODEL 1
REMARK VINA RESULT: -5.323430560      0.000      0.000
REMARK  3 active torsions:
REMARK  status: ('A' for Active; 'I' for Inactive)
REMARK       I    between atoms: C1_4  and  N3_6 
REMARK    1  A    between atoms: N3_6  and  N4_8 
REMARK    2  A    between atoms: N4_8  and  C2_10 
REMARK    3  A    between atoms: N6_17  and  N7_18 
ROOT
HETATM    1  C2  UNL     1       2.429 -14.102  -1.255  1.00  0.00     0.720 A 
HETATM    2  N5  UNL     1       2.469 -14.411  -2.582  1.00  0.00    -0.199 N 
ATOM      3  H5  UNL     1       3.328 -14.278  -3.116  1.00  0.00     0.183 HD
HETATM    4  C3  UNL     1       1.369 -14.892  -3.179  1.00  0.00     0.112 A 
HETATM    5  C4  UNL     1       0.193 -15.088  -2.498  1.00  0.00     0.094 A 
HETATM    6  C5  UNL     1       0.178 -14.770  -1.161  1.00  0.00     0.283 A 
HETATM    7  O1  UNL     1      -0.854 -14.912  -0.439  1.00  0.00    -0.266 OA
HETATM    8  N6  UNL     1       1.288 -14.287  -0.569  1.00  0.00    -0.053 N 
ENDROOT
BRANCH   1   9
HETATM    9  N4  UNL     1       3.513 -13.650  -0.755  1.00  0.00    -0.128 N 
ATOM     10  H4  UNL     1       3.440 -12.743  -0.295  1.00  0.00     0.205 HD
BRANCH   9  11
HETATM   11  N3  UNL     1       4.757 -14.218  -0.753  1.00  0.00    -0.259 N 
HETATM   12  C1  UNL     1       5.233 -15.046   0.297  1.00  0.00     0.201 C 
HETATM   13  N1  UNL     1       4.490 -15.256   1.348  1.00  0.00    -0.372 N 
HETATM   14  N2  UNL     1       6.495 -15.677   0.279  1.00  0.00    -0.062 NA
ATOM     15  H12 UNL     1       4.831 -15.851   2.103  1.00  0.00     0.158 HD
ATOM     16  H11 UNL     1       3.578 -14.800   1.361  1.00  0.00     0.158 HD
ATOM     17  H3  UNL     1       5.374 -14.037  -1.545  1.00  0.00     0.190 HD
ENDBRANCH   9  11
ENDBRANCH   1   9
BRANCH   8  18
HETATM   18  N7  UNL     1       1.279 -13.959   0.797  1.00  0.00    -0.321 N 
ATOM     19  H72 UNL     1       0.788 -13.127   1.125  1.00  0.00     0.178 HD
ATOM     20  H71 UNL     1       1.774 -14.576   1.441  1.00  0.00     0.178 HD
ENDBRANCH   8  18
TORSDOF 3
ENDMDL
MODEL 2
REMARK VINA RESULT: -5.133064987      1.131      2.261
REMARK  3 active torsions:
REMARK  status: ('A' for Active; 'I' for Inactive)
REMARK       I    between atoms: C1_4  and  N3_6 
REMARK    1  A    between atoms: N3_6  and  N4_8 
REMARK    2  A    between atoms: N4_8  and  C2_10 
REMARK    3  A    between atoms: N6_17  and  N7_18 
ROOT
HETATM    1  C2  UNL     1       2.163 -14.081  -0.474  1.00  0.00     0.720 A 
HETATM    2  N5  UNL     1       1.429 -14.088   0.674  1.00  0.00    -0.199 N 
ATOM      3  H5  UNL     1       1.850 -13.798   1.556  1.00  0.00     0.183 HD
HETATM    4  C3  UNL     1       0.147 -14.480   0.632  1.00  0.00     0.112 A 
HETATM    5  C4  UNL     1      -0.459 -14.877  -0.534  1.00  0.00     0.094 A 
HETATM    6  C5  UNL     1       0.301 -14.860  -1.678  1.00  0.00     0.283 A 
HETATM    7  O1  UNL     1      -0.158 -15.207  -2.807  1.00  0.00    -0.266 OA
HETATM    8  N6  UNL     1       1.589 -14.466  -1.627  1.00  0.00    -0.053 N 
ENDROOT
BRANCH   1   9
HETATM    9  N4  UNL     1       3.374 -13.697  -0.358  1.00  0.00    -0.128 N 
ATOM     10  H4  UNL     1       3.610 -12.831  -0.843  1.00  0.00     0.205 HD
BRANCH   9  11
HETATM   11  N3  UNL     1       4.399 -14.288   0.329  1.00  0.00    -0.259 N 
HETATM   12  C1  UNL     1       5.440 -15.018  -0.303  1.00  0.00     0.201 C 
HETATM   13  N1  UNL     1       5.421 -15.194  -1.594  1.00  0.00    -0.372 N 
HETATM   14  N2  UNL     1       6.528 -15.584   0.396  1.00  0.00    -0.062 NA
ATOM     15  H12 UNL     1       6.168 -15.718  -2.049  1.00  0.00     0.158 HD
ATOM     16  H11 UNL     1       4.635 -14.785  -2.100  1.00  0.00     0.158 HD
ATOM     17  H3  UNL     1       4.416 -14.200   1.345  1.00  0.00     0.190 HD
ENDBRANCH   9  11
ENDBRANCH   1   9
BRANCH   8  18
HETATM   18  N7  UNL     1       2.373 -14.447  -2.793  1.00  0.00    -0.321 N 
ATOM     19  H72 UNL     1       3.390 -14.398  -2.730  1.00  0.00     0.178 HD
ATOM     20  H71 UNL     1       1.894 -14.484  -3.693  1.00  0.00     0.178 HD
ENDBRANCH   8  18
TORSDOF 3
ENDMDL
MODEL 3
REMARK VINA RESULT: -4.987387769      2.237      4.591
REMARK  3 active torsions:
REMARK  status: ('A' for Active; 'I' for Inactive)
REMARK       I    between atoms: C1_4  and  N3_6 
REMARK    1  A    between atoms: N3_6  and  N4_8 
REMARK    2  A    between atoms: N4_8  and  C2_10 
REMARK    3  A    between atoms: N6_17  and  N7_18 
ROOT
HETATM    1  C2  UNL     1       3.713 -14.420  -1.265  1.00  0.00     0.720 A 
HETATM    2  N5  UNL     1       4.771 -14.911  -1.970  1.00  0.00    -0.199 N 
ATOM      3  H5  UNL     1       4.779 -14.860  -2.988  1.00  0.00     0.183 HD
HETATM    4  C3  UNL     1       5.802 -15.460  -1.312  1.00  0.00     0.112 A 
HETATM    5  C4  UNL     1       5.833 -15.547   0.058  1.00  0.00     0.094 A 
HETATM    6  C5  UNL     1       4.756 -15.045   0.747  1.00  0.00     0.283 A 
HETATM    7  O1  UNL     1       4.681 -15.074   2.012  1.00  0.00    -0.266 OA
HETATM    8  N6  UNL     1       3.723 -14.495   0.078  1.00  0.00    -0.053 N 
ENDROOT
BRANCH   1   9
HETATM    9  N4  UNL     1       2.770 -13.912  -1.957  1.00  0.00    -0.128 N 
ATOM     10  H4  UNL     1       2.387 -13.035  -1.605  1.00  0.00     0.205 HD
BRANCH   9  11
HETATM   11  N3  UNL     1       2.202 -14.384  -3.109  1.00  0.00    -0.259 N 
HETATM   12  C1  UNL     1       0.904 -14.958  -3.157  1.00  0.00     0.201 C 
HETATM   13  N1  UNL     1       0.214 -15.102  -2.061  1.00  0.00    -0.372 N 
HETATM   14  N2  UNL     1       0.293 -15.398  -4.351  1.00  0.00    -0.062 NA
ATOM     15  H12 UNL     1      -0.718 -15.514  -2.096  1.00  0.00     0.158 HD
ATOM     16  H11 UNL     1       0.655 -14.783  -1.199  1.00  0.00     0.158 HD
ATOM     17  H3  UNL     1       2.737 -14.321  -3.975  1.00  0.00     0.190 HD
ENDBRANCH   9  11
ENDBRANCH   1   9
BRANCH   8  18
HETATM   18  N7  UNL     1       2.618 -13.980   0.775  1.00  0.00    -0.321 N 
ATOM     19  H72 UNL     1       2.050 -13.237   0.366  1.00  0.00     0.178 HD
ATOM     20  H71 UNL     1       2.407 -14.369   1.694  1.00  0.00     0.178 HD
ENDBRANCH   8  18
TORSDOF 3
ENDMDL
MODEL 4
REMARK VINA RESULT: -4.926886400      1.487      2.442
REMARK  3 active torsions:
REMARK  status: ('A' for Active; 'I' for Inactive)
REMARK       I    between atoms: C1_4  and  N3_6 
REMARK    1  A    between atoms: N3_6  and  N4_8 
REMARK    2  A    between atoms: N4_8  and  C2_10 
REMARK    3  A    between atoms: N6_17  and  N7_18 
ROOT
HETATM    1  C2  UNL     1       1.748 -14.378  -1.850  1.00  0.00     0.720 A 
HETATM    2  N5  UNL     1       1.046 -14.448  -0.684  1.00  0.00    -0.199 N 
ATOM      3  H5  UNL     1       1.473 -14.152   0.193  1.00  0.00     0.183 HD
HETATM    4  C3  UNL     1      -0.214 -14.909  -0.702  1.00  0.00     0.112 A 
HETATM    5  C4  UNL     1      -0.827 -15.316  -1.861  1.00  0.00     0.094 A 
HETATM    6  C5  UNL     1      -0.099 -15.235  -3.023  1.00  0.00     0.283 A 
HETATM    7  O1  UNL     1      -0.568 -15.584  -4.147  1.00  0.00    -0.266 OA
HETATM    8  N6  UNL     1       1.166 -14.771  -2.996  1.00  0.00    -0.053 N 
ENDROOT
BRANCH   1   9
HETATM    9  N4  UNL     1       2.939 -13.929  -1.756  1.00  0.00    -0.128 N 
ATOM     10  H4  UNL     1       3.385 -13.675  -2.637  1.00  0.00     0.205 HD
BRANCH   9  11
HETATM   11  N3  UNL     1       3.698 -13.742  -0.634  1.00  0.00    -0.259 N 
HETATM   12  C1  UNL     1       4.533 -14.750  -0.083  1.00  0.00     0.201 C 
HETATM   13  N1  UNL     1       4.562 -15.937  -0.620  1.00  0.00    -0.372 N 
HETATM   14  N2  UNL     1       5.359 -14.545   1.043  1.00  0.00    -0.062 NA
ATOM     15  H12 UNL     1       5.162 -16.661  -0.224  1.00  0.00     0.158 HD
ATOM     16  H11 UNL     1       3.966 -16.085  -1.434  1.00  0.00     0.158 HD
ATOM     17  H3  UNL     1       3.663 -12.835  -0.170  1.00  0.00     0.190 HD
ENDBRANCH   9  11
ENDBRANCH   1   9
BRANCH   8  18
HETATM   18  N7  UNL     1       1.917 -14.687  -4.180  1.00  0.00    -0.321 N 
ATOM     19  H72 UNL     1       1.728 -15.320  -4.958  1.00  0.00     0.178 HD
ATOM     20  H71 UNL     1       2.649 -13.978  -4.234  1.00  0.00     0.178 HD
ENDBRANCH   8  18
TORSDOF 3
ENDMDL
MODEL 5
REMARK VINA RESULT: -4.851798391      2.591      5.050
REMARK  3 active torsions:
REMARK  status: ('A' for Active; 'I' for Inactive)
REMARK       I    between atoms: C1_4  and  N3_6 
REMARK    1  A    between atoms: N3_6  and  N4_8 
REMARK    2  A    between atoms: N4_8  and  C2_10 
REMARK    3  A    between atoms: N6_17  and  N7_18 
ROOT
HETATM    1  C2  UNL     1       2.723 -14.441   0.913  1.00  0.00     0.720 A 
HETATM    2  N5  UNL     1       2.863 -15.309   1.954  1.00  0.00    -0.199 N 
ATOM      3  H5  UNL     1       2.126 -15.399   2.653  1.00  0.00     0.183 HD
HETATM    4  C3  UNL     1       3.981 -16.044   2.051  1.00  0.00     0.112 A 
HETATM    5  C4  UNL     1       4.997 -15.954   1.132  1.00  0.00     0.094 A 
HETATM    6  C5  UNL     1       4.832 -15.074   0.092  1.00  0.00     0.283 A 
HETATM    7  O1  UNL     1       5.707 -14.912  -0.811  1.00  0.00    -0.266 OA
HETATM    8  N6  UNL     1       3.706 -14.338   0.002  1.00  0.00    -0.053 N 
ENDROOT
BRANCH   1   9
HETATM    9  N4  UNL     1       1.634 -13.776   0.885  1.00  0.00    -0.128 N 
ATOM     10  H4  UNL     1       1.738 -12.763   0.842  1.00  0.00     0.205 HD
BRANCH   9  11
HETATM   11  N3  UNL     1       0.347 -14.239   0.905  1.00  0.00    -0.259 N 
HETATM   12  C1  UNL     1      -0.311 -14.759  -0.241  1.00  0.00     0.201 C 
HETATM   13  N1  UNL     1       0.296 -14.763  -1.394  1.00  0.00    -0.372 N 
HETATM   14  N2  UNL     1      -1.620 -15.287  -0.213  1.00  0.00    -0.062 NA
ATOM     15  H12 UNL     1      -0.176 -15.137  -2.217  1.00  0.00     0.158 HD
ATOM     16  H11 UNL     1       1.242 -14.383  -1.414  1.00  0.00     0.158 HD
ATOM     17  H3  UNL     1      -0.165 -14.209   1.787  1.00  0.00     0.190 HD
ENDBRANCH   9  11
ENDBRANCH   1   9
BRANCH   8  18
HETATM   18  N7  UNL     1       3.530 -13.435  -1.059  1.00  0.00    -0.321 N 
ATOM     19  H72 UNL     1       3.497 -12.431  -0.882  1.00  0.00     0.178 HD
ATOM     20  H71 UNL     1       3.438 -13.814  -2.002  1.00  0.00     0.178 HD
ENDBRANCH   8  18
TORSDOF 3
ENDMDL
