MODEL 1
REMARK VINA RESULT: -6.588558046      0.000      0.000
REMARK  11 active torsions:
REMARK  status: ('A' for Active; 'I' for Inactive)
REMARK    1  A    between atoms: N1_1  and  C1_4 
REMARK    2  A    between atoms: C2_7  and  O1_8 
REMARK    3  A    between atoms: C3_10  and  C4_11 
REMARK    4  A    between atoms: C6_15  and  O4_16 
REMARK    5  A    between atoms: C6_15  and  C7_18 
REMARK    6  A    between atoms: C9_25  and  N5_26 
REMARK    7  A    between atoms: N5_26  and  C10_28 
REMARK    8  A    between atoms: C10_28  and  C11_29 
REMARK    9  A    between atoms: C10_28  and  C13_35 
REMARK   10  A    between atoms: C11_29  and  C12_30 
REMARK   11  A    between atoms: C12_30  and  N6_31 
ROOT
HETATM    1  C1  UNL     1     -13.504 -21.095  38.502  1.00  0.00     0.145 A 
HETATM    2  N2  UNL     1     -14.690 -21.756  38.681  1.00  0.00    -0.319 N 
ATOM      3  H2  UNL     1     -14.850 -22.254  39.556  1.00  0.00     0.169 HD
HETATM    4  C2  UNL     1     -15.648 -21.770  37.742  1.00  0.00     0.166 A 
HETATM    5  C3  UNL     1     -15.484 -21.111  36.538  1.00  0.00     0.083 A 
HETATM    6  N4  UNL     1     -14.349 -20.470  36.349  1.00  0.00    -0.338 N 
ATOM      7  H4  UNL     1     -14.205 -19.976  35.468  1.00  0.00     0.167 HD
HETATM    8  C9  UNL     1     -13.344 -20.440  37.303  1.00  0.00     0.146 A 
ENDROOT
BRANCH   5   9
HETATM    9  C4  UNL     1     -16.598 -21.185  35.569  1.00  0.00     0.215 C 
HETATM   10  C5  UNL     1     -16.944 -19.858  35.007  1.00  0.00     0.280 C 
HETATM   11  O2  UNL     1     -17.066 -18.749  35.596  1.00  0.00    -0.264 OA
HETATM   12  O3  UNL     1     -17.135 -20.004  33.641  1.00  0.00    -0.267 OA
HETATM   13  C6  UNL     1     -17.021 -21.342  33.242  1.00  0.00     0.315 C 
HETATM   14  C8  UNL     1     -16.260 -21.960  34.353  1.00  0.00     0.218 C 
HETATM   15  O6  UNL     1     -15.510 -22.905  34.303  1.00  0.00    -0.290 OA
BRANCH  13  16
HETATM   16  O4  UNL     1     -16.350 -21.474  32.031  1.00  0.00    -0.352 OA
ATOM     17  H4  UNL     1     -15.439 -21.213  32.095  1.00  0.00     0.214 HD
ENDBRANCH  13  16
BRANCH  13  18
HETATM   18  C7  UNL     1     -18.349 -22.004  33.115  1.00  0.00     0.302 C 
HETATM   19  N3  UNL     1     -19.549 -21.262  33.188  1.00  0.00    -0.057 NA
HETATM   20  O5  UNL     1     -18.379 -23.235  32.942  1.00  0.00    -0.270 OA
ENDBRANCH  13  18
ENDBRANCH   5   9
BRANCH   4  21
HETATM   21  O1  UNL     1     -16.809 -22.466  38.015  1.00  0.00    -0.345 OA
ATOM     22  H1  UNL     1     -17.150 -22.428  38.901  1.00  0.00     0.219 HD
ENDBRANCH   4  21
BRANCH   8  23
HETATM   23  N5  UNL     1     -12.347 -19.806  36.992  1.00  0.00    -0.360 N 
ATOM     24  H5  UNL     1     -12.212 -19.134  37.748  1.00  0.00     0.162 HD
BRANCH  23  25
HETATM   25  C10 UNL     1     -11.325 -19.566  36.116  1.00  0.00     0.174 C 
BRANCH  25  26
HETATM   26  C11 UNL     1     -11.548 -18.336  35.217  1.00  0.00     0.061 C 
BRANCH  26  27
HETATM   27  C12 UNL     1     -10.278 -17.535  35.097  1.00  0.00     0.232 C 
BRANCH  27  28
HETATM   28  N6  UNL     1      -9.328 -18.241  34.259  1.00  0.00    -0.079 N 
ATOM     29  H63 UNL     1      -9.567 -19.226  34.156  1.00  0.00     0.274 HD
ATOM     30  H62 UNL     1      -9.403 -17.966  33.280  1.00  0.00     0.274 HD
ATOM     31  H61 UNL     1      -8.384 -18.112  34.623  1.00  0.00     0.274 HD
ENDBRANCH  27  28
ENDBRANCH  26  27
ENDBRANCH  25  26
BRANCH  25  32
HETATM   32  C13 UNL     1     -11.026 -20.669  35.152  1.00  0.00     0.254 C 
HETATM   33  N7  UNL     1     -10.457 -21.905  35.544  1.00  0.00    -0.060 NA
HETATM   34  O7  UNL     1     -11.297 -20.473  33.947  1.00  0.00    -0.275 OA
ENDBRANCH  25  32
ENDBRANCH  23  25
ENDBRANCH   8  23
BRANCH   1  35
HETATM   35  N1  UNL     1     -12.660 -21.144  39.457  1.00  0.00    -0.382 N 
ATOM     36  H12 UNL     1     -12.872 -21.235  40.450  1.00  0.00     0.157 HD
ATOM     37  H11 UNL     1     -11.672 -21.089  39.208  1.00  0.00     0.157 HD
ENDBRANCH   1  35
TORSDOF 11
ENDMDL
MODEL 2
REMARK VINA RESULT: -6.305888782      2.191      2.522
REMARK  11 active torsions:
REMARK  status: ('A' for Active; 'I' for Inactive)
REMARK    1  A    between atoms: N1_1  and  C1_4 
REMARK    2  A    between atoms: C2_7  and  O1_8 
REMARK    3  A    between atoms: C3_10  and  C4_11 
REMARK    4  A    between atoms: C6_15  and  O4_16 
REMARK    5  A    between atoms: C6_15  and  C7_18 
REMARK    6  A    between atoms: C9_25  and  N5_26 
REMARK    7  A    between atoms: N5_26  and  C10_28 
REMARK    8  A    between atoms: C10_28  and  C11_29 
REMARK    9  A    between atoms: C10_28  and  C13_35 
REMARK   10  A    between atoms: C11_29  and  C12_30 
REMARK   11  A    between atoms: C12_30  and  N6_31 
ROOT
HETATM    1  C1  UNL     1     -14.824 -19.664  37.489  1.00  0.00     0.145 A 
HETATM    2  N2  UNL     1     -16.120 -20.035  37.733  1.00  0.00    -0.319 N 
ATOM      3  H2  UNL     1     -16.334 -20.544  38.590  1.00  0.00     0.169 HD
HETATM    4  C2  UNL     1     -17.115 -19.750  36.880  1.00  0.00     0.166 A 
HETATM    5  C3  UNL     1     -16.881 -19.063  35.705  1.00  0.00     0.083 A 
HETATM    6  N4  UNL     1     -15.641 -18.698  35.454  1.00  0.00    -0.338 N 
ATOM      7  H4  UNL     1     -15.443 -18.190  34.592  1.00  0.00     0.167 HD
HETATM    8  C9  UNL     1     -14.594 -18.979  36.318  1.00  0.00     0.146 A 
ENDROOT
BRANCH   5   9
HETATM    9  C4  UNL     1     -18.045 -18.797  34.832  1.00  0.00     0.215 C 
HETATM   10  C5  UNL     1     -18.140 -17.371  34.439  1.00  0.00     0.280 C 
HETATM   11  O2  UNL     1     -17.988 -16.337  35.144  1.00  0.00    -0.264 OA
HETATM   12  O3  UNL     1     -18.443 -17.317  33.086  1.00  0.00    -0.267 OA
HETATM   13  C6  UNL     1     -18.638 -18.595  32.547  1.00  0.00     0.315 C 
HETATM   14  C8  UNL     1     -17.955 -19.478  33.521  1.00  0.00     0.218 C 
HETATM   15  O6  UNL     1     -17.425 -20.543  33.312  1.00  0.00    -0.290 OA
BRANCH  13  16
HETATM   16  O4  UNL     1     -18.088 -18.719  31.276  1.00  0.00    -0.352 OA
ATOM     17  H4  UNL     1     -18.745 -18.915  30.618  1.00  0.00     0.214 HD
ENDBRANCH  13  16
BRANCH  13  18
HETATM   18  C7  UNL     1     -20.081 -18.955  32.469  1.00  0.00     0.302 C 
HETATM   19  N3  UNL     1     -21.061 -17.995  32.136  1.00  0.00    -0.057 NA
HETATM   20  O5  UNL     1     -20.407 -20.132  32.705  1.00  0.00    -0.270 OA
ENDBRANCH  13  18
ENDBRANCH   5   9
BRANCH   4  21
HETATM   21  O1  UNL     1     -18.389 -20.168  37.214  1.00  0.00    -0.345 OA
ATOM     22  H1  UNL     1     -18.996 -20.350  36.507  1.00  0.00     0.219 HD
ENDBRANCH   4  21
BRANCH   8  23
HETATM   23  N5  UNL     1     -13.497 -18.580  35.958  1.00  0.00    -0.360 N 
ATOM     24  H5  UNL     1     -13.672 -17.675  35.521  1.00  0.00     0.162 HD
BRANCH  23  25
HETATM   25  C10 UNL     1     -12.146 -18.767  35.862  1.00  0.00     0.174 C 
BRANCH  25  26
HETATM   26  C11 UNL     1     -11.473 -17.909  34.774  1.00  0.00     0.061 C 
BRANCH  26  27
HETATM   27  C12 UNL     1     -10.009 -17.728  35.077  1.00  0.00     0.232 C 
BRANCH  27  28
HETATM   28  N6  UNL     1      -9.222 -18.627  34.254  1.00  0.00    -0.079 N 
ATOM     29  H63 UNL     1      -9.073 -19.529  34.706  1.00  0.00     0.274 HD
ATOM     30  H62 UNL     1      -9.740 -18.953  33.439  1.00  0.00     0.274 HD
ATOM     31  H61 UNL     1      -8.342 -18.179  33.996  1.00  0.00     0.274 HD
ENDBRANCH  27  28
ENDBRANCH  26  27
ENDBRANCH  25  26
BRANCH  25  32
HETATM   32  C13 UNL     1     -11.704 -20.159  35.549  1.00  0.00     0.254 C 
HETATM   33  N7  UNL     1     -11.344 -21.099  36.546  1.00  0.00    -0.060 NA
HETATM   34  O7  UNL     1     -11.656 -20.495  34.344  1.00  0.00    -0.275 OA
ENDBRANCH  25  32
ENDBRANCH  23  25
ENDBRANCH   8  23
BRANCH   1  35
HETATM   35  N1  UNL     1     -13.952 -19.984  38.364  1.00  0.00    -0.382 N 
ATOM     36  H12 UNL     1     -13.806 -19.533  39.267  1.00  0.00     0.157 HD
ATOM     37  H11 UNL     1     -13.338 -20.767  38.143  1.00  0.00     0.157 HD
ENDBRANCH   1  35
TORSDOF 11
ENDMDL
MODEL 3
REMARK VINA RESULT: -6.256966135      2.959      6.608
REMARK  11 active torsions:
REMARK  status: ('A' for Active; 'I' for Inactive)
REMARK    1  A    between atoms: N1_1  and  C1_4 
REMARK    2  A    between atoms: C2_7  and  O1_8 
REMARK    3  A    between atoms: C3_10  and  C4_11 
REMARK    4  A    between atoms: C6_15  and  O4_16 
REMARK    5  A    between atoms: C6_15  and  C7_18 
REMARK    6  A    between atoms: C9_25  and  N5_26 
REMARK    7  A    between atoms: N5_26  and  C10_28 
REMARK    8  A    between atoms: C10_28  and  C11_29 
REMARK    9  A    between atoms: C10_28  and  C13_35 
REMARK   10  A    between atoms: C11_29  and  C12_30 
REMARK   11  A    between atoms: C12_30  and  N6_31 
ROOT
HETATM    1  C1  UNL     1     -17.060 -17.153  36.673  1.00  0.00     0.145 A 
HETATM    2  N2  UNL     1     -16.161 -17.422  37.671  1.00  0.00    -0.319 N 
ATOM      3  H2  UNL     1     -16.230 -16.909  38.549  1.00  0.00     0.169 HD
HETATM    4  C2  UNL     1     -15.193 -18.340  37.530  1.00  0.00     0.166 A 
HETATM    5  C3  UNL     1     -15.054 -19.065  36.362  1.00  0.00     0.083 A 
HETATM    6  N4  UNL     1     -15.910 -18.819  35.391  1.00  0.00    -0.338 N 
ATOM      7  H4  UNL     1     -15.827 -19.341  34.519  1.00  0.00     0.167 HD
HETATM    8  C9  UNL     1     -16.919 -17.877  35.511  1.00  0.00     0.146 A 
ENDROOT
BRANCH   5   9
HETATM    9  C4  UNL     1     -13.955 -20.053  36.305  1.00  0.00     0.215 C 
HETATM   10  C5  UNL     1     -14.201 -21.110  35.295  1.00  0.00     0.280 C 
HETATM   11  O2  UNL     1     -15.260 -21.749  35.050  1.00  0.00    -0.264 OA
HETATM   12  O3  UNL     1     -13.020 -21.324  34.599  1.00  0.00    -0.267 OA
HETATM   13  C6  UNL     1     -11.970 -20.549  35.110  1.00  0.00     0.315 C 
HETATM   14  C8  UNL     1     -12.674 -19.473  35.844  1.00  0.00     0.218 C 
HETATM   15  O6  UNL     1     -12.299 -18.342  36.041  1.00  0.00    -0.290 OA
BRANCH  13  16
HETATM   16  O4  UNL     1     -11.160 -20.033  34.104  1.00  0.00    -0.352 OA
ATOM     17  H4  UNL     1     -11.663 -19.738  33.354  1.00  0.00     0.214 HD
ENDBRANCH  13  16
BRANCH  13  18
HETATM   18  C7  UNL     1     -11.112 -21.321  36.051  1.00  0.00     0.302 C 
HETATM   19  N3  UNL     1     -10.455 -22.503  35.646  1.00  0.00    -0.057 NA
HETATM   20  O5  UNL     1     -10.985 -20.896  37.213  1.00  0.00    -0.270 OA
ENDBRANCH  13  18
ENDBRANCH   5   9
BRANCH   4  21
HETATM   21  O1  UNL     1     -14.334 -18.539  38.593  1.00  0.00    -0.345 OA
ATOM     22  H1  UNL     1     -13.577 -17.970  38.664  1.00  0.00     0.219 HD
ENDBRANCH   4  21
BRANCH   8  23
HETATM   23  N5  UNL     1     -17.640 -17.755  34.532  1.00  0.00    -0.360 N 
ATOM     24  H5  UNL     1     -17.235 -16.985  33.998  1.00  0.00     0.162 HD
BRANCH  23  25
HETATM   25  C10 UNL     1     -18.730 -18.156  33.811  1.00  0.00     0.174 C 
BRANCH  25  26
HETATM   26  C11 UNL     1     -18.390 -19.081  32.628  1.00  0.00     0.061 C 
BRANCH  26  27
HETATM   27  C12 UNL     1     -18.136 -20.484  33.113  1.00  0.00     0.232 C 
BRANCH  27  28
HETATM   28  N6  UNL     1     -16.866 -20.960  32.598  1.00  0.00    -0.079 N 
ATOM     29  H63 UNL     1     -16.209 -20.198  32.436  1.00  0.00     0.274 HD
ATOM     30  H62 UNL     1     -16.333 -21.469  33.304  1.00  0.00     0.274 HD
ATOM     31  H61 UNL     1     -17.021 -21.518  31.759  1.00  0.00     0.274 HD
ENDBRANCH  27  28
ENDBRANCH  26  27
ENDBRANCH  25  26
BRANCH  25  32
HETATM   32  C13 UNL     1     -19.537 -17.061  33.193  1.00  0.00     0.254 C 
HETATM   33  N7  UNL     1     -20.252 -16.104  33.954  1.00  0.00    -0.060 NA
HETATM   34  O7  UNL     1     -19.572 -17.001  31.944  1.00  0.00    -0.275 OA
ENDBRANCH  25  32
ENDBRANCH  23  25
ENDBRANCH   8  23
BRANCH   1  35
HETATM   35  N1  UNL     1     -17.942 -16.262  36.909  1.00  0.00    -0.382 N 
ATOM     36  H12 UNL     1     -17.948 -15.306  36.554  1.00  0.00     0.157 HD
ATOM     37  H11 UNL     1     -18.722 -16.527  37.510  1.00  0.00     0.157 HD
ENDBRANCH   1  35
TORSDOF 11
ENDMDL
MODEL 4
REMARK VINA RESULT: -6.227127533      1.557      1.829
REMARK  11 active torsions:
REMARK  status: ('A' for Active; 'I' for Inactive)
REMARK    1  A    between atoms: N1_1  and  C1_4 
REMARK    2  A    between atoms: C2_7  and  O1_8 
REMARK    3  A    between atoms: C3_10  and  C4_11 
REMARK    4  A    between atoms: C6_15  and  O4_16 
REMARK    5  A    between atoms: C6_15  and  C7_18 
REMARK    6  A    between atoms: C9_25  and  N5_26 
REMARK    7  A    between atoms: N5_26  and  C10_28 
REMARK    8  A    between atoms: C10_28  and  C11_29 
REMARK    9  A    between atoms: C10_28  and  C13_35 
REMARK   10  A    between atoms: C11_29  and  C12_30 
REMARK   11  A    between atoms: C12_30  and  N6_31 
ROOT
HETATM    1  C1  UNL     1     -15.114 -18.732  38.181  1.00  0.00     0.145 A 
HETATM    2  N2  UNL     1     -16.463 -18.514  38.078  1.00  0.00    -0.319 N 
ATOM      3  H2  UNL     1     -16.917 -17.899  38.753  1.00  0.00     0.169 HD
HETATM    4  C2  UNL     1     -17.206 -19.084  37.117  1.00  0.00     0.166 A 
HETATM    5  C3  UNL     1     -16.643 -19.925  36.177  1.00  0.00     0.083 A 
HETATM    6  N4  UNL     1     -15.347 -20.146  36.261  1.00  0.00    -0.338 N 
ATOM      7  H4  UNL     1     -14.908 -20.764  35.578  1.00  0.00     0.167 HD
HETATM    8  C9  UNL     1     -14.557 -19.570  37.242  1.00  0.00     0.146 A 
ENDROOT
BRANCH   5   9
HETATM    9  C4  UNL     1     -17.545 -20.503  35.158  1.00  0.00     0.215 C 
HETATM   10  C5  UNL     1     -17.706 -19.619  33.980  1.00  0.00     0.280 C 
HETATM   11  O2  UNL     1     -17.885 -18.370  33.938  1.00  0.00    -0.264 OA
HETATM   12  O3  UNL     1     -17.630 -20.403  32.838  1.00  0.00    -0.267 OA
HETATM   13  C6  UNL     1     -17.508 -21.763  33.150  1.00  0.00     0.315 C 
HETATM   14  C8  UNL     1     -17.014 -21.743  34.547  1.00  0.00     0.218 C 
HETATM   15  O6  UNL     1     -16.318 -22.561  35.099  1.00  0.00    -0.290 OA
BRANCH  13  16
HETATM   16  O4  UNL     1     -16.618 -22.418  32.306  1.00  0.00    -0.352 OA
ATOM     17  H4  UNL     1     -15.764 -22.535  32.705  1.00  0.00     0.214 HD
ENDBRANCH  13  16
BRANCH  13  18
HETATM   18  C7  UNL     1     -18.816 -22.470  33.091  1.00  0.00     0.302 C 
HETATM   19  N3  UNL     1     -20.034 -21.759  33.017  1.00  0.00    -0.057 NA
HETATM   20  O5  UNL     1     -18.814 -23.714  33.108  1.00  0.00    -0.270 OA
ENDBRANCH  13  18
ENDBRANCH   5   9
BRANCH   4  21
HETATM   21  O1  UNL     1     -18.558 -18.804  37.097  1.00  0.00    -0.345 OA
ATOM     22  H1  UNL     1     -18.985 -18.740  36.251  1.00  0.00     0.219 HD
ENDBRANCH   4  21
BRANCH   8  23
HETATM   23  N5  UNL     1     -13.371 -19.862  37.199  1.00  0.00    -0.360 N 
ATOM     24  H5  UNL     1     -13.172 -20.301  38.099  1.00  0.00     0.162 HD
BRANCH  23  25
HETATM   25  C10 UNL     1     -12.184 -19.883  36.521  1.00  0.00     0.174 C 
BRANCH  25  26
HETATM   26  C11 UNL     1     -11.916 -18.614  35.692  1.00  0.00     0.061 C 
BRANCH  26  27
HETATM   27  C12 UNL     1     -10.455 -18.515  35.337  1.00  0.00     0.232 C 
BRANCH  27  28
HETATM   28  N6  UNL     1     -10.311 -18.056  33.969  1.00  0.00    -0.079 N 
ATOM     29  H63 UNL     1     -10.720 -18.709  33.301  1.00  0.00     0.274 HD
ATOM     30  H62 UNL     1     -10.904 -17.250  33.771  1.00  0.00     0.274 HD
ATOM     31  H61 UNL     1      -9.329 -17.868  33.769  1.00  0.00     0.274 HD
ENDBRANCH  27  28
ENDBRANCH  26  27
ENDBRANCH  25  26
BRANCH  25  32
HETATM   32  C13 UNL     1     -12.017 -20.998  35.540  1.00  0.00     0.254 C 
HETATM   33  N7  UNL     1     -11.027 -22.002  35.673  1.00  0.00    -0.060 NA
HETATM   34  O7  UNL     1     -12.796 -21.030  34.562  1.00  0.00    -0.275 OA
ENDBRANCH  25  32
ENDBRANCH  23  25
ENDBRANCH   8  23
BRANCH   1  35
HETATM   35  N1  UNL     1     -14.500 -18.142  39.131  1.00  0.00    -0.382 N 
ATOM     36  H12 UNL     1     -14.454 -17.136  39.290  1.00  0.00     0.157 HD
ATOM     37  H11 UNL     1     -14.005 -18.730  39.801  1.00  0.00     0.157 HD
ENDBRANCH   1  35
TORSDOF 11
ENDMDL
MODEL 5
REMARK VINA RESULT: -6.183034213      2.695      4.261
REMARK  11 active torsions:
REMARK  status: ('A' for Active; 'I' for Inactive)
REMARK    1  A    between atoms: N1_1  and  C1_4 
REMARK    2  A    between atoms: C2_7  and  O1_8 
REMARK    3  A    between atoms: C3_10  and  C4_11 
REMARK    4  A    between atoms: C6_15  and  O4_16 
REMARK    5  A    between atoms: C6_15  and  C7_18 
REMARK    6  A    between atoms: C9_25  and  N5_26 
REMARK    7  A    between atoms: N5_26  and  C10_28 
REMARK    8  A    between atoms: C10_28  and  C11_29 
REMARK    9  A    between atoms: C10_28  and  C13_35 
REMARK   10  A    between atoms: C11_29  and  C12_30 
REMARK   11  A    between atoms: C12_30  and  N6_31 
ROOT
HETATM    1  C1  UNL     1     -14.572 -21.767  34.873  1.00  0.00     0.145 A 
HETATM    2  N2  UNL     1     -15.115 -22.372  33.770  1.00  0.00    -0.319 N 
ATOM      3  H2  UNL     1     -14.665 -23.204  33.391  1.00  0.00     0.169 HD
HETATM    4  C2  UNL     1     -16.222 -21.903  33.174  1.00  0.00     0.166 A 
HETATM    5  C3  UNL     1     -16.873 -20.780  33.646  1.00  0.00     0.083 A 
HETATM    6  N4  UNL     1     -16.364 -20.186  34.706  1.00  0.00    -0.338 N 
ATOM      7  H4  UNL     1     -16.827 -19.354  35.072  1.00  0.00     0.167 HD
HETATM    8  C9  UNL     1     -15.223 -20.649  35.341  1.00  0.00     0.146 A 
ENDROOT
BRANCH   5   9
HETATM    9  C4  UNL     1     -18.085 -20.344  32.919  1.00  0.00     0.215 C 
HETATM   10  C5  UNL     1     -19.296 -21.082  33.349  1.00  0.00     0.280 C 
HETATM   11  O2  UNL     1     -19.443 -22.316  33.565  1.00  0.00    -0.264 OA
HETATM   12  O3  UNL     1     -20.329 -20.168  33.491  1.00  0.00    -0.267 OA
HETATM   13  C6  UNL     1     -19.936 -18.877  33.117  1.00  0.00     0.315 C 
HETATM   14  C8  UNL     1     -18.458 -18.939  33.203  1.00  0.00     0.218 C 
HETATM   15  O6  UNL     1     -17.691 -18.040  33.451  1.00  0.00    -0.290 OA
BRANCH  13  16
HETATM   16  O4  UNL     1     -20.453 -17.904  33.964  1.00  0.00    -0.352 OA
ATOM     17  H4  UNL     1     -21.396 -17.974  34.059  1.00  0.00     0.214 HD
ENDBRANCH  13  16
BRANCH  13  18
HETATM   18  C7  UNL     1     -20.344 -18.549  31.723  1.00  0.00     0.302 C 
HETATM   19  N3  UNL     1     -19.613 -17.628  30.941  1.00  0.00    -0.057 NA
HETATM   20  O5  UNL     1     -21.352 -19.109  31.259  1.00  0.00    -0.270 OA
ENDBRANCH  13  18
ENDBRANCH   5   9
BRANCH   4  21
HETATM   21  O1  UNL     1     -16.693 -22.582  32.067  1.00  0.00    -0.345 OA
ATOM     22  H1  UNL     1     -17.453 -23.139  32.179  1.00  0.00     0.219 HD
ENDBRANCH   4  21
BRANCH   8  23
HETATM   23  N5  UNL     1     -14.864 -20.000  36.312  1.00  0.00    -0.360 N 
ATOM     24  H5  UNL     1     -15.557 -20.198  37.036  1.00  0.00     0.162 HD
BRANCH  23  25
HETATM   25  C10 UNL     1     -13.979 -19.135  36.893  1.00  0.00     0.174 C 
BRANCH  25  26
HETATM   26  C11 UNL     1     -14.434 -17.664  36.867  1.00  0.00     0.061 C 
BRANCH  26  27
HETATM   27  C12 UNL     1     -15.895 -17.559  37.216  1.00  0.00     0.232 C 
BRANCH  27  28
HETATM   28  N6  UNL     1     -16.626 -16.982  36.104  1.00  0.00    -0.079 N 
ATOM     29  H63 UNL     1     -17.300 -16.281  36.411  1.00  0.00     0.274 HD
ATOM     30  H62 UNL     1     -16.036 -16.381  35.529  1.00  0.00     0.274 HD
ATOM     31  H61 UNL     1     -17.066 -17.723  35.558  1.00  0.00     0.274 HD
ENDBRANCH  27  28
ENDBRANCH  26  27
ENDBRANCH  25  26
BRANCH  25  32
HETATM   32  C13 UNL     1     -12.613 -19.102  36.288  1.00  0.00     0.254 C 
HETATM   33  N7  UNL     1     -11.542 -19.903  36.755  1.00  0.00    -0.060 NA
HETATM   34  O7  UNL     1     -12.424 -18.326  35.326  1.00  0.00    -0.275 OA
ENDBRANCH  25  32
ENDBRANCH  23  25
ENDBRANCH   8  23
BRANCH   1  35
HETATM   35  N1  UNL     1     -13.518 -22.293  35.365  1.00  0.00    -0.382 N 
ATOM     36  H12 UNL     1     -13.477 -23.095  35.993  1.00  0.00     0.157 HD
ATOM     37  H11 UNL     1     -12.625 -21.873  35.106  1.00  0.00     0.157 HD
ENDBRANCH   1  35
TORSDOF 11
ENDMDL
