MODEL 1
REMARK VINA RESULT: -7.495425686      0.000      0.000
REMARK  10 active torsions:
REMARK  status: ('A' for Active; 'I' for Inactive)
REMARK    1  A    between atoms: N1_1  and  C1_5 
REMARK    2  A    between atoms: C2_6  and  C3_7 
REMARK    3  A    between atoms: C3_7  and  C4_8 
REMARK    4  A    between atoms: C4_8  and  C5_10 
REMARK    5  A    between atoms: C5_10  and  C6_11 
REMARK       I    between atoms: C6_11  and  N2_13 
REMARK    6  A    between atoms: N2_13  and  C7_15 
REMARK    7  A    between atoms: C8_18  and  O3_19 
REMARK    8  A    between atoms: C10_28  and  O6_29 
REMARK    9  A    between atoms: C10_28  and  C11_31 
REMARK   10  A    between atoms: C12_34  and  O9_35 
ROOT
HETATM    1  C4  UNL     1     -15.180 -19.264  36.319  1.00  0.00     0.138 C 
HETATM    2  O1  UNL     1     -15.728 -18.222  36.075  1.00  0.00    -0.297 OA
ENDROOT
BRANCH   1   3
HETATM    3  C3  UNL     1     -13.874 -19.474  36.949  1.00  0.00     0.113 C 
BRANCH   3   4
HETATM    4  C2  UNL     1     -12.930 -20.401  36.267  1.00  0.00     0.165 C 
HETATM    5  C1  UNL     1     -11.623 -20.612  36.959  1.00  0.00     0.247 C 
HETATM    6  C12 UNL     1     -10.669 -20.765  35.791  1.00  0.00     0.225 C 
HETATM    7  C10 UNL     1     -11.337 -19.897  34.759  1.00  0.00     0.283 C 
HETATM    8  O5  UNL     1     -12.680 -19.894  34.995  1.00  0.00    -0.337 OA
BRANCH   5   9
HETATM    9  N1  UNL     1     -11.574 -21.795  37.806  1.00  0.00    -0.070 N 
ATOM     10  H13 UNL     1     -11.530 -22.640  37.235  1.00  0.00     0.274 HD
ATOM     11  H12 UNL     1     -10.673 -21.857  38.279  1.00  0.00     0.274 HD
ATOM     12  H11 UNL     1     -12.336 -21.862  38.481  1.00  0.00     0.274 HD
ENDBRANCH   5   9
BRANCH   6  13
HETATM   13  O9  UNL     1     -10.631 -22.100  35.385  1.00  0.00    -0.387 OA
ATOM     14  H9  UNL     1      -9.790 -22.480  35.610  1.00  0.00     0.210 HD
ENDBRANCH   6  13
BRANCH   7  15
HETATM   15  O6  UNL     1     -11.039 -20.391  33.470  1.00  0.00    -0.355 OA
ATOM     16  H6  UNL     1     -10.497 -19.783  32.981  1.00  0.00     0.213 HD
ENDBRANCH   7  15
BRANCH   7  17
HETATM   17  C11 UNL     1     -10.690 -18.547  34.869  1.00  0.00     0.241 C 
HETATM   18  O7  UNL     1      -9.523 -18.407  35.348  1.00  0.00    -0.644 OA
HETATM   19  O8  UNL     1     -11.327 -17.390  34.455  1.00  0.00    -0.644 OA
ENDBRANCH   7  17
ENDBRANCH   3   4
ENDBRANCH   1   3
BRANCH   1  20
HETATM   20  C5  UNL     1     -15.947 -20.508  35.918  1.00  0.00     0.181 C 
BRANCH  20  21
HETATM   21  C6  UNL     1     -16.095 -20.531  34.422  1.00  0.00     0.242 C 
HETATM   22  O2  UNL     1     -15.745 -21.608  33.852  1.00  0.00    -0.272 OA
HETATM   23  N2  UNL     1     -16.587 -19.432  33.694  1.00  0.00    -0.159 N 
ATOM     24  H2  UNL     1     -15.959 -18.639  33.560  1.00  0.00     0.187 HD
BRANCH  23  25
HETATM   25  C7  UNL     1     -17.756 -19.347  33.189  1.00  0.00     0.692 A 
HETATM   26  N3  UNL     1     -18.737 -20.192  33.623  1.00  0.00    -0.154 N 
HETATM   27  C8  UNL     1     -19.973 -20.121  33.107  1.00  0.00     0.239 A 
ATOM     28  H3  UNL     1     -18.528 -20.882  34.345  1.00  0.00     0.188 HD
HETATM   29  N4  UNL     1     -20.269 -19.232  32.166  1.00  0.00    -0.273 N 
HETATM   30  C9  UNL     1     -19.314 -18.391  31.727  1.00  0.00     0.341 A 
ATOM     31  H4  UNL     1     -21.212 -19.186  31.780  1.00  0.00     0.174 HD
HETATM   32  O4  UNL     1     -19.633 -17.564  30.835  1.00  0.00    -0.246 OA
HETATM   33  N5  UNL     1     -18.074 -18.457  32.239  1.00  0.00    -0.141 N 
ATOM     34  H5  UNL     1     -17.358 -17.815  31.898  1.00  0.00     0.189 HD
BRANCH  27  35
HETATM   35  O3  UNL     1     -20.983 -20.984  33.547  1.00  0.00    -0.332 OA
ATOM     36  H3  UNL     1     -21.711 -21.210  32.979  1.00  0.00     0.221 HD
ENDBRANCH  27  35
ENDBRANCH  23  25
ENDBRANCH  20  21
ENDBRANCH   1  20
TORSDOF 10
ENDMDL
MODEL 2
REMARK VINA RESULT: -7.431704340      0.224      1.565
REMARK  10 active torsions:
REMARK  status: ('A' for Active; 'I' for Inactive)
REMARK    1  A    between atoms: N1_1  and  C1_5 
REMARK    2  A    between atoms: C2_6  and  C3_7 
REMARK    3  A    between atoms: C3_7  and  C4_8 
REMARK    4  A    between atoms: C4_8  and  C5_10 
REMARK    5  A    between atoms: C5_10  and  C6_11 
REMARK       I    between atoms: C6_11  and  N2_13 
REMARK    6  A    between atoms: N2_13  and  C7_15 
REMARK    7  A    between atoms: C8_18  and  O3_19 
REMARK    8  A    between atoms: C10_28  and  O6_29 
REMARK    9  A    between atoms: C10_28  and  C11_31 
REMARK   10  A    between atoms: C12_34  and  O9_35 
ROOT
HETATM    1  C4  UNL     1     -15.085 -19.315  36.403  1.00  0.00     0.138 C 
HETATM    2  O1  UNL     1     -15.719 -18.298  36.308  1.00  0.00    -0.297 OA
ENDROOT
BRANCH   1   3
HETATM    3  C3  UNL     1     -13.774 -19.509  37.025  1.00  0.00     0.113 C 
BRANCH   3   4
HETATM    4  C2  UNL     1     -12.823 -20.427  36.340  1.00  0.00     0.165 C 
HETATM    5  C1  UNL     1     -11.499 -20.598  37.009  1.00  0.00     0.247 C 
HETATM    6  C12 UNL     1     -10.565 -20.751  35.824  1.00  0.00     0.225 C 
HETATM    7  C10 UNL     1     -11.271 -19.914  34.792  1.00  0.00     0.283 C 
HETATM    8  O5  UNL     1     -12.609 -19.936  35.055  1.00  0.00    -0.337 OA
BRANCH   5   9
HETATM    9  N1  UNL     1     -11.408 -21.766  37.874  1.00  0.00    -0.070 N 
ATOM     10  H13 UNL     1     -11.828 -21.569  38.782  1.00  0.00     0.274 HD
ATOM     11  H12 UNL     1     -12.035 -22.500  37.547  1.00  0.00     0.274 HD
ATOM     12  H11 UNL     1     -10.463 -22.132  37.991  1.00  0.00     0.274 HD
ENDBRANCH   5   9
BRANCH   6  13
HETATM   13  O9  UNL     1     -10.507 -22.091  35.439  1.00  0.00    -0.387 OA
ATOM     14  H9  UNL     1     -10.173 -22.617  36.157  1.00  0.00     0.210 HD
ENDBRANCH   6  13
BRANCH   7  15
HETATM   15  O6  UNL     1     -10.988 -20.423  33.506  1.00  0.00    -0.355 OA
ATOM     16  H6  UNL     1     -10.379 -19.865  33.038  1.00  0.00     0.213 HD
ENDBRANCH   7  15
BRANCH   7  17
HETATM   17  C11 UNL     1     -10.651 -18.550  34.868  1.00  0.00     0.241 C 
HETATM   18  O7  UNL     1      -9.479 -18.377  35.324  1.00  0.00    -0.644 OA
HETATM   19  O8  UNL     1     -11.320 -17.414  34.445  1.00  0.00    -0.644 OA
ENDBRANCH   7  17
ENDBRANCH   3   4
ENDBRANCH   1   3
BRANCH   1  20
HETATM   20  C5  UNL     1     -15.736 -20.542  35.797  1.00  0.00     0.181 C 
BRANCH  20  21
HETATM   21  C6  UNL     1     -15.925 -20.319  34.323  1.00  0.00     0.242 C 
HETATM   22  O2  UNL     1     -15.422 -21.202  33.565  1.00  0.00    -0.272 OA
HETATM   23  N2  UNL     1     -16.611 -19.202  33.809  1.00  0.00    -0.159 N 
ATOM     24  H2  UNL     1     -16.125 -18.306  33.822  1.00  0.00     0.187 HD
BRANCH  23  25
HETATM   25  C7  UNL     1     -17.794 -19.222  33.329  1.00  0.00     0.692 A 
HETATM   26  N3  UNL     1     -18.083 -18.469  32.228  1.00  0.00    -0.154 N 
HETATM   27  C8  UNL     1     -19.319 -18.475  31.705  1.00  0.00     0.239 A 
ATOM     28  H3  UNL     1     -17.355 -17.899  31.799  1.00  0.00     0.188 HD
HETATM   29  N4  UNL     1     -20.284 -19.209  32.247  1.00  0.00    -0.273 N 
HETATM   30  C9  UNL     1     -20.017 -19.957  33.333  1.00  0.00     0.341 A 
ATOM     31  H4  UNL     1     -21.220 -19.206  31.842  1.00  0.00     0.174 HD
HETATM   32  O4  UNL     1     -20.956 -20.638  33.816  1.00  0.00    -0.246 OA
HETATM   33  N5  UNL     1     -18.781 -19.956  33.861  1.00  0.00    -0.141 N 
ATOM     34  H5  UNL     1     -18.590 -20.527  34.685  1.00  0.00     0.189 HD
BRANCH  27  35
HETATM   35  O3  UNL     1     -19.623 -17.706  30.577  1.00  0.00    -0.332 OA
ATOM     36  H3  UNL     1     -20.473 -17.294  30.484  1.00  0.00     0.221 HD
ENDBRANCH  27  35
ENDBRANCH  23  25
ENDBRANCH  20  21
ENDBRANCH   1  20
TORSDOF 10
ENDMDL
MODEL 3
REMARK VINA RESULT: -7.289800322      2.031      3.108
REMARK  10 active torsions:
REMARK  status: ('A' for Active; 'I' for Inactive)
REMARK    1  A    between atoms: N1_1  and  C1_5 
REMARK    2  A    between atoms: C2_6  and  C3_7 
REMARK    3  A    between atoms: C3_7  and  C4_8 
REMARK    4  A    between atoms: C4_8  and  C5_10 
REMARK    5  A    between atoms: C5_10  and  C6_11 
REMARK       I    between atoms: C6_11  and  N2_13 
REMARK    6  A    between atoms: N2_13  and  C7_15 
REMARK    7  A    between atoms: C8_18  and  O3_19 
REMARK    8  A    between atoms: C10_28  and  O6_29 
REMARK    9  A    between atoms: C10_28  and  C11_31 
REMARK   10  A    between atoms: C12_34  and  O9_35 
ROOT
HETATM    1  C4  UNL     1     -14.571 -22.475  33.800  1.00  0.00     0.138 C 
HETATM    2  O1  UNL     1     -14.371 -23.655  33.920  1.00  0.00    -0.297 OA
ENDROOT
BRANCH   1   3
HETATM    3  C3  UNL     1     -14.253 -21.403  34.745  1.00  0.00     0.113 C 
BRANCH   3   4
HETATM    4  C2  UNL     1     -12.927 -21.460  35.420  1.00  0.00     0.165 C 
HETATM    5  C1  UNL     1     -12.882 -20.886  36.798  1.00  0.00     0.247 C 
HETATM    6  C12 UNL     1     -11.491 -20.285  36.843  1.00  0.00     0.225 C 
HETATM    7  C10 UNL     1     -11.292 -19.914  35.398  1.00  0.00     0.283 C 
HETATM    8  O5  UNL     1     -12.016 -20.772  34.624  1.00  0.00    -0.337 OA
BRANCH   5   9
HETATM    9  N1  UNL     1     -13.039 -21.867  37.863  1.00  0.00    -0.070 N 
ATOM     10  H13 UNL     1     -13.982 -21.823  38.250  1.00  0.00     0.274 HD
ATOM     11  H12 UNL     1     -13.051 -22.811  37.479  1.00  0.00     0.274 HD
ATOM     12  H11 UNL     1     -12.346 -21.795  38.608  1.00  0.00     0.274 HD
ENDBRANCH   5   9
BRANCH   6  13
HETATM   13  O9  UNL     1     -10.571 -21.252  37.250  1.00  0.00    -0.387 OA
ATOM     14  H9  UNL     1     -10.088 -20.937  38.006  1.00  0.00     0.210 HD
ENDBRANCH   6  13
BRANCH   7  15
HETATM   15  O6  UNL     1      -9.916 -19.970  35.087  1.00  0.00    -0.355 OA
ATOM     16  H6  UNL     1      -9.685 -20.798  34.682  1.00  0.00     0.213 HD
ENDBRANCH   7  15
BRANCH   7  17
HETATM   17  C11 UNL     1     -11.708 -18.477  35.277  1.00  0.00     0.241 C 
HETATM   18  O7  UNL     1     -12.496 -17.940  36.115  1.00  0.00    -0.644 OA
HETATM   19  O8  UNL     1     -11.256 -17.664  34.251  1.00  0.00    -0.644 OA
ENDBRANCH   7  17
ENDBRANCH   3   4
ENDBRANCH   1   3
BRANCH   1  20
HETATM   20  C5  UNL     1     -15.236 -22.061  32.503  1.00  0.00     0.181 C 
BRANCH  20  21
HETATM   21  C6  UNL     1     -16.685 -21.761  32.770  1.00  0.00     0.242 C 
HETATM   22  O2  UNL     1     -17.373 -22.730  33.211  1.00  0.00    -0.272 OA
HETATM   23  N2  UNL     1     -17.248 -20.491  32.545  1.00  0.00    -0.159 N 
ATOM     24  H2  UNL     1     -17.434 -20.225  31.578  1.00  0.00     0.187 HD
BRANCH  23  25
HETATM   25  C7  UNL     1     -17.546 -19.646  33.454  1.00  0.00     0.692 A 
HETATM   26  N3  UNL     1     -17.645 -18.323  33.133  1.00  0.00    -0.154 N 
HETATM   27  C8  UNL     1     -17.956 -17.417  34.072  1.00  0.00     0.239 A 
ATOM     28  H3  UNL     1     -17.481 -18.021  32.173  1.00  0.00     0.188 HD
HETATM   29  N4  UNL     1     -18.174 -17.786  35.329  1.00  0.00    -0.273 N 
HETATM   30  C9  UNL     1     -18.080 -19.086  35.663  1.00  0.00     0.341 A 
ATOM     31  H4  UNL     1     -18.410 -17.089  36.036  1.00  0.00     0.174 HD
HETATM   32  O4  UNL     1     -18.293 -19.395  36.863  1.00  0.00    -0.246 OA
HETATM   33  N5  UNL     1     -17.768 -19.999  34.728  1.00  0.00    -0.141 N 
ATOM     34  H5  UNL     1     -17.700 -20.981  34.993  1.00  0.00     0.189 HD
BRANCH  27  35
HETATM   35  O3  UNL     1     -18.059 -16.059  33.751  1.00  0.00    -0.332 OA
ATOM     36  H3  UNL     1     -17.760 -15.734  32.910  1.00  0.00     0.221 HD
ENDBRANCH  27  35
ENDBRANCH  23  25
ENDBRANCH  20  21
ENDBRANCH   1  20
TORSDOF 10
ENDMDL
MODEL 4
REMARK VINA RESULT: -7.231938223      2.105      8.244
REMARK  10 active torsions:
REMARK  status: ('A' for Active; 'I' for Inactive)
REMARK    1  A    between atoms: N1_1  and  C1_5 
REMARK    2  A    between atoms: C2_6  and  C3_7 
REMARK    3  A    between atoms: C3_7  and  C4_8 
REMARK    4  A    between atoms: C4_8  and  C5_10 
REMARK    5  A    between atoms: C5_10  and  C6_11 
REMARK       I    between atoms: C6_11  and  N2_13 
REMARK    6  A    between atoms: N2_13  and  C7_15 
REMARK    7  A    between atoms: C8_18  and  O3_19 
REMARK    8  A    between atoms: C10_28  and  O6_29 
REMARK    9  A    between atoms: C10_28  and  C11_31 
REMARK   10  A    between atoms: C12_34  and  O9_35 
ROOT
HETATM    1  C4  UNL     1     -15.967 -19.645  34.803  1.00  0.00     0.138 C 
HETATM    2  O1  UNL     1     -15.002 -20.283  34.472  1.00  0.00    -0.297 OA
ENDROOT
BRANCH   1   3
HETATM    3  C3  UNL     1     -17.316 -19.687  34.236  1.00  0.00     0.113 C 
BRANCH   3   4
HETATM    4  C2  UNL     1     -17.811 -18.456  33.561  1.00  0.00     0.165 C 
HETATM    5  C1  UNL     1     -18.963 -17.776  34.226  1.00  0.00     0.247 C 
HETATM    6  C12 UNL     1     -19.743 -17.246  33.040  1.00  0.00     0.225 C 
HETATM    7  C10 UNL     1     -19.420 -18.282  31.998  1.00  0.00     0.283 C 
HETATM    8  O5  UNL     1     -18.189 -18.803  32.268  1.00  0.00    -0.337 OA
BRANCH   5   9
HETATM    9  N1  UNL     1     -18.587 -16.681  35.110  1.00  0.00    -0.070 N 
ATOM     10  H13 UNL     1     -17.744 -16.220  34.766  1.00  0.00     0.274 HD
ATOM     11  H12 UNL     1     -19.252 -15.913  35.027  1.00  0.00     0.274 HD
ATOM     12  H11 UNL     1     -18.472 -16.949  36.087  1.00  0.00     0.274 HD
ENDBRANCH   5   9
BRANCH   6  13
HETATM   13  O9  UNL     1     -19.254 -15.990  32.676  1.00  0.00    -0.387 OA
ATOM     14  H9  UNL     1     -19.074 -15.974  31.743  1.00  0.00     0.210 HD
ENDBRANCH   6  13
BRANCH   7  15
HETATM   15  O6  UNL     1     -19.461 -17.686  30.718  1.00  0.00    -0.355 OA
ATOM     16  H6  UNL     1     -20.326 -17.752  30.331  1.00  0.00     0.213 HD
ENDBRANCH   7  15
BRANCH   7  17
HETATM   17  C11 UNL     1     -20.537 -19.284  32.047  1.00  0.00     0.241 C 
HETATM   18  O7  UNL     1     -21.548 -19.190  31.286  1.00  0.00    -0.644 OA
HETATM   19  O8  UNL     1     -20.523 -20.358  32.920  1.00  0.00    -0.644 OA
ENDBRANCH   7  17
ENDBRANCH   3   4
ENDBRANCH   1   3
BRANCH   1  20
HETATM   20  C5  UNL     1     -15.743 -18.681  35.951  1.00  0.00     0.181 C 
BRANCH  20  21
HETATM   21  C6  UNL     1     -14.562 -19.146  36.757  1.00  0.00     0.242 C 
HETATM   22  O2  UNL     1     -14.769 -20.147  37.506  1.00  0.00    -0.272 OA
HETATM   23  N2  UNL     1     -13.306 -18.514  36.691  1.00  0.00    -0.159 N 
ATOM     24  H2  UNL     1     -13.205 -17.620  37.170  1.00  0.00     0.187 HD
BRANCH  23  25
HETATM   25  C7  UNL     1     -12.284 -18.971  36.079  1.00  0.00     0.692 A 
HETATM   26  N3  UNL     1     -11.411 -18.102  35.490  1.00  0.00    -0.154 N 
HETATM   27  C8  UNL     1     -10.329 -18.559  34.841  1.00  0.00     0.239 A 
ATOM     28  H3  UNL     1     -11.583 -17.098  35.542  1.00  0.00     0.188 HD
HETATM   29  N4  UNL     1     -10.085 -19.862  34.759  1.00  0.00    -0.273 N 
HETATM   30  C9  UNL     1     -10.934 -20.733  35.334  1.00  0.00     0.341 A 
ATOM     31  H4  UNL     1      -9.259 -20.200  34.263  1.00  0.00     0.174 HD
HETATM   32  O4  UNL     1     -10.668 -21.958  35.233  1.00  0.00    -0.246 OA
HETATM   33  N5  UNL     1     -12.020 -20.282  35.984  1.00  0.00    -0.141 N 
ATOM     34  H5  UNL     1     -12.657 -20.952  36.416  1.00  0.00     0.189 HD
BRANCH  27  35
HETATM   35  O3  UNL     1      -9.431 -17.675  34.235  1.00  0.00    -0.332 OA
ATOM     36  H3  UNL     1      -9.463 -17.514  33.299  1.00  0.00     0.221 HD
ENDBRANCH  27  35
ENDBRANCH  23  25
ENDBRANCH  20  21
ENDBRANCH   1  20
TORSDOF 10
ENDMDL
MODEL 5
REMARK VINA RESULT: -7.218523465      2.225      3.040
REMARK  10 active torsions:
REMARK  status: ('A' for Active; 'I' for Inactive)
REMARK    1  A    between atoms: N1_1  and  C1_5 
REMARK    2  A    between atoms: C2_6  and  C3_7 
REMARK    3  A    between atoms: C3_7  and  C4_8 
REMARK    4  A    between atoms: C4_8  and  C5_10 
REMARK    5  A    between atoms: C5_10  and  C6_11 
REMARK       I    between atoms: C6_11  and  N2_13 
REMARK    6  A    between atoms: N2_13  and  C7_15 
REMARK    7  A    between atoms: C8_18  and  O3_19 
REMARK    8  A    between atoms: C10_28  and  O6_29 
REMARK    9  A    between atoms: C10_28  and  C11_31 
REMARK   10  A    between atoms: C12_34  and  O9_35 
ROOT
HETATM    1  C4  UNL     1     -14.836 -20.048  37.892  1.00  0.00     0.138 C 
HETATM    2  O1  UNL     1     -14.975 -21.141  38.371  1.00  0.00    -0.297 OA
ENDROOT
BRANCH   1   3
HETATM    3  C3  UNL     1     -13.643 -19.483  37.256  1.00  0.00     0.113 C 
BRANCH   3   4
HETATM    4  C2  UNL     1     -12.781 -20.414  36.478  1.00  0.00     0.165 C 
HETATM    5  C1  UNL     1     -11.409 -20.631  37.027  1.00  0.00     0.247 C 
HETATM    6  C12 UNL     1     -10.585 -20.788  35.764  1.00  0.00     0.225 C 
HETATM    7  C10 UNL     1     -11.355 -19.916  34.809  1.00  0.00     0.283 C 
HETATM    8  O5  UNL     1     -12.666 -19.908  35.187  1.00  0.00    -0.337 OA
BRANCH   5   9
HETATM    9  N1  UNL     1     -11.275 -21.815  37.864  1.00  0.00    -0.070 N 
ATOM     10  H13 UNL     1     -12.013 -21.838  38.568  1.00  0.00     0.274 HD
ATOM     11  H12 UNL     1     -11.514 -22.653  37.335  1.00  0.00     0.274 HD
ATOM     12  H11 UNL     1     -10.361 -21.920  38.303  1.00  0.00     0.274 HD
ENDBRANCH   5   9
BRANCH   6  13
HETATM   13  O9  UNL     1     -10.597 -22.122  35.356  1.00  0.00    -0.387 OA
ATOM     14  H9  UNL     1     -11.493 -22.433  35.300  1.00  0.00     0.210 HD
ENDBRANCH   6  13
BRANCH   7  15
HETATM   15  O6  UNL     1     -11.198 -20.411  33.496  1.00  0.00    -0.355 OA
ATOM     16  H6  UNL     1     -10.530 -19.930  33.021  1.00  0.00     0.213 HD
ENDBRANCH   7  15
BRANCH   7  17
HETATM   17  C11 UNL     1     -10.694 -18.569  34.850  1.00  0.00     0.241 C 
HETATM   18  O7  UNL     1      -9.518 -18.420  35.304  1.00  0.00    -0.644 OA
HETATM   19  O8  UNL     1     -11.327 -17.425  34.396  1.00  0.00    -0.644 OA
ENDBRANCH   7  17
ENDBRANCH   3   4
ENDBRANCH   1   3
BRANCH   1  20
HETATM   20  C5  UNL     1     -16.056 -19.151  37.961  1.00  0.00     0.181 C 
BRANCH  20  21
HETATM   21  C6  UNL     1     -16.567 -18.911  36.568  1.00  0.00     0.242 C 
HETATM   22  O2  UNL     1     -16.182 -17.836  36.019  1.00  0.00    -0.272 OA
HETATM   23  N2  UNL     1     -17.420 -19.817  35.910  1.00  0.00    -0.159 N 
ATOM     24  H2  UNL     1     -18.397 -19.837  36.201  1.00  0.00     0.187 HD
BRANCH  23  25
HETATM   25  C7  UNL     1     -17.068 -20.616  34.979  1.00  0.00     0.692 A 
HETATM   26  N3  UNL     1     -15.766 -20.637  34.570  1.00  0.00    -0.154 N 
HETATM   27  C8  UNL     1     -15.373 -21.469  33.594  1.00  0.00     0.239 A 
ATOM     28  H3  UNL     1     -15.087 -20.017  35.010  1.00  0.00     0.188 HD
HETATM   29  N4  UNL     1     -16.239 -22.286  33.005  1.00  0.00    -0.273 N 
HETATM   30  C9  UNL     1     -17.527 -22.278  33.396  1.00  0.00     0.341 A 
ATOM     31  H4  UNL     1     -15.931 -22.915  32.263  1.00  0.00     0.174 HD
HETATM   32  O4  UNL     1     -18.316 -23.066  32.815  1.00  0.00    -0.246 OA
HETATM   33  N5  UNL     1     -17.927 -21.448  34.373  1.00  0.00    -0.141 N 
ATOM     34  H5  UNL     1     -18.906 -21.450  34.661  1.00  0.00     0.189 HD
BRANCH  27  35
HETATM   35  O3  UNL     1     -14.040 -21.496  33.169  1.00  0.00    -0.332 OA
ATOM     36  H3  UNL     1     -13.671 -20.772  32.677  1.00  0.00     0.221 HD
ENDBRANCH  27  35
ENDBRANCH  23  25
ENDBRANCH  20  21
ENDBRANCH   1  20
TORSDOF 10
ENDMDL
