MODEL 1
REMARK VINA RESULT: -6.350187806      0.000      0.000
REMARK  13 active torsions:
REMARK  status: ('A' for Active; 'I' for Inactive)
REMARK    1  A    between atoms: N1_1  and  O1_4 
REMARK    2  A    between atoms: O1_4  and  C1_5 
REMARK    3  A    between atoms: C1_5  and  O2_6 
REMARK    4  A    between atoms: C1_5  and  C2_8 
REMARK    5  A    between atoms: C2_8  and  O3_9 
REMARK    6  A    between atoms: C2_8  and  C3_11 
REMARK    7  A    between atoms: C3_11  and  O4_12 
REMARK    8  A    between atoms: C3_11  and  C4_14 
REMARK    9  A    between atoms: C4_14  and  N2_15 
REMARK   10  A    between atoms: C10_25  and  N4_26 
REMARK   11  A    between atoms: N4_26  and  C11_28 
REMARK   12  A    between atoms: C12_29  and  N5_30 
REMARK   13  A    between atoms: C13_34  and  O7_35 
ROOT
HETATM    1  N2  UNL     1     -13.587 -19.680  36.362  1.00  0.00    -0.339 N 
HETATM    2  C5  UNL     1     -14.525 -19.819  35.381  1.00  0.00     0.096 A 
HETATM    3  C6  UNL     1     -15.433 -20.813  35.300  1.00  0.00     0.073 A 
HETATM    4  C7  UNL     1     -15.453 -21.789  36.261  1.00  0.00     0.192 A 
HETATM    5  O5  UNL     1     -16.271 -22.740  36.246  1.00  0.00    -0.287 OA
HETATM    6  C8  UNL     1     -14.512 -21.678  37.270  1.00  0.00     0.127 A 
HETATM    7  C9  UNL     1     -14.505 -22.670  38.223  1.00  0.00     0.277 A 
HETATM    8  O6  UNL     1     -15.361 -23.619  38.165  1.00  0.00    -0.266 OA
HETATM    9  N3  UNL     1     -13.595 -22.625  39.203  1.00  0.00    -0.155 N 
ATOM     10  H3  UNL     1     -13.583 -23.356  39.914  1.00  0.00     0.187 HD
HETATM   11  C10 UNL     1     -12.703 -21.633  39.259  1.00  0.00     0.683 A 
HETATM   12  N6  UNL     1     -12.722 -20.672  38.324  1.00  0.00    -0.175 N 
ATOM     13  H6  UNL     1     -12.027 -19.928  38.393  1.00  0.00     0.186 HD
HETATM   14  C14 UNL     1     -13.589 -20.623  37.306  1.00  0.00     0.143 A 
ENDROOT
BRANCH   1  15
HETATM   15  C4  UNL     1     -12.732 -18.545  36.390  1.00  0.00     0.164 C 
BRANCH  15  16
HETATM   16  C3  UNL     1     -11.643 -18.499  35.336  1.00  0.00     0.170 C 
BRANCH  16  17
HETATM   17  C2  UNL     1     -10.478 -19.339  35.639  1.00  0.00     0.205 C 
BRANCH  17  18
HETATM   18  C1  UNL     1     -10.437 -20.643  34.875  1.00  0.00     0.316 C 
BRANCH  18  19
HETATM   19  O1  UNL     1     -11.033 -21.686  35.533  1.00  0.00    -0.252 OA
BRANCH  19  20
HETATM   20  N1  UNL     1     -10.171 -22.564  36.074  1.00  0.00    -0.308 N 
ATOM     21  H12 UNL     1      -9.223 -22.296  36.340  1.00  0.00     0.184 HD
ATOM     22  H11 UNL     1     -10.547 -23.505  36.191  1.00  0.00     0.184 HD
ENDBRANCH  19  20
ENDBRANCH  18  19
BRANCH  18  23
HETATM   23  O2  UNL     1     -11.185 -20.425  33.695  1.00  0.00    -0.367 OA
ATOM     24  H2  UNL     1     -11.511 -21.273  33.417  1.00  0.00     0.212 HD
ENDBRANCH  18  23
ENDBRANCH  17  18
BRANCH  17  25
HETATM   25  O3  UNL     1     -10.466 -19.684  36.985  1.00  0.00    -0.388 OA
ATOM     26  H3  UNL     1     -11.346 -19.524  37.304  1.00  0.00     0.210 HD
ENDBRANCH  17  25
ENDBRANCH  16  17
BRANCH  16  27
HETATM   27  O4  UNL     1     -11.265 -17.119  35.228  1.00  0.00    -0.391 OA
ATOM     28  H4  UNL     1     -12.014 -16.579  35.009  1.00  0.00     0.210 HD
ENDBRANCH  16  27
ENDBRANCH  15  16
ENDBRANCH   1  15
BRANCH  11  29
HETATM   29  N4  UNL     1     -11.854 -21.626  40.204  1.00  0.00    -0.217 N 
ATOM     30  H4  UNL     1     -11.983 -20.934  40.943  1.00  0.00     0.178 HD
BRANCH  29  31
HETATM   31  C11 UNL     1     -10.729 -22.510  40.316  1.00  0.00     0.163 A 
HETATM   32  C12 UNL     1      -9.379 -21.806  40.248  1.00  0.00     0.239 A 
HETATM   33  C13 UNL     1      -9.874 -22.728  39.126  1.00  0.00     0.176 A 
BRANCH  32  34
HETATM   34  N5  UNL     1      -9.361 -20.386  39.949  1.00  0.00    -0.070 N 
ATOM     35  H53 UNL     1     -10.286 -20.101  39.628  1.00  0.00     0.274 HD
ATOM     36  H52 UNL     1      -9.289 -19.862  40.822  1.00  0.00     0.274 HD
ATOM     37  H51 UNL     1      -8.660 -20.041  39.294  1.00  0.00     0.274 HD
ENDBRANCH  32  34
BRANCH  33  38
HETATM   38  O7  UNL     1      -9.119 -23.862  38.958  1.00  0.00    -0.391 OA
ATOM     39  H7  UNL     1      -8.425 -23.922  38.312  1.00  0.00     0.210 HD
ENDBRANCH  33  38
ENDBRANCH  29  31
ENDBRANCH  11  29
TORSDOF 13
ENDMDL
MODEL 2
REMARK VINA RESULT: -6.057004726      3.632      6.474
REMARK  13 active torsions:
REMARK  status: ('A' for Active; 'I' for Inactive)
REMARK    1  A    between atoms: N1_1  and  O1_4 
REMARK    2  A    between atoms: O1_4  and  C1_5 
REMARK    3  A    between atoms: C1_5  and  O2_6 
REMARK    4  A    between atoms: C1_5  and  C2_8 
REMARK    5  A    between atoms: C2_8  and  O3_9 
REMARK    6  A    between atoms: C2_8  and  C3_11 
REMARK    7  A    between atoms: C3_11  and  O4_12 
REMARK    8  A    between atoms: C3_11  and  C4_14 
REMARK    9  A    between atoms: C4_14  and  N2_15 
REMARK   10  A    between atoms: C10_25  and  N4_26 
REMARK   11  A    between atoms: N4_26  and  C11_28 
REMARK   12  A    between atoms: C12_29  and  N5_30 
REMARK   13  A    between atoms: C13_34  and  O7_35 
ROOT
HETATM    1  N2  UNL     1     -14.333 -20.558  35.572  1.00  0.00    -0.339 N 
HETATM    2  C5  UNL     1     -14.048 -21.813  35.119  1.00  0.00     0.096 A 
HETATM    3  C6  UNL     1     -14.809 -22.531  34.268  1.00  0.00     0.073 A 
HETATM    4  C7  UNL     1     -15.977 -21.997  33.792  1.00  0.00     0.192 A 
HETATM    5  O5  UNL     1     -16.730 -22.609  32.997  1.00  0.00    -0.287 OA
HETATM    6  C8  UNL     1     -16.296 -20.724  34.233  1.00  0.00     0.127 A 
HETATM    7  C9  UNL     1     -17.481 -20.191  33.783  1.00  0.00     0.277 A 
HETATM    8  O6  UNL     1     -18.214 -20.855  32.972  1.00  0.00    -0.266 OA
HETATM    9  N3  UNL     1     -17.850 -18.976  34.204  1.00  0.00    -0.155 N 
ATOM     10  H3  UNL     1     -18.727 -18.572  33.875  1.00  0.00     0.187 HD
HETATM   11  C10 UNL     1     -17.081 -18.286  35.050  1.00  0.00     0.683 A 
HETATM   12  N6  UNL     1     -15.928 -18.817  35.481  1.00  0.00    -0.175 N 
ATOM     13  H6  UNL     1     -15.363 -18.267  36.128  1.00  0.00     0.186 HD
HETATM   14  C14 UNL     1     -15.468 -20.021  35.120  1.00  0.00     0.143 A 
ENDROOT
BRANCH   1  15
HETATM   15  C4  UNL     1     -13.414 -19.864  36.405  1.00  0.00     0.164 C 
BRANCH  15  16
HETATM   16  C3  UNL     1     -12.255 -19.183  35.705  1.00  0.00     0.170 C 
BRANCH  16  17
HETATM   17  C2  UNL     1     -10.935 -19.692  36.094  1.00  0.00     0.205 C 
BRANCH  17  18
HETATM   18  C1  UNL     1     -10.366 -20.728  35.152  1.00  0.00     0.316 C 
BRANCH  18  19
HETATM   19  O1  UNL     1     -10.771 -22.007  35.430  1.00  0.00    -0.252 OA
BRANCH  19  20
HETATM   20  N1  UNL     1      -9.952 -22.678  36.257  1.00  0.00    -0.308 N 
ATOM     21  H12 UNL     1     -10.092 -22.686  37.267  1.00  0.00     0.184 HD
ATOM     22  H11 UNL     1      -9.191 -23.170  35.788  1.00  0.00     0.184 HD
ENDBRANCH  19  20
ENDBRANCH  18  19
BRANCH  18  23
HETATM   23  O2  UNL     1     -10.876 -20.409  33.872  1.00  0.00    -0.367 OA
ATOM     24  H2  UNL     1     -11.681 -19.925  34.011  1.00  0.00     0.212 HD
ENDBRANCH  18  23
ENDBRANCH  17  18
BRANCH  17  25
HETATM   25  O3  UNL     1     -10.999 -20.303  37.340  1.00  0.00    -0.388 OA
ATOM     26  H3  UNL     1     -11.825 -20.031  37.723  1.00  0.00     0.210 HD
ENDBRANCH  17  25
ENDBRANCH  16  17
BRANCH  16  27
HETATM   27  O4  UNL     1     -12.378 -17.787  36.017  1.00  0.00    -0.391 OA
ATOM     28  H4  UNL     1     -13.282 -17.560  36.199  1.00  0.00     0.210 HD
ENDBRANCH  16  27
ENDBRANCH  15  16
ENDBRANCH   1  15
BRANCH  11  29
HETATM   29  N4  UNL     1     -17.466 -17.136  35.429  1.00  0.00    -0.217 N 
ATOM     30  H4  UNL     1     -16.744 -16.458  35.674  1.00  0.00     0.178 HD
BRANCH  29  31
HETATM   31  C11 UNL     1     -18.833 -16.713  35.540  1.00  0.00     0.163 A 
HETATM   32  C12 UNL     1     -19.253 -15.690  34.491  1.00  0.00     0.239 A 
HETATM   33  C13 UNL     1     -19.115 -15.324  35.974  1.00  0.00     0.176 A 
BRANCH  32  34
HETATM   34  N5  UNL     1     -18.233 -15.162  33.603  1.00  0.00    -0.070 N 
ATOM     35  H53 UNL     1     -18.205 -15.726  32.754  1.00  0.00     0.274 HD
ATOM     36  H52 UNL     1     -18.547 -14.266  33.230  1.00  0.00     0.274 HD
ATOM     37  H51 UNL     1     -17.285 -15.059  33.967  1.00  0.00     0.274 HD
ENDBRANCH  32  34
BRANCH  33  38
HETATM   38  O7  UNL     1     -20.295 -14.964  36.575  1.00  0.00    -0.391 OA
ATOM     39  H7  UNL     1     -20.352 -14.741  37.496  1.00  0.00     0.210 HD
ENDBRANCH  33  38
ENDBRANCH  29  31
ENDBRANCH  11  29
TORSDOF 13
ENDMDL
MODEL 3
REMARK VINA RESULT: -6.030987904      1.061      1.255
REMARK  13 active torsions:
REMARK  status: ('A' for Active; 'I' for Inactive)
REMARK    1  A    between atoms: N1_1  and  O1_4 
REMARK    2  A    between atoms: O1_4  and  C1_5 
REMARK    3  A    between atoms: C1_5  and  O2_6 
REMARK    4  A    between atoms: C1_5  and  C2_8 
REMARK    5  A    between atoms: C2_8  and  O3_9 
REMARK    6  A    between atoms: C2_8  and  C3_11 
REMARK    7  A    between atoms: C3_11  and  O4_12 
REMARK    8  A    between atoms: C3_11  and  C4_14 
REMARK    9  A    between atoms: C4_14  and  N2_15 
REMARK   10  A    between atoms: C10_25  and  N4_26 
REMARK   11  A    between atoms: N4_26  and  C11_28 
REMARK   12  A    between atoms: C12_29  and  N5_30 
REMARK   13  A    between atoms: C13_34  and  O7_35 
ROOT
HETATM    1  N2  UNL     1     -14.084 -20.719  37.240  1.00  0.00    -0.339 N 
HETATM    2  C5  UNL     1     -15.124 -21.095  36.440  1.00  0.00     0.096 A 
HETATM    3  C6  UNL     1     -15.898 -22.184  36.621  1.00  0.00     0.073 A 
HETATM    4  C7  UNL     1     -15.658 -23.014  37.684  1.00  0.00     0.192 A 
HETATM    5  O5  UNL     1     -16.341 -24.042  37.912  1.00  0.00    -0.287 OA
HETATM    6  C8  UNL     1     -14.608 -22.662  38.515  1.00  0.00     0.127 A 
HETATM    7  C9  UNL     1     -14.342 -23.505  39.568  1.00  0.00     0.277 A 
HETATM    8  O6  UNL     1     -15.068 -24.540  39.759  1.00  0.00    -0.266 OA
HETATM    9  N3  UNL     1     -13.318 -23.225  40.383  1.00  0.00    -0.155 N 
ATOM     10  H3  UNL     1     -13.113 -23.844  41.167  1.00  0.00     0.187 HD
HETATM   11  C10 UNL     1     -12.562 -22.143  40.180  1.00  0.00     0.683 A 
HETATM   12  N6  UNL     1     -12.834 -21.329  39.150  1.00  0.00    -0.175 N 
ATOM     13  H6  UNL     1     -12.238 -20.511  39.020  1.00  0.00     0.186 HD
HETATM   14  C14 UNL     1     -13.833 -21.517  38.280  1.00  0.00     0.143 A 
ENDROOT
BRANCH   1  15
HETATM   15  C4  UNL     1     -13.387 -19.505  36.997  1.00  0.00     0.164 C 
BRANCH  15  16
HETATM   16  C3  UNL     1     -12.518 -19.466  35.756  1.00  0.00     0.170 C 
BRANCH  16  17
HETATM   17  C2  UNL     1     -11.089 -19.669  36.016  1.00  0.00     0.205 C 
BRANCH  17  18
HETATM   18  C1  UNL     1     -10.425 -20.669  35.097  1.00  0.00     0.316 C 
BRANCH  18  19
HETATM   19  O1  UNL     1     -10.816 -21.963  35.316  1.00  0.00    -0.252 OA
BRANCH  19  20
HETATM   20  N1  UNL     1     -10.018 -22.647  36.154  1.00  0.00    -0.308 N 
ATOM     21  H12 UNL     1      -9.111 -22.288  36.450  1.00  0.00     0.184 HD
ATOM     22  H11 UNL     1     -10.399 -23.542  36.460  1.00  0.00     0.184 HD
ENDBRANCH  19  20
ENDBRANCH  18  19
BRANCH  18  23
HETATM   23  O2  UNL     1     -10.847 -20.332  33.789  1.00  0.00    -0.367 OA
ATOM     24  H2  UNL     1     -11.749 -20.619  33.711  1.00  0.00     0.212 HD
ENDBRANCH  18  23
ENDBRANCH  17  18
BRANCH  17  25
HETATM   25  O3  UNL     1     -10.893 -20.148  37.306  1.00  0.00    -0.388 OA
ATOM     26  H3  UNL     1     -11.556 -20.816  37.439  1.00  0.00     0.210 HD
ENDBRANCH  17  25
ENDBRANCH  16  17
BRANCH  16  27
HETATM   27  O4  UNL     1     -12.752 -18.183  35.157  1.00  0.00    -0.391 OA
ATOM     28  H4  UNL     1     -13.441 -18.234  34.506  1.00  0.00     0.210 HD
ENDBRANCH  16  27
ENDBRANCH  15  16
ENDBRANCH   1  15
BRANCH  11  29
HETATM   29  N4  UNL     1     -11.598 -21.912  40.974  1.00  0.00    -0.217 N 
ATOM     30  H4  UNL     1     -11.714 -21.148  41.640  1.00  0.00     0.178 HD
BRANCH  29  31
HETATM   31  C11 UNL     1     -10.359 -22.636  41.010  1.00  0.00     0.163 A 
HETATM   32  C12 UNL     1      -9.157 -21.832  40.532  1.00  0.00     0.239 A 
HETATM   33  C13 UNL     1      -9.717 -23.012  39.728  1.00  0.00     0.176 A 
BRANCH  32  34
HETATM   34  N5  UNL     1      -9.393 -20.510  39.979  1.00  0.00    -0.070 N 
ATOM     35  H53 UNL     1     -10.346 -20.222  40.200  1.00  0.00     0.274 HD
ATOM     36  H52 UNL     1      -8.855 -19.825  40.510  1.00  0.00     0.274 HD
ATOM     37  H51 UNL     1      -9.223 -20.368  38.983  1.00  0.00     0.274 HD
ENDBRANCH  32  34
BRANCH  33  38
HETATM   38  O7  UNL     1      -8.856 -24.075  39.619  1.00  0.00    -0.391 OA
ATOM     39  H7  UNL     1      -8.860 -24.660  38.871  1.00  0.00     0.210 HD
ENDBRANCH  33  38
ENDBRANCH  29  31
ENDBRANCH  11  29
TORSDOF 13
ENDMDL
MODEL 4
REMARK VINA RESULT: -6.024418246      3.180      5.157
REMARK  13 active torsions:
REMARK  status: ('A' for Active; 'I' for Inactive)
REMARK    1  A    between atoms: N1_1  and  O1_4 
REMARK    2  A    between atoms: O1_4  and  C1_5 
REMARK    3  A    between atoms: C1_5  and  O2_6 
REMARK    4  A    between atoms: C1_5  and  C2_8 
REMARK    5  A    between atoms: C2_8  and  O3_9 
REMARK    6  A    between atoms: C2_8  and  C3_11 
REMARK    7  A    between atoms: C3_11  and  O4_12 
REMARK    8  A    between atoms: C3_11  and  C4_14 
REMARK    9  A    between atoms: C4_14  and  N2_15 
REMARK   10  A    between atoms: C10_25  and  N4_26 
REMARK   11  A    between atoms: N4_26  and  C11_28 
REMARK   12  A    between atoms: C12_29  and  N5_30 
REMARK   13  A    between atoms: C13_34  and  O7_35 
ROOT
HETATM    1  N2  UNL     1     -16.696 -19.633  34.657  1.00  0.00    -0.339 N 
HETATM    2  C5  UNL     1     -18.002 -19.325  34.906  1.00  0.00     0.096 A 
HETATM    3  C6  UNL     1     -18.446 -18.544  35.913  1.00  0.00     0.073 A 
HETATM    4  C7  UNL     1     -17.545 -17.993  36.786  1.00  0.00     0.192 A 
HETATM    5  O5  UNL     1     -17.890 -17.258  37.743  1.00  0.00    -0.287 OA
HETATM    6  C8  UNL     1     -16.211 -18.288  36.563  1.00  0.00     0.127 A 
HETATM    7  C9  UNL     1     -15.303 -17.763  37.452  1.00  0.00     0.277 A 
HETATM    8  O6  UNL     1     -15.704 -17.017  38.411  1.00  0.00    -0.266 OA
HETATM    9  N3  UNL     1     -14.005 -18.043  37.297  1.00  0.00    -0.155 N 
ATOM     10  H3  UNL     1     -13.323 -17.658  37.952  1.00  0.00     0.187 HD
HETATM   11  C10 UNL     1     -13.591 -18.822  36.295  1.00  0.00     0.683 A 
HETATM   12  N6  UNL     1     -14.486 -19.327  35.435  1.00  0.00    -0.175 N 
ATOM     13  H6  UNL     1     -14.139 -19.920  34.680  1.00  0.00     0.186 HD
HETATM   14  C14 UNL     1     -15.805 -19.107  35.499  1.00  0.00     0.143 A 
ENDROOT
BRANCH   1  15
HETATM   15  C4  UNL     1     -16.339 -20.401  33.517  1.00  0.00     0.164 C 
BRANCH  15  16
HETATM   16  C3  UNL     1     -16.263 -21.901  33.715  1.00  0.00     0.170 C 
BRANCH  16  17
HETATM   17  C2  UNL     1     -14.907 -22.408  33.956  1.00  0.00     0.205 C 
BRANCH  17  18
HETATM   18  C1  UNL     1     -14.505 -22.436  35.413  1.00  0.00     0.316 C 
BRANCH  18  19
HETATM   19  O1  UNL     1     -14.740 -23.638  36.026  1.00  0.00    -0.252 OA
BRANCH  19  20
HETATM   20  N1  UNL     1     -14.786 -23.575  37.368  1.00  0.00    -0.308 N 
ATOM     21  H12 UNL     1     -15.642 -23.762  37.889  1.00  0.00     0.184 HD
ATOM     22  H11 UNL     1     -13.899 -23.327  37.808  1.00  0.00     0.184 HD
ENDBRANCH  19  20
ENDBRANCH  18  19
BRANCH  18  23
HETATM   23  O2  UNL     1     -13.105 -22.237  35.432  1.00  0.00    -0.367 OA
ATOM     24  H2  UNL     1     -12.874 -21.837  34.602  1.00  0.00     0.212 HD
ENDBRANCH  18  23
ENDBRANCH  17  18
BRANCH  17  25
HETATM   25  O3  UNL     1     -13.969 -21.607  33.317  1.00  0.00    -0.388 OA
ATOM     26  H3  UNL     1     -14.335 -21.407  32.463  1.00  0.00     0.210 HD
ENDBRANCH  17  25
ENDBRANCH  16  17
BRANCH  16  27
HETATM   27  O4  UNL     1     -16.821 -22.480  32.526  1.00  0.00    -0.391 OA
ATOM     28  H4  UNL     1     -17.588 -23.001  32.731  1.00  0.00     0.210 HD
ENDBRANCH  16  27
ENDBRANCH  15  16
ENDBRANCH   1  15
BRANCH  11  29
HETATM   29  N4  UNL     1     -12.349 -19.067  36.182  1.00  0.00    -0.217 N 
ATOM     30  H4  UNL     1     -11.882 -19.497  36.980  1.00  0.00     0.178 HD
BRANCH  29  31
HETATM   31  C11 UNL     1     -11.549 -18.787  35.023  1.00  0.00     0.163 A 
HETATM   32  C12 UNL     1     -10.504 -19.853  34.719  1.00  0.00     0.239 A 
HETATM   33  C13 UNL     1     -10.118 -18.452  35.210  1.00  0.00     0.176 A 
BRANCH  32  34
HETATM   34  N5  UNL     1     -10.333 -20.935  35.671  1.00  0.00    -0.070 N 
ATOM     35  H53 UNL     1      -9.550 -20.717  36.286  1.00  0.00     0.274 HD
ATOM     36  H52 UNL     1     -11.109 -20.923  36.333  1.00  0.00     0.274 HD
ATOM     37  H51 UNL     1     -10.218 -21.882  35.308  1.00  0.00     0.274 HD
ENDBRANCH  32  34
BRANCH  33  38
HETATM   38  O7  UNL     1      -9.408 -17.714  34.297  1.00  0.00    -0.391 OA
ATOM     39  H7  UNL     1      -8.870 -18.114  33.625  1.00  0.00     0.210 HD
ENDBRANCH  33  38
ENDBRANCH  29  31
ENDBRANCH  11  29
TORSDOF 13
ENDMDL
MODEL 5
REMARK VINA RESULT: -6.010012662      3.532      6.362
REMARK  13 active torsions:
REMARK  status: ('A' for Active; 'I' for Inactive)
REMARK    1  A    between atoms: N1_1  and  O1_4 
REMARK    2  A    between atoms: O1_4  and  C1_5 
REMARK    3  A    between atoms: C1_5  and  O2_6 
REMARK    4  A    between atoms: C1_5  and  C2_8 
REMARK    5  A    between atoms: C2_8  and  O3_9 
REMARK    6  A    between atoms: C2_8  and  C3_11 
REMARK    7  A    between atoms: C3_11  and  O4_12 
REMARK    8  A    between atoms: C3_11  and  C4_14 
REMARK    9  A    between atoms: C4_14  and  N2_15 
REMARK   10  A    between atoms: C10_25  and  N4_26 
REMARK   11  A    between atoms: N4_26  and  C11_28 
REMARK   12  A    between atoms: C12_29  and  N5_30 
REMARK   13  A    between atoms: C13_34  and  O7_35 
ROOT
HETATM    1  N2  UNL     1     -14.421 -20.610  35.463  1.00  0.00    -0.339 N 
HETATM    2  C5  UNL     1     -14.081 -21.773  34.835  1.00  0.00     0.096 A 
HETATM    3  C6  UNL     1     -14.834 -22.420  33.922  1.00  0.00     0.073 A 
HETATM    4  C7  UNL     1     -16.051 -21.904  33.563  1.00  0.00     0.192 A 
HETATM    5  O5  UNL     1     -16.801 -22.453  32.720  1.00  0.00    -0.287 OA
HETATM    6  C8  UNL     1     -16.428 -20.725  34.184  1.00  0.00     0.127 A 
HETATM    7  C9  UNL     1     -17.661 -20.216  33.852  1.00  0.00     0.277 A 
HETATM    8  O6  UNL     1     -18.387 -20.813  32.985  1.00  0.00    -0.266 OA
HETATM    9  N3  UNL     1     -18.083 -19.095  34.447  1.00  0.00    -0.155 N 
ATOM     10  H3  UNL     1     -18.997 -18.709  34.206  1.00  0.00     0.187 HD
HETATM   11  C10 UNL     1     -17.322 -18.475  35.352  1.00  0.00     0.683 A 
HETATM   12  N6  UNL     1     -16.121 -18.982  35.666  1.00  0.00    -0.175 N 
ATOM     13  H6  UNL     1     -15.563 -18.486  36.361  1.00  0.00     0.186 HD
HETATM   14  C14 UNL     1     -15.605 -20.093  35.129  1.00  0.00     0.143 A 
ENDROOT
BRANCH   1  15
HETATM   15  C4  UNL     1     -13.511 -19.975  36.351  1.00  0.00     0.164 C 
BRANCH  15  16
HETATM   16  C3  UNL     1     -12.362 -19.224  35.708  1.00  0.00     0.170 C 
BRANCH  16  17
HETATM   17  C2  UNL     1     -11.034 -19.697  36.114  1.00  0.00     0.205 C 
BRANCH  17  18
HETATM   18  C1  UNL     1     -10.417 -20.703  35.168  1.00  0.00     0.316 C 
BRANCH  18  19
HETATM   19  O1  UNL     1     -10.792 -21.996  35.418  1.00  0.00    -0.252 OA
BRANCH  19  20
HETATM   20  N1  UNL     1      -9.969 -22.660  36.247  1.00  0.00    -0.308 N 
ATOM     21  H12 UNL     1     -10.282 -23.467  36.787  1.00  0.00     0.184 HD
ATOM     22  H11 UNL     1      -9.020 -22.288  36.285  1.00  0.00     0.184 HD
ENDBRANCH  19  20
ENDBRANCH  18  19
BRANCH  18  23
HETATM   23  O2  UNL     1     -10.909 -20.378  33.882  1.00  0.00    -0.367 OA
ATOM     24  H2  UNL     1     -11.786 -20.034  34.004  1.00  0.00     0.212 HD
ENDBRANCH  18  23
ENDBRANCH  17  18
BRANCH  17  25
HETATM   25  O3  UNL     1     -11.099 -20.327  37.350  1.00  0.00    -0.388 OA
ATOM     26  H3  UNL     1     -11.412 -19.670  37.961  1.00  0.00     0.210 HD
ENDBRANCH  17  25
ENDBRANCH  16  17
BRANCH  16  27
HETATM   27  O4  UNL     1     -12.547 -17.847  36.070  1.00  0.00    -0.391 OA
ATOM     28  H4  UNL     1     -12.153 -17.272  35.424  1.00  0.00     0.210 HD
ENDBRANCH  16  27
ENDBRANCH  15  16
ENDBRANCH   1  15
BRANCH  11  29
HETATM   29  N4  UNL     1     -17.758 -17.413  35.896  1.00  0.00    -0.217 N 
ATOM     30  H4  UNL     1     -18.277 -17.514  36.768  1.00  0.00     0.178 HD
BRANCH  29  31
HETATM   31  C11 UNL     1     -17.582 -16.084  35.383  1.00  0.00     0.163 A 
HETATM   32  C12 UNL     1     -18.723 -15.132  35.722  1.00  0.00     0.239 A 
HETATM   33  C13 UNL     1     -18.469 -15.620  34.290  1.00  0.00     0.176 A 
BRANCH  32  34
HETATM   34  N5  UNL     1     -19.894 -15.677  36.386  1.00  0.00    -0.070 N 
ATOM     35  H53 UNL     1     -19.770 -16.681  36.511  1.00  0.00     0.274 HD
ATOM     36  H52 UNL     1     -19.905 -15.361  37.356  1.00  0.00     0.274 HD
ATOM     37  H51 UNL     1     -20.808 -15.503  35.968  1.00  0.00     0.274 HD
ENDBRANCH  32  34
BRANCH  33  38
HETATM   38  O7  UNL     1     -18.105 -14.626  33.416  1.00  0.00    -0.391 OA
ATOM     39  H7  UNL     1     -18.446 -13.742  33.478  1.00  0.00     0.210 HD
ENDBRANCH  33  38
ENDBRANCH  29  31
ENDBRANCH  11  29
TORSDOF 13
ENDMDL
