MODEL 1
REMARK VINA RESULT: -8.347780384      0.000      0.000
REMARK  5 active torsions:
REMARK  status: ('A' for Active; 'I' for Inactive)
REMARK    1  A    between atoms: C2_2  and  C4_4 
REMARK    2  A    between atoms: C15_17  and  C16_18 
REMARK    3  A    between atoms: C17_20  and  C18_21 
REMARK    4  A    between atoms: C18_21  and  C19_22 
REMARK    5  A    between atoms: N1_24  and  N2_26 
REMARK       I    between atoms: N2_26  and  C21_28 
ROOT
HETATM    1  C4  UNL     1       0.443   8.062  26.155  1.00  0.00     0.030 C 
HETATM    2  C5  UNL     1      -0.483   6.956  25.758  1.00  0.00     0.037 C 
HETATM    3  C6  UNL     1       0.037   5.598  25.859  1.00  0.00    -0.020 C 
HETATM    4  C7  UNL     1       1.231   5.304  26.291  1.00  0.00    -0.049 C 
HETATM    5  C8  UNL     1       1.647   3.856  26.348  1.00  0.00     0.046 C 
HETATM    6  C9  UNL     1       2.181   6.296  26.719  1.00  0.00     0.131 A 
HETATM    7  O1  UNL     1       3.440   6.071  27.171  1.00  0.00    -0.351 OA
HETATM    8  C10 UNL     1       3.444   6.473  25.858  1.00  0.00     0.135 A 
HETATM    9  C11 UNL     1       3.575   5.468  24.778  1.00  0.00     0.026 C 
HETATM   10  C12 UNL     1       2.882   5.916  23.746  1.00  0.00    -0.016 C 
HETATM   11  C13 UNL     1       2.790   5.138  22.452  1.00  0.00     0.052 C 
HETATM   12  C14 UNL     1       2.264   7.201  24.016  1.00  0.00     0.170 C 
HETATM   13  O2  UNL     1       1.431   7.747  23.262  1.00  0.00    -0.292 OA
HETATM   14  C15 UNL     1       2.816   7.687  25.314  1.00  0.00     0.101 C 
HETATM   15  C25 UNL     1       1.830   7.721  26.466  1.00  0.00     0.023 C 
HETATM   16  C26 UNL     1       2.375   8.544  27.632  1.00  0.00     0.021 C 
ENDROOT
BRANCH  14  17
HETATM   17  C16 UNL     1       3.652   8.923  25.113  1.00  0.00     0.154 C 
HETATM   18  O3  UNL     1       2.777   9.929  24.735  1.00  0.00    -0.365 OA
HETATM   19  C17 UNL     1       3.310  10.605  23.643  1.00  0.00     0.238 C 
HETATM   20  C22 UNL     1       4.147   9.641  22.936  1.00  0.00     0.167 C 
HETATM   21  O5  UNL     1       4.439   9.500  21.761  1.00  0.00    -0.294 OA
HETATM   22  C23 UNL     1       4.664   8.725  24.017  1.00  0.00     0.085 C 
HETATM   23  C24 UNL     1       6.036   9.176  24.398  1.00  0.00     0.020 C 
BRANCH  19  24
HETATM   24  C18 UNL     1       3.909  11.888  24.002  1.00  0.00     0.039 C 
HETATM   25  N1  UNL     1       5.137  12.084  23.639  1.00  0.00    -0.302 N 
ATOM     26  H1  UNL     1       5.612  11.340  23.129  1.00  0.00     0.186 HD
BRANCH  24  27
HETATM   27  C19 UNL     1       3.214  12.951  24.736  1.00  0.00     0.053 C 
HETATM   28  C20 UNL     1       2.216  13.739  23.966  1.00  0.00     0.011 C 
ENDBRANCH  24  27
BRANCH  25  29
HETATM   29  N2  UNL     1       5.838  13.240  23.902  1.00  0.00    -0.254 N 
HETATM   30  C21 UNL     1       7.230  13.289  24.161  1.00  0.00     0.347 C 
HETATM   31  N3  UNL     1       7.883  14.522  24.423  1.00  0.00    -0.038 NA
HETATM   32  O4  UNL     1       7.876  12.231  24.157  1.00  0.00    -0.249 OA
ATOM     33  H2  UNL     1       5.322  14.120  23.910  1.00  0.00     0.191 HD
ENDBRANCH  25  29
ENDBRANCH  19  24
ENDBRANCH  14  17
BRANCH   1  34
HETATM   34  C2  UNL     1      -0.236   8.871  27.224  1.00  0.00    -0.088 C 
HETATM   35  C1  UNL     1      -0.509   8.342  28.410  1.00  0.00     0.014 C 
HETATM   36  C3  UNL     1      -0.583  10.290  26.990  1.00  0.00     0.043 C 
ENDBRANCH   1  34
TORSDOF 5
ENDMDL
MODEL 2
REMARK VINA RESULT: -7.967662456      2.550      4.323
REMARK  5 active torsions:
REMARK  status: ('A' for Active; 'I' for Inactive)
REMARK    1  A    between atoms: C2_2  and  C4_4 
REMARK    2  A    between atoms: C15_17  and  C16_18 
REMARK    3  A    between atoms: C17_20  and  C18_21 
REMARK    4  A    between atoms: C18_21  and  C19_22 
REMARK    5  A    between atoms: N1_24  and  N2_26 
REMARK       I    between atoms: N2_26  and  C21_28 
ROOT
HETATM    1  C4  UNL     1       5.199   5.291  25.657  1.00  0.00     0.030 C 
HETATM    2  C5  UNL     1       4.085   4.504  26.271  1.00  0.00     0.037 C 
HETATM    3  C6  UNL     1       3.210   3.782  25.355  1.00  0.00    -0.020 C 
HETATM    4  C7  UNL     1       3.360   3.768  24.060  1.00  0.00    -0.049 C 
HETATM    5  C8  UNL     1       2.386   2.979  23.224  1.00  0.00     0.046 C 
HETATM    6  C9  UNL     1       4.416   4.473  23.382  1.00  0.00     0.131 A 
HETATM    7  O1  UNL     1       4.633   4.515  22.044  1.00  0.00    -0.351 OA
HETATM    8  C10 UNL     1       4.006   5.653  22.485  1.00  0.00     0.135 A 
HETATM    9  C11 UNL     1       2.540   5.799  22.324  1.00  0.00     0.026 C 
HETATM   10  C12 UNL     1       2.106   6.507  23.351  1.00  0.00    -0.016 C 
HETATM   11  C13 UNL     1       0.643   6.853  23.518  1.00  0.00     0.052 C 
HETATM   12  C14 UNL     1       3.182   6.895  24.245  1.00  0.00     0.170 C 
HETATM   13  O2  UNL     1       3.006   7.423  25.363  1.00  0.00    -0.292 OA
HETATM   14  C15 UNL     1       4.463   6.541  23.565  1.00  0.00     0.101 C 
HETATM   15  C25 UNL     1       5.241   5.405  24.201  1.00  0.00     0.023 C 
HETATM   16  C26 UNL     1       6.670   5.349  23.662  1.00  0.00     0.021 C 
ENDROOT
BRANCH  14  17
HETATM   17  C16 UNL     1       5.248   7.779  23.221  1.00  0.00     0.154 C 
HETATM   18  O3  UNL     1       5.459   8.453  24.414  1.00  0.00    -0.365 OA
HETATM   19  C17 UNL     1       5.166   9.799  24.230  1.00  0.00     0.238 C 
HETATM   20  C22 UNL     1       4.164   9.858  23.170  1.00  0.00     0.167 C 
HETATM   21  O5  UNL     1       3.245  10.624  22.939  1.00  0.00    -0.294 OA
HETATM   22  C23 UNL     1       4.476   8.673  22.289  1.00  0.00     0.085 C 
HETATM   23  C24 UNL     1       5.287   9.152  21.130  1.00  0.00     0.020 C 
BRANCH  19  24
HETATM   24  C18 UNL     1       6.360  10.627  24.080  1.00  0.00     0.039 C 
HETATM   25  N1  UNL     1       6.175  11.897  23.905  1.00  0.00    -0.302 N 
ATOM     26  H1  UNL     1       5.216  12.245  23.882  1.00  0.00     0.186 HD
BRANCH  24  27
HETATM   27  C19 UNL     1       7.734  10.116  24.116  1.00  0.00     0.053 C 
HETATM   28  C20 UNL     1       8.314   9.697  22.813  1.00  0.00     0.011 C 
ENDBRANCH  24  27
BRANCH  25  29
HETATM   29  N2  UNL     1       7.197  12.807  23.750  1.00  0.00    -0.254 N 
HETATM   30  C21 UNL     1       7.257  14.063  24.403  1.00  0.00     0.347 C 
HETATM   31  N3  UNL     1       8.346  14.947  24.192  1.00  0.00    -0.038 NA
HETATM   32  O4  UNL     1       6.335  14.381  25.169  1.00  0.00    -0.249 OA
ATOM     33  H2  UNL     1       7.963  12.561  23.122  1.00  0.00     0.191 HD
ENDBRANCH  25  29
ENDBRANCH  19  24
ENDBRANCH  14  17
BRANCH   1  34
HETATM   34  C2  UNL     1       6.488   4.817  26.266  1.00  0.00    -0.088 C 
HETATM   35  C1  UNL     1       7.363   5.680  26.769  1.00  0.00     0.014 C 
HETATM   36  C3  UNL     1       6.796   3.373  26.352  1.00  0.00     0.043 C 
ENDBRANCH   1  34
TORSDOF 5
ENDMDL
MODEL 3
REMARK VINA RESULT: -7.965745048      1.526      1.799
REMARK  5 active torsions:
REMARK  status: ('A' for Active; 'I' for Inactive)
REMARK    1  A    between atoms: C2_2  and  C4_4 
REMARK    2  A    between atoms: C15_17  and  C16_18 
REMARK    3  A    between atoms: C17_20  and  C18_21 
REMARK    4  A    between atoms: C18_21  and  C19_22 
REMARK    5  A    between atoms: N1_24  and  N2_26 
REMARK       I    between atoms: N2_26  and  C21_28 
ROOT
HETATM    1  C4  UNL     1       1.503   8.111  24.172  1.00  0.00     0.030 C 
HETATM    2  C5  UNL     1       0.773   7.003  23.482  1.00  0.00     0.037 C 
HETATM    3  C6  UNL     1       1.153   5.643  23.843  1.00  0.00    -0.020 C 
HETATM    4  C7  UNL     1       2.057   5.350  24.734  1.00  0.00    -0.049 C 
HETATM    5  C8  UNL     1       2.356   3.899  25.016  1.00  0.00     0.046 C 
HETATM    6  C9  UNL     1       2.793   6.345  25.468  1.00  0.00     0.131 A 
HETATM    7  O1  UNL     1       3.752   6.121  26.401  1.00  0.00    -0.351 OA
HETATM    8  C10 UNL     1       4.302   6.450  25.186  1.00  0.00     0.135 A 
HETATM    9  C11 UNL     1       4.817   5.384  24.296  1.00  0.00     0.026 C 
HETATM   10  C12 UNL     1       4.619   5.787  23.054  1.00  0.00    -0.016 C 
HETATM   11  C13 UNL     1       5.026   4.940  21.868  1.00  0.00     0.052 C 
HETATM   12  C14 UNL     1       3.997   7.097  22.994  1.00  0.00     0.170 C 
HETATM   13  O2  UNL     1       3.562   7.617  21.945  1.00  0.00    -0.292 OA
HETATM   14  C15 UNL     1       3.997   7.643  24.383  1.00  0.00     0.101 C 
HETATM   15  C25 UNL     1       2.632   7.761  25.033  1.00  0.00     0.023 C 
HETATM   16  C26 UNL     1       2.692   8.637  26.284  1.00  0.00     0.021 C 
ENDROOT
BRANCH  14  17
HETATM   17  C16 UNL     1       4.892   8.850  24.485  1.00  0.00     0.154 C 
HETATM   18  O3  UNL     1       4.148   9.929  24.033  1.00  0.00    -0.365 OA
HETATM   19  C17 UNL     1       4.920  10.673  23.150  1.00  0.00     0.238 C 
HETATM   20  C22 UNL     1       5.861   9.737  22.542  1.00  0.00     0.167 C 
HETATM   21  O5  UNL     1       6.393   9.689  21.447  1.00  0.00    -0.294 OA
HETATM   22  C23 UNL     1       6.109   8.703  23.612  1.00  0.00     0.085 C 
HETATM   23  C24 UNL     1       7.380   9.049  24.315  1.00  0.00     0.020 C 
BRANCH  19  24
HETATM   24  C18 UNL     1       5.466  11.887  23.752  1.00  0.00     0.039 C 
HETATM   25  N1  UNL     1       6.664  12.230  23.399  1.00  0.00    -0.302 N 
ATOM     26  H1  UNL     1       7.155  11.639  22.728  1.00  0.00     0.186 HD
BRANCH  24  27
HETATM   27  C19 UNL     1       4.750  12.728  24.717  1.00  0.00     0.053 C 
HETATM   28  C20 UNL     1       3.526  13.409  24.215  1.00  0.00     0.011 C 
ENDBRANCH  24  27
BRANCH  25  29
HETATM   29  N2  UNL     1       7.315  13.346  23.877  1.00  0.00    -0.254 N 
HETATM   30  C21 UNL     1       8.341  13.317  24.853  1.00  0.00     0.347 C 
HETATM   31  N3  UNL     1       8.965  14.513  25.294  1.00  0.00    -0.038 NA
HETATM   32  O4  UNL     1       8.690  12.223  25.320  1.00  0.00    -0.249 OA
ATOM     33  H2  UNL     1       7.039  14.254  23.504  1.00  0.00     0.191 HD
ENDBRANCH  25  29
ENDBRANCH  19  24
ENDBRANCH  14  17
BRANCH   1  34
HETATM   34  C2  UNL     1       0.483   8.991  24.838  1.00  0.00    -0.088 C 
HETATM   35  C1  UNL     1      -0.356   8.500  25.742  1.00  0.00     0.014 C 
HETATM   36  C3  UNL     1       0.418  10.436  24.529  1.00  0.00     0.043 C 
ENDBRANCH   1  34
TORSDOF 5
ENDMDL
MODEL 4
REMARK VINA RESULT: -7.962741380      1.355      1.838
REMARK  5 active torsions:
REMARK  status: ('A' for Active; 'I' for Inactive)
REMARK    1  A    between atoms: C2_2  and  C4_4 
REMARK    2  A    between atoms: C15_17  and  C16_18 
REMARK    3  A    between atoms: C17_20  and  C18_21 
REMARK    4  A    between atoms: C18_21  and  C19_22 
REMARK    5  A    between atoms: N1_24  and  N2_26 
REMARK       I    between atoms: N2_26  and  C21_28 
ROOT
HETATM    1  C4  UNL     1       0.555   8.098  26.025  1.00  0.00     0.030 C 
HETATM    2  C5  UNL     1      -0.450   7.059  25.640  1.00  0.00     0.037 C 
HETATM    3  C6  UNL     1      -0.066   5.668  25.845  1.00  0.00    -0.020 C 
HETATM    4  C7  UNL     1       1.072   5.292  26.357  1.00  0.00    -0.049 C 
HETATM    5  C8  UNL     1       1.345   3.818  26.518  1.00  0.00     0.046 C 
HETATM    6  C9  UNL     1       2.089   6.217  26.781  1.00  0.00     0.131 A 
HETATM    7  O1  UNL     1       3.297   5.906  27.313  1.00  0.00    -0.351 OA
HETATM    8  C10 UNL     1       3.404   6.226  25.982  1.00  0.00     0.135 A 
HETATM    9  C11 UNL     1       3.493   5.149  24.969  1.00  0.00     0.026 C 
HETATM   10  C12 UNL     1       2.897   5.595  23.877  1.00  0.00    -0.016 C 
HETATM   11  C13 UNL     1       2.796   4.752  22.625  1.00  0.00     0.052 C 
HETATM   12  C14 UNL     1       2.390   6.945  24.040  1.00  0.00     0.170 C 
HETATM   13  O2  UNL     1       1.651   7.519  23.213  1.00  0.00    -0.292 OA
HETATM   14  C15 UNL     1       2.921   7.457  25.337  1.00  0.00     0.101 C 
HETATM   15  C25 UNL     1       1.887   7.651  26.430  1.00  0.00     0.023 C 
HETATM   16  C26 UNL     1       2.449   8.490  27.577  1.00  0.00     0.021 C 
ENDROOT
BRANCH  14  17
HETATM   17  C16 UNL     1       3.879   8.597  25.113  1.00  0.00     0.154 C 
HETATM   18  O3  UNL     1       3.103   9.707  24.818  1.00  0.00    -0.365 OA
HETATM   19  C17 UNL     1       3.642  10.353  23.712  1.00  0.00     0.238 C 
HETATM   20  C22 UNL     1       4.318   9.325  22.928  1.00  0.00     0.167 C 
HETATM   21  O5  UNL     1       4.520   9.190  21.733  1.00  0.00    -0.294 OA
HETATM   22  C23 UNL     1       4.793   8.322  23.950  1.00  0.00     0.085 C 
HETATM   23  C24 UNL     1       6.228   8.604  24.253  1.00  0.00     0.020 C 
BRANCH  19  24
HETATM   24  C18 UNL     1       4.404  11.548  24.063  1.00  0.00     0.039 C 
HETATM   25  N1  UNL     1       3.936  12.283  25.022  1.00  0.00    -0.302 N 
ATOM     26  H1  UNL     1       3.070  11.989  25.474  1.00  0.00     0.186 HD
BRANCH  24  27
HETATM   27  C19 UNL     1       5.649  11.961  23.406  1.00  0.00     0.053 C 
HETATM   28  C20 UNL     1       6.886  11.872  24.225  1.00  0.00     0.011 C 
ENDBRANCH  24  27
BRANCH  25  29
HETATM   29  N2  UNL     1       4.540  13.437  25.469  1.00  0.00    -0.254 N 
HETATM   30  C21 UNL     1       4.022  14.740  25.266  1.00  0.00     0.347 C 
HETATM   31  N3  UNL     1       4.704  15.884  25.758  1.00  0.00    -0.038 NA
HETATM   32  O4  UNL     1       2.956  14.869  24.646  1.00  0.00    -0.249 OA
ATOM     33  H2  UNL     1       5.418  13.349  25.980  1.00  0.00     0.191 HD
ENDBRANCH  25  29
ENDBRANCH  19  24
ENDBRANCH  14  17
BRANCH   1  34
HETATM   34  C2  UNL     1      -0.097   9.029  27.008  1.00  0.00    -0.088 C 
HETATM   35  C1  UNL     1      -0.319  10.300  26.699  1.00  0.00     0.014 C 
HETATM   36  C3  UNL     1      -0.541   8.538  28.331  1.00  0.00     0.043 C 
ENDBRANCH   1  34
TORSDOF 5
ENDMDL
MODEL 5
REMARK VINA RESULT: -7.681928081      3.913      6.795
REMARK  5 active torsions:
REMARK  status: ('A' for Active; 'I' for Inactive)
REMARK    1  A    between atoms: C2_2  and  C4_4 
REMARK    2  A    between atoms: C15_17  and  C16_18 
REMARK    3  A    between atoms: C17_20  and  C18_21 
REMARK    4  A    between atoms: C18_21  and  C19_22 
REMARK    5  A    between atoms: N1_24  and  N2_26 
REMARK       I    between atoms: N2_26  and  C21_28 
ROOT
HETATM    1  C4  UNL     1       4.634   7.930  23.930  1.00  0.00     0.030 C 
HETATM    2  C5  UNL     1       5.339   7.010  22.985  1.00  0.00     0.037 C 
HETATM    3  C6  UNL     1       4.501   6.144  22.166  1.00  0.00    -0.020 C 
HETATM    4  C7  UNL     1       3.198   6.147  22.196  1.00  0.00    -0.049 C 
HETATM    5  C8  UNL     1       2.448   5.201  21.295  1.00  0.00     0.046 C 
HETATM    6  C9  UNL     1       2.432   7.014  23.052  1.00  0.00     0.131 A 
HETATM    7  O1  UNL     1       1.080   7.070  23.148  1.00  0.00    -0.351 OA
HETATM    8  C10 UNL     1       1.625   6.348  24.181  1.00  0.00     0.135 A 
HETATM    9  C11 UNL     1       1.631   4.868  24.124  1.00  0.00     0.026 C 
HETATM   10  C12 UNL     1       2.723   4.460  24.746  1.00  0.00    -0.016 C 
HETATM   11  C13 UNL     1       3.061   2.992  24.883  1.00  0.00     0.052 C 
HETATM   12  C14 UNL     1       3.506   5.568  25.264  1.00  0.00     0.170 C 
HETATM   13  O2  UNL     1       4.653   5.449  25.743  1.00  0.00    -0.292 OA
HETATM   14  C15 UNL     1       2.678   6.799  25.103  1.00  0.00     0.101 C 
HETATM   15  C25 UNL     1       3.186   7.792  24.075  1.00  0.00     0.023 C 
HETATM   16  C26 UNL     1       2.492   9.145  24.228  1.00  0.00     0.021 C 
ENDROOT
BRANCH  14  17
HETATM   17  C16 UNL     1       2.291   7.365  26.445  1.00  0.00     0.154 C 
HETATM   18  O3  UNL     1       2.686   6.432  27.391  1.00  0.00    -0.365 OA
HETATM   19  C17 UNL     1       1.646   6.236  28.292  1.00  0.00     0.238 C 
HETATM   20  C22 UNL     1       0.414   6.511  27.560  1.00  0.00     0.167 C 
HETATM   21  O5  UNL     1      -0.719   6.070  27.648  1.00  0.00    -0.294 OA
HETATM   22  C23 UNL     1       0.803   7.558  26.546  1.00  0.00     0.085 C 
HETATM   23  C24 UNL     1       0.421   8.897  27.085  1.00  0.00     0.020 C 
BRANCH  19  24
HETATM   24  C18 UNL     1       1.851   6.932  29.560  1.00  0.00     0.039 C 
HETATM   25  N1  UNL     1       0.817   7.070  30.328  1.00  0.00    -0.302 N 
ATOM     26  H1  UNL     1      -0.074   6.689  30.007  1.00  0.00     0.186 HD
BRANCH  24  27
HETATM   27  C19 UNL     1       3.137   7.475  30.009  1.00  0.00     0.053 C 
HETATM   28  C20 UNL     1       4.124   6.489  30.524  1.00  0.00     0.011 C 
ENDBRANCH  24  27
BRANCH  25  29
HETATM   29  N2  UNL     1       0.849   7.700  31.552  1.00  0.00    -0.254 N 
HETATM   30  C21 UNL     1       1.059   7.039  32.787  1.00  0.00     0.347 C 
HETATM   31  N3  UNL     1       1.079   7.759  34.009  1.00  0.00    -0.038 NA
HETATM   32  O4  UNL     1       1.226   5.810  32.785  1.00  0.00    -0.249 OA
ATOM     33  H2  UNL     1       0.712   8.711  31.571  1.00  0.00     0.191 HD
ENDBRANCH  25  29
ENDBRANCH  19  24
ENDBRANCH  14  17
BRANCH   1  34
HETATM   34  C2  UNL     1       5.081   9.333  23.630  1.00  0.00    -0.088 C 
HETATM   35  C1  UNL     1       5.527  10.129  24.594  1.00  0.00     0.014 C 
HETATM   36  C3  UNL     1       5.071   9.847  22.242  1.00  0.00     0.043 C 
ENDBRANCH   1  34
TORSDOF 5
ENDMDL
