MODEL 1
REMARK VINA RESULT: -10.036852530      0.000      0.000
REMARK  7 active torsions:
REMARK  status: ('A' for Active; 'I' for Inactive)
REMARK    1  A    between atoms: C2_2  and  C3_3 
REMARK    2  A    between atoms: C2_2  and  C13_16 
REMARK    3  A    between atoms: C4_4  and  C5_5 
REMARK    4  A    between atoms: C9_9  and  O1_10 
REMARK    5  A    between atoms: C13_16  and  O3_17 
REMARK    6  A    between atoms: C13_16  and  C14_19 
REMARK    7  A    between atoms: C17_23  and  C18_24 
ROOT
HETATM    1  C14 UNL     1       3.833  12.684  24.983  1.00  0.00     0.162 C 
HETATM    2  O4  UNL     1       5.028  12.559  25.691  1.00  0.00    -0.365 OA
HETATM    3  C15 UNL     1       5.404  13.783  26.094  1.00  0.00     0.128 A 
HETATM    4  C16 UNL     1       6.327  14.181  27.117  1.00  0.00     0.087 A 
HETATM    5  C17 UNL     1       6.663  14.448  25.702  1.00  0.00     0.110 A 
HETATM    6  O6  UNL     1       5.937  15.276  24.884  1.00  0.00    -0.361 OA
HETATM    7  C25 UNL     1       4.683  14.840  25.309  1.00  0.00     0.098 C 
HETATM    8  C26 UNL     1       4.002  15.897  26.119  1.00  0.00     0.050 C 
HETATM    9  C27 UNL     1       3.866  14.059  24.347  1.00  0.00     0.051 C 
HETATM   10  C28 UNL     1       2.439  14.550  24.240  1.00  0.00     0.016 C 
ENDROOT
BRANCH   1  11
HETATM   11  C13 UNL     1       3.762  11.680  23.864  1.00  0.00     0.179 C 
BRANCH  11  12
HETATM   12  C2  UNL     1       3.622  10.295  24.378  1.00  0.00    -0.037 C 
HETATM   13  C1  UNL     1       4.730   9.576  24.431  1.00  0.00     0.021 C 
BRANCH  12  14
HETATM   14  C3  UNL     1       2.397   9.698  24.857  1.00  0.00     0.006 C 
HETATM   15  C4  UNL     1       2.129   9.308  26.081  1.00  0.00    -0.013 C 
BRANCH  15  16
HETATM   16  C5  UNL     1       0.788   8.712  26.344  1.00  0.00     0.015 C 
HETATM   17  C6  UNL     1      -0.354   9.393  25.663  1.00  0.00     0.023 C 
HETATM   18  C7  UNL     1       0.765   7.187  26.163  1.00  0.00     0.073 C 
HETATM   19  C8  UNL     1      -0.243   7.185  27.323  1.00  0.00     0.052 C 
HETATM   20  C12 UNL     1       1.985   6.553  26.695  1.00  0.00     0.132 C 
HETATM   21  C9  UNL     1       0.478   8.455  27.802  1.00  0.00     0.070 C 
HETATM   22  C10 UNL     1       1.662   8.056  28.649  1.00  0.00     0.046 C 
HETATM   23  C11 UNL     1       2.405   6.893  28.080  1.00  0.00     0.081 C 
HETATM   24  O2  UNL     1       2.650   5.774  26.053  1.00  0.00    -0.298 OA
BRANCH  21  25
HETATM   25  O1  UNL     1      -0.407   9.325  28.391  1.00  0.00    -0.389 OA
ATOM     26  H1  UNL     1      -1.183   9.534  27.885  1.00  0.00     0.210 HD
ENDBRANCH  21  25
ENDBRANCH  15  16
ENDBRANCH  12  14
ENDBRANCH  11  12
BRANCH  11  27
HETATM   27  O3  UNL     1       2.617  11.933  23.077  1.00  0.00    -0.388 OA
ATOM     28  H3  UNL     1       2.521  12.877  23.036  1.00  0.00     0.210 HD
ENDBRANCH  11  27
ENDBRANCH   1  11
BRANCH   5  29
HETATM   29  C18 UNL     1       7.844  13.690  25.147  1.00  0.00     0.009 C 
HETATM   30  C19 UNL     1       7.461  12.867  23.934  1.00  0.00     0.023 C 
HETATM   31  C20 UNL     1       8.453  12.787  26.126  1.00  0.00    -0.011 C 
HETATM   32  C21 UNL     1       9.554  13.051  26.771  1.00  0.00     0.047 C 
HETATM   33  C22 UNL     1      10.265  14.294  26.551  1.00  0.00     0.149 C 
HETATM   34  O5  UNL     1      11.448  14.474  26.957  1.00  0.00    -0.293 OA
HETATM   35  C23 UNL     1       9.558  15.379  25.819  1.00  0.00     0.084 C 
HETATM   36  C24 UNL     1       8.827  14.755  24.644  1.00  0.00     0.024 C 
ENDBRANCH   5  29
TORSDOF 7
ENDMDL
MODEL 2
REMARK VINA RESULT: -10.032102779      2.247      8.310
REMARK  7 active torsions:
REMARK  status: ('A' for Active; 'I' for Inactive)
REMARK    1  A    between atoms: C2_2  and  C3_3 
REMARK    2  A    between atoms: C2_2  and  C13_16 
REMARK    3  A    between atoms: C4_4  and  C5_5 
REMARK    4  A    between atoms: C9_9  and  O1_10 
REMARK    5  A    between atoms: C13_16  and  O3_17 
REMARK    6  A    between atoms: C13_16  and  C14_19 
REMARK    7  A    between atoms: C17_23  and  C18_24 
ROOT
HETATM    1  C14 UNL     1       5.115   8.075  22.901  1.00  0.00     0.162 C 
HETATM    2  O4  UNL     1       4.631   8.049  24.208  1.00  0.00    -0.365 OA
HETATM    3  C15 UNL     1       3.557   7.245  24.240  1.00  0.00     0.128 A 
HETATM    4  C16 UNL     1       2.910   6.603  25.347  1.00  0.00     0.087 A 
HETATM    5  C17 UNL     1       2.196   7.674  24.621  1.00  0.00     0.110 A 
HETATM    6  O6  UNL     1       1.834   7.596  23.299  1.00  0.00    -0.361 OA
HETATM    7  C25 UNL     1       3.025   7.024  22.854  1.00  0.00     0.098 C 
HETATM    8  C26 UNL     1       2.811   5.596  22.462  1.00  0.00     0.050 C 
HETATM    9  C27 UNL     1       3.911   7.859  22.006  1.00  0.00     0.051 C 
HETATM   10  C28 UNL     1       4.388   7.146  20.759  1.00  0.00     0.016 C 
ENDROOT
BRANCH   1  11
HETATM   11  C13 UNL     1       5.681   9.428  22.562  1.00  0.00     0.179 C 
BRANCH  11  12
HETATM   12  C2  UNL     1       6.457   9.996  23.692  1.00  0.00    -0.037 C 
HETATM   13  C1  UNL     1       7.630   9.435  23.937  1.00  0.00     0.021 C 
BRANCH  12  14
HETATM   14  C3  UNL     1       6.058  11.123  24.502  1.00  0.00     0.006 C 
HETATM   15  C4  UNL     1       6.720  12.240  24.691  1.00  0.00    -0.013 C 
BRANCH  15  16
HETATM   16  C5  UNL     1       6.109  13.271  25.577  1.00  0.00     0.015 C 
HETATM   17  C6  UNL     1       4.644  13.110  25.821  1.00  0.00     0.023 C 
HETATM   18  C7  UNL     1       6.906  13.498  26.871  1.00  0.00     0.073 C 
HETATM   19  C8  UNL     1       6.476  14.967  26.736  1.00  0.00     0.052 C 
HETATM   20  C12 UNL     1       8.360  13.485  26.628  1.00  0.00     0.132 C 
HETATM   21  C9  UNL     1       6.448  14.702  25.223  1.00  0.00     0.070 C 
HETATM   22  C10 UNL     1       7.834  14.913  24.662  1.00  0.00     0.046 C 
HETATM   23  C11 UNL     1       8.898  14.347  25.543  1.00  0.00     0.081 C 
HETATM   24  O2  UNL     1       9.124  12.805  27.273  1.00  0.00    -0.298 OA
BRANCH  21  25
HETATM   25  O1  UNL     1       5.448  15.425  24.620  1.00  0.00    -0.389 OA
ATOM     26  H1  UNL     1       5.695  15.906  23.839  1.00  0.00     0.210 HD
ENDBRANCH  21  25
ENDBRANCH  15  16
ENDBRANCH  12  14
ENDBRANCH  11  12
BRANCH  11  27
HETATM   27  O3  UNL     1       6.581   9.304  21.481  1.00  0.00    -0.388 OA
ATOM     28  H3  UNL     1       6.134   9.651  20.718  1.00  0.00     0.210 HD
ENDBRANCH  11  27
ENDBRANCH   1  11
BRANCH   5  29
HETATM   29  C18 UNL     1       1.931   8.939  25.399  1.00  0.00     0.009 C 
HETATM   30  C19 UNL     1       2.617  10.137  24.772  1.00  0.00     0.023 C 
HETATM   31  C20 UNL     1       2.368   8.853  26.794  1.00  0.00    -0.011 C 
HETATM   32  C21 UNL     1       1.559   8.654  27.796  1.00  0.00     0.047 C 
HETATM   33  C22 UNL     1       0.135   8.501  27.584  1.00  0.00     0.149 C 
HETATM   34  O5  UNL     1      -0.698   8.561  28.534  1.00  0.00    -0.293 OA
HETATM   35  C23 UNL     1      -0.341   8.267  26.194  1.00  0.00     0.084 C 
HETATM   36  C24 UNL     1       0.424   9.200  25.273  1.00  0.00     0.024 C 
ENDBRANCH   5  29
TORSDOF 7
ENDMDL
MODEL 3
REMARK VINA RESULT: -10.011427120      0.963      1.181
REMARK  7 active torsions:
REMARK  status: ('A' for Active; 'I' for Inactive)
REMARK    1  A    between atoms: C2_2  and  C3_3 
REMARK    2  A    between atoms: C2_2  and  C13_16 
REMARK    3  A    between atoms: C4_4  and  C5_5 
REMARK    4  A    between atoms: C9_9  and  O1_10 
REMARK    5  A    between atoms: C13_16  and  O3_17 
REMARK    6  A    between atoms: C13_16  and  C14_19 
REMARK    7  A    between atoms: C17_23  and  C18_24 
ROOT
HETATM    1  C14 UNL     1       3.776  12.590  24.747  1.00  0.00     0.162 C 
HETATM    2  O4  UNL     1       4.970  12.414  25.445  1.00  0.00    -0.365 OA
HETATM    3  C15 UNL     1       5.320  13.595  25.979  1.00  0.00     0.128 A 
HETATM    4  C16 UNL     1       6.230  13.899  27.045  1.00  0.00     0.087 A 
HETATM    5  C17 UNL     1       6.567  14.322  25.669  1.00  0.00     0.110 A 
HETATM    6  O6  UNL     1       5.828  15.219  24.939  1.00  0.00    -0.361 OA
HETATM    7  C25 UNL     1       4.581  14.715  25.307  1.00  0.00     0.098 C 
HETATM    8  C26 UNL     1       3.875  15.667  26.220  1.00  0.00     0.050 C 
HETATM    9  C27 UNL     1       3.785  14.026  24.262  1.00  0.00     0.051 C 
HETATM   10  C28 UNL     1       2.348  14.497  24.198  1.00  0.00     0.016 C 
ENDROOT
BRANCH   1  11
HETATM   11  C13 UNL     1       3.731  11.710  23.527  1.00  0.00     0.179 C 
BRANCH  11  12
HETATM   12  C2  UNL     1       3.840  10.274  23.882  1.00  0.00    -0.037 C 
HETATM   13  C1  UNL     1       5.065   9.808  24.066  1.00  0.00     0.021 C 
BRANCH  12  14
HETATM   14  C3  UNL     1       2.730   9.372  24.083  1.00  0.00     0.006 C 
HETATM   15  C4  UNL     1       2.577   8.503  25.055  1.00  0.00    -0.013 C 
BRANCH  15  16
HETATM   16  C5  UNL     1       1.341   7.670  25.056  1.00  0.00     0.015 C 
HETATM   17  C6  UNL     1       0.904   7.181  23.714  1.00  0.00     0.023 C 
HETATM   18  C7  UNL     1       1.371   6.557  26.115  1.00  0.00     0.073 C 
HETATM   19  C8  UNL     1      -0.139   6.807  26.248  1.00  0.00     0.052 C 
HETATM   20  C12 UNL     1       1.965   7.021  27.381  1.00  0.00     0.132 C 
HETATM   21  C9  UNL     1       0.179   8.252  25.830  1.00  0.00     0.070 C 
HETATM   22  C10 UNL     1       0.558   9.045  27.057  1.00  0.00     0.046 C 
HETATM   23  C11 UNL     1       1.444   8.277  27.982  1.00  0.00     0.081 C 
HETATM   24  O2  UNL     1       2.851   6.423  27.946  1.00  0.00    -0.298 OA
BRANCH  21  25
HETATM   25  O1  UNL     1      -0.842   8.777  25.076  1.00  0.00    -0.389 OA
ATOM     26  H1  UNL     1      -1.504   8.161  24.785  1.00  0.00     0.210 HD
ENDBRANCH  21  25
ENDBRANCH  15  16
ENDBRANCH  12  14
ENDBRANCH  11  12
BRANCH  11  27
HETATM   27  O3  UNL     1       2.485  11.868  22.879  1.00  0.00    -0.388 OA
ATOM     28  H3  UNL     1       2.676  12.187  22.005  1.00  0.00     0.210 HD
ENDBRANCH  11  27
ENDBRANCH   1  11
BRANCH   5  29
HETATM   29  C18 UNL     1       7.765  13.651  25.045  1.00  0.00     0.009 C 
HETATM   30  C19 UNL     1       7.389  12.883  23.793  1.00  0.00     0.023 C 
HETATM   31  C20 UNL     1       8.437  12.720  25.955  1.00  0.00    -0.011 C 
HETATM   32  C21 UNL     1       9.541  12.996  26.589  1.00  0.00     0.047 C 
HETATM   33  C22 UNL     1      10.191  14.279  26.428  1.00  0.00     0.149 C 
HETATM   34  O5  UNL     1      11.376  14.488  26.817  1.00  0.00    -0.293 OA
HETATM   35  C23 UNL     1       9.421  15.373  25.777  1.00  0.00     0.084 C 
HETATM   36  C24 UNL     1       8.688  14.786  24.584  1.00  0.00     0.024 C 
ENDBRANCH   5  29
TORSDOF 7
ENDMDL
MODEL 4
REMARK VINA RESULT: -9.977587832      0.767      2.122
REMARK  7 active torsions:
REMARK  status: ('A' for Active; 'I' for Inactive)
REMARK    1  A    between atoms: C2_2  and  C3_3 
REMARK    2  A    between atoms: C2_2  and  C13_16 
REMARK    3  A    between atoms: C4_4  and  C5_5 
REMARK    4  A    between atoms: C9_9  and  O1_10 
REMARK    5  A    between atoms: C13_16  and  O3_17 
REMARK    6  A    between atoms: C13_16  and  C14_19 
REMARK    7  A    between atoms: C17_23  and  C18_24 
ROOT
HETATM    1  C14 UNL     1       3.852  12.714  25.042  1.00  0.00     0.162 C 
HETATM    2  O4  UNL     1       5.041  12.612  25.762  1.00  0.00    -0.365 OA
HETATM    3  C15 UNL     1       5.419  13.848  26.122  1.00  0.00     0.128 A 
HETATM    4  C16 UNL     1       6.337  14.281  27.135  1.00  0.00     0.087 A 
HETATM    5  C17 UNL     1       6.683  14.494  25.714  1.00  0.00     0.110 A 
HETATM    6  O6  UNL     1       5.965  15.293  24.860  1.00  0.00    -0.361 OA
HETATM    7  C25 UNL     1       4.707  14.877  25.293  1.00  0.00     0.098 C 
HETATM    8  C26 UNL     1       4.024  15.966  26.058  1.00  0.00     0.050 C 
HETATM    9  C27 UNL     1       3.894  14.064  24.355  1.00  0.00     0.051 C 
HETATM   10  C28 UNL     1       2.468  14.555  24.220  1.00  0.00     0.016 C 
ENDROOT
BRANCH   1  11
HETATM   11  C13 UNL     1       3.784  11.669  23.960  1.00  0.00     0.179 C 
BRANCH  11  12
HETATM   12  C2  UNL     1       4.146  10.324  24.473  1.00  0.00    -0.037 C 
HETATM   13  C1  UNL     1       5.398   9.943  24.284  1.00  0.00     0.021 C 
BRANCH  12  14
HETATM   14  C3  UNL     1       3.262   9.434  25.190  1.00  0.00     0.006 C 
HETATM   15  C4  UNL     1       2.416   9.752  26.142  1.00  0.00    -0.013 C 
BRANCH  15  16
HETATM   16  C5  UNL     1       1.602   8.657  26.744  1.00  0.00     0.015 C 
HETATM   17  C6  UNL     1       2.347   7.745  27.663  1.00  0.00     0.023 C 
HETATM   18  C7  UNL     1       0.278   9.155  27.343  1.00  0.00     0.073 C 
HETATM   19  C8  UNL     1      -0.302   7.812  26.872  1.00  0.00     0.052 C 
HETATM   20  C12 UNL     1      -0.355  10.181  26.496  1.00  0.00     0.132 C 
HETATM   21  C9  UNL     1       0.760   7.872  25.762  1.00  0.00     0.070 C 
HETATM   22  C10 UNL     1       0.214   8.672  24.604  1.00  0.00     0.046 C 
HETATM   23  C11 UNL     1      -0.533   9.885  25.050  1.00  0.00     0.081 C 
HETATM   24  O2  UNL     1      -0.732  11.245  26.929  1.00  0.00    -0.298 OA
BRANCH  21  25
HETATM   25  O1  UNL     1       1.214   6.614  25.453  1.00  0.00    -0.389 OA
ATOM     26  H1  UNL     1       1.973   6.314  25.939  1.00  0.00     0.210 HD
ENDBRANCH  21  25
ENDBRANCH  15  16
ENDBRANCH  12  14
ENDBRANCH  11  12
BRANCH  11  27
HETATM   27  O3  UNL     1       2.459  11.571  23.482  1.00  0.00    -0.388 OA
ATOM     28  H3  UNL     1       1.894  11.835  24.199  1.00  0.00     0.210 HD
ENDBRANCH  11  27
ENDBRANCH   1  11
BRANCH   5  29
HETATM   29  C18 UNL     1       7.865  13.712  25.196  1.00  0.00     0.009 C 
HETATM   30  C19 UNL     1       7.501  12.890  23.975  1.00  0.00     0.023 C 
HETATM   31  C20 UNL     1       8.429  12.802  26.195  1.00  0.00    -0.011 C 
HETATM   32  C21 UNL     1       9.516  13.050  26.869  1.00  0.00     0.047 C 
HETATM   33  C22 UNL     1      10.255  14.278  26.665  1.00  0.00     0.149 C 
HETATM   34  O5  UNL     1      11.430  14.438  27.103  1.00  0.00    -0.293 OA
HETATM   35  C23 UNL     1       9.590  15.373  25.909  1.00  0.00     0.084 C 
HETATM   36  C24 UNL     1       8.881  14.757  24.716  1.00  0.00     0.024 C 
ENDBRANCH   5  29
TORSDOF 7
ENDMDL
MODEL 5
REMARK VINA RESULT: -9.451998990      3.448      4.713
REMARK  7 active torsions:
REMARK  status: ('A' for Active; 'I' for Inactive)
REMARK    1  A    between atoms: C2_2  and  C3_3 
REMARK    2  A    between atoms: C2_2  and  C13_16 
REMARK    3  A    between atoms: C4_4  and  C5_5 
REMARK    4  A    between atoms: C9_9  and  O1_10 
REMARK    5  A    between atoms: C13_16  and  O3_17 
REMARK    6  A    between atoms: C13_16  and  C14_19 
REMARK    7  A    between atoms: C17_23  and  C18_24 
ROOT
HETATM    1  C14 UNL     1       0.945  10.948  25.142  1.00  0.00     0.162 C 
HETATM    2  O4  UNL     1       2.250  10.494  25.323  1.00  0.00    -0.365 OA
HETATM    3  C15 UNL     1       3.078  11.340  24.691  1.00  0.00     0.128 A 
HETATM    4  C16 UNL     1       4.490  11.545  24.841  1.00  0.00     0.087 A 
HETATM    5  C17 UNL     1       3.978  10.965  23.582  1.00  0.00     0.110 A 
HETATM    6  O6  UNL     1       3.139  11.625  22.718  1.00  0.00    -0.361 OA
HETATM    7  C25 UNL     1       2.320  12.176  23.702  1.00  0.00     0.098 C 
HETATM    8  C26 UNL     1       2.534  13.653  23.801  1.00  0.00     0.050 C 
HETATM    9  C27 UNL     1       0.932  11.661  23.805  1.00  0.00     0.051 C 
HETATM   10  C28 UNL     1      -0.108  12.758  23.880  1.00  0.00     0.016 C 
ENDROOT
BRANCH   1  11
HETATM   11  C13 UNL     1      -0.018   9.795  25.039  1.00  0.00     0.179 C 
BRANCH  11  12
HETATM   12  C2  UNL     1      -0.125   9.053  26.319  1.00  0.00    -0.037 C 
HETATM   13  C1  UNL     1      -0.446   9.768  27.385  1.00  0.00     0.021 C 
BRANCH  12  14
HETATM   14  C3  UNL     1       0.049   7.628  26.480  1.00  0.00     0.006 C 
HETATM   15  C4  UNL     1       0.717   6.815  25.696  1.00  0.00    -0.013 C 
BRANCH  15  16
HETATM   16  C5  UNL     1       0.757   5.371  26.062  1.00  0.00     0.015 C 
HETATM   17  C6  UNL     1      -0.489   4.840  26.691  1.00  0.00     0.023 C 
HETATM   18  C7  UNL     1       1.275   4.479  24.923  1.00  0.00     0.073 C 
HETATM   19  C8  UNL     1       1.910   3.631  26.037  1.00  0.00     0.052 C 
HETATM   20  C12 UNL     1       2.402   5.103  24.207  1.00  0.00     0.132 C 
HETATM   21  C9  UNL     1       1.984   4.941  26.836  1.00  0.00     0.070 C 
HETATM   22  C10 UNL     1       3.257   5.666  26.473  1.00  0.00     0.046 C 
HETATM   23  C11 UNL     1       3.544   5.616  25.008  1.00  0.00     0.081 C 
HETATM   24  O2  UNL     1       2.432   5.212  23.003  1.00  0.00    -0.298 OA
BRANCH  21  25
HETATM   25  O1  UNL     1       1.797   4.707  28.176  1.00  0.00    -0.389 OA
ATOM     26  H1  UNL     1       0.903   4.533  28.447  1.00  0.00     0.210 HD
ENDBRANCH  21  25
ENDBRANCH  15  16
ENDBRANCH  12  14
ENDBRANCH  11  12
BRANCH  11  27
HETATM   27  O3  UNL     1      -1.311  10.286  24.752  1.00  0.00    -0.388 OA
ATOM     28  H3  UNL     1      -1.265  10.673  23.885  1.00  0.00     0.210 HD
ENDBRANCH  11  27
ENDBRANCH   1  11
BRANCH   5  29
HETATM   29  C18 UNL     1       4.371   9.536  23.302  1.00  0.00     0.009 C 
HETATM   30  C19 UNL     1       3.159   8.634  23.184  1.00  0.00     0.023 C 
HETATM   31  C20 UNL     1       5.249   8.974  24.331  1.00  0.00    -0.011 C 
HETATM   32  C21 UNL     1       6.537   8.837  24.191  1.00  0.00     0.047 C 
HETATM   33  C22 UNL     1       7.200   9.245  22.970  1.00  0.00     0.149 C 
HETATM   34  O5  UNL     1       8.386   8.900  22.700  1.00  0.00    -0.293 OA
HETATM   35  C23 UNL     1       6.439  10.098  22.017  1.00  0.00     0.084 C 
HETATM   36  C24 UNL     1       5.029   9.546  21.916  1.00  0.00     0.024 C 
ENDBRANCH   5  29
TORSDOF 7
ENDMDL
