MODEL 1
REMARK VINA RESULT: -9.674955441      0.000      0.000
REMARK  7 active torsions:
REMARK  status: ('A' for Active; 'I' for Inactive)
REMARK    1  A    between atoms: C2_2  and  C4_4 
REMARK    2  A    between atoms: C2_2  and  C11_13 
REMARK    3  A    between atoms: C4_4  and  C5_5 
REMARK    4  A    between atoms: C5_5  and  C6_6 
REMARK    5  A    between atoms: C15_17  and  O1_18 
REMARK    6  A    between atoms: C16_20  and  O2_21 
REMARK    7  A    between atoms: C26_33  and  O4_34 
ROOT
HETATM    1  C11 UNL     1       2.937  12.009  24.262  1.00  0.00     0.129 C 
HETATM    2  C12 UNL     1       4.370  11.885  23.776  1.00  0.00     0.033 C 
HETATM    3  C13 UNL     1       5.284  11.223  24.771  1.00  0.00     0.010 C 
HETATM    4  C14 UNL     1       6.053  10.063  24.286  1.00  0.00     0.026 A 
HETATM    5  C15 UNL     1       6.987  10.326  23.139  1.00  0.00     0.152 A 
HETATM    6  C16 UNL     1       6.358   9.187  22.409  1.00  0.00     0.154 A 
HETATM    7  C17 UNL     1       5.341   8.999  23.551  1.00  0.00     0.055 A 
HETATM    8  C18 UNL     1       5.434   7.632  24.075  1.00  0.00     0.158 A 
HETATM    9  O3  UNL     1       4.487   6.841  23.208  1.00  0.00    -0.374 OA
HETATM   10  C19 UNL     1       4.367   6.881  24.554  1.00  0.00     0.159 A 
HETATM   11  C20 UNL     1       3.265   7.481  25.329  1.00  0.00     0.057 A 
HETATM   12  C21 UNL     1       2.429   6.555  26.171  1.00  0.00     0.011 A 
HETATM   13  C22 UNL     1       1.219   7.096  25.547  1.00  0.00     0.034 A 
HETATM   14  C23 UNL     1       1.425   5.644  25.645  1.00  0.00    -0.036 A 
HETATM   15  C24 UNL     1       0.547   4.963  26.706  1.00  0.00     0.015 C 
HETATM   16  C25 UNL     1       1.548   4.808  24.430  1.00  0.00     0.015 C 
HETATM   17  C26 UNL     1       2.070   7.966  24.646  1.00  0.00     0.071 A 
HETATM   18  C27 UNL     1       1.779   9.442  24.973  1.00  0.00     0.065 C 
HETATM   19  C28 UNL     1       1.426  10.251  23.797  1.00  0.00     0.171 C 
HETATM   20  O5  UNL     1       2.159  11.295  23.418  1.00  0.00    -0.385 OA
ENDROOT
BRANCH   1  21
HETATM   21  C2  UNL     1       2.446  13.474  24.282  1.00  0.00    -0.021 C 
HETATM   22  C1  UNL     1       1.207  13.683  25.042  1.00  0.00     0.017 C 
HETATM   23  C3  UNL     1       1.922  13.641  22.787  1.00  0.00     0.017 C 
BRANCH  21  24
HETATM   24  C4  UNL     1       3.522  14.468  24.318  1.00  0.00     0.016 C 
BRANCH  24  25
HETATM   25  C5  UNL     1       4.063  15.066  25.532  1.00  0.00     0.041 C 
BRANCH  25  26
HETATM   26  C6  UNL     1       5.506  14.887  25.743  1.00  0.00    -0.043 A 
HETATM   27  C7  UNL     1       6.297  14.909  24.582  1.00  0.00     0.010 A 
HETATM   28  C8  UNL     1       7.659  14.711  24.643  1.00  0.00     0.018 A 
HETATM   29  C9  UNL     1       8.285  14.483  25.851  1.00  0.00     0.087 A 
HETATM   30  N1  UNL     1       7.517  14.463  26.950  1.00  0.00    -0.375 N 
HETATM   31  C10 UNL     1       6.168  14.658  26.906  1.00  0.00     0.094 A 
ATOM     32  H1  UNL     1       7.960  14.296  27.854  1.00  0.00     0.164 HD
ENDBRANCH  25  26
ENDBRANCH  24  25
ENDBRANCH  21  24
ENDBRANCH   1  21
BRANCH   5  33
HETATM   33  O1  UNL     1       6.853  11.549  22.502  1.00  0.00    -0.393 OA
ATOM     34  H1  UNL     1       7.658  12.013  22.302  1.00  0.00     0.210 HD
ENDBRANCH   5  33
BRANCH  17  35
HETATM   35  O4  UNL     1       1.859   7.606  23.328  1.00  0.00    -0.389 OA
ATOM     36  H4  UNL     1       1.002   7.749  22.944  1.00  0.00     0.210 HD
ENDBRANCH  17  35
BRANCH   6  37
HETATM   37  O2  UNL     1       5.824   9.413  21.175  1.00  0.00    -0.393 OA
ATOM     38  H2  UNL     1       5.589   8.668  20.635  1.00  0.00     0.210 HD
ENDBRANCH   6  37
TORSDOF 7
ENDMDL
MODEL 2
REMARK VINA RESULT: -9.644145314      0.972      1.075
REMARK  7 active torsions:
REMARK  status: ('A' for Active; 'I' for Inactive)
REMARK    1  A    between atoms: C2_2  and  C4_4 
REMARK    2  A    between atoms: C2_2  and  C11_13 
REMARK    3  A    between atoms: C4_4  and  C5_5 
REMARK    4  A    between atoms: C5_5  and  C6_6 
REMARK    5  A    between atoms: C15_17  and  O1_18 
REMARK    6  A    between atoms: C16_20  and  O2_21 
REMARK    7  A    between atoms: C26_33  and  O4_34 
ROOT
HETATM    1  C11 UNL     1       2.530  12.265  24.410  1.00  0.00     0.129 C 
HETATM    2  C12 UNL     1       3.858  11.845  23.806  1.00  0.00     0.033 C 
HETATM    3  C13 UNL     1       4.763  11.143  24.780  1.00  0.00     0.010 C 
HETATM    4  C14 UNL     1       5.274   9.823  24.368  1.00  0.00     0.026 A 
HETATM    5  C15 UNL     1       6.098   9.798  23.112  1.00  0.00     0.152 A 
HETATM    6  C16 UNL     1       5.213   8.715  22.593  1.00  0.00     0.154 A 
HETATM    7  C17 UNL     1       4.319   8.827  23.843  1.00  0.00     0.055 A 
HETATM    8  C18 UNL     1       4.253   7.527  24.521  1.00  0.00     0.158 A 
HETATM    9  O3  UNL     1       3.096   6.825  23.854  1.00  0.00    -0.374 OA
HETATM   10  C19 UNL     1       3.143   7.026  25.191  1.00  0.00     0.159 A 
HETATM   11  C20 UNL     1       2.250   7.886  25.990  1.00  0.00     0.057 A 
HETATM   12  C21 UNL     1       1.381   7.212  27.018  1.00  0.00     0.011 A 
HETATM   13  C22 UNL     1       0.208   7.885  26.453  1.00  0.00     0.034 A 
HETATM   14  C23 UNL     1       0.189   6.438  26.708  1.00  0.00    -0.036 A 
HETATM   15  C24 UNL     1      -0.656   6.035  27.926  1.00  0.00     0.015 C 
HETATM   16  C25 UNL     1       0.033   5.471  25.600  1.00  0.00     0.015 C 
HETATM   17  C26 UNL     1       1.076   8.496  25.372  1.00  0.00     0.071 A 
HETATM   18  C27 UNL     1       1.066  10.026  25.543  1.00  0.00     0.065 C 
HETATM   19  C28 UNL     1       0.713  10.756  24.315  1.00  0.00     0.171 C 
HETATM   20  O5  UNL     1       1.554  11.612  23.741  1.00  0.00    -0.385 OA
ENDROOT
BRANCH   1  21
HETATM   21  C2  UNL     1       2.286  13.787  24.298  1.00  0.00    -0.021 C 
HETATM   22  C1  UNL     1       1.081  14.256  24.995  1.00  0.00     0.017 C 
HETATM   23  C3  UNL     1       1.831  13.911  22.776  1.00  0.00     0.017 C 
BRANCH  21  24
HETATM   24  C4  UNL     1       3.510  14.593  24.294  1.00  0.00     0.016 C 
BRANCH  24  25
HETATM   25  C5  UNL     1       4.084  15.239  25.467  1.00  0.00     0.041 C 
BRANCH  25  26
HETATM   26  C6  UNL     1       5.509  14.975  25.708  1.00  0.00    -0.043 A 
HETATM   27  C7  UNL     1       6.320  14.919  24.560  1.00  0.00     0.010 A 
HETATM   28  C8  UNL     1       7.664  14.637  24.651  1.00  0.00     0.018 A 
HETATM   29  C9  UNL     1       8.255  14.399  25.875  1.00  0.00     0.087 A 
HETATM   30  N1  UNL     1       7.470  14.454  26.960  1.00  0.00    -0.375 N 
HETATM   31  C10 UNL     1       6.136  14.733  26.887  1.00  0.00     0.094 A 
ATOM     32  H1  UNL     1       7.886  14.281  27.875  1.00  0.00     0.164 HD
ENDBRANCH  25  26
ENDBRANCH  24  25
ENDBRANCH  21  24
ENDBRANCH   1  21
BRANCH   5  33
HETATM   33  O1  UNL     1       6.088  10.952  22.345  1.00  0.00    -0.393 OA
ATOM     34  H1  UNL     1       6.897  11.170  21.897  1.00  0.00     0.210 HD
ENDBRANCH   5  33
BRANCH  17  35
HETATM   35  O4  UNL     1       0.657   8.041  24.136  1.00  0.00    -0.389 OA
ATOM     36  H4  UNL     1      -0.170   7.578  24.073  1.00  0.00     0.210 HD
ENDBRANCH  17  35
BRANCH   6  37
HETATM   37  O2  UNL     1       4.581   8.899  21.399  1.00  0.00    -0.393 OA
ATOM     38  H2  UNL     1       3.673   9.176  21.399  1.00  0.00     0.210 HD
ENDBRANCH   6  37
TORSDOF 7
ENDMDL
MODEL 3
REMARK VINA RESULT: -9.510249540      1.982      4.052
REMARK  7 active torsions:
REMARK  status: ('A' for Active; 'I' for Inactive)
REMARK    1  A    between atoms: C2_2  and  C4_4 
REMARK    2  A    between atoms: C2_2  and  C11_13 
REMARK    3  A    between atoms: C4_4  and  C5_5 
REMARK    4  A    between atoms: C5_5  and  C6_6 
REMARK    5  A    between atoms: C15_17  and  O1_18 
REMARK    6  A    between atoms: C16_20  and  O2_21 
REMARK    7  A    between atoms: C26_33  and  O4_34 
ROOT
HETATM    1  C11 UNL     1       6.411   9.380  23.526  1.00  0.00     0.129 C 
HETATM    2  C12 UNL     1       6.974   7.977  23.384  1.00  0.00     0.033 C 
HETATM    3  C13 UNL     1       7.083   7.241  24.691  1.00  0.00     0.010 C 
HETATM    4  C14 UNL     1       6.435   5.919  24.757  1.00  0.00     0.026 A 
HETATM    5  C15 UNL     1       6.937   4.890  23.784  1.00  0.00     0.152 A 
HETATM    6  C16 UNL     1       5.527   4.659  23.353  1.00  0.00     0.154 A 
HETATM    7  C17 UNL     1       5.043   5.789  24.282  1.00  0.00     0.055 A 
HETATM    8  C18 UNL     1       4.050   5.262  25.225  1.00  0.00     0.158 A 
HETATM    9  O3  UNL     1       2.738   5.407  24.495  1.00  0.00    -0.374 OA
HETATM   10  C19 UNL     1       2.951   5.961  25.710  1.00  0.00     0.159 A 
HETATM   11  C20 UNL     1       3.012   7.400  26.030  1.00  0.00     0.057 A 
HETATM   12  C21 UNL     1       1.955   7.947  26.951  1.00  0.00     0.011 A 
HETATM   13  C22 UNL     1       1.656   8.994  25.971  1.00  0.00     0.034 A 
HETATM   14  C23 UNL     1       0.575   8.197  26.566  1.00  0.00    -0.036 A 
HETATM   15  C24 UNL     1      -0.260   8.961  27.604  1.00  0.00     0.015 C 
HETATM   16  C25 UNL     1      -0.275   7.321  25.729  1.00  0.00     0.015 C 
HETATM   17  C26 UNL     1       2.664   8.390  25.015  1.00  0.00     0.071 A 
HETATM   18  C27 UNL     1       3.797   9.408  24.791  1.00  0.00     0.065 C 
HETATM   19  C28 UNL     1       4.072   9.686  23.373  1.00  0.00     0.171 C 
HETATM   20  O5  UNL     1       5.257   9.428  22.824  1.00  0.00    -0.385 OA
ENDROOT
BRANCH   1  21
HETATM   21  C2  UNL     1       7.376  10.459  22.982  1.00  0.00    -0.021 C 
HETATM   22  C1  UNL     1       8.260   9.988  21.908  1.00  0.00     0.017 C 
HETATM   23  C3  UNL     1       8.402  10.589  24.193  1.00  0.00     0.017 C 
BRANCH  21  24
HETATM   24  C4  UNL     1       6.807  11.809  22.945  1.00  0.00     0.016 C 
BRANCH  24  25
HETATM   25  C5  UNL     1       6.984  12.815  23.986  1.00  0.00     0.041 C 
BRANCH  25  26
HETATM   26  C6  UNL     1       5.782  13.578  24.346  1.00  0.00    -0.043 A 
HETATM   27  C7  UNL     1       6.007  14.892  24.791  1.00  0.00     0.010 A 
HETATM   28  C8  UNL     1       4.965  15.695  25.198  1.00  0.00     0.018 A 
HETATM   29  C9  UNL     1       3.667  15.229  25.182  1.00  0.00     0.087 A 
HETATM   30  N1  UNL     1       3.467  13.973  24.756  1.00  0.00    -0.375 N 
HETATM   31  C10 UNL     1       4.488  13.166  24.349  1.00  0.00     0.094 A 
ATOM     32  H1  UNL     1       2.515  13.609  24.736  1.00  0.00     0.164 HD
ENDBRANCH  25  26
ENDBRANCH  24  25
ENDBRANCH  21  24
ENDBRANCH   1  21
BRANCH   5  33
HETATM   33  O1  UNL     1       7.768   5.350  22.775  1.00  0.00    -0.393 OA
ATOM     34  H1  UNL     1       7.731   4.880  21.950  1.00  0.00     0.210 HD
ENDBRANCH   5  33
BRANCH  17  35
HETATM   35  O4  UNL     1       2.015   7.974  23.868  1.00  0.00    -0.389 OA
ATOM     36  H4  UNL     1       1.070   7.885  23.881  1.00  0.00     0.210 HD
ENDBRANCH  17  35
BRANCH   6  37
HETATM   37  O2  UNL     1       5.211   4.804  22.035  1.00  0.00    -0.393 OA
ATOM     38  H2  UNL     1       5.591   4.203  21.405  1.00  0.00     0.210 HD
ENDBRANCH   6  37
TORSDOF 7
ENDMDL
MODEL 4
REMARK VINA RESULT: -9.372681155      1.535      2.322
REMARK  7 active torsions:
REMARK  status: ('A' for Active; 'I' for Inactive)
REMARK    1  A    between atoms: C2_2  and  C4_4 
REMARK    2  A    between atoms: C2_2  and  C11_13 
REMARK    3  A    between atoms: C4_4  and  C5_5 
REMARK    4  A    between atoms: C5_5  and  C6_6 
REMARK    5  A    between atoms: C15_17  and  O1_18 
REMARK    6  A    between atoms: C16_20  and  O2_21 
REMARK    7  A    between atoms: C26_33  and  O4_34 
ROOT
HETATM    1  C11 UNL     1       4.934  11.983  24.797  1.00  0.00     0.129 C 
HETATM    2  C12 UNL     1       5.788  11.312  23.736  1.00  0.00     0.033 C 
HETATM    3  C13 UNL     1       6.413  10.024  24.199  1.00  0.00     0.010 C 
HETATM    4  C14 UNL     1       6.171   8.837  23.358  1.00  0.00     0.026 A 
HETATM    5  C15 UNL     1       6.660   8.924  21.940  1.00  0.00     0.152 A 
HETATM    6  C16 UNL     1       5.299   8.523  21.482  1.00  0.00     0.154 A 
HETATM    7  C17 UNL     1       4.788   8.540  22.935  1.00  0.00     0.055 A 
HETATM    8  C18 UNL     1       4.241   7.224  23.282  1.00  0.00     0.158 A 
HETATM    9  O3  UNL     1       2.795   7.305  22.857  1.00  0.00    -0.374 OA
HETATM   10  C19 UNL     1       3.158   7.001  24.124  1.00  0.00     0.159 A 
HETATM   11  C20 UNL     1       2.919   7.812  25.333  1.00  0.00     0.057 A 
HETATM   12  C21 UNL     1       2.026   7.224  26.393  1.00  0.00     0.011 A 
HETATM   13  C22 UNL     1       1.226   8.452  26.384  1.00  0.00     0.034 A 
HETATM   14  C23 UNL     1       0.578   7.136  26.292  1.00  0.00    -0.036 A 
HETATM   15  C24 UNL     1      -0.136   6.705  27.583  1.00  0.00     0.015 C 
HETATM   16  C25 UNL     1      -0.198   6.750  25.093  1.00  0.00     0.015 C 
HETATM   17  C26 UNL     1       2.080   9.004  25.261  1.00  0.00     0.071 A 
HETATM   18  C27 UNL     1       2.813  10.256  25.774  1.00  0.00     0.065 C 
HETATM   19  C28 UNL     1       2.637  11.438  24.917  1.00  0.00     0.171 C 
HETATM   20  O5  UNL     1       3.668  12.037  24.326  1.00  0.00    -0.385 OA
ENDROOT
BRANCH   1  21
HETATM   21  C2  UNL     1       5.413  13.417  25.118  1.00  0.00    -0.021 C 
HETATM   22  C1  UNL     1       5.101  13.864  26.482  1.00  0.00     0.017 C 
HETATM   23  C3  UNL     1       4.380  14.281  24.267  1.00  0.00     0.017 C 
BRANCH  21  24
HETATM   24  C4  UNL     1       6.681  13.784  24.482  1.00  0.00     0.016 C 
BRANCH  24  25
HETATM   25  C5  UNL     1       7.532  14.890  24.901  1.00  0.00     0.041 C 
BRANCH  25  26
HETATM   26  C6  UNL     1       8.636  14.540  25.805  1.00  0.00    -0.043 A 
HETATM   27  C7  UNL     1       9.838  15.238  25.595  1.00  0.00     0.010 A 
HETATM   28  C8  UNL     1      10.958  14.970  26.350  1.00  0.00     0.018 A 
HETATM   29  C9  UNL     1      10.932  14.005  27.335  1.00  0.00     0.087 A 
HETATM   30  N1  UNL     1       9.779  13.346  27.523  1.00  0.00    -0.375 N 
HETATM   31  C10 UNL     1       8.660  13.600  26.784  1.00  0.00     0.094 A 
ATOM     32  H1  UNL     1       9.736  12.628  28.246  1.00  0.00     0.164 HD
ENDBRANCH  25  26
ENDBRANCH  24  25
ENDBRANCH  21  24
ENDBRANCH   1  21
BRANCH   5  33
HETATM   33  O1  UNL     1       7.059  10.176  21.501  1.00  0.00    -0.393 OA
ATOM     34  H1  UNL     1       7.106  10.299  20.560  1.00  0.00     0.210 HD
ENDBRANCH   5  33
BRANCH  17  35
HETATM   35  O4  UNL     1       1.293   9.202  24.142  1.00  0.00    -0.389 OA
ATOM     36  H4  UNL     1       0.958  10.073  23.964  1.00  0.00     0.210 HD
ENDBRANCH  17  35
BRANCH   6  37
HETATM   37  O2  UNL     1       4.632   9.336  20.613  1.00  0.00    -0.393 OA
ATOM     38  H2  UNL     1       3.778   9.667  20.861  1.00  0.00     0.210 HD
ENDBRANCH   6  37
TORSDOF 7
ENDMDL
MODEL 5
REMARK VINA RESULT: -9.124009475      1.691      2.221
REMARK  7 active torsions:
REMARK  status: ('A' for Active; 'I' for Inactive)
REMARK    1  A    between atoms: C2_2  and  C4_4 
REMARK    2  A    between atoms: C2_2  and  C11_13 
REMARK    3  A    between atoms: C4_4  and  C5_5 
REMARK    4  A    between atoms: C5_5  and  C6_6 
REMARK    5  A    between atoms: C15_17  and  O1_18 
REMARK    6  A    between atoms: C16_20  and  O2_21 
REMARK    7  A    between atoms: C26_33  and  O4_34 
ROOT
HETATM    1  C11 UNL     1       2.028  11.681  24.358  1.00  0.00     0.129 C 
HETATM    2  C12 UNL     1       3.086  10.997  23.511  1.00  0.00     0.033 C 
HETATM    3  C13 UNL     1       4.246  10.473  24.311  1.00  0.00     0.010 C 
HETATM    4  C14 UNL     1       4.580   9.049  24.130  1.00  0.00     0.026 A 
HETATM    5  C15 UNL     1       4.957   8.633  22.736  1.00  0.00     0.152 A 
HETATM    6  C16 UNL     1       3.937   7.547  22.821  1.00  0.00     0.154 A 
HETATM    7  C17 UNL     1       3.494   8.052  24.208  1.00  0.00     0.055 A 
HETATM    8  C18 UNL     1       3.632   6.974  25.193  1.00  0.00     0.158 A 
HETATM    9  O3  UNL     1       2.313   6.245  25.125  1.00  0.00    -0.374 OA
HETATM   10  C19 UNL     1       2.789   6.765  26.279  1.00  0.00     0.159 A 
HETATM   11  C20 UNL     1       2.211   7.880  27.054  1.00  0.00     0.057 A 
HETATM   12  C21 UNL     1       1.709   7.570  28.439  1.00  0.00     0.011 A 
HETATM   13  C22 UNL     1       0.426   8.194  28.102  1.00  0.00     0.034 A 
HETATM   14  C23 UNL     1       0.470   6.864  28.726  1.00  0.00    -0.036 A 
HETATM   15  C24 UNL     1       0.055   6.860  30.205  1.00  0.00     0.015 C 
HETATM   16  C25 UNL     1      -0.046   5.672  28.019  1.00  0.00     0.015 C 
HETATM   17  C26 UNL     1       0.909   8.429  26.686  1.00  0.00     0.071 A 
HETATM   18  C27 UNL     1       0.975   9.947  26.437  1.00  0.00     0.065 C 
HETATM   19  C28 UNL     1       0.256  10.381  25.230  1.00  0.00     0.171 C 
HETATM   20  O5  UNL     1       0.879  10.981  24.219  1.00  0.00    -0.385 OA
ENDROOT
BRANCH   1  21
HETATM   21  C2  UNL     1       1.781  13.144  23.925  1.00  0.00    -0.021 C 
HETATM   22  C1  UNL     1       0.520  13.713  24.418  1.00  0.00     0.017 C 
HETATM   23  C3  UNL     1       1.449  12.952  22.379  1.00  0.00     0.017 C 
BRANCH  21  24
HETATM   24  C4  UNL     1       2.994  13.963  23.854  1.00  0.00     0.016 C 
BRANCH  24  25
HETATM   25  C5  UNL     1       3.564  14.704  24.972  1.00  0.00     0.041 C 
BRANCH  25  26
HETATM   26  C6  UNL     1       5.012  14.557  25.164  1.00  0.00    -0.043 A 
HETATM   27  C7  UNL     1       5.674  13.760  24.213  1.00  0.00     0.010 A 
HETATM   28  C8  UNL     1       7.025  13.511  24.308  1.00  0.00     0.018 A 
HETATM   29  C9  UNL     1       7.769  14.038  25.342  1.00  0.00     0.087 A 
HETATM   30  N1  UNL     1       7.125  14.796  26.242  1.00  0.00    -0.375 N 
HETATM   31  C10 UNL     1       5.787  15.052  26.163  1.00  0.00     0.094 A 
ATOM     32  H1  UNL     1       7.656  15.195  27.016  1.00  0.00     0.164 HD
ENDBRANCH  25  26
ENDBRANCH  24  25
ENDBRANCH  21  24
ENDBRANCH   1  21
BRANCH   5  33
HETATM   33  O1  UNL     1       4.716   9.556  21.731  1.00  0.00    -0.393 OA
ATOM     34  H1  UNL     1       4.912   9.277  20.844  1.00  0.00     0.210 HD
ENDBRANCH   5  33
BRANCH  17  35
HETATM   35  O4  UNL     1       0.110   7.725  25.805  1.00  0.00    -0.389 OA
ATOM     36  H4  UNL     1      -0.828   7.705  25.952  1.00  0.00     0.210 HD
ENDBRANCH  17  35
BRANCH   6  37
HETATM   37  O2  UNL     1       2.958   7.489  21.874  1.00  0.00    -0.393 OA
ATOM     38  H2  UNL     1       2.883   6.707  21.341  1.00  0.00     0.210 HD
ENDBRANCH   6  37
TORSDOF 7
ENDMDL
