MODEL 1
REMARK VINA RESULT: -7.204059793      0.000      0.000
REMARK  6 active torsions:
REMARK  status: ('A' for Active; 'I' for Inactive)
REMARK    1  A    between atoms: C3_4  and  C4_5 
REMARK    2  A    between atoms: C4_5  and  O2_6 
REMARK    3  A    between atoms: C5_8  and  O3_9 
REMARK    4  A    between atoms: C13_20  and  C14_21 
REMARK    5  A    between atoms: C18_25  and  N1_26 
REMARK       I    between atoms: N1_26  and  C20_28 
REMARK    6  A    between atoms: C20_28  and  C21_30 
ROOT
HETATM    1  C1  UNL     1      -0.605   4.948  27.069  1.00  0.00     0.047 C 
HETATM    2  C2  UNL     1       0.678   5.256  27.175  1.00  0.00     0.050 C 
HETATM    3  O1  UNL     1       1.579   4.365  27.808  1.00  0.00    -0.345 OA
HETATM    4  C3  UNL     1       2.744   5.047  28.189  1.00  0.00     0.181 C 
HETATM    5  C5  UNL     1       2.853   6.121  27.162  1.00  0.00     0.165 C 
HETATM    6  C6  UNL     1       1.411   6.439  26.727  1.00  0.00     0.046 C 
HETATM    7  C7  UNL     1       1.058   7.716  27.455  1.00  0.00     0.022 C 
HETATM    8  C8  UNL     1       0.588   7.398  28.870  1.00  0.00     0.015 C 
HETATM    9  C9  UNL     1      -0.002   8.483  26.821  1.00  0.00    -0.023 C 
HETATM   10  C10 UNL     1      -0.065   9.608  26.217  1.00  0.00     0.004 C 
HETATM   11  C11 UNL     1       0.914  10.670  25.878  1.00  0.00     0.184 C 
HETATM   12  O4  UNL     1       0.031  11.765  25.500  1.00  0.00    -0.309 OA
HETATM   13  C12 UNL     1      -0.335  11.422  24.211  1.00  0.00     0.270 C 
HETATM   14  O5  UNL     1      -1.350  11.253  23.571  1.00  0.00    -0.264 OA
HETATM   15  C13 UNL     1       1.097  11.265  23.619  1.00  0.00     0.145 C 
HETATM   16  C18 UNL     1       1.692  10.312  24.698  1.00  0.00     0.081 C 
HETATM   17  C23 UNL     1       1.315   8.892  24.243  1.00  0.00     0.036 C 
HETATM   18  C24 UNL     1       2.167   7.853  24.828  1.00  0.00     0.008 C 
HETATM   19  C25 UNL     1       1.437   6.571  25.248  1.00  0.00    -0.000 C 
HETATM   20  C26 UNL     1       0.183   6.357  24.491  1.00  0.00     0.011 C 
ENDROOT
BRANCH   5  21
HETATM   21  O3  UNL     1       3.692   5.856  26.114  1.00  0.00    -0.392 OA
ATOM     22  H3  UNL     1       4.230   6.583  25.823  1.00  0.00     0.210 HD
ENDBRANCH   5  21
BRANCH   4  23
HETATM   23  C4  UNL     1       3.931   4.124  28.260  1.00  0.00     0.199 C 
BRANCH  23  24
HETATM   24  O2  UNL     1       5.040   4.886  28.648  1.00  0.00    -0.398 OA
ATOM     25  H2  UNL     1       5.459   4.439  29.373  1.00  0.00     0.209 HD
ENDBRANCH  23  24
ENDBRANCH   4  23
BRANCH  16  26
HETATM   26  N1  UNL     1       3.102  10.447  24.666  1.00  0.00    -0.343 N 
HETATM   27  C19 UNL     1       3.728  10.767  25.979  1.00  0.00     0.153 C 
HETATM   28  C20 UNL     1       4.044  10.393  23.624  1.00  0.00     0.219 C 
HETATM   29  O6  UNL     1       3.728  10.097  22.454  1.00  0.00    -0.273 OA
BRANCH  28  30
HETATM   30  C21 UNL     1       5.499  10.685  23.835  1.00  0.00     0.098 C 
HETATM   31  C22 UNL     1       5.747  12.149  23.609  1.00  0.00     0.014 C 
ENDBRANCH  28  30
ENDBRANCH  16  26
BRANCH  15  32
HETATM   32  C14 UNL     1       1.520  12.648  23.623  1.00  0.00    -0.072 C 
HETATM   33  C15 UNL     1       1.013  13.458  22.425  1.00  0.00     0.044 C 
HETATM   34  C16 UNL     1       2.249  13.326  24.453  1.00  0.00    -0.028 C 
HETATM   35  C17 UNL     1       2.573  14.786  24.256  1.00  0.00     0.036 C 
ENDBRANCH  15  32
TORSDOF 6
ENDMDL
MODEL 2
REMARK VINA RESULT: -6.804147852      2.556      7.284
REMARK  6 active torsions:
REMARK  status: ('A' for Active; 'I' for Inactive)
REMARK    1  A    between atoms: C3_4  and  C4_5 
REMARK    2  A    between atoms: C4_5  and  O2_6 
REMARK    3  A    between atoms: C5_8  and  O3_9 
REMARK    4  A    between atoms: C13_20  and  C14_21 
REMARK    5  A    between atoms: C18_25  and  N1_26 
REMARK       I    between atoms: N1_26  and  C20_28 
REMARK    6  A    between atoms: C20_28  and  C21_30 
ROOT
HETATM    1  C1  UNL     1       7.414   9.999  21.450  1.00  0.00     0.047 C 
HETATM    2  C2  UNL     1       6.855  10.583  22.498  1.00  0.00     0.050 C 
HETATM    3  O1  UNL     1       7.284  11.867  22.915  1.00  0.00    -0.345 OA
HETATM    4  C3  UNL     1       6.891  12.099  24.242  1.00  0.00     0.181 C 
HETATM    5  C5  UNL     1       5.637  11.303  24.363  1.00  0.00     0.165 C 
HETATM    6  C6  UNL     1       5.788  10.124  23.386  1.00  0.00     0.046 C 
HETATM    7  C7  UNL     1       6.154   8.943  24.256  1.00  0.00     0.022 C 
HETATM    8  C8  UNL     1       7.654   8.941  24.531  1.00  0.00     0.015 C 
HETATM    9  C9  UNL     1       5.832   7.653  23.667  1.00  0.00    -0.023 C 
HETATM   10  C10 UNL     1       4.992   6.725  23.931  1.00  0.00     0.004 C 
HETATM   11  C11 UNL     1       3.951   6.519  24.967  1.00  0.00     0.184 C 
HETATM   12  O4  UNL     1       3.666   5.099  24.809  1.00  0.00    -0.309 OA
HETATM   13  C12 UNL     1       2.840   5.082  23.699  1.00  0.00     0.270 C 
HETATM   14  O5  UNL     1       2.788   4.541  22.617  1.00  0.00    -0.264 OA
HETATM   15  C13 UNL     1       1.774   6.093  24.213  1.00  0.00     0.145 C 
HETATM   16  C18 UNL     1       2.730   7.247  24.638  1.00  0.00     0.081 C 
HETATM   17  C23 UNL     1       2.955   8.082  23.366  1.00  0.00     0.036 C 
HETATM   18  C24 UNL     1       3.411   9.446  23.645  1.00  0.00     0.008 C 
HETATM   19  C25 UNL     1       4.484   9.984  22.689  1.00  0.00    -0.000 C 
HETATM   20  C26 UNL     1       4.449   9.320  21.366  1.00  0.00     0.011 C 
ENDROOT
BRANCH   5  21
HETATM   21  O3  UNL     1       4.473  12.003  24.195  1.00  0.00    -0.392 OA
ATOM     22  H3  UNL     1       3.890  12.019  24.945  1.00  0.00     0.210 HD
ENDBRANCH   5  21
BRANCH   4  23
HETATM   23  C4  UNL     1       6.732  13.568  24.526  1.00  0.00     0.199 C 
BRANCH  23  24
HETATM   24  O2  UNL     1       7.846  14.228  23.995  1.00  0.00    -0.398 OA
ATOM     25  H2  UNL     1       7.843  15.117  24.331  1.00  0.00     0.209 HD
ENDBRANCH  23  24
ENDBRANCH   4  23
BRANCH  16  26
HETATM   26  N1  UNL     1       2.055   8.040  25.598  1.00  0.00    -0.343 N 
HETATM   27  C19 UNL     1       2.625   7.975  26.972  1.00  0.00     0.153 C 
HETATM   28  C20 UNL     1       0.907   8.848  25.532  1.00  0.00     0.219 C 
HETATM   29  O6  UNL     1       0.305   9.067  24.462  1.00  0.00    -0.273 OA
BRANCH  28  30
HETATM   30  C21 UNL     1       0.317   9.511  26.740  1.00  0.00     0.098 C 
HETATM   31  C22 UNL     1      -0.542  10.663  26.302  1.00  0.00     0.014 C 
ENDBRANCH  28  30
ENDBRANCH  16  26
BRANCH  15  32
HETATM   32  C14 UNL     1       1.159   5.298  25.254  1.00  0.00    -0.072 C 
HETATM   33  C15 UNL     1      -0.186   5.844  25.743  1.00  0.00     0.044 C 
HETATM   34  C16 UNL     1       1.540   4.210  25.848  1.00  0.00    -0.028 C 
HETATM   35  C17 UNL     1       0.730   3.540  26.930  1.00  0.00     0.036 C 
ENDBRANCH  15  32
TORSDOF 6
ENDMDL
MODEL 3
REMARK VINA RESULT: -6.670824482      3.047      7.740
REMARK  6 active torsions:
REMARK  status: ('A' for Active; 'I' for Inactive)
REMARK    1  A    between atoms: C3_4  and  C4_5 
REMARK    2  A    between atoms: C4_5  and  O2_6 
REMARK    3  A    between atoms: C5_8  and  O3_9 
REMARK    4  A    between atoms: C13_20  and  C14_21 
REMARK    5  A    between atoms: C18_25  and  N1_26 
REMARK       I    between atoms: N1_26  and  C20_28 
REMARK    6  A    between atoms: C20_28  and  C21_30 
ROOT
HETATM    1  C1  UNL     1       7.313   9.960  21.524  1.00  0.00     0.047 C 
HETATM    2  C2  UNL     1       6.624  10.269  22.612  1.00  0.00     0.050 C 
HETATM    3  O1  UNL     1       6.774  11.541  23.216  1.00  0.00    -0.345 OA
HETATM    4  C3  UNL     1       6.313  11.502  24.540  1.00  0.00     0.181 C 
HETATM    5  C5  UNL     1       5.245  10.465  24.492  1.00  0.00     0.165 C 
HETATM    6  C6  UNL     1       5.654   9.487  23.376  1.00  0.00     0.046 C 
HETATM    7  C7  UNL     1       6.233   8.293  24.099  1.00  0.00     0.022 C 
HETATM    8  C8  UNL     1       7.695   8.549  24.446  1.00  0.00     0.015 C 
HETATM    9  C9  UNL     1       6.192   7.060  23.329  1.00  0.00    -0.023 C 
HETATM   10  C10 UNL     1       5.554   5.956  23.425  1.00  0.00     0.004 C 
HETATM   11  C11 UNL     1       4.553   5.405  24.371  1.00  0.00     0.184 C 
HETATM   12  O4  UNL     1       4.567   3.993  24.012  1.00  0.00    -0.309 OA
HETATM   13  C12 UNL     1       3.786   3.968  22.870  1.00  0.00     0.270 C 
HETATM   14  O5  UNL     1       3.868   3.585  21.724  1.00  0.00    -0.264 OA
HETATM   15  C13 UNL     1       2.525   4.666  23.461  1.00  0.00     0.145 C 
HETATM   16  C18 UNL     1       3.218   5.915  24.082  1.00  0.00     0.081 C 
HETATM   17  C23 UNL     1       3.296   6.948  22.944  1.00  0.00     0.036 C 
HETATM   18  C24 UNL     1       3.459   8.323  23.425  1.00  0.00     0.008 C 
HETATM   19  C25 UNL     1       4.421   9.191  22.603  1.00  0.00    -0.000 C 
HETATM   20  C26 UNL     1       4.551   8.726  21.204  1.00  0.00     0.011 C 
ENDROOT
BRANCH   5  21
HETATM   21  O3  UNL     1       3.967  10.937  24.361  1.00  0.00    -0.392 OA
ATOM     22  H3  UNL     1       3.276  10.299  24.500  1.00  0.00     0.210 HD
ENDBRANCH   5  21
BRANCH   4  23
HETATM   23  C4  UNL     1       5.852  12.856  25.010  1.00  0.00     0.199 C 
BRANCH  23  24
HETATM   24  O2  UNL     1       5.045  13.403  24.005  1.00  0.00    -0.398 OA
ATOM     25  H2  UNL     1       5.453  14.209  23.712  1.00  0.00     0.209 HD
ENDBRANCH  23  24
ENDBRANCH   4  23
BRANCH  16  26
HETATM   26  N1  UNL     1       2.375   6.416  25.104  1.00  0.00    -0.343 N 
HETATM   27  C19 UNL     1       3.015   6.524  26.444  1.00  0.00     0.153 C 
HETATM   28  C20 UNL     1       1.020   6.790  25.126  1.00  0.00     0.219 C 
HETATM   29  O6  UNL     1       0.316   6.811  24.098  1.00  0.00    -0.273 OA
BRANCH  28  30
HETATM   30  C21 UNL     1       0.316   7.193  26.387  1.00  0.00     0.098 C 
HETATM   31  C22 UNL     1      -0.513   6.041  26.880  1.00  0.00     0.014 C 
ENDBRANCH  28  30
ENDBRANCH  16  26
BRANCH  15  32
HETATM   32  C14 UNL     1       2.062   3.627  24.355  1.00  0.00    -0.072 C 
HETATM   33  C15 UNL     1       1.570   2.364  23.640  1.00  0.00     0.044 C 
HETATM   34  C16 UNL     1       1.987   3.570  25.648  1.00  0.00    -0.028 C 
HETATM   35  C17 UNL     1       1.459   2.366  26.387  1.00  0.00     0.036 C 
ENDBRANCH  15  32
TORSDOF 6
ENDMDL
MODEL 4
REMARK VINA RESULT: -6.624342508      1.428      1.549
REMARK  6 active torsions:
REMARK  status: ('A' for Active; 'I' for Inactive)
REMARK    1  A    between atoms: C3_4  and  C4_5 
REMARK    2  A    between atoms: C4_5  and  O2_6 
REMARK    3  A    between atoms: C5_8  and  O3_9 
REMARK    4  A    between atoms: C13_20  and  C14_21 
REMARK    5  A    between atoms: C18_25  and  N1_26 
REMARK       I    between atoms: N1_26  and  C20_28 
REMARK    6  A    between atoms: C20_28  and  C21_30 
ROOT
HETATM    1  C1  UNL     1       0.772   4.404  26.003  1.00  0.00     0.047 C 
HETATM    2  C2  UNL     1       2.049   4.749  25.977  1.00  0.00     0.050 C 
HETATM    3  O1  UNL     1       3.053   3.806  26.307  1.00  0.00    -0.345 OA
HETATM    4  C3  UNL     1       4.247   4.466  26.632  1.00  0.00     0.181 C 
HETATM    5  C5  UNL     1       4.179   5.705  25.806  1.00  0.00     0.165 C 
HETATM    6  C6  UNL     1       2.683   6.024  25.644  1.00  0.00     0.046 C 
HETATM    7  C7  UNL     1       2.415   7.139  26.629  1.00  0.00     0.022 C 
HETATM    8  C8  UNL     1       2.167   6.563  28.019  1.00  0.00     0.015 C 
HETATM    9  C9  UNL     1       1.256   7.953  26.298  1.00  0.00    -0.023 C 
HETATM   10  C10 UNL     1       1.081   9.162  25.917  1.00  0.00     0.004 C 
HETATM   11  C11 UNL     1       1.975  10.310  25.634  1.00  0.00     0.184 C 
HETATM   12  O4  UNL     1       1.023  11.411  25.586  1.00  0.00    -0.309 OA
HETATM   13  C12 UNL     1       0.476  11.277  24.321  1.00  0.00     0.270 C 
HETATM   14  O5  UNL     1      -0.618  11.173  23.814  1.00  0.00    -0.264 OA
HETATM   15  C13 UNL     1       1.808  11.291  23.513  1.00  0.00     0.145 C 
HETATM   16  C18 UNL     1       2.577  10.196  24.311  1.00  0.00     0.081 C 
HETATM   17  C23 UNL     1       2.166   8.859  23.671  1.00  0.00     0.036 C 
HETATM   18  C24 UNL     1       3.117   7.776  23.936  1.00  0.00     0.008 C 
HETATM   19  C25 UNL     1       2.485   6.408  24.223  1.00  0.00    -0.000 C 
HETATM   20  C26 UNL     1       1.137   6.270  23.627  1.00  0.00     0.011 C 
ENDROOT
BRANCH   5  21
HETATM   21  O3  UNL     1       4.859   5.662  24.619  1.00  0.00    -0.392 OA
ATOM     22  H3  UNL     1       4.603   6.313  23.975  1.00  0.00     0.210 HD
ENDBRANCH   5  21
BRANCH   4  23
HETATM   23  C4  UNL     1       5.451   3.602  26.369  1.00  0.00     0.199 C 
BRANCH  23  24
HETATM   24  O2  UNL     1       6.592   4.384  26.583  1.00  0.00    -0.398 OA
ATOM     25  H2  UNL     1       6.404   5.261  26.271  1.00  0.00     0.209 HD
ENDBRANCH  23  24
ENDBRANCH   4  23
BRANCH  16  26
HETATM   26  N1  UNL     1       3.963  10.401  24.102  1.00  0.00    -0.343 N 
HETATM   27  C19 UNL     1       4.729  10.772  25.324  1.00  0.00     0.153 C 
HETATM   28  C20 UNL     1       4.770  10.377  22.951  1.00  0.00     0.219 C 
HETATM   29  O6  UNL     1       4.328  10.048  21.833  1.00  0.00    -0.273 OA
BRANCH  28  30
HETATM   30  C21 UNL     1       6.223  10.744  22.978  1.00  0.00     0.098 C 
HETATM   31  C22 UNL     1       6.937  10.014  21.876  1.00  0.00     0.014 C 
ENDBRANCH  28  30
ENDBRANCH  16  26
BRANCH  15  32
HETATM   32  C14 UNL     1       2.197  12.672  23.700  1.00  0.00    -0.072 C 
HETATM   33  C15 UNL     1       1.330  13.673  22.931  1.00  0.00     0.044 C 
HETATM   34  C16 UNL     1       3.145  13.215  24.398  1.00  0.00    -0.028 C 
HETATM   35  C17 UNL     1       3.377  14.705  24.447  1.00  0.00     0.036 C 
ENDBRANCH  15  32
TORSDOF 6
ENDMDL
MODEL 5
REMARK VINA RESULT: -6.572961091      3.767      7.063
REMARK  6 active torsions:
REMARK  status: ('A' for Active; 'I' for Inactive)
REMARK    1  A    between atoms: C3_4  and  C4_5 
REMARK    2  A    between atoms: C4_5  and  O2_6 
REMARK    3  A    between atoms: C5_8  and  O3_9 
REMARK    4  A    between atoms: C13_20  and  C14_21 
REMARK    5  A    between atoms: C18_25  and  N1_26 
REMARK       I    between atoms: N1_26  and  C20_28 
REMARK    6  A    between atoms: C20_28  and  C21_30 
ROOT
HETATM    1  C1  UNL     1       4.282   1.718  21.573  1.00  0.00     0.047 C 
HETATM    2  C2  UNL     1       3.954   2.972  21.304  1.00  0.00     0.050 C 
HETATM    3  O1  UNL     1       4.018   3.460  19.976  1.00  0.00    -0.345 OA
HETATM    4  C3  UNL     1       4.055   4.862  19.978  1.00  0.00     0.181 C 
HETATM    5  C5  UNL     1       3.289   5.214  21.207  1.00  0.00     0.165 C 
HETATM    6  C6  UNL     1       3.498   4.045  22.186  1.00  0.00     0.046 C 
HETATM    7  C7  UNL     1       4.535   4.541  23.167  1.00  0.00     0.022 C 
HETATM    8  C8  UNL     1       5.934   4.345  22.594  1.00  0.00     0.015 C 
HETATM    9  C9  UNL     1       4.506   3.859  24.451  1.00  0.00    -0.023 C 
HETATM   10  C10 UNL     1       4.196   4.196  25.646  1.00  0.00     0.004 C 
HETATM   11  C11 UNL     1       3.724   5.445  26.292  1.00  0.00     0.184 C 
HETATM   12  O4  UNL     1       3.924   5.134  27.701  1.00  0.00    -0.309 OA
HETATM   13  C12 UNL     1       2.826   4.341  27.989  1.00  0.00     0.270 C 
HETATM   14  O5  UNL     1       2.596   3.247  28.456  1.00  0.00    -0.264 OA
HETATM   15  C13 UNL     1       1.721   5.324  27.501  1.00  0.00     0.145 C 
HETATM   16  C18 UNL     1       2.293   5.636  26.086  1.00  0.00     0.081 C 
HETATM   17  C23 UNL     1       1.751   4.524  25.172  1.00  0.00     0.036 C 
HETATM   18  C24 UNL     1       1.762   4.888  23.752  1.00  0.00     0.008 C 
HETATM   19  C25 UNL     1       2.172   3.763  22.794  1.00  0.00    -0.000 C 
HETATM   20  C26 UNL     1       1.917   2.417  23.355  1.00  0.00     0.011 C 
ENDROOT
BRANCH   5  21
HETATM   21  O3  UNL     1       1.972   5.533  21.012  1.00  0.00    -0.392 OA
ATOM     22  H3  UNL     1       1.739   6.439  21.179  1.00  0.00     0.210 HD
ENDBRANCH   5  21
BRANCH   4  23
HETATM   23  C4  UNL     1       3.496   5.436  18.704  1.00  0.00     0.199 C 
BRANCH  23  24
HETATM   24  O2  UNL     1       3.622   6.829  18.774  1.00  0.00    -0.398 OA
ATOM     25  H2  UNL     1       3.536   7.082  19.685  1.00  0.00     0.209 HD
ENDBRANCH  23  24
ENDBRANCH   4  23
BRANCH  16  26
HETATM   26  N1  UNL     1       1.759   6.879  25.667  1.00  0.00    -0.343 N 
HETATM   27  C19 UNL     1       2.777   7.920  25.352  1.00  0.00     0.153 C 
HETATM   28  C20 UNL     1       0.445   7.359  25.535  1.00  0.00     0.219 C 
HETATM   29  O6  UNL     1      -0.552   6.631  25.711  1.00  0.00    -0.273 OA
BRANCH  28  30
HETATM   30  C21 UNL     1       0.138   8.780  25.170  1.00  0.00     0.098 C 
HETATM   31  C22 UNL     1      -0.247   9.536  26.410  1.00  0.00     0.014 C 
ENDBRANCH  28  30
ENDBRANCH  16  26
BRANCH  15  32
HETATM   32  C14 UNL     1       1.830   6.344  28.521  1.00  0.00    -0.072 C 
HETATM   33  C15 UNL     1       0.488   6.764  29.128  1.00  0.00     0.044 C 
HETATM   34  C16 UNL     1       2.855   6.968  29.013  1.00  0.00    -0.028 C 
HETATM   35  C17 UNL     1       2.736   8.018  30.089  1.00  0.00     0.036 C 
ENDBRANCH  15  32
TORSDOF 6
ENDMDL
