MODEL 1
REMARK VINA RESULT: -6.696737488      0.000      0.000
REMARK  11 active torsions:
REMARK  status: ('A' for Active; 'I' for Inactive)
REMARK       I    between atoms: N1_2  and  C2_4 
REMARK    1  A    between atoms: C2_4  and  C3_6 
REMARK    2  A    between atoms: C3_6  and  O2_7 
REMARK    3  A    between atoms: C3_6  and  C4_9 
REMARK    4  A    between atoms: C4_9  and  C5_10 
REMARK    5  A    between atoms: C4_9  and  C8_18 
REMARK    6  A    between atoms: C8_18  and  O4_19 
REMARK    7  A    between atoms: C8_18  and  C9_21 
REMARK    8  A    between atoms: C9_21  and  O5_22 
REMARK    9  A    between atoms: C9_21  and  C10_24 
REMARK   10  A    between atoms: C10_24  and  N4_25 
REMARK   11  A    between atoms: C10_24  and  C11_29 
ROOT
HETATM    1  C4  UNL     1      43.797 -70.972  31.748  1.00  0.00     0.106 C 
ENDROOT
BRANCH   1   2
HETATM    2  C3  UNL     1      44.321 -70.957  33.128  1.00  0.00     0.222 C 
BRANCH   2   3
HETATM    3  C2  UNL     1      45.805 -71.026  33.105  1.00  0.00     0.246 C 
HETATM    4  N1  UNL     1      46.618 -69.875  33.099  1.00  0.00    -0.363 N 
HETATM    5  C1  UNL     1      48.058 -69.959  33.075  1.00  0.00     0.149 C 
ATOM      6  H1  UNL     1      46.176 -68.956  33.113  1.00  0.00     0.162 HD
HETATM    7  O1  UNL     1      46.451 -72.125  33.091  1.00  0.00    -0.271 OA
ENDBRANCH   2   3
BRANCH   2   8
HETATM    8  O2  UNL     1      43.964 -69.927  33.951  1.00  0.00    -0.385 OA
ATOM      9  H2  UNL     1      43.136 -70.153  34.357  1.00  0.00     0.210 HD
ENDBRANCH   2   8
ENDBRANCH   1   2
BRANCH   1  10
HETATM   10  C5  UNL     1      42.590 -70.105  31.698  1.00  0.00     0.039 A 
HETATM   11  C6  UNL     1      41.386 -70.499  31.174  1.00  0.00     0.118 A 
HETATM   12  N2  UNL     1      40.508 -69.495  31.323  1.00  0.00    -0.317 N 
HETATM   13  C7  UNL     1      41.142 -68.469  31.935  1.00  0.00     0.324 A 
ATOM     14  H2  UNL     1      39.532 -69.504  31.026  1.00  0.00     0.170 HD
HETATM   15  O3  UNL     1      40.656 -67.353  32.249  1.00  0.00    -0.247 OA
HETATM   16  N3  UNL     1      42.434 -68.865  32.160  1.00  0.00    -0.310 N 
ATOM     17  H3  UNL     1      43.159 -68.303  32.606  1.00  0.00     0.170 HD
ENDBRANCH   1  10
BRANCH   1  18
HETATM   18  C8  UNL     1      44.694 -70.668  30.619  1.00  0.00     0.162 C 
BRANCH  18  19
HETATM   19  O4  UNL     1      44.229 -69.450  30.024  1.00  0.00    -0.392 OA
ATOM     20  H4  UNL     1      44.975 -69.041  29.602  1.00  0.00     0.210 HD
ENDBRANCH  18  19
BRANCH  18  21
HETATM   21  C9  UNL     1      45.072 -71.650  29.614  1.00  0.00     0.184 C 
BRANCH  21  22
HETATM   22  O5  UNL     1      45.570 -72.806  30.344  1.00  0.00    -0.390 OA
ATOM     23  H5  UNL     1      44.824 -73.172  30.804  1.00  0.00     0.210 HD
ENDBRANCH  21  22
BRANCH  21  24
HETATM   24  C10 UNL     1      46.242 -71.327  28.733  1.00  0.00     0.275 C 
BRANCH  24  25
HETATM   25  N4  UNL     1      47.095 -70.347  29.459  1.00  0.00    -0.066 N 
ATOM     26  H43 UNL     1      46.776 -69.384  29.347  1.00  0.00     0.275 HD
ATOM     27  H42 UNL     1      46.992 -70.405  30.472  1.00  0.00     0.275 HD
ATOM     28  H41 UNL     1      48.057 -70.486  29.148  1.00  0.00     0.275 HD
ENDBRANCH  24  25
BRANCH  24  29
HETATM   29  C11 UNL     1      46.026 -70.763  27.425  1.00  0.00     0.266 C 
HETATM   30  O6  UNL     1      45.230 -71.271  26.640  1.00  0.00    -0.305 OA
ENDBRANCH  24  29
ENDBRANCH  21  24
ENDBRANCH  18  21
ENDBRANCH   1  18
TORSDOF 11
ENDMDL
MODEL 2
REMARK VINA RESULT: -6.382080243      1.941      5.038
REMARK  11 active torsions:
REMARK  status: ('A' for Active; 'I' for Inactive)
REMARK       I    between atoms: N1_2  and  C2_4 
REMARK    1  A    between atoms: C2_4  and  C3_6 
REMARK    2  A    between atoms: C3_6  and  O2_7 
REMARK    3  A    between atoms: C3_6  and  C4_9 
REMARK    4  A    between atoms: C4_9  and  C5_10 
REMARK    5  A    between atoms: C4_9  and  C8_18 
REMARK    6  A    between atoms: C8_18  and  O4_19 
REMARK    7  A    between atoms: C8_18  and  C9_21 
REMARK    8  A    between atoms: C9_21  and  O5_22 
REMARK    9  A    between atoms: C9_21  and  C10_24 
REMARK   10  A    between atoms: C10_24  and  N4_25 
REMARK   11  A    between atoms: C10_24  and  C11_29 
ROOT
HETATM    1  C4  UNL     1      45.128 -71.236  30.914  1.00  0.00     0.106 C 
ENDROOT
BRANCH   1   2
HETATM    2  C3  UNL     1      46.147 -71.727  29.965  1.00  0.00     0.222 C 
BRANCH   2   3
HETATM    3  C2  UNL     1      46.335 -73.190  30.137  1.00  0.00     0.246 C 
HETATM    4  N1  UNL     1      47.606 -73.797  30.145  1.00  0.00    -0.363 N 
HETATM    5  C1  UNL     1      47.771 -75.221  30.312  1.00  0.00     0.149 C 
ATOM      6  H1  UNL     1      48.435 -73.213  30.030  1.00  0.00     0.162 HD
HETATM    7  O1  UNL     1      45.365 -74.004  30.292  1.00  0.00    -0.271 OA
ENDBRANCH   2   3
BRANCH   2   8
HETATM    8  O2  UNL     1      45.970 -71.484  28.633  1.00  0.00    -0.385 OA
ATOM      9  H2  UNL     1      46.711 -70.971  28.330  1.00  0.00     0.210 HD
ENDBRANCH   2   8
ENDBRANCH   1   2
BRANCH   1  10
HETATM   10  C5  UNL     1      45.817 -70.813  32.161  1.00  0.00     0.039 A 
HETATM   11  C6  UNL     1      47.034 -70.183  32.187  1.00  0.00     0.118 A 
HETATM   12  N2  UNL     1      47.344 -69.908  33.464  1.00  0.00    -0.317 N 
HETATM   13  C7  UNL     1      46.336 -70.357  34.248  1.00  0.00     0.324 A 
ATOM     14  H2  UNL     1      48.191 -69.442  33.788  1.00  0.00     0.170 HD
HETATM   15  O3  UNL     1      46.257 -70.285  35.500  1.00  0.00    -0.247 OA
HETATM   16  N3  UNL     1      45.398 -70.917  33.422  1.00  0.00    -0.310 N 
ATOM     17  H3  UNL     1      44.522 -71.344  33.722  1.00  0.00     0.170 HD
ENDBRANCH   1  10
BRANCH   1  18
HETATM   18  C8  UNL     1      44.163 -70.207  30.486  1.00  0.00     0.162 C 
BRANCH  18  19
HETATM   19  O4  UNL     1      44.918 -69.128  29.921  1.00  0.00    -0.392 OA
ATOM     20  H4  UNL     1      45.175 -68.560  30.638  1.00  0.00     0.210 HD
ENDBRANCH  18  19
BRANCH  18  21
HETATM   21  C9  UNL     1      43.083 -69.726  31.334  1.00  0.00     0.184 C 
BRANCH  21  22
HETATM   22  O5  UNL     1      42.610 -70.881  32.083  1.00  0.00    -0.390 OA
ATOM     23  H5  UNL     1      42.507 -70.590  32.982  1.00  0.00     0.210 HD
ENDBRANCH  21  22
BRANCH  21  24
HETATM   24  C10 UNL     1      41.822 -69.271  30.661  1.00  0.00     0.275 C 
BRANCH  24  25
HETATM   25  N4  UNL     1      41.852 -67.784  30.608  1.00  0.00    -0.066 N 
ATOM     26  H43 UNL     1      42.147 -67.361  31.488  1.00  0.00     0.275 HD
ATOM     27  H42 UNL     1      42.608 -67.423  30.026  1.00  0.00     0.275 HD
ATOM     28  H41 UNL     1      40.931 -67.468  30.304  1.00  0.00     0.275 HD
ENDBRANCH  24  25
BRANCH  24  29
HETATM   29  C11 UNL     1      40.540 -69.615  31.222  1.00  0.00     0.266 C 
HETATM   30  O6  UNL     1      40.101 -69.025  32.205  1.00  0.00    -0.305 OA
ENDBRANCH  24  29
ENDBRANCH  21  24
ENDBRANCH  18  21
ENDBRANCH   1  18
TORSDOF 11
ENDMDL
MODEL 3
REMARK VINA RESULT: -5.971992882      1.641      5.336
REMARK  11 active torsions:
REMARK  status: ('A' for Active; 'I' for Inactive)
REMARK       I    between atoms: N1_2  and  C2_4 
REMARK    1  A    between atoms: C2_4  and  C3_6 
REMARK    2  A    between atoms: C3_6  and  O2_7 
REMARK    3  A    between atoms: C3_6  and  C4_9 
REMARK    4  A    between atoms: C4_9  and  C5_10 
REMARK    5  A    between atoms: C4_9  and  C8_18 
REMARK    6  A    between atoms: C8_18  and  O4_19 
REMARK    7  A    between atoms: C8_18  and  C9_21 
REMARK    8  A    between atoms: C9_21  and  O5_22 
REMARK    9  A    between atoms: C9_21  and  C10_24 
REMARK   10  A    between atoms: C10_24  and  N4_25 
REMARK   11  A    between atoms: C10_24  and  C11_29 
ROOT
HETATM    1  C4  UNL     1      45.025 -71.388  31.130  1.00  0.00     0.106 C 
ENDROOT
BRANCH   1   2
HETATM    2  C3  UNL     1      45.738 -72.250  30.166  1.00  0.00     0.222 C 
BRANCH   2   3
HETATM    3  C2  UNL     1      46.078 -71.471  28.948  1.00  0.00     0.246 C 
HETATM    4  N1  UNL     1      45.303 -71.524  27.772  1.00  0.00    -0.363 N 
HETATM    5  C1  UNL     1      45.648 -70.763  26.596  1.00  0.00     0.149 C 
ATOM      6  H1  UNL     1      44.474 -72.118  27.752  1.00  0.00     0.162 HD
HETATM    7  O1  UNL     1      47.090 -70.699  28.874  1.00  0.00    -0.271 OA
ENDBRANCH   2   3
BRANCH   2   8
HETATM    8  O2  UNL     1      46.870 -72.894  30.579  1.00  0.00    -0.385 OA
ATOM      9  H2  UNL     1      47.365 -72.291  31.121  1.00  0.00     0.210 HD
ENDBRANCH   2   8
ENDBRANCH   1   2
BRANCH   1  10
HETATM   10  C5  UNL     1      46.025 -70.798  32.058  1.00  0.00     0.039 A 
HETATM   11  C6  UNL     1      45.809 -70.612  33.399  1.00  0.00     0.118 A 
HETATM   12  N2  UNL     1      46.924 -70.099  33.942  1.00  0.00    -0.317 N 
HETATM   13  C7  UNL     1      47.844 -69.957  32.961  1.00  0.00     0.324 A 
ATOM     14  H2  UNL     1      47.054 -69.857  34.925  1.00  0.00     0.170 HD
HETATM   15  O3  UNL     1      49.014 -69.510  33.074  1.00  0.00    -0.247 OA
HETATM   16  N3  UNL     1      47.269 -70.395  31.798  1.00  0.00    -0.310 N 
ATOM     17  H3  UNL     1      47.718 -70.411  30.882  1.00  0.00     0.170 HD
ENDBRANCH   1  10
BRANCH   1  18
HETATM   18  C8  UNL     1      44.103 -70.346  30.640  1.00  0.00     0.162 C 
BRANCH  18  19
HETATM   19  O4  UNL     1      44.904 -69.310  30.060  1.00  0.00    -0.392 OA
ATOM     20  H4  UNL     1      44.740 -69.319  29.124  1.00  0.00     0.210 HD
ENDBRANCH  18  19
BRANCH  18  21
HETATM   21  C9  UNL     1      43.016 -69.805  31.441  1.00  0.00     0.184 C 
BRANCH  21  22
HETATM   22  O5  UNL     1      42.510 -70.911  32.241  1.00  0.00    -0.390 OA
ATOM     23  H5  UNL     1      42.487 -71.666  31.666  1.00  0.00     0.210 HD
ENDBRANCH  21  22
BRANCH  21  24
HETATM   24  C10 UNL     1      41.774 -69.367  30.721  1.00  0.00     0.275 C 
BRANCH  24  25
HETATM   25  N4  UNL     1      41.835 -67.887  30.578  1.00  0.00    -0.066 N 
ATOM     26  H43 UNL     1      41.713 -67.576  29.615  1.00  0.00     0.275 HD
ATOM     27  H42 UNL     1      41.022 -67.416  30.975  1.00  0.00     0.275 HD
ATOM     28  H41 UNL     1      42.715 -67.574  30.989  1.00  0.00     0.275 HD
ENDBRANCH  24  25
BRANCH  24  29
HETATM   29  C11 UNL     1      40.477 -69.652  31.281  1.00  0.00     0.266 C 
HETATM   30  O6  UNL     1      40.069 -69.049  32.269  1.00  0.00    -0.305 OA
ENDBRANCH  24  29
ENDBRANCH  21  24
ENDBRANCH  18  21
ENDBRANCH   1  18
TORSDOF 11
ENDMDL
MODEL 4
REMARK VINA RESULT: -5.706894540      1.423      3.714
REMARK  11 active torsions:
REMARK  status: ('A' for Active; 'I' for Inactive)
REMARK       I    between atoms: N1_2  and  C2_4 
REMARK    1  A    between atoms: C2_4  and  C3_6 
REMARK    2  A    between atoms: C3_6  and  O2_7 
REMARK    3  A    between atoms: C3_6  and  C4_9 
REMARK    4  A    between atoms: C4_9  and  C5_10 
REMARK    5  A    between atoms: C4_9  and  C8_18 
REMARK    6  A    between atoms: C8_18  and  O4_19 
REMARK    7  A    between atoms: C8_18  and  C9_21 
REMARK    8  A    between atoms: C9_21  and  O5_22 
REMARK    9  A    between atoms: C9_21  and  C10_24 
REMARK   10  A    between atoms: C10_24  and  N4_25 
REMARK   11  A    between atoms: C10_24  and  C11_29 
ROOT
HETATM    1  C4  UNL     1      44.228 -70.456  31.556  1.00  0.00     0.106 C 
ENDROOT
BRANCH   1   2
HETATM    2  C3  UNL     1      44.373 -71.399  30.430  1.00  0.00     0.222 C 
BRANCH   2   3
HETATM    3  C2  UNL     1      45.149 -70.763  29.335  1.00  0.00     0.246 C 
HETATM    4  N1  UNL     1      45.398 -71.408  28.107  1.00  0.00    -0.363 N 
HETATM    5  C1  UNL     1      46.156 -70.777  27.054  1.00  0.00     0.149 C 
ATOM      6  H1  UNL     1      45.031 -72.349  27.958  1.00  0.00     0.162 HD
HETATM    7  O1  UNL     1      45.645 -69.591  29.422  1.00  0.00    -0.271 OA
ENDBRANCH   2   3
BRANCH   2   8
HETATM    8  O2  UNL     1      44.921 -72.626  30.672  1.00  0.00    -0.385 OA
ATOM      9  H2  UNL     1      44.363 -73.279  30.266  1.00  0.00     0.210 HD
ENDBRANCH   2   8
ENDBRANCH   1   2
BRANCH   1  10
HETATM   10  C5  UNL     1      42.839 -69.925  31.546  1.00  0.00     0.039 A 
HETATM   11  C6  UNL     1      41.755 -70.627  31.088  1.00  0.00     0.118 A 
HETATM   12  N2  UNL     1      40.657 -69.875  31.258  1.00  0.00    -0.317 N 
HETATM   13  C7  UNL     1      41.034 -68.703  31.820  1.00  0.00     0.324 A 
ATOM     14  H2  UNL     1      39.705 -70.140  31.008  1.00  0.00     0.170 HD
HETATM   15  O3  UNL     1      40.292 -67.738  32.134  1.00  0.00    -0.247 OA
HETATM   16  N3  UNL     1      42.392 -68.752  31.991  1.00  0.00    -0.310 N 
ATOM     17  H3  UNL     1      42.967 -68.011  32.392  1.00  0.00     0.170 HD
ENDBRANCH   1  10
BRANCH   1  18
HETATM   18  C8  UNL     1      44.607 -70.876  32.918  1.00  0.00     0.162 C 
BRANCH  18  19
HETATM   19  O4  UNL     1      43.846 -70.079  33.834  1.00  0.00    -0.392 OA
ATOM     20  H4  UNL     1      44.327 -70.057  34.653  1.00  0.00     0.210 HD
ENDBRANCH  18  19
BRANCH  18  21
HETATM   21  C9  UNL     1      45.987 -71.027  33.350  1.00  0.00     0.184 C 
BRANCH  21  22
HETATM   22  O5  UNL     1      46.264 -69.899  34.228  1.00  0.00    -0.390 OA
ATOM     23  H5  UNL     1      46.815 -70.235  34.925  1.00  0.00     0.210 HD
ENDBRANCH  21  22
BRANCH  21  24
HETATM   24  C10 UNL     1      47.061 -70.867  32.314  1.00  0.00     0.275 C 
BRANCH  24  25
HETATM   25  N4  UNL     1      47.727 -72.187  32.149  1.00  0.00    -0.066 N 
ATOM     26  H43 UNL     1      47.193 -72.955  32.557  1.00  0.00     0.275 HD
ATOM     27  H42 UNL     1      47.720 -72.518  31.184  1.00  0.00     0.275 HD
ATOM     28  H41 UNL     1      48.668 -72.108  32.535  1.00  0.00     0.275 HD
ENDBRANCH  24  25
BRANCH  24  29
HETATM   29  C11 UNL     1      48.125 -69.917  32.519  1.00  0.00     0.266 C 
HETATM   30  O6  UNL     1      48.167 -68.868  31.882  1.00  0.00    -0.305 OA
ENDBRANCH  24  29
ENDBRANCH  21  24
ENDBRANCH  18  21
ENDBRANCH   1  18
TORSDOF 11
ENDMDL
MODEL 5
REMARK VINA RESULT: -5.558601625      1.805      5.139
REMARK  11 active torsions:
REMARK  status: ('A' for Active; 'I' for Inactive)
REMARK       I    between atoms: N1_2  and  C2_4 
REMARK    1  A    between atoms: C2_4  and  C3_6 
REMARK    2  A    between atoms: C3_6  and  O2_7 
REMARK    3  A    between atoms: C3_6  and  C4_9 
REMARK    4  A    between atoms: C4_9  and  C5_10 
REMARK    5  A    between atoms: C4_9  and  C8_18 
REMARK    6  A    between atoms: C8_18  and  O4_19 
REMARK    7  A    between atoms: C8_18  and  C9_21 
REMARK    8  A    between atoms: C9_21  and  O5_22 
REMARK    9  A    between atoms: C9_21  and  C10_24 
REMARK   10  A    between atoms: C10_24  and  N4_25 
REMARK   11  A    between atoms: C10_24  and  C11_29 
ROOT
HETATM    1  C4  UNL     1      44.601 -70.876  31.092  1.00  0.00     0.106 C 
ENDROOT
BRANCH   1   2
HETATM    2  C3  UNL     1      45.602 -70.138  30.296  1.00  0.00     0.222 C 
BRANCH   2   3
HETATM    3  C2  UNL     1      45.902 -70.882  29.046  1.00  0.00     0.246 C 
HETATM    4  N1  UNL     1      45.502 -70.423  27.775  1.00  0.00    -0.363 N 
HETATM    5  C1  UNL     1      45.799 -71.159  26.570  1.00  0.00     0.149 C 
ATOM      6  H1  UNL     1      44.987 -69.545  27.705  1.00  0.00     0.162 HD
HETATM    7  O1  UNL     1      46.542 -71.985  29.028  1.00  0.00    -0.271 OA
ENDBRANCH   2   3
BRANCH   2   8
HETATM    8  O2  UNL     1      45.340 -68.841  29.957  1.00  0.00    -0.385 OA
ATOM      9  H2  UNL     1      45.604 -68.292  30.686  1.00  0.00     0.210 HD
ENDBRANCH   2   8
ENDBRANCH   1   2
BRANCH   1  10
HETATM   10  C5  UNL     1      45.124 -71.029  32.475  1.00  0.00     0.039 A 
HETATM   11  C6  UNL     1      44.852 -72.103  33.282  1.00  0.00     0.118 A 
HETATM   12  N2  UNL     1      45.509 -71.942  34.441  1.00  0.00    -0.317 N 
HETATM   13  C7  UNL     1      46.195 -70.777  34.377  1.00  0.00     0.324 A 
ATOM     14  H2  UNL     1      45.494 -72.585  35.232  1.00  0.00     0.170 HD
HETATM   15  O3  UNL     1      46.931 -70.279  35.267  1.00  0.00    -0.247 OA
HETATM   16  N3  UNL     1      45.943 -70.224  33.150  1.00  0.00    -0.310 N 
ATOM     17  H3  UNL     1      46.321 -69.340  32.809  1.00  0.00     0.170 HD
ENDBRANCH   1  10
BRANCH   1  18
HETATM   18  C8  UNL     1      43.202 -70.414  31.120  1.00  0.00     0.162 C 
BRANCH  18  19
HETATM   19  O4  UNL     1      42.876 -69.966  29.799  1.00  0.00    -0.392 OA
ATOM     20  H4  UNL     1      42.270 -69.240  29.890  1.00  0.00     0.210 HD
ENDBRANCH  18  19
BRANCH  18  21
HETATM   21  C9  UNL     1      42.680 -69.516  32.139  1.00  0.00     0.184 C 
BRANCH  21  22
HETATM   22  O5  UNL     1      41.801 -70.319  32.977  1.00  0.00    -0.390 OA
ATOM     23  H5  UNL     1      41.453 -69.730  33.636  1.00  0.00     0.210 HD
ENDBRANCH  21  22
BRANCH  21  24
HETATM   24  C10 UNL     1      41.751 -68.425  31.694  1.00  0.00     0.275 C 
BRANCH  24  25
HETATM   25  N4  UNL     1      41.852 -67.317  32.683  1.00  0.00    -0.066 N 
ATOM     26  H43 UNL     1      41.924 -66.399  32.244  1.00  0.00     0.275 HD
ATOM     27  H42 UNL     1      40.981 -67.156  33.189  1.00  0.00     0.275 HD
ATOM     28  H41 UNL     1      42.637 -67.526  33.300  1.00  0.00     0.275 HD
ENDBRANCH  24  25
BRANCH  24  29
HETATM   29  C11 UNL     1      40.342 -68.692  31.550  1.00  0.00     0.266 C 
HETATM   30  O6  UNL     1      39.944 -69.680  30.940  1.00  0.00    -0.305 OA
ENDBRANCH  24  29
ENDBRANCH  21  24
ENDBRANCH  18  21
ENDBRANCH   1  18
TORSDOF 11
ENDMDL
