MODEL 1
REMARK VINA RESULT: -7.199371174      0.000      0.000
REMARK  12 active torsions:
REMARK  status: ('A' for Active; 'I' for Inactive)
REMARK    1  A    between atoms: N1_1  and  C1_5 
REMARK    2  A    between atoms: C1_5  and  C2_6 
REMARK    3  A    between atoms: C2_6  and  O1_7 
REMARK    4  A    between atoms: O1_7  and  C3_8 
REMARK    5  A    between atoms: C3_8  and  C4_9 
REMARK    6  A    between atoms: C5_14  and  C6_15 
REMARK    7  A    between atoms: C6_15  and  N5_20 
REMARK    8  A    between atoms: N4_16  and  O2_18 
REMARK    9  A    between atoms: N5_20  and  N6_22 
REMARK   10  A    between atoms: N7_25  and  C7_26 
REMARK   11  A    between atoms: C7_26  and  S1_27 
REMARK   12  A    between atoms: S1_27  and  N8_28 
ROOT
HETATM    1  C4  UNL     1      43.505 -70.665  32.058  1.00  0.00     0.147 A 
HETATM    2  N2  UNL     1      43.831 -70.330  33.344  1.00  0.00    -0.282 N 
ATOM      3  H2  UNL     1      43.193 -69.955  34.045  1.00  0.00     0.188 HD
HETATM    4  N3  UNL     1      45.112 -70.578  33.520  1.00  0.00    -0.280 N 
ATOM      5  H3  UNL     1      45.620 -70.419  34.391  1.00  0.00     0.188 HD
HETATM    6  C5  UNL     1      45.662 -71.075  32.382  1.00  0.00     0.173 A 
HETATM    7  N7  UNL     1      44.617 -71.109  31.497  1.00  0.00    -0.297 N 
ENDROOT
BRANCH   6   8
HETATM    8  C6  UNL     1      47.035 -71.448  32.208  1.00  0.00     0.186 C 
HETATM    9  N4  UNL     1      47.958 -70.566  32.307  1.00  0.00    -0.249 N 
ATOM     10  H4  UNL     1      48.937 -70.824  32.185  1.00  0.00     0.196 HD
BRANCH   9  11
HETATM   11  O2  UNL     1      47.611 -69.277  32.579  1.00  0.00    -0.288 OA
ATOM     12  H2  UNL     1      48.296 -68.645  32.766  1.00  0.00     0.244 HD
ENDBRANCH   9  11
BRANCH   8  13
HETATM   13  N5  UNL     1      47.539 -72.745  31.931  1.00  0.00    -0.288 N 
ATOM     14  H5  UNL     1      48.007 -73.258  32.678  1.00  0.00     0.188 HD
BRANCH  13  15
HETATM   15  N6  UNL     1      47.419 -73.343  30.684  1.00  0.00    -0.343 N 
ATOM     16  H62 UNL     1      47.900 -72.904  29.899  1.00  0.00     0.176 HD
ATOM     17  H61 UNL     1      46.874 -74.193  30.533  1.00  0.00     0.176 HD
ENDBRANCH  13  15
ENDBRANCH   8  13
ENDBRANCH   6   8
BRANCH   7  18
HETATM   18  C7  UNL     1      44.723 -71.556  30.144  1.00  0.00     0.295 C 
BRANCH  18  19
HETATM   19  S1  UNL     1      45.746 -70.472  29.138  1.00  0.00     0.241 S 
HETATM   20  O3  UNL     1      45.526 -69.076  29.650  1.00  0.00    -0.204 OA
HETATM   21  O4  UNL     1      47.185 -70.778  29.225  1.00  0.00    -0.204 OA
BRANCH  19  22
HETATM   22  N8  UNL     1      45.270 -70.526  27.484  1.00  0.00    -0.327 N 
ATOM     23  H82 UNL     1      44.299 -70.506  27.175  1.00  0.00     0.168 HD
ATOM     24  H81 UNL     1      46.082 -70.579  26.869  1.00  0.00     0.168 HD
ENDBRANCH  19  22
ENDBRANCH  18  19
ENDBRANCH   7  18
BRANCH   1  25
HETATM   25  C3  UNL     1      42.148 -70.497  31.585  1.00  0.00     0.184 C 
BRANCH  25  26
HETATM   26  O1  UNL     1      41.808 -69.389  30.904  1.00  0.00    -0.358 OA
BRANCH  26  27
HETATM   27  C2  UNL     1      40.784 -68.733  31.598  1.00  0.00     0.202 C 
BRANCH  27  28
HETATM   28  C1  UNL     1      41.076 -67.250  31.716  1.00  0.00     0.256 C 
BRANCH  28  29
HETATM   29  N1  UNL     1      41.898 -66.941  32.848  1.00  0.00    -0.077 N 
ATOM     30  H13 UNL     1      41.335 -66.818  33.688  1.00  0.00     0.274 HD
ATOM     31  H12 UNL     1      42.446 -67.752  33.135  1.00  0.00     0.274 HD
ATOM     32  H11 UNL     1      42.499 -66.132  32.686  1.00  0.00     0.274 HD
ENDBRANCH  28  29
ENDBRANCH  27  28
ENDBRANCH  26  27
ENDBRANCH  25  26
ENDBRANCH   1  25
TORSDOF 12
ENDMDL
MODEL 2
REMARK VINA RESULT: -6.802111972      6.401      8.770
REMARK  12 active torsions:
REMARK  status: ('A' for Active; 'I' for Inactive)
REMARK    1  A    between atoms: N1_1  and  C1_5 
REMARK    2  A    between atoms: C1_5  and  C2_6 
REMARK    3  A    between atoms: C2_6  and  O1_7 
REMARK    4  A    between atoms: O1_7  and  C3_8 
REMARK    5  A    between atoms: C3_8  and  C4_9 
REMARK    6  A    between atoms: C5_14  and  C6_15 
REMARK    7  A    between atoms: C6_15  and  N5_20 
REMARK    8  A    between atoms: N4_16  and  O2_18 
REMARK    9  A    between atoms: N5_20  and  N6_22 
REMARK   10  A    between atoms: N7_25  and  C7_26 
REMARK   11  A    between atoms: C7_26  and  S1_27 
REMARK   12  A    between atoms: S1_27  and  N8_28 
ROOT
HETATM    1  C4  UNL     1      43.882 -63.372  33.115  1.00  0.00     0.147 A 
HETATM    2  N2  UNL     1      43.587 -62.838  31.891  1.00  0.00    -0.282 N 
ATOM      3  H2  UNL     1      44.051 -62.039  31.459  1.00  0.00     0.188 HD
HETATM    4  N3  UNL     1      42.600 -63.534  31.366  1.00  0.00    -0.280 N 
ATOM      5  H3  UNL     1      42.181 -63.351  30.455  1.00  0.00     0.188 HD
HETATM    6  C5  UNL     1      42.221 -64.531  32.208  1.00  0.00     0.173 A 
HETATM    7  N7  UNL     1      43.051 -64.386  33.287  1.00  0.00    -0.297 N 
ENDROOT
BRANCH   6   8
HETATM    8  C6  UNL     1      41.172 -65.478  31.967  1.00  0.00     0.186 C 
HETATM    9  N4  UNL     1      39.956 -65.166  32.218  1.00  0.00    -0.249 N 
ATOM     10  H4  UNL     1      39.204 -65.835  32.048  1.00  0.00     0.196 HD
BRANCH   9  11
HETATM   11  O2  UNL     1      39.681 -63.928  32.715  1.00  0.00    -0.288 OA
ATOM     12  H2  UNL     1      38.827 -63.765  33.098  1.00  0.00     0.244 HD
ENDBRANCH   9  11
BRANCH   8  13
HETATM   13  N5  UNL     1      41.310 -66.791  31.448  1.00  0.00    -0.288 N 
ATOM     14  H5  UNL     1      40.976 -66.982  30.503  1.00  0.00     0.188 HD
BRANCH  13  15
HETATM   15  N6  UNL     1      41.883 -67.825  32.175  1.00  0.00    -0.343 N 
ATOM     16  H62 UNL     1      41.949 -68.740  31.727  1.00  0.00     0.176 HD
ATOM     17  H61 UNL     1      42.233 -67.700  33.125  1.00  0.00     0.176 HD
ENDBRANCH  13  15
ENDBRANCH   8  13
ENDBRANCH   6   8
BRANCH   7  18
HETATM   18  C7  UNL     1      43.012 -65.217  34.449  1.00  0.00     0.295 C 
BRANCH  18  19
HETATM   19  S1  UNL     1      41.664 -64.788  35.560  1.00  0.00     0.241 S 
HETATM   20  O3  UNL     1      40.556 -65.766  35.286  1.00  0.00    -0.204 OA
HETATM   21  O4  UNL     1      42.027 -64.883  36.985  1.00  0.00    -0.204 OA
BRANCH  19  22
HETATM   22  N8  UNL     1      41.079 -63.200  35.244  1.00  0.00    -0.327 N 
ATOM     23  H82 UNL     1      41.492 -62.573  34.555  1.00  0.00     0.168 HD
ATOM     24  H81 UNL     1      40.275 -62.980  35.832  1.00  0.00     0.168 HD
ENDBRANCH  19  22
ENDBRANCH  18  19
ENDBRANCH   7  18
BRANCH   1  25
HETATM   25  C3  UNL     1      44.938 -62.801  33.922  1.00  0.00     0.184 C 
BRANCH  25  26
HETATM   26  O1  UNL     1      45.963 -62.162  33.331  1.00  0.00    -0.358 OA
BRANCH  26  27
HETATM   27  C2  UNL     1      46.418 -61.155  34.190  1.00  0.00     0.202 C 
BRANCH  27  28
HETATM   28  C1  UNL     1      46.062 -61.473  35.630  1.00  0.00     0.256 C 
BRANCH  28  29
HETATM   29  N1  UNL     1      46.806 -60.683  36.566  1.00  0.00    -0.077 N 
ATOM     30  H13 UNL     1      46.585 -59.693  36.468  1.00  0.00     0.274 HD
ATOM     31  H12 UNL     1      46.473 -60.832  37.518  1.00  0.00     0.274 HD
ATOM     32  H11 UNL     1      47.811 -60.843  36.500  1.00  0.00     0.274 HD
ENDBRANCH  28  29
ENDBRANCH  27  28
ENDBRANCH  26  27
ENDBRANCH  25  26
ENDBRANCH   1  25
TORSDOF 12
ENDMDL
MODEL 3
REMARK VINA RESULT: -6.296765551      1.284      1.796
REMARK  12 active torsions:
REMARK  status: ('A' for Active; 'I' for Inactive)
REMARK    1  A    between atoms: N1_1  and  C1_5 
REMARK    2  A    between atoms: C1_5  and  C2_6 
REMARK    3  A    between atoms: C2_6  and  O1_7 
REMARK    4  A    between atoms: O1_7  and  C3_8 
REMARK    5  A    between atoms: C3_8  and  C4_9 
REMARK    6  A    between atoms: C5_14  and  C6_15 
REMARK    7  A    between atoms: C6_15  and  N5_20 
REMARK    8  A    between atoms: N4_16  and  O2_18 
REMARK    9  A    between atoms: N5_20  and  N6_22 
REMARK   10  A    between atoms: N7_25  and  C7_26 
REMARK   11  A    between atoms: C7_26  and  S1_27 
REMARK   12  A    between atoms: S1_27  and  N8_28 
ROOT
HETATM    1  C4  UNL     1      43.285 -70.602  31.748  1.00  0.00     0.147 A 
HETATM    2  N2  UNL     1      43.426 -71.165  32.987  1.00  0.00    -0.282 N 
ATOM      3  H2  UNL     1      42.666 -71.448  33.605  1.00  0.00     0.188 HD
HETATM    4  N3  UNL     1      44.712 -71.280  33.243  1.00  0.00    -0.280 N 
ATOM      5  H3  UNL     1      45.101 -71.669  34.101  1.00  0.00     0.188 HD
HETATM    6  C5  UNL     1      45.448 -70.808  32.203  1.00  0.00     0.173 A 
HETATM    7  N7  UNL     1      44.510 -70.394  31.295  1.00  0.00    -0.297 N 
ENDROOT
BRANCH   6   8
HETATM    8  C6  UNL     1      46.879 -70.767  32.139  1.00  0.00     0.186 C 
HETATM    9  N4  UNL     1      47.543 -71.839  31.917  1.00  0.00    -0.249 N 
ATOM     10  H4  UNL     1      48.561 -71.818  31.870  1.00  0.00     0.196 HD
BRANCH   9  11
HETATM   11  O2  UNL     1      46.867 -73.010  31.746  1.00  0.00    -0.288 OA
ATOM     12  H2  UNL     1      47.069 -73.745  32.312  1.00  0.00     0.244 HD
ENDBRANCH   9  11
BRANCH   8  13
HETATM   13  N5  UNL     1      47.708 -69.626  32.289  1.00  0.00    -0.288 N 
ATOM     14  H5  UNL     1      47.667 -69.101  33.163  1.00  0.00     0.188 HD
BRANCH  13  15
HETATM   15  N6  UNL     1      48.574 -69.194  31.293  1.00  0.00    -0.343 N 
ATOM     16  H62 UNL     1      49.528 -69.554  31.305  1.00  0.00     0.176 HD
ATOM     17  H61 UNL     1      48.288 -68.541  30.563  1.00  0.00     0.176 HD
ENDBRANCH  13  15
ENDBRANCH   8  13
ENDBRANCH   6   8
BRANCH   7  18
HETATM   18  C7  UNL     1      44.819 -69.806  30.030  1.00  0.00     0.295 C 
BRANCH  18  19
HETATM   19  S1  UNL     1      45.784 -70.900  28.977  1.00  0.00     0.241 S 
HETATM   20  O3  UNL     1      47.222 -70.493  29.139  1.00  0.00    -0.204 OA
HETATM   21  O4  UNL     1      45.658 -72.323  29.339  1.00  0.00    -0.204 OA
BRANCH  19  22
HETATM   22  N8  UNL     1      45.350 -70.712  27.321  1.00  0.00    -0.327 N 
ATOM     23  H82 UNL     1      46.022 -70.513  26.581  1.00  0.00     0.168 HD
ATOM     24  H81 UNL     1      44.345 -70.826  27.189  1.00  0.00     0.168 HD
ENDBRANCH  19  22
ENDBRANCH  18  19
ENDBRANCH   7  18
BRANCH   1  25
HETATM   25  C3  UNL     1      41.967 -70.359  31.205  1.00  0.00     0.184 C 
BRANCH  25  26
HETATM   26  O1  UNL     1      41.150 -69.471  31.799  1.00  0.00    -0.358 OA
BRANCH  26  27
HETATM   27  C2  UNL     1      41.234 -68.255  31.109  1.00  0.00     0.202 C 
BRANCH  27  28
HETATM   28  C1  UNL     1      40.921 -67.091  32.029  1.00  0.00     0.256 C 
BRANCH  28  29
HETATM   29  N1  UNL     1      41.994 -66.804  32.934  1.00  0.00    -0.077 N 
ATOM     30  H13 UNL     1      42.877 -67.177  32.586  1.00  0.00     0.274 HD
ATOM     31  H12 UNL     1      42.222 -65.811  32.930  1.00  0.00     0.274 HD
ATOM     32  H11 UNL     1      41.804 -67.133  33.881  1.00  0.00     0.274 HD
ENDBRANCH  28  29
ENDBRANCH  27  28
ENDBRANCH  26  27
ENDBRANCH  25  26
ENDBRANCH   1  25
TORSDOF 12
ENDMDL
MODEL 4
REMARK VINA RESULT: -6.237223631      6.789      9.268
REMARK  12 active torsions:
REMARK  status: ('A' for Active; 'I' for Inactive)
REMARK    1  A    between atoms: N1_1  and  C1_5 
REMARK    2  A    between atoms: C1_5  and  C2_6 
REMARK    3  A    between atoms: C2_6  and  O1_7 
REMARK    4  A    between atoms: O1_7  and  C3_8 
REMARK    5  A    between atoms: C3_8  and  C4_9 
REMARK    6  A    between atoms: C5_14  and  C6_15 
REMARK    7  A    between atoms: C6_15  and  N5_20 
REMARK    8  A    between atoms: N4_16  and  O2_18 
REMARK    9  A    between atoms: N5_20  and  N6_22 
REMARK   10  A    between atoms: N7_25  and  C7_26 
REMARK   11  A    between atoms: C7_26  and  S1_27 
REMARK   12  A    between atoms: S1_27  and  N8_28 
ROOT
HETATM    1  C4  UNL     1      44.757 -62.733  34.180  1.00  0.00     0.147 A 
HETATM    2  N2  UNL     1      45.146 -62.770  32.869  1.00  0.00    -0.282 N 
ATOM      3  H2  UNL     1      46.043 -62.453  32.502  1.00  0.00     0.188 HD
HETATM    4  N3  UNL     1      44.163 -63.288  32.163  1.00  0.00    -0.280 N 
ATOM      5  H3  UNL     1      44.185 -63.432  31.154  1.00  0.00     0.188 HD
HETATM    6  C5  UNL     1      43.114 -63.605  32.968  1.00  0.00     0.173 A 
HETATM    7  N7  UNL     1      43.535 -63.237  34.218  1.00  0.00    -0.297 N 
ENDROOT
BRANCH   6   8
HETATM    8  C6  UNL     1      41.873 -64.179  32.540  1.00  0.00     0.186 C 
HETATM    9  N4  UNL     1      40.784 -63.517  32.663  1.00  0.00    -0.249 N 
ATOM     10  H4  UNL     1      39.897 -63.919  32.360  1.00  0.00     0.196 HD
BRANCH   9  11
HETATM   11  O2  UNL     1      40.829 -62.267  33.204  1.00  0.00    -0.288 OA
ATOM     12  H2  UNL     1      40.147 -61.644  32.980  1.00  0.00     0.244 HD
ENDBRANCH   9  11
BRANCH   8  13
HETATM   13  N5  UNL     1      41.680 -65.457  31.955  1.00  0.00    -0.288 N 
ATOM     14  H5  UNL     1      41.342 -65.511  30.995  1.00  0.00     0.188 HD
BRANCH  13  15
HETATM   15  N6  UNL     1      41.933 -66.638  32.640  1.00  0.00    -0.343 N 
ATOM     16  H62 UNL     1      41.631 -67.511  32.207  1.00  0.00     0.176 HD
ATOM     17  H61 UNL     1      42.404 -66.657  33.545  1.00  0.00     0.176 HD
ENDBRANCH  13  15
ENDBRANCH   8  13
ENDBRANCH   6   8
BRANCH   7  18
HETATM   18  C7  UNL     1      42.749 -63.373  35.404  1.00  0.00     0.295 C 
BRANCH  18  19
HETATM   19  S1  UNL     1      42.540 -65.088  35.902  1.00  0.00     0.241 S 
HETATM   20  O3  UNL     1      43.563 -65.884  35.140  1.00  0.00    -0.204 OA
HETATM   21  O4  UNL     1      42.757 -65.310  37.343  1.00  0.00    -0.204 OA
BRANCH  19  22
HETATM   22  N8  UNL     1      40.976 -65.672  35.483  1.00  0.00    -0.327 N 
ATOM     23  H82 UNL     1      40.247 -65.874  36.167  1.00  0.00     0.168 HD
ATOM     24  H81 UNL     1      40.883 -65.786  34.474  1.00  0.00     0.168 HD
ENDBRANCH  19  22
ENDBRANCH  18  19
ENDBRANCH   7  18
BRANCH   1  25
HETATM   25  C3  UNL     1      45.651 -62.209  35.189  1.00  0.00     0.184 C 
BRANCH  25  26
HETATM   26  O1  UNL     1      46.759 -61.542  34.822  1.00  0.00    -0.358 OA
BRANCH  26  27
HETATM   27  C2  UNL     1      46.597 -60.190  35.151  1.00  0.00     0.202 C 
BRANCH  27  28
HETATM   28  C1  UNL     1      46.131 -60.036  36.586  1.00  0.00     0.256 C 
BRANCH  28  29
HETATM   29  N1  UNL     1      45.351 -58.852  36.785  1.00  0.00    -0.077 N 
ATOM     30  H13 UNL     1      45.428 -58.519  37.746  1.00  0.00     0.274 HD
ATOM     31  H12 UNL     1      45.764 -58.055  36.302  1.00  0.00     0.274 HD
ATOM     32  H11 UNL     1      44.375 -58.978  36.516  1.00  0.00     0.274 HD
ENDBRANCH  28  29
ENDBRANCH  27  28
ENDBRANCH  26  27
ENDBRANCH  25  26
ENDBRANCH   1  25
TORSDOF 12
ENDMDL
MODEL 5
REMARK VINA RESULT: -6.230750651      4.516      7.697
REMARK  12 active torsions:
REMARK  status: ('A' for Active; 'I' for Inactive)
REMARK    1  A    between atoms: N1_1  and  C1_5 
REMARK    2  A    between atoms: C1_5  and  C2_6 
REMARK    3  A    between atoms: C2_6  and  O1_7 
REMARK    4  A    between atoms: O1_7  and  C3_8 
REMARK    5  A    between atoms: C3_8  and  C4_9 
REMARK    6  A    between atoms: C5_14  and  C6_15 
REMARK    7  A    between atoms: C6_15  and  N5_20 
REMARK    8  A    between atoms: N4_16  and  O2_18 
REMARK    9  A    between atoms: N5_20  and  N6_22 
REMARK   10  A    between atoms: N7_25  and  C7_26 
REMARK   11  A    between atoms: C7_26  and  S1_27 
REMARK   12  A    between atoms: S1_27  and  N8_28 
ROOT
HETATM    1  C4  UNL     1      41.174 -66.849  32.420  1.00  0.00     0.147 A 
HETATM    2  N2  UNL     1      41.255 -66.453  31.112  1.00  0.00    -0.282 N 
ATOM      3  H2  UNL     1      41.183 -67.061  30.298  1.00  0.00     0.188 HD
HETATM    4  N3  UNL     1      41.442 -65.150  31.088  1.00  0.00    -0.280 N 
ATOM      5  H3  UNL     1      41.539 -64.593  30.240  1.00  0.00     0.188 HD
HETATM    6  C5  UNL     1      41.488 -64.652  32.352  1.00  0.00     0.173 A 
HETATM    7  N7  UNL     1      41.317 -65.754  33.147  1.00  0.00    -0.297 N 
ENDROOT
BRANCH   6   8
HETATM    8  C6  UNL     1      41.688 -63.277  32.704  1.00  0.00     0.186 C 
HETATM    9  N4  UNL     1      42.829 -62.727  32.522  1.00  0.00    -0.249 N 
ATOM     10  H4  UNL     1      42.978 -61.749  32.770  1.00  0.00     0.196 HD
BRANCH   9  11
HETATM   11  O2  UNL     1      43.842 -63.468  31.992  1.00  0.00    -0.288 OA
ATOM     12  H2  UNL     1      44.576 -63.021  31.587  1.00  0.00     0.244 HD
ENDBRANCH   9  11
BRANCH   8  13
HETATM   13  N5  UNL     1      40.727 -62.389  33.254  1.00  0.00    -0.288 N 
ATOM     14  H5  UNL     1      40.492 -61.541  32.738  1.00  0.00     0.188 HD
BRANCH  13  15
HETATM   15  N6  UNL     1      40.094 -62.630  34.466  1.00  0.00    -0.343 N 
ATOM     16  H62 UNL     1      39.133 -62.973  34.439  1.00  0.00     0.176 HD
ATOM     17  H61 UNL     1      40.553 -62.477  35.364  1.00  0.00     0.176 HD
ENDBRANCH  13  15
ENDBRANCH   8  13
ENDBRANCH   6   8
BRANCH   7  18
HETATM   18  C7  UNL     1      41.306 -65.720  34.576  1.00  0.00     0.295 C 
BRANCH  18  19
HETATM   19  S1  UNL     1      42.830 -65.055  35.262  1.00  0.00     0.241 S 
HETATM   20  O3  UNL     1      42.638 -63.568  35.372  1.00  0.00    -0.204 OA
HETATM   21  O4  UNL     1      43.150 -65.583  36.600  1.00  0.00    -0.204 OA
BRANCH  19  22
HETATM   22  N8  UNL     1      44.166 -65.354  34.218  1.00  0.00    -0.327 N 
ATOM     23  H82 UNL     1      44.817 -66.129  34.342  1.00  0.00     0.168 HD
ATOM     24  H81 UNL     1      44.213 -64.661  33.472  1.00  0.00     0.168 HD
ENDBRANCH  19  22
ENDBRANCH  18  19
ENDBRANCH   7  18
BRANCH   1  25
HETATM   25  C3  UNL     1      40.965 -68.242  32.746  1.00  0.00     0.184 C 
BRANCH  25  26
HETATM   26  O1  UNL     1      40.135 -68.989  31.998  1.00  0.00    -0.358 OA
BRANCH  26  27
HETATM   27  C2  UNL     1      40.896 -69.914  31.272  1.00  0.00     0.202 C 
BRANCH  27  28
HETATM   28  C1  UNL     1      42.343 -69.895  31.725  1.00  0.00     0.256 C 
BRANCH  28  29
HETATM   29  N1  UNL     1      43.240 -69.511  30.677  1.00  0.00    -0.077 N 
ATOM     30  H13 UNL     1      42.830 -69.687  29.760  1.00  0.00     0.274 HD
ATOM     31  H12 UNL     1      43.330 -68.496  30.624  1.00  0.00     0.274 HD
ATOM     32  H11 UNL     1      44.154 -69.956  30.762  1.00  0.00     0.274 HD
ENDBRANCH  28  29
ENDBRANCH  27  28
ENDBRANCH  26  27
ENDBRANCH  25  26
ENDBRANCH   1  25
TORSDOF 12
ENDMDL
