MODEL 1
REMARK VINA RESULT: -8.516357056      0.000      0.000
REMARK  11 active torsions:
REMARK  status: ('A' for Active; 'I' for Inactive)
REMARK    1  A    between atoms: C1_4  and  C2_5 
REMARK    2  A    between atoms: C1_4  and  N5_15 
REMARK    3  A    between atoms: C2_5  and  N2_6 
REMARK    4  A    between atoms: C3_8  and  C4_9 
REMARK    5  A    between atoms: N5_15  and  C6_17 
REMARK    6  A    between atoms: C6_17  and  C7_18 
REMARK    7  A    between atoms: C7_18  and  N6_19 
REMARK    8  A    between atoms: C7_18  and  C8_23 
REMARK    9  A    between atoms: C8_23  and  N7_24 
REMARK   10  A    between atoms: N7_24  and  S1_26 
REMARK   11  A    between atoms: S1_26  and  N8_27 
ROOT
HETATM    1  N5  UNL     1      40.792 -69.282  31.642  1.00  0.00    -0.377 N 
ATOM      2  H5  UNL     1      39.935 -69.535  32.134  1.00  0.00     0.160 HD
ENDROOT
BRANCH   1   3
HETATM    3  C1  UNL     1      41.073 -67.936  31.334  1.00  0.00     0.088 C 
HETATM    4  N1  UNL     1      41.513 -67.625  30.180  1.00  0.00    -0.388 N 
ATOM      5  H12 UNL     1      41.716 -66.650  29.957  1.00  0.00     0.157 HD
ATOM      6  H11 UNL     1      41.668 -68.339  29.469  1.00  0.00     0.157 HD
BRANCH   3   7
HETATM    7  C2  UNL     1      40.848 -66.900  32.367  1.00  0.00     0.194 C 
BRANCH   7   8
HETATM    8  N2  UNL     1      42.098 -66.645  33.021  1.00  0.00    -0.393 N 
HETATM    9  C3  UNL     1      42.183 -65.670  33.825  1.00  0.00     0.088 C 
ATOM     10  H2  UNL     1      42.906 -67.241  32.841  1.00  0.00     0.159 HD
BRANCH   9  11
HETATM   11  C4  UNL     1      41.030 -64.816  34.087  1.00  0.00     0.230 C 
HETATM   12  N3  UNL     1      40.961 -64.324  35.473  1.00  0.00    -0.119 NA
HETATM   13  N4  UNL     1      40.457 -63.137  34.956  1.00  0.00    -0.271 N 
HETATM   14  C5  UNL     1      41.199 -63.374  33.776  1.00  0.00     0.259 C 
ATOM     15  H4  UNL     1      39.825 -62.408  35.286  1.00  0.00     0.185 HD
HETATM   16  O1  UNL     1      41.726 -62.632  32.913  1.00  0.00    -0.270 OA
ENDBRANCH   9  11
ENDBRANCH   7   8
ENDBRANCH   3   7
ENDBRANCH   1   3
BRANCH   1  17
HETATM   17  C6  UNL     1      41.742 -70.295  31.247  1.00  0.00     0.155 C 
BRANCH  17  18
HETATM   18  C7  UNL     1      43.109 -70.011  31.852  1.00  0.00     0.219 C 
BRANCH  18  19
HETATM   19  N6  UNL     1      43.087 -70.260  33.300  1.00  0.00    -0.072 N 
ATOM     20  H63 UNL     1      42.499 -69.588  33.793  1.00  0.00     0.274 HD
ATOM     21  H62 UNL     1      42.573 -71.109  33.532  1.00  0.00     0.274 HD
ATOM     22  H61 UNL     1      44.038 -70.277  33.670  1.00  0.00     0.274 HD
ENDBRANCH  18  19
BRANCH  18  23
HETATM   23  C8  UNL     1      44.060 -71.032  31.266  1.00  0.00     0.168 C 
BRANCH  23  24
HETATM   24  N7  UNL     1      45.398 -70.725  31.735  1.00  0.00    -0.301 N 
ATOM     25  H7  UNL     1      45.683 -70.705  32.714  1.00  0.00     0.173 HD
BRANCH  24  26
HETATM   26  S1  UNL     1      46.443 -70.399  30.393  1.00  0.00     0.312 S 
HETATM   27  O2  UNL     1      45.712 -69.403  29.516  1.00  0.00    -0.183 OA
HETATM   28  O3  UNL     1      46.622 -71.664  29.600  1.00  0.00    -0.183 OA
BRANCH  26  29
HETATM   29  N8  UNL     1      47.965 -69.809  30.902  1.00  0.00    -0.312 N 
ATOM     30  H82 UNL     1      48.107 -69.314  31.782  1.00  0.00     0.170 HD
ATOM     31  H81 UNL     1      48.697 -70.015  30.222  1.00  0.00     0.170 HD
ENDBRANCH  26  29
ENDBRANCH  24  26
ENDBRANCH  23  24
ENDBRANCH  18  23
ENDBRANCH  17  18
ENDBRANCH   1  17
TORSDOF 11
ENDMDL
MODEL 2
REMARK VINA RESULT: -8.208101300      2.722      7.185
REMARK  11 active torsions:
REMARK  status: ('A' for Active; 'I' for Inactive)
REMARK    1  A    between atoms: C1_4  and  C2_5 
REMARK    2  A    between atoms: C1_4  and  N5_15 
REMARK    3  A    between atoms: C2_5  and  N2_6 
REMARK    4  A    between atoms: C3_8  and  C4_9 
REMARK    5  A    between atoms: N5_15  and  C6_17 
REMARK    6  A    between atoms: C6_17  and  C7_18 
REMARK    7  A    between atoms: C7_18  and  N6_19 
REMARK    8  A    between atoms: C7_18  and  C8_23 
REMARK    9  A    between atoms: C8_23  and  N7_24 
REMARK   10  A    between atoms: N7_24  and  S1_26 
REMARK   11  A    between atoms: S1_26  and  N8_27 
ROOT
HETATM    1  N5  UNL     1      41.944 -67.997  32.202  1.00  0.00    -0.377 N 
ATOM      2  H5  UNL     1      42.816 -67.721  32.653  1.00  0.00     0.160 HD
ENDROOT
BRANCH   1   3
HETATM    3  C1  UNL     1      41.830 -69.250  31.566  1.00  0.00     0.088 C 
HETATM    4  N1  UNL     1      40.709 -69.622  31.087  1.00  0.00    -0.388 N 
ATOM      5  H12 UNL     1      40.626 -70.528  30.627  1.00  0.00     0.157 HD
ATOM      6  H11 UNL     1      39.886 -69.024  31.157  1.00  0.00     0.157 HD
BRANCH   3   7
HETATM    7  C2  UNL     1      43.024 -70.117  31.464  1.00  0.00     0.194 C 
BRANCH   7   8
HETATM    8  N2  UNL     1      43.811 -69.663  30.355  1.00  0.00    -0.393 N 
HETATM    9  C3  UNL     1      44.999 -70.084  30.231  1.00  0.00     0.088 C 
ATOM     10  H2  UNL     1      43.419 -69.011  29.676  1.00  0.00     0.159 HD
BRANCH   9  11
HETATM   11  C4  UNL     1      45.565 -71.018  31.199  1.00  0.00     0.230 C 
HETATM   12  N3  UNL     1      46.296 -72.137  30.583  1.00  0.00    -0.119 NA
HETATM   13  N4  UNL     1      47.183 -72.058  31.650  1.00  0.00    -0.271 N 
HETATM   14  C5  UNL     1      46.906 -70.674  31.734  1.00  0.00     0.259 C 
ATOM     15  H4  UNL     1      47.777 -72.715  32.155  1.00  0.00     0.185 HD
HETATM   16  O1  UNL     1      47.565 -69.674  32.108  1.00  0.00    -0.270 OA
ENDBRANCH   9  11
ENDBRANCH   7   8
ENDBRANCH   3   7
ENDBRANCH   1   3
BRANCH   1  17
HETATM   17  C6  UNL     1      40.802 -67.114  32.201  1.00  0.00     0.155 C 
BRANCH  17  18
HETATM   18  C7  UNL     1      41.234 -65.683  32.490  1.00  0.00     0.219 C 
BRANCH  18  19
HETATM   19  N6  UNL     1      40.083 -64.774  32.390  1.00  0.00    -0.072 N 
ATOM     20  H63 UNL     1      39.778 -64.650  31.424  1.00  0.00     0.274 HD
ATOM     21  H62 UNL     1      39.233 -65.196  32.763  1.00  0.00     0.274 HD
ATOM     22  H61 UNL     1      40.296 -63.884  32.840  1.00  0.00     0.274 HD
ENDBRANCH  18  19
BRANCH  18  23
HETATM   23  C8  UNL     1      41.670 -65.648  33.939  1.00  0.00     0.168 C 
BRANCH  23  24
HETATM   24  N7  UNL     1      43.106 -65.449  33.974  1.00  0.00    -0.301 N 
ATOM     25  H7  UNL     1      43.794 -66.188  34.121  1.00  0.00     0.173 HD
BRANCH  24  26
HETATM   26  S1  UNL     1      43.486 -63.777  33.731  1.00  0.00     0.312 S 
HETATM   27  O2  UNL     1      44.610 -63.452  34.694  1.00  0.00    -0.183 OA
HETATM   28  O3  UNL     1      42.293 -62.949  34.120  1.00  0.00    -0.183 OA
BRANCH  26  29
HETATM   29  N8  UNL     1      43.917 -63.453  32.109  1.00  0.00    -0.312 N 
ATOM     30  H82 UNL     1      43.704 -62.574  31.638  1.00  0.00     0.170 HD
ATOM     31  H81 UNL     1      44.406 -64.241  31.683  1.00  0.00     0.170 HD
ENDBRANCH  26  29
ENDBRANCH  24  26
ENDBRANCH  23  24
ENDBRANCH  18  23
ENDBRANCH  17  18
ENDBRANCH   1  17
TORSDOF 11
ENDMDL
MODEL 3
REMARK VINA RESULT: -8.198995314      2.738      7.454
REMARK  11 active torsions:
REMARK  status: ('A' for Active; 'I' for Inactive)
REMARK    1  A    between atoms: C1_4  and  C2_5 
REMARK    2  A    between atoms: C1_4  and  N5_15 
REMARK    3  A    between atoms: C2_5  and  N2_6 
REMARK    4  A    between atoms: C3_8  and  C4_9 
REMARK    5  A    between atoms: N5_15  and  C6_17 
REMARK    6  A    between atoms: C6_17  and  C7_18 
REMARK    7  A    between atoms: C7_18  and  N6_19 
REMARK    8  A    between atoms: C7_18  and  C8_23 
REMARK    9  A    between atoms: C8_23  and  N7_24 
REMARK   10  A    between atoms: N7_24  and  S1_26 
REMARK   11  A    between atoms: S1_26  and  N8_27 
ROOT
HETATM    1  N5  UNL     1      41.912 -68.032  32.093  1.00  0.00    -0.377 N 
ATOM      2  H5  UNL     1      42.734 -67.715  32.607  1.00  0.00     0.160 HD
ENDROOT
BRANCH   1   3
HETATM    3  C1  UNL     1      41.859 -69.332  31.552  1.00  0.00     0.088 C 
HETATM    4  N1  UNL     1      40.755 -69.797  31.117  1.00  0.00    -0.388 N 
ATOM      5  H12 UNL     1      40.717 -70.738  30.725  1.00  0.00     0.157 HD
ATOM      6  H11 UNL     1      39.902 -69.240  31.154  1.00  0.00     0.157 HD
BRANCH   3   7
HETATM    7  C2  UNL     1      43.097 -70.139  31.497  1.00  0.00     0.194 C 
BRANCH   7   8
HETATM    8  N2  UNL     1      43.872 -69.692  30.377  1.00  0.00    -0.393 N 
HETATM    9  C3  UNL     1      45.066 -70.099  30.253  1.00  0.00     0.088 C 
ATOM     10  H2  UNL     1      43.467 -69.057  29.689  1.00  0.00     0.159 HD
BRANCH   9  11
HETATM   11  C4  UNL     1      45.649 -71.009  31.233  1.00  0.00     0.230 C 
HETATM   12  N3  UNL     1      46.387 -72.131  30.630  1.00  0.00    -0.119 NA
HETATM   13  N4  UNL     1      47.282 -72.024  31.688  1.00  0.00    -0.271 N 
HETATM   14  C5  UNL     1      46.991 -70.641  31.750  1.00  0.00     0.259 C 
ATOM     15  H4  UNL     1      47.888 -72.665  32.200  1.00  0.00     0.185 HD
HETATM   16  O1  UNL     1      47.642 -69.628  32.100  1.00  0.00    -0.270 OA
ENDBRANCH   9  11
ENDBRANCH   7   8
ENDBRANCH   3   7
ENDBRANCH   1   3
BRANCH   1  17
HETATM   17  C6  UNL     1      40.779 -67.157  31.905  1.00  0.00     0.155 C 
BRANCH  17  18
HETATM   18  C7  UNL     1      41.157 -65.717  32.224  1.00  0.00     0.219 C 
BRANCH  18  19
HETATM   19  N6  UNL     1      39.953 -64.928  32.519  1.00  0.00    -0.072 N 
ATOM     20  H63 UNL     1      39.692 -64.324  31.739  1.00  0.00     0.274 HD
ATOM     21  H62 UNL     1      39.115 -65.509  32.547  1.00  0.00     0.274 HD
ATOM     22  H61 UNL     1      40.079 -64.401  33.383  1.00  0.00     0.274 HD
ENDBRANCH  18  19
BRANCH  18  23
HETATM   23  C8  UNL     1      41.958 -65.755  33.507  1.00  0.00     0.168 C 
BRANCH  23  24
HETATM   24  N7  UNL     1      42.957 -64.705  33.449  1.00  0.00    -0.301 N 
ATOM     25  H7  UNL     1      43.759 -64.698  32.819  1.00  0.00     0.173 HD
BRANCH  24  26
HETATM   26  S1  UNL     1      42.591 -63.465  34.601  1.00  0.00     0.312 S 
HETATM   27  O2  UNL     1      41.516 -62.602  33.971  1.00  0.00    -0.183 OA
HETATM   28  O3  UNL     1      43.813 -62.609  34.793  1.00  0.00    -0.183 OA
BRANCH  26  29
HETATM   29  N8  UNL     1      42.094 -64.118  36.100  1.00  0.00    -0.312 N 
ATOM     30  H82 UNL     1      41.266 -64.703  36.208  1.00  0.00     0.170 HD
ATOM     31  H81 UNL     1      42.723 -63.849  36.857  1.00  0.00     0.170 HD
ENDBRANCH  26  29
ENDBRANCH  24  26
ENDBRANCH  23  24
ENDBRANCH  18  23
ENDBRANCH  17  18
ENDBRANCH   1  17
TORSDOF 11
ENDMDL
MODEL 4
REMARK VINA RESULT: -8.150124504      2.892      7.610
REMARK  11 active torsions:
REMARK  status: ('A' for Active; 'I' for Inactive)
REMARK    1  A    between atoms: C1_4  and  C2_5 
REMARK    2  A    between atoms: C1_4  and  N5_15 
REMARK    3  A    between atoms: C2_5  and  N2_6 
REMARK    4  A    between atoms: C3_8  and  C4_9 
REMARK    5  A    between atoms: N5_15  and  C6_17 
REMARK    6  A    between atoms: C6_17  and  C7_18 
REMARK    7  A    between atoms: C7_18  and  N6_19 
REMARK    8  A    between atoms: C7_18  and  C8_23 
REMARK    9  A    between atoms: C8_23  and  N7_24 
REMARK   10  A    between atoms: N7_24  and  S1_26 
REMARK   11  A    between atoms: S1_26  and  N8_27 
ROOT
HETATM    1  N5  UNL     1      42.279 -68.265  31.055  1.00  0.00    -0.377 N 
ATOM      2  H5  UNL     1      43.201 -67.827  31.059  1.00  0.00     0.160 HD
ENDROOT
BRANCH   1   3
HETATM    3  C1  UNL     1      42.151 -69.668  31.086  1.00  0.00     0.088 C 
HETATM    4  N1  UNL     1      40.993 -70.201  31.111  1.00  0.00    -0.388 N 
ATOM      5  H12 UNL     1      40.900 -71.217  31.133  1.00  0.00     0.157 HD
ATOM      6  H11 UNL     1      40.152 -69.625  31.110  1.00  0.00     0.157 HD
BRANCH   3   7
HETATM    7  C2  UNL     1      43.372 -70.503  31.088  1.00  0.00     0.194 C 
BRANCH   7   8
HETATM    8  N2  UNL     1      44.323 -69.901  30.200  1.00  0.00    -0.393 N 
HETATM    9  C3  UNL     1      45.555 -70.155  30.356  1.00  0.00     0.088 C 
ATOM     10  H2  UNL     1      44.013 -69.279  29.454  1.00  0.00     0.159 HD
BRANCH   9  11
HETATM   11  C4  UNL     1      46.005 -71.046  31.421  1.00  0.00     0.230 C 
HETATM   12  N3  UNL     1      46.786 -72.196  30.938  1.00  0.00    -0.119 NA
HETATM   13  N4  UNL     1      47.555 -72.072  32.089  1.00  0.00    -0.271 N 
HETATM   14  C5  UNL     1      47.285 -70.684  32.079  1.00  0.00     0.259 C 
ATOM     15  H4  UNL     1      48.085 -72.708  32.684  1.00  0.00     0.185 HD
HETATM   16  O1  UNL     1      47.911 -69.671  32.475  1.00  0.00    -0.270 OA
ENDBRANCH   9  11
ENDBRANCH   7   8
ENDBRANCH   3   7
ENDBRANCH   1   3
BRANCH   1  17
HETATM   17  C6  UNL     1      41.081 -67.460  31.018  1.00  0.00     0.155 C 
BRANCH  17  18
HETATM   18  C7  UNL     1      40.944 -66.646  32.297  1.00  0.00     0.219 C 
BRANCH  18  19
HETATM   19  N6  UNL     1      42.149 -66.791  33.124  1.00  0.00    -0.072 N 
ATOM     20  H63 UNL     1      42.092 -67.601  33.742  1.00  0.00     0.274 HD
ATOM     21  H62 UNL     1      42.957 -67.079  32.573  1.00  0.00     0.274 HD
ATOM     22  H61 UNL     1      42.329 -65.930  33.641  1.00  0.00     0.274 HD
ENDBRANCH  18  19
BRANCH  18  23
HETATM   23  C8  UNL     1      40.895 -65.192  31.879  1.00  0.00     0.168 C 
BRANCH  23  24
HETATM   24  N7  UNL     1      39.960 -64.503  32.748  1.00  0.00    -0.301 N 
ATOM     25  H7  UNL     1      38.955 -64.439  32.589  1.00  0.00     0.173 HD
BRANCH  24  26
HETATM   26  S1  UNL     1      40.796 -63.804  34.094  1.00  0.00     0.312 S 
HETATM   27  O2  UNL     1      42.225 -63.585  33.641  1.00  0.00    -0.183 OA
HETATM   28  O3  UNL     1      40.818 -64.800  35.220  1.00  0.00    -0.183 OA
BRANCH  26  29
HETATM   29  N8  UNL     1      40.058 -62.352  34.614  1.00  0.00    -0.312 N 
ATOM     30  H82 UNL     1      39.050 -62.200  34.598  1.00  0.00     0.170 HD
ATOM     31  H81 UNL     1      40.747 -61.672  34.936  1.00  0.00     0.170 HD
ENDBRANCH  26  29
ENDBRANCH  24  26
ENDBRANCH  23  24
ENDBRANCH  18  23
ENDBRANCH  17  18
ENDBRANCH   1  17
TORSDOF 11
ENDMDL
MODEL 5
REMARK VINA RESULT: -8.140962583      1.342      1.437
REMARK  11 active torsions:
REMARK  status: ('A' for Active; 'I' for Inactive)
REMARK    1  A    between atoms: C1_4  and  C2_5 
REMARK    2  A    between atoms: C1_4  and  N5_15 
REMARK    3  A    between atoms: C2_5  and  N2_6 
REMARK    4  A    between atoms: C3_8  and  C4_9 
REMARK    5  A    between atoms: N5_15  and  C6_17 
REMARK    6  A    between atoms: C6_17  and  C7_18 
REMARK    7  A    between atoms: C7_18  and  N6_19 
REMARK    8  A    between atoms: C7_18  and  C8_23 
REMARK    9  A    between atoms: C8_23  and  N7_24 
REMARK   10  A    between atoms: N7_24  and  S1_26 
REMARK   11  A    between atoms: S1_26  and  N8_27 
ROOT
HETATM    1  N5  UNL     1      40.760 -69.262  31.597  1.00  0.00    -0.377 N 
ATOM      2  H5  UNL     1      39.881 -69.518  32.045  1.00  0.00     0.160 HD
ENDROOT
BRANCH   1   3
HETATM    3  C1  UNL     1      41.058 -67.914  31.315  1.00  0.00     0.088 C 
HETATM    4  N1  UNL     1      41.510 -67.586  30.170  1.00  0.00    -0.388 N 
ATOM      5  H12 UNL     1      41.725 -66.610  29.966  1.00  0.00     0.157 HD
ATOM      6  H11 UNL     1      41.662 -68.289  29.447  1.00  0.00     0.157 HD
BRANCH   3   7
HETATM    7  C2  UNL     1      40.836 -66.894  32.364  1.00  0.00     0.194 C 
BRANCH   7   8
HETATM    8  N2  UNL     1      42.088 -66.652  33.020  1.00  0.00    -0.393 N 
HETATM    9  C3  UNL     1      42.179 -65.683  33.832  1.00  0.00     0.088 C 
ATOM     10  H2  UNL     1      42.893 -67.250  32.836  1.00  0.00     0.159 HD
BRANCH   9  11
HETATM   11  C4  UNL     1      41.030 -64.823  34.100  1.00  0.00     0.230 C 
HETATM   12  N3  UNL     1      40.978 -64.321  35.482  1.00  0.00    -0.119 NA
HETATM   13  N4  UNL     1      40.472 -63.136  34.962  1.00  0.00    -0.271 N 
HETATM   14  C5  UNL     1      41.200 -63.384  33.776  1.00  0.00     0.259 C 
ATOM     15  H4  UNL     1      39.845 -62.403  35.293  1.00  0.00     0.185 HD
HETATM   16  O1  UNL     1      41.719 -62.650  32.901  1.00  0.00    -0.270 OA
ENDBRANCH   9  11
ENDBRANCH   7   8
ENDBRANCH   3   7
ENDBRANCH   1   3
BRANCH   1  17
HETATM   17  C6  UNL     1      41.725 -70.274  31.236  1.00  0.00     0.155 C 
BRANCH  17  18
HETATM   18  C7  UNL     1      43.076 -69.975  31.871  1.00  0.00     0.219 C 
BRANCH  18  19
HETATM   19  N6  UNL     1      43.049 -70.303  33.303  1.00  0.00    -0.072 N 
ATOM     20  H63 UNL     1      43.056 -71.311  33.464  1.00  0.00     0.274 HD
ATOM     21  H62 UNL     1      43.928 -70.071  33.764  1.00  0.00     0.274 HD
ATOM     22  H61 UNL     1      42.253 -69.852  33.754  1.00  0.00     0.274 HD
ENDBRANCH  18  19
BRANCH  18  23
HETATM   23  C8  UNL     1      44.069 -70.929  31.243  1.00  0.00     0.168 C 
BRANCH  23  24
HETATM   24  N7  UNL     1      45.338 -70.239  31.111  1.00  0.00    -0.301 N 
ATOM     25  H7  UNL     1      45.492 -69.404  30.545  1.00  0.00     0.173 HD
BRANCH  24  26
HETATM   26  S1  UNL     1      46.554 -71.036  32.051  1.00  0.00     0.312 S 
HETATM   27  O2  UNL     1      45.901 -71.408  33.366  1.00  0.00    -0.183 OA
HETATM   28  O3  UNL     1      47.656 -70.056  32.346  1.00  0.00    -0.183 OA
BRANCH  26  29
HETATM   29  N8  UNL     1      47.189 -72.401  31.241  1.00  0.00    -0.312 N 
ATOM     30  H82 UNL     1      46.639 -73.234  31.034  1.00  0.00     0.170 HD
ATOM     31  H81 UNL     1      48.171 -72.273  30.997  1.00  0.00     0.170 HD
ENDBRANCH  26  29
ENDBRANCH  24  26
ENDBRANCH  23  24
ENDBRANCH  18  23
ENDBRANCH  17  18
ENDBRANCH   1  17
TORSDOF 11
ENDMDL
