MODEL 1
REMARK VINA RESULT: -10.814719818      0.000      0.000
REMARK  2 active torsions:
REMARK  status: ('A' for Active; 'I' for Inactive)
REMARK    1  A    between atoms: C2_2  and  C3_3 
REMARK    2  A    between atoms: C3_3  and  N1_4 
ROOT
HETATM    1  N1  UNL     1      17.018  20.814   9.208  1.00  0.00    -0.344 N 
HETATM    2  C4  UNL     1      16.017  21.789   9.772  1.00  0.00     0.166 C 
HETATM    3  C5  UNL     1      14.936  20.882   9.997  1.00  0.00    -0.011 C 
HETATM    4  C6  UNL     1      13.600  21.230   9.894  1.00  0.00    -0.004 C 
HETATM    5  C7  UNL     1      13.881  22.572   9.978  1.00  0.00    -0.002 C 
HETATM    6  C8  UNL     1      13.040  23.723   9.763  1.00  0.00     0.053 A 
HETATM    7  C9  UNL     1      11.742  23.266   9.549  1.00  0.00    -0.036 A 
HETATM    8  C10 UNL     1      11.875  24.647   9.497  1.00  0.00     0.052 A 
HETATM    9  C11 UNL     1      10.528  25.067   9.220  1.00  0.00    -0.017 A 
HETATM   10  C12 UNL     1       9.453  24.204   9.067  1.00  0.00    -0.001 A 
HETATM   11  C13 UNL     1       9.524  22.794   9.158  1.00  0.00     0.029 A 
HETATM   12  C14 UNL     1      10.840  22.386   9.427  1.00  0.00     0.036 A 
HETATM   13  N2  UNL     1      11.041  21.026   9.535  1.00  0.00    -0.355 N 
ATOM     14  H2  UNL     1      10.250  20.383   9.481  1.00  0.00     0.166 HD
HETATM   15  C15 UNL     1      12.323  20.537   9.716  1.00  0.00     0.043 C 
HETATM   16  C16 UNL     1      11.913  19.222   9.643  1.00  0.00     0.033 C 
HETATM   17  C17 UNL     1      12.510  18.010   9.954  1.00  0.00     0.033 C 
HETATM   18  C18 UNL     1      13.695  17.748  10.613  1.00  0.00     0.044 A 
HETATM   19  N3  UNL     1      13.793  16.631  11.348  1.00  0.00    -0.355 N 
ATOM     20  H3  UNL     1      13.084  15.902  11.415  1.00  0.00     0.166 HD
HETATM   21  C19 UNL     1      15.002  16.629  11.992  1.00  0.00     0.044 A 
HETATM   22  C20 UNL     1      15.574  15.748  12.885  1.00  0.00     0.042 A 
HETATM   23  C21 UNL     1      16.819  16.019  13.445  1.00  0.00    -0.024 A 
HETATM   24  C22 UNL     1      17.398  15.136  14.329  1.00  0.00     0.012 A 
HETATM   25  C23 UNL     1      18.632  15.399  14.875  1.00  0.00     0.001 A 
HETATM   26  C24 UNL     1      19.307  16.550  14.547  1.00  0.00     0.001 A 
HETATM   27  C25 UNL     1      18.712  17.420  13.663  1.00  0.00     0.012 A 
HETATM   28  C26 UNL     1      17.468  17.184  13.092  1.00  0.00    -0.025 A 
HETATM   29  C27 UNL     1      16.926  18.084  12.202  1.00  0.00     0.027 A 
HETATM   30  C28 UNL     1      15.715  17.780  11.670  1.00  0.00     0.005 A 
HETATM   31  C29 UNL     1      14.888  18.440  10.812  1.00  0.00     0.019 A 
HETATM   32  C30 UNL     1      15.416  19.578  10.232  1.00  0.00     0.054 C 
HETATM   33  C31 UNL     1      16.761  19.487   9.714  1.00  0.00     0.255 C 
HETATM   34  O1  UNL     1      17.535  18.513   9.679  1.00  0.00    -0.267 OA
ENDROOT
BRANCH   1  35
HETATM   35  C3  UNL     1      18.109  21.075   8.300  1.00  0.00     0.126 C 
BRANCH  35  36
HETATM   36  C2  UNL     1      18.685  22.465   8.497  1.00  0.00     0.015 C 
HETATM   37  C1  UNL     1      18.193  23.389   7.408  1.00  0.00     0.006 C 
ENDBRANCH  35  36
ENDBRANCH   1  35
TORSDOF 2
ENDMDL
MODEL 2
REMARK VINA RESULT: -9.547603264      0.653      1.017
REMARK  2 active torsions:
REMARK  status: ('A' for Active; 'I' for Inactive)
REMARK    1  A    between atoms: C2_2  and  C3_3 
REMARK    2  A    between atoms: C3_3  and  N1_4 
ROOT
HETATM    1  N1  UNL     1      17.153  20.475   9.242  1.00  0.00    -0.344 N 
HETATM    2  C4  UNL     1      16.215  21.530   9.771  1.00  0.00     0.166 C 
HETATM    3  C5  UNL     1      15.080  20.699  10.025  1.00  0.00    -0.011 C 
HETATM    4  C6  UNL     1      13.768  21.125   9.909  1.00  0.00    -0.004 C 
HETATM    5  C7  UNL     1      14.131  22.449   9.948  1.00  0.00    -0.002 C 
HETATM    6  C8  UNL     1      13.362  23.642   9.693  1.00  0.00     0.053 A 
HETATM    7  C9  UNL     1      12.038  23.258   9.492  1.00  0.00    -0.036 A 
HETATM    8  C10 UNL     1      12.256  24.626   9.394  1.00  0.00     0.052 A 
HETATM    9  C11 UNL     1      10.937  25.119   9.102  1.00  0.00    -0.017 A 
HETATM   10  C12 UNL     1       9.811  24.319   8.976  1.00  0.00    -0.001 A 
HETATM   11  C13 UNL     1       9.795  22.911   9.114  1.00  0.00     0.029 A 
HETATM   12  C14 UNL     1      11.083  22.432   9.399  1.00  0.00     0.036 A 
HETATM   13  N2  UNL     1      11.201  21.066   9.553  1.00  0.00    -0.355 N 
ATOM     14  H2  UNL     1      10.372  20.472   9.519  1.00  0.00     0.166 HD
HETATM   15  C15 UNL     1      12.451  20.506   9.752  1.00  0.00     0.043 C 
HETATM   16  C16 UNL     1      11.960  19.217   9.723  1.00  0.00     0.033 C 
HETATM   17  C17 UNL     1      12.481  17.982  10.076  1.00  0.00     0.033 C 
HETATM   18  C18 UNL     1      13.648  17.669  10.745  1.00  0.00     0.044 A 
HETATM   19  N3  UNL     1      13.678  16.574  11.517  1.00  0.00    -0.355 N 
ATOM     20  H3  UNL     1      12.925  15.892  11.608  1.00  0.00     0.166 HD
HETATM   21  C19 UNL     1      14.885  16.520  12.162  1.00  0.00     0.044 A 
HETATM   22  C20 UNL     1      15.402  15.635  13.086  1.00  0.00     0.042 A 
HETATM   23  C21 UNL     1      16.662  15.848  13.638  1.00  0.00    -0.024 A 
HETATM   24  C22 UNL     1      17.186  14.962  14.551  1.00  0.00     0.012 A 
HETATM   25  C23 UNL     1      18.434  15.166  15.090  1.00  0.00     0.001 A 
HETATM   26  C24 UNL     1      19.179  16.262  14.725  1.00  0.00     0.001 A 
HETATM   27  C25 UNL     1      18.638  17.136  13.811  1.00  0.00     0.012 A 
HETATM   28  C26 UNL     1      17.382  16.958  13.247  1.00  0.00    -0.025 A 
HETATM   29  C27 UNL     1      16.895  17.859  12.326  1.00  0.00     0.027 A 
HETATM   30  C28 UNL     1      15.667  17.613  11.802  1.00  0.00     0.005 A 
HETATM   31  C29 UNL     1      14.882  18.293  10.922  1.00  0.00     0.019 A 
HETATM   32  C30 UNL     1      15.479  19.376  10.305  1.00  0.00     0.054 C 
HETATM   33  C31 UNL     1      16.815  19.185   9.792  1.00  0.00     0.255 C 
HETATM   34  O1  UNL     1      17.527  18.165   9.790  1.00  0.00    -0.267 OA
ENDROOT
BRANCH   1  35
HETATM   35  C3  UNL     1      18.257  20.638   8.327  1.00  0.00     0.126 C 
BRANCH  35  36
HETATM   36  C2  UNL     1      18.913  19.312   7.994  1.00  0.00     0.015 C 
HETATM   37  C1  UNL     1      20.282  19.236   8.630  1.00  0.00     0.006 C 
ENDBRANCH  35  36
ENDBRANCH   1  35
TORSDOF 2
ENDMDL
MODEL 3
REMARK VINA RESULT: -9.478772694      2.847      6.224
REMARK  2 active torsions:
REMARK  status: ('A' for Active; 'I' for Inactive)
REMARK    1  A    between atoms: C2_2  and  C3_3 
REMARK    2  A    between atoms: C3_3  and  N1_4 
ROOT
HETATM    1  N1  UNL     1      12.700  23.324   8.997  1.00  0.00    -0.344 N 
HETATM    2  C4  UNL     1      13.031  23.387   7.528  1.00  0.00     0.166 C 
HETATM    3  C5  UNL     1      14.417  23.048   7.605  1.00  0.00    -0.011 C 
HETATM    4  C6  UNL     1      15.382  23.536   6.742  1.00  0.00    -0.004 C 
HETATM    5  C7  UNL     1      14.446  23.922   5.815  1.00  0.00    -0.002 C 
HETATM    6  C8  UNL     1      14.577  24.725   4.625  1.00  0.00     0.053 A 
HETATM    7  C9  UNL     1      15.930  24.997   4.444  1.00  0.00    -0.036 A 
HETATM    8  C10 UNL     1      15.104  25.550   3.475  1.00  0.00     0.052 A 
HETATM    9  C11 UNL     1      16.048  26.225   2.626  1.00  0.00    -0.017 A 
HETATM   10  C12 UNL     1      17.419  26.242   2.836  1.00  0.00    -0.001 A 
HETATM   11  C13 UNL     1      18.085  25.603   3.909  1.00  0.00     0.029 A 
HETATM   12  C14 UNL     1      17.162  24.945   4.736  1.00  0.00     0.036 A 
HETATM   13  N2  UNL     1      17.689  24.284   5.826  1.00  0.00    -0.355 N 
ATOM     14  H2  UNL     1      18.700  24.241   5.960  1.00  0.00     0.166 HD
HETATM   15  C15 UNL     1      16.839  23.681   6.736  1.00  0.00     0.043 C 
HETATM   16  C16 UNL     1      17.873  23.320   7.576  1.00  0.00     0.033 C 
HETATM   17  C17 UNL     1      17.979  22.456   8.654  1.00  0.00     0.033 C 
HETATM   18  C18 UNL     1      17.079  21.528   9.139  1.00  0.00     0.044 A 
HETATM   19  N3  UNL     1      17.547  20.416   9.723  1.00  0.00    -0.355 N 
ATOM     20  H3  UNL     1      18.528  20.214   9.911  1.00  0.00     0.166 HD
HETATM   21  C19 UNL     1      16.491  19.598  10.027  1.00  0.00     0.044 A 
HETATM   22  C20 UNL     1      16.427  18.340  10.590  1.00  0.00     0.042 A 
HETATM   23  C21 UNL     1      15.203  17.695  10.740  1.00  0.00    -0.024 A 
HETATM   24  C22 UNL     1      15.134  16.445  11.311  1.00  0.00     0.012 A 
HETATM   25  C23 UNL     1      13.923  15.811  11.467  1.00  0.00     0.001 A 
HETATM   26  C24 UNL     1      12.762  16.417  11.053  1.00  0.00     0.001 A 
HETATM   27  C25 UNL     1      12.852  17.667  10.484  1.00  0.00     0.012 A 
HETATM   28  C26 UNL     1      14.057  18.335  10.313  1.00  0.00    -0.025 A 
HETATM   29  C27 UNL     1      14.086  19.590   9.749  1.00  0.00     0.027 A 
HETATM   30  C28 UNL     1      15.298  20.192   9.628  1.00  0.00     0.005 A 
HETATM   31  C29 UNL     1      15.693  21.381   9.097  1.00  0.00     0.019 A 
HETATM   32  C30 UNL     1      14.673  22.239   8.731  1.00  0.00     0.054 C 
HETATM   33  C31 UNL     1      13.588  22.407   9.669  1.00  0.00     0.255 C 
HETATM   34  O1  UNL     1      13.431  21.912  10.800  1.00  0.00    -0.267 OA
ENDROOT
BRANCH   1  35
HETATM   35  C3  UNL     1      11.664  24.029   9.711  1.00  0.00     0.126 C 
BRANCH  35  36
HETATM   36  C2  UNL     1      10.280  23.539   9.326  1.00  0.00     0.015 C 
HETATM   37  C1  UNL     1       9.950  22.272  10.080  1.00  0.00     0.006 C 
ENDBRANCH  35  36
ENDBRANCH   1  35
TORSDOF 2
ENDMDL
MODEL 4
REMARK VINA RESULT: -9.067752886      3.154      5.933
REMARK  2 active torsions:
REMARK  status: ('A' for Active; 'I' for Inactive)
REMARK    1  A    between atoms: C2_2  and  C3_3 
REMARK    2  A    between atoms: C3_3  and  N1_4 
ROOT
HETATM    1  N1  UNL     1      13.955  22.440   9.684  1.00  0.00    -0.344 N 
HETATM    2  C4  UNL     1      13.801  22.757   8.219  1.00  0.00     0.166 C 
HETATM    3  C5  UNL     1      15.184  22.824   7.867  1.00  0.00    -0.011 C 
HETATM    4  C6  UNL     1      15.695  23.660   6.890  1.00  0.00    -0.004 C 
HETATM    5  C7  UNL     1      14.457  23.860   6.329  1.00  0.00    -0.002 C 
HETATM    6  C8  UNL     1      14.023  24.792   5.318  1.00  0.00     0.053 A 
HETATM    7  C9  UNL     1      15.150  25.459   4.845  1.00  0.00    -0.036 A 
HETATM    8  C10 UNL     1      13.961  25.854   4.246  1.00  0.00     0.052 A 
HETATM    9  C11 UNL     1      14.410  26.861   3.323  1.00  0.00    -0.017 A 
HETATM   10  C12 UNL     1      15.733  27.248   3.168  1.00  0.00    -0.001 A 
HETATM   11  C13 UNL     1      16.826  26.714   3.890  1.00  0.00     0.029 A 
HETATM   12  C14 UNL     1      16.386  25.731   4.791  1.00  0.00     0.036 A 
HETATM   13  N2  UNL     1      17.362  25.135   5.561  1.00  0.00    -0.355 N 
ATOM     14  H2  UNL     1      18.344  25.369   5.417  1.00  0.00     0.166 HD
HETATM   15  C15 UNL     1      17.000  24.217   6.531  1.00  0.00     0.043 C 
HETATM   16  C16 UNL     1      18.294  24.079   6.990  1.00  0.00     0.033 C 
HETATM   17  C17 UNL     1      18.928  23.169   7.821  1.00  0.00     0.033 C 
HETATM   18  C18 UNL     1      18.471  21.974   8.341  1.00  0.00     0.044 A 
HETATM   19  N3  UNL     1      19.350  20.987   8.563  1.00  0.00    -0.355 N 
ATOM     20  H3  UNL     1      20.360  21.055   8.447  1.00  0.00     0.166 HD
HETATM   21  C19 UNL     1      18.668  19.871   8.972  1.00  0.00     0.044 A 
HETATM   22  C20 UNL     1      19.085  18.595   9.286  1.00  0.00     0.042 A 
HETATM   23  C21 UNL     1      18.159  17.612   9.626  1.00  0.00    -0.024 A 
HETATM   24  C22 UNL     1      18.572  16.341   9.950  1.00  0.00     0.012 A 
HETATM   25  C23 UNL     1      17.658  15.373  10.295  1.00  0.00     0.001 A 
HETATM   26  C24 UNL     1      16.315  15.661  10.319  1.00  0.00     0.001 A 
HETATM   27  C25 UNL     1      15.922  16.938   9.991  1.00  0.00     0.012 A 
HETATM   28  C26 UNL     1      16.818  17.939   9.640  1.00  0.00    -0.025 A 
HETATM   29  C27 UNL     1      16.369  19.204   9.334  1.00  0.00     0.027 A 
HETATM   30  C28 UNL     1      17.303  20.137   9.017  1.00  0.00     0.005 A 
HETATM   31  C29 UNL     1      17.217  21.441   8.635  1.00  0.00     0.019 A 
HETATM   32  C30 UNL     1      15.958  22.004   8.715  1.00  0.00     0.054 C 
HETATM   33  C31 UNL     1      15.200  21.749   9.917  1.00  0.00     0.255 C 
HETATM   34  O1  UNL     1      15.517  21.110  10.936  1.00  0.00    -0.267 OA
ENDROOT
BRANCH   1  35
HETATM   35  C3  UNL     1      13.044  22.735  10.764  1.00  0.00     0.126 C 
BRANCH  35  36
HETATM   36  C2  UNL     1      11.601  22.749  10.295  1.00  0.00     0.015 C 
HETATM   37  C1  UNL     1      11.131  21.340  10.019  1.00  0.00     0.006 C 
ENDBRANCH  35  36
ENDBRANCH   1  35
TORSDOF 2
ENDMDL
MODEL 5
REMARK VINA RESULT: -8.693581927      3.292      6.765
REMARK  2 active torsions:
REMARK  status: ('A' for Active; 'I' for Inactive)
REMARK    1  A    between atoms: C2_2  and  C3_3 
REMARK    2  A    between atoms: C3_3  and  N1_4 
ROOT
HETATM    1  N1  UNL     1      11.906  24.092   8.963  1.00  0.00    -0.344 N 
HETATM    2  C4  UNL     1      12.355  24.202   7.529  1.00  0.00     0.166 C 
HETATM    3  C5  UNL     1      13.564  23.446   7.623  1.00  0.00    -0.011 C 
HETATM    4  C6  UNL     1      14.696  23.700   6.869  1.00  0.00    -0.004 C 
HETATM    5  C7  UNL     1      13.994  24.450   5.957  1.00  0.00    -0.002 C 
HETATM    6  C8  UNL     1      14.454  25.292   4.881  1.00  0.00     0.053 A 
HETATM    7  C9  UNL     1      15.836  25.151   4.793  1.00  0.00    -0.036 A 
HETATM    8  C10 UNL     1      15.293  26.029   3.865  1.00  0.00     0.052 A 
HETATM    9  C11 UNL     1      16.460  26.465   3.146  1.00  0.00    -0.017 A 
HETATM   10  C12 UNL     1      17.752  26.036   3.415  1.00  0.00    -0.001 A 
HETATM   11  C13 UNL     1      18.108  25.115   4.428  1.00  0.00     0.029 A 
HETATM   12  C14 UNL     1      16.968  24.692   5.128  1.00  0.00     0.036 A 
HETATM   13  N2  UNL     1      17.185  23.791   6.150  1.00  0.00    -0.355 N 
ATOM     14  H2  UNL     1      18.122  23.425   6.321  1.00  0.00     0.166 HD
HETATM   15  C15 UNL     1      16.124  23.388   6.942  1.00  0.00     0.043 C 
HETATM   16  C16 UNL     1      16.932  22.641   7.774  1.00  0.00     0.033 C 
HETATM   17  C17 UNL     1      16.688  21.679   8.742  1.00  0.00     0.033 C 
HETATM   18  C18 UNL     1      15.515  21.029   9.071  1.00  0.00     0.044 A 
HETATM   19  N3  UNL     1      15.579  19.773   9.533  1.00  0.00    -0.355 N 
ATOM     20  H3  UNL     1      16.436  19.259   9.736  1.00  0.00     0.166 HD
HETATM   21  C19 UNL     1      14.306  19.292   9.689  1.00  0.00     0.044 A 
HETATM   22  C20 UNL     1      13.823  18.065  10.090  1.00  0.00     0.042 A 
HETATM   23  C21 UNL     1      12.453  17.816  10.107  1.00  0.00    -0.024 A 
HETATM   24  C22 UNL     1      11.966  16.596  10.517  1.00  0.00     0.012 A 
HETATM   25  C23 UNL     1      10.613  16.354  10.542  1.00  0.00     0.001 A 
HETATM   26  C24 UNL     1       9.724  17.328  10.156  1.00  0.00     0.001 A 
HETATM   27  C25 UNL     1      10.230  18.541   9.749  1.00  0.00     0.012 A 
HETATM   28  C26 UNL     1      11.590  18.819   9.713  1.00  0.00    -0.025 A 
HETATM   29  C27 UNL     1      12.040  20.056   9.309  1.00  0.00     0.027 A 
HETATM   30  C28 UNL     1      13.382  20.263   9.316  1.00  0.00     0.005 A 
HETATM   31  C29 UNL     1      14.157  21.321   8.952  1.00  0.00     0.019 A 
HETATM   32  C30 UNL     1      13.475  22.485   8.651  1.00  0.00     0.054 C 
HETATM   33  C31 UNL     1      12.421  22.881   9.555  1.00  0.00     0.255 C 
HETATM   34  O1  UNL     1      12.035  22.344  10.609  1.00  0.00    -0.267 OA
ENDROOT
BRANCH   1  35
HETATM   35  C3  UNL     1      11.078  25.004   9.715  1.00  0.00     0.126 C 
BRANCH  35  36
HETATM   36  C2  UNL     1       9.700  25.151   9.098  1.00  0.00     0.015 C 
HETATM   37  C1  UNL     1       9.015  23.807   9.032  1.00  0.00     0.006 C 
ENDBRANCH  35  36
ENDBRANCH   1  35
TORSDOF 2
ENDMDL
