MODEL 1
REMARK VINA RESULT: -4.443990179      0.000      0.000
REMARK  4 active torsions:
REMARK  status: ('A' for Active; 'I' for Inactive)
REMARK    1  A    between atoms: C2_2  and  O1_3 
REMARK    2  A    between atoms: O1_3  and  C3_4 
REMARK    3  A    between atoms: C3_4  and  C4_5 
REMARK    4  A    between atoms: N2_12  and  C8_13 
ROOT
HETATM    1  C4  UNL     1     -34.638 -15.402   3.992  1.00  0.00     0.034 C 
HETATM    2  C5  UNL     1     -34.283 -16.615   4.877  1.00  0.00     0.286 C 
HETATM    3  N1  UNL     1     -34.887 -17.819   4.336  1.00  0.00    -0.069 N 
ATOM      4  H11 UNL     1     -34.554 -18.656   4.814  1.00  0.00     0.277 HD
ATOM      5  H12 UNL     1     -34.540 -18.028   3.400  1.00  0.00     0.277 HD
HETATM    6  C6  UNL     1     -36.346 -17.725   4.364  1.00  0.00     0.252 C 
HETATM    7  C7  UNL     1     -36.747 -16.317   4.080  1.00  0.00     0.150 C 
HETATM    8  N2  UNL     1     -35.745 -15.688   3.240  1.00  0.00    -0.379 N 
ENDROOT
BRANCH   1   9
HETATM    9  C3  UNL     1     -33.415 -14.760   3.507  1.00  0.00     0.221 C 
BRANCH   9  10
HETATM   10  O1  UNL     1     -33.000 -13.632   4.256  1.00  0.00    -0.386 OA
BRANCH  10  11
HETATM   11  C2  UNL     1     -33.813 -12.541   3.937  1.00  0.00     0.163 C 
HETATM   12  C1  UNL     1     -33.611 -12.052   2.544  1.00  0.00     0.033 C 
ENDBRANCH  10  11
ENDBRANCH   9  10
ENDBRANCH   1   9
BRANCH   8  13
HETATM   13  C8  UNL     1     -35.845 -15.887   1.892  1.00  0.00     0.075 C 
HETATM   14  C9  UNL     1     -37.096 -16.621   1.387  1.00  0.00     0.032 C 
HETATM   15  C10 UNL     1     -35.949 -14.516   1.188  1.00  0.00     0.032 C 
ENDBRANCH   8  13
TORSDOF 4
ENDMDL
MODEL 2
REMARK VINA RESULT: -4.206415239      2.625      5.088
REMARK  4 active torsions:
REMARK  status: ('A' for Active; 'I' for Inactive)
REMARK    1  A    between atoms: C2_2  and  O1_3 
REMARK    2  A    between atoms: O1_3  and  C3_4 
REMARK    3  A    between atoms: C3_4  and  C4_5 
REMARK    4  A    between atoms: N2_12  and  C8_13 
ROOT
HETATM    1  C4  UNL     1     -34.262 -12.435   2.561  1.00  0.00     0.034 C 
HETATM    2  C5  UNL     1     -33.482 -13.601   3.204  1.00  0.00     0.286 C 
HETATM    3  N1  UNL     1     -33.507 -13.478   4.651  1.00  0.00    -0.069 N 
ATOM      4  H11 UNL     1     -33.125 -14.306   5.106  1.00  0.00     0.277 HD
ATOM      5  H12 UNL     1     -34.457 -13.525   5.017  1.00  0.00     0.277 HD
HETATM    6  C6  UNL     1     -32.820 -12.259   5.080  1.00  0.00     0.252 C 
HETATM    7  C7  UNL     1     -33.082 -11.180   4.084  1.00  0.00     0.150 C 
HETATM    8  N2  UNL     1     -34.368 -11.403   3.453  1.00  0.00    -0.379 N 
ENDROOT
BRANCH   1   9
HETATM    9  C3  UNL     1     -35.343 -12.959   1.723  1.00  0.00     0.221 C 
BRANCH   9  10
HETATM   10  O1  UNL     1     -35.800 -14.250   2.083  1.00  0.00    -0.386 OA
BRANCH  10  11
HETATM   11  C2  UNL     1     -36.212 -14.930   0.934  1.00  0.00     0.163 C 
HETATM   12  C1  UNL     1     -36.821 -16.257   1.231  1.00  0.00     0.033 C 
ENDBRANCH  10  11
ENDBRANCH   9  10
ENDBRANCH   1   9
BRANCH   8  13
HETATM   13  C8  UNL     1     -35.475 -10.937   4.106  1.00  0.00     0.075 C 
HETATM   14  C9  UNL     1     -35.236  -9.981   5.285  1.00  0.00     0.032 C 
HETATM   15  C10 UNL     1     -36.306 -10.074   3.133  1.00  0.00     0.032 C 
ENDBRANCH   8  13
TORSDOF 4
ENDMDL
MODEL 3
REMARK VINA RESULT: -4.188337491      2.375      4.247
REMARK  4 active torsions:
REMARK  status: ('A' for Active; 'I' for Inactive)
REMARK    1  A    between atoms: C2_2  and  O1_3 
REMARK    2  A    between atoms: O1_3  and  C3_4 
REMARK    3  A    between atoms: C3_4  and  C4_5 
REMARK    4  A    between atoms: N2_12  and  C8_13 
ROOT
HETATM    1  C4  UNL     1     -34.856 -14.444   4.486  1.00  0.00     0.034 C 
HETATM    2  C5  UNL     1     -35.889 -14.667   5.610  1.00  0.00     0.286 C 
HETATM    3  N1  UNL     1     -36.597 -13.430   5.888  1.00  0.00    -0.069 N 
ATOM      4  H11 UNL     1     -37.382 -13.578   6.522  1.00  0.00     0.277 HD
ATOM      5  H12 UNL     1     -37.116 -13.101   5.074  1.00  0.00     0.277 HD
HETATM    6  C6  UNL     1     -35.678 -12.409   6.393  1.00  0.00     0.252 C 
HETATM    7  C7  UNL     1     -34.365 -12.554   5.701  1.00  0.00     0.150 C 
HETATM    8  N2  UNL     1     -34.573 -13.110   4.378  1.00  0.00    -0.379 N 
ENDROOT
BRANCH   1   9
HETATM    9  C3  UNL     1     -35.124 -15.357   3.372  1.00  0.00     0.221 C 
BRANCH   9  10
HETATM   10  O1  UNL     1     -36.480 -15.739   3.231  1.00  0.00    -0.386 OA
BRANCH  10  11
HETATM   11  C2  UNL     1     -36.716 -16.121   1.908  1.00  0.00     0.163 C 
HETATM   12  C1  UNL     1     -36.200 -15.137   0.916  1.00  0.00     0.033 C 
ENDBRANCH  10  11
ENDBRANCH   9  10
ENDBRANCH   1   9
BRANCH   8  13
HETATM   13  C8  UNL     1     -34.896 -12.237   3.376  1.00  0.00     0.075 C 
HETATM   14  C9  UNL     1     -34.994 -10.751   3.753  1.00  0.00     0.032 C 
HETATM   15  C10 UNL     1     -33.769 -12.245   2.320  1.00  0.00     0.032 C 
ENDBRANCH   8  13
TORSDOF 4
ENDMDL
MODEL 4
REMARK VINA RESULT: -4.050359709      2.331      4.031
REMARK  4 active torsions:
REMARK  status: ('A' for Active; 'I' for Inactive)
REMARK    1  A    between atoms: C2_2  and  O1_3 
REMARK    2  A    between atoms: O1_3  and  C3_4 
REMARK    3  A    between atoms: C3_4  and  C4_5 
REMARK    4  A    between atoms: N2_12  and  C8_13 
ROOT
HETATM    1  C4  UNL     1     -36.171 -16.268   4.908  1.00  0.00     0.034 C 
HETATM    2  C5  UNL     1     -37.504 -16.006   5.641  1.00  0.00     0.286 C 
HETATM    3  N1  UNL     1     -37.621 -14.598   5.972  1.00  0.00    -0.069 N 
ATOM      4  H11 UNL     1     -38.549 -14.369   6.327  1.00  0.00     0.277 HD
ATOM      5  H12 UNL     1     -37.626 -14.012   5.137  1.00  0.00     0.277 HD
HETATM    6  C6  UNL     1     -36.571 -14.196   6.908  1.00  0.00     0.252 C 
HETATM    7  C7  UNL     1     -35.319 -14.937   6.580  1.00  0.00     0.150 C 
HETATM    8  N2  UNL     1     -35.296 -15.247   5.163  1.00  0.00    -0.379 N 
ENDROOT
BRANCH   1   9
HETATM    9  C3  UNL     1     -36.430 -16.868   3.598  1.00  0.00     0.221 C 
BRANCH   9  10
HETATM   10  O1  UNL     1     -37.280 -16.110   2.756  1.00  0.00    -0.386 OA
BRANCH  10  11
HETATM   11  C2  UNL     1     -36.852 -16.239   1.432  1.00  0.00     0.163 C 
HETATM   12  C1  UNL     1     -36.305 -14.971   0.871  1.00  0.00     0.033 C 
ENDBRANCH  10  11
ENDBRANCH   9  10
ENDBRANCH   1   9
BRANCH   8  13
HETATM   13  C8  UNL     1     -34.830 -14.279   4.318  1.00  0.00     0.075 C 
HETATM   14  C9  UNL     1     -34.195 -13.039   4.965  1.00  0.00     0.032 C 
HETATM   15  C10 UNL     1     -33.668 -14.858   3.482  1.00  0.00     0.032 C 
ENDBRANCH   8  13
TORSDOF 4
ENDMDL
MODEL 5
REMARK VINA RESULT: -4.036377973      2.535      5.177
REMARK  4 active torsions:
REMARK  status: ('A' for Active; 'I' for Inactive)
REMARK    1  A    between atoms: C2_2  and  O1_3 
REMARK    2  A    between atoms: O1_3  and  C3_4 
REMARK    3  A    between atoms: C3_4  and  C4_5 
REMARK    4  A    between atoms: N2_12  and  C8_13 
ROOT
HETATM    1  C4  UNL     1     -34.705 -13.270   3.364  1.00  0.00     0.034 C 
HETATM    2  C5  UNL     1     -34.107 -12.346   2.283  1.00  0.00     0.286 C 
HETATM    3  N1  UNL     1     -32.821 -11.833   2.722  1.00  0.00    -0.069 N 
ATOM      4  H11 UNL     1     -32.337 -11.337   1.974  1.00  0.00     0.277 HD
ATOM      5  H12 UNL     1     -32.147 -12.584   2.871  1.00  0.00     0.277 HD
HETATM    6  C6  UNL     1     -32.975 -10.999   3.914  1.00  0.00     0.252 C 
HETATM    7  C7  UNL     1     -34.051 -11.574   4.772  1.00  0.00     0.150 C 
HETATM    8  N2  UNL     1     -34.117 -13.008   4.571  1.00  0.00    -0.379 N 
ENDROOT
BRANCH   1   9
HETATM    9  C3  UNL     1     -34.955 -14.600   2.802  1.00  0.00     0.221 C 
BRANCH   9  10
HETATM   10  O1  UNL     1     -35.028 -14.642   1.389  1.00  0.00    -0.386 OA
BRANCH  10  11
HETATM   11  C2  UNL     1     -36.335 -14.953   1.004  1.00  0.00     0.163 C 
HETATM   12  C1  UNL     1     -36.623 -16.414   1.048  1.00  0.00     0.033 C 
ENDBRANCH  10  11
ENDBRANCH   9  10
ENDBRANCH   1   9
BRANCH   8  13
HETATM   13  C8  UNL     1     -33.257 -13.782   5.298  1.00  0.00     0.075 C 
HETATM   14  C9  UNL     1     -32.438 -13.075   6.390  1.00  0.00     0.032 C 
HETATM   15  C10 UNL     1     -34.070 -14.819   6.103  1.00  0.00     0.032 C 
ENDBRANCH   8  13
TORSDOF 4
ENDMDL
