MODEL 1
REMARK VINA RESULT: -5.062533005      0.000      0.000
REMARK  4 active torsions:
REMARK  status: ('A' for Active; 'I' for Inactive)
REMARK    1  A    between atoms: C2_2  and  C3_3 
REMARK    2  A    between atoms: C3_3  and  C4_4 
REMARK    3  A    between atoms: C4_4  and  N1_5 
REMARK    4  A    between atoms: N1_5  and  C5_8 
ROOT
HETATM    1  C5  UNL     1     -36.158 -18.091   4.551  1.00  0.00     0.354 C 
HETATM    2  O1  UNL     1     -36.904 -18.564   5.578  1.00  0.00    -0.356 OA
HETATM    3  C6  UNL     1     -37.527 -17.725   6.424  1.00  0.00     0.201 C 
HETATM    4  C7  UNL     1     -36.955 -16.342   6.524  1.00  0.00     0.299 C 
HETATM    5  N2  UNL     1     -35.610 -16.216   6.050  1.00  0.00     0.099 N 
HETATM    6  C8  UNL     1     -34.593 -17.006   6.663  1.00  0.00     0.275 C 
HETATM    7  C9  UNL     1     -33.948 -17.139   5.294  1.00  0.00     0.070 C 
HETATM    8  C10 UNL     1     -35.362 -16.848   4.783  1.00  0.00     0.280 C 
ENDROOT
BRANCH   1   9
HETATM    9  N1  UNL     1     -36.871 -18.067   3.256  1.00  0.00    -0.047 N 
ATOM     10  H12 UNL     1     -37.800 -18.487   3.295  1.00  0.00     0.280 HD
ATOM     11  H11 UNL     1     -36.477 -18.702   2.562  1.00  0.00     0.280 HD
BRANCH   9  12
HETATM   12  C4  UNL     1     -36.880 -16.670   2.829  1.00  0.00     0.235 C 
BRANCH  12  13
HETATM   13  C3  UNL     1     -36.662 -16.496   1.373  1.00  0.00     0.027 C 
BRANCH  13  14
HETATM   14  C2  UNL     1     -36.402 -15.113   0.886  1.00  0.00    -0.003 C 
HETATM   15  C1  UNL     1     -35.323 -14.554   1.840  1.00  0.00     0.005 C 
ENDBRANCH  13  14
ENDBRANCH  12  13
ENDBRANCH   9  12
ENDBRANCH   1   9
TORSDOF 4
ENDMDL
MODEL 2
REMARK VINA RESULT: -4.647482880      1.332      2.228
REMARK  4 active torsions:
REMARK  status: ('A' for Active; 'I' for Inactive)
REMARK    1  A    between atoms: C2_2  and  C3_3 
REMARK    2  A    between atoms: C3_3  and  C4_4 
REMARK    3  A    between atoms: C4_4  and  N1_5 
REMARK    4  A    between atoms: N1_5  and  C5_8 
ROOT
HETATM    1  C5  UNL     1     -36.345 -17.151   4.194  1.00  0.00     0.354 C 
HETATM    2  O1  UNL     1     -35.110 -16.606   4.312  1.00  0.00    -0.356 OA
HETATM    3  C6  UNL     1     -34.074 -17.334   4.762  1.00  0.00     0.201 C 
HETATM    4  C7  UNL     1     -34.421 -18.528   5.601  1.00  0.00     0.299 C 
HETATM    5  N2  UNL     1     -35.739 -18.505   6.158  1.00  0.00     0.099 N 
HETATM    6  C8  UNL     1     -36.100 -17.422   7.014  1.00  0.00     0.275 C 
HETATM    7  C9  UNL     1     -37.493 -17.482   6.411  1.00  0.00     0.070 C 
HETATM    8  C10 UNL     1     -36.773 -18.139   5.229  1.00  0.00     0.280 C 
ENDROOT
BRANCH   1   9
HETATM    9  N1  UNL     1     -36.673 -17.597   2.823  1.00  0.00    -0.047 N 
ATOM     10  H12 UNL     1     -37.308 -18.395   2.795  1.00  0.00     0.280 HD
ATOM     11  H11 UNL     1     -35.892 -18.045   2.343  1.00  0.00     0.280 HD
BRANCH   9  12
HETATM   12  C4  UNL     1     -37.185 -16.419   2.128  1.00  0.00     0.235 C 
BRANCH  12  13
HETATM   13  C3  UNL     1     -36.321 -15.970   1.010  1.00  0.00     0.027 C 
BRANCH  13  14
HETATM   14  C2  UNL     1     -36.166 -14.502   0.820  1.00  0.00    -0.003 C 
HETATM   15  C1  UNL     1     -35.165 -14.065   1.912  1.00  0.00     0.005 C 
ENDBRANCH  13  14
ENDBRANCH  12  13
ENDBRANCH   9  12
ENDBRANCH   1   9
TORSDOF 4
ENDMDL
MODEL 3
REMARK VINA RESULT: -4.645623003      1.917      2.564
REMARK  4 active torsions:
REMARK  status: ('A' for Active; 'I' for Inactive)
REMARK    1  A    between atoms: C2_2  and  C3_3 
REMARK    2  A    between atoms: C3_3  and  C4_4 
REMARK    3  A    between atoms: C4_4  and  N1_5 
REMARK    4  A    between atoms: N1_5  and  C5_8 
ROOT
HETATM    1  C5  UNL     1     -36.112 -15.911   4.780  1.00  0.00     0.354 C 
HETATM    2  O1  UNL     1     -35.823 -14.600   4.963  1.00  0.00    -0.356 OA
HETATM    3  C6  UNL     1     -34.862 -13.997   4.243  1.00  0.00     0.201 C 
HETATM    4  C7  UNL     1     -33.810 -14.894   3.663  1.00  0.00     0.299 C 
HETATM    5  N2  UNL     1     -33.717 -16.183   4.279  1.00  0.00     0.099 N 
HETATM    6  C8  UNL     1     -33.434 -16.253   5.675  1.00  0.00     0.275 C 
HETATM    7  C9  UNL     1     -34.368 -17.449   5.748  1.00  0.00     0.070 C 
HETATM    8  C10 UNL     1     -34.980 -16.839   4.483  1.00  0.00     0.280 C 
ENDROOT
BRANCH   1   9
HETATM    9  N1  UNL     1     -37.278 -16.149   3.902  1.00  0.00    -0.047 N 
ATOM     10  H12 UNL     1     -37.784 -15.298   3.658  1.00  0.00     0.280 HD
ATOM     11  H11 UNL     1     -38.050 -16.622   4.370  1.00  0.00     0.280 HD
BRANCH   9  12
HETATM   12  C4  UNL     1     -36.765 -16.876   2.744  1.00  0.00     0.235 C 
BRANCH  12  13
HETATM   13  C3  UNL     1     -37.082 -16.224   1.450  1.00  0.00     0.027 C 
BRANCH  13  14
HETATM   14  C2  UNL     1     -35.957 -15.566   0.729  1.00  0.00    -0.003 C 
HETATM   15  C1  UNL     1     -36.249 -14.053   0.838  1.00  0.00     0.005 C 
ENDBRANCH  13  14
ENDBRANCH  12  13
ENDBRANCH   9  12
ENDBRANCH   1   9
TORSDOF 4
ENDMDL
MODEL 4
REMARK VINA RESULT: -4.609996567      1.167      1.408
REMARK  4 active torsions:
REMARK  status: ('A' for Active; 'I' for Inactive)
REMARK    1  A    between atoms: C2_2  and  C3_3 
REMARK    2  A    between atoms: C3_3  and  C4_4 
REMARK    3  A    between atoms: C4_4  and  N1_5 
REMARK    4  A    between atoms: N1_5  and  C5_8 
ROOT
HETATM    1  C5  UNL     1     -36.019 -17.176   4.314  1.00  0.00     0.354 C 
HETATM    2  O1  UNL     1     -35.546 -18.171   5.102  1.00  0.00    -0.356 OA
HETATM    3  C6  UNL     1     -36.259 -18.622   6.148  1.00  0.00     0.201 C 
HETATM    4  C7  UNL     1     -37.276 -17.675   6.712  1.00  0.00     0.299 C 
HETATM    5  N2  UNL     1     -37.076 -16.302   6.358  1.00  0.00     0.099 N 
HETATM    6  C8  UNL     1     -35.847 -15.675   6.723  1.00  0.00     0.275 C 
HETATM    7  C9  UNL     1     -35.911 -14.912   5.412  1.00  0.00     0.070 C 
HETATM    8  C10 UNL     1     -36.796 -16.080   4.966  1.00  0.00     0.280 C 
ENDROOT
BRANCH   1   9
HETATM    9  N1  UNL     1     -36.658 -17.653   3.069  1.00  0.00    -0.047 N 
ATOM     10  H12 UNL     1     -37.374 -18.362   3.225  1.00  0.00     0.280 HD
ATOM     11  H11 UNL     1     -36.043 -18.225   2.488  1.00  0.00     0.280 HD
BRANCH   9  12
HETATM   12  C4  UNL     1     -37.156 -16.459   2.391  1.00  0.00     0.235 C 
BRANCH  12  13
HETATM   13  C3  UNL     1     -36.438 -16.153   1.130  1.00  0.00     0.027 C 
BRANCH  13  14
HETATM   14  C2  UNL     1     -36.224 -14.716   0.803  1.00  0.00    -0.003 C 
HETATM   15  C1  UNL     1     -35.210 -14.218   1.857  1.00  0.00     0.005 C 
ENDBRANCH  13  14
ENDBRANCH  12  13
ENDBRANCH   9  12
ENDBRANCH   1   9
TORSDOF 4
ENDMDL
MODEL 5
REMARK VINA RESULT: -4.572020929      2.569      3.384
REMARK  4 active torsions:
REMARK  status: ('A' for Active; 'I' for Inactive)
REMARK    1  A    between atoms: C2_2  and  C3_3 
REMARK    2  A    between atoms: C3_3  and  C4_4 
REMARK    3  A    between atoms: C4_4  and  N1_5 
REMARK    4  A    between atoms: N1_5  and  C5_8 
ROOT
HETATM    1  C5  UNL     1     -33.945 -15.488   3.835  1.00  0.00     0.354 C 
HETATM    2  O1  UNL     1     -32.832 -15.809   4.536  1.00  0.00    -0.356 OA
HETATM    3  C6  UNL     1     -32.774 -15.619   5.865  1.00  0.00     0.201 C 
HETATM    4  C7  UNL     1     -33.711 -14.592   6.428  1.00  0.00     0.299 C 
HETATM    5  N2  UNL     1     -34.230 -13.667   5.467  1.00  0.00     0.099 N 
HETATM    6  C8  UNL     1     -33.313 -12.863   4.727  1.00  0.00     0.275 C 
HETATM    7  C9  UNL     1     -34.238 -13.004   3.531  1.00  0.00     0.070 C 
HETATM    8  C10 UNL     1     -34.706 -14.272   4.253  1.00  0.00     0.280 C 
ENDROOT
BRANCH   1   9
HETATM    9  N1  UNL     1     -34.832 -16.639   3.562  1.00  0.00    -0.047 N 
ATOM     10  H12 UNL     1     -34.743 -17.392   4.245  1.00  0.00     0.280 HD
ATOM     11  H11 UNL     1     -34.557 -17.181   2.743  1.00  0.00     0.280 HD
BRANCH   9  12
HETATM   12  C4  UNL     1     -36.183 -16.091   3.471  1.00  0.00     0.235 C 
BRANCH  12  13
HETATM   13  C3  UNL     1     -36.921 -16.537   2.264  1.00  0.00     0.027 C 
BRANCH  13  14
HETATM   14  C2  UNL     1     -36.312 -16.223   0.942  1.00  0.00    -0.003 C 
HETATM   15  C1  UNL     1     -36.301 -14.680   0.868  1.00  0.00     0.005 C 
ENDBRANCH  13  14
ENDBRANCH  12  13
ENDBRANCH   9  12
ENDBRANCH   1   9
TORSDOF 4
ENDMDL
