MODEL 1
REMARK VINA RESULT: -4.621206106      0.000      0.000
REMARK  4 active torsions:
REMARK  status: ('A' for Active; 'I' for Inactive)
REMARK    1  A    between atoms: C2_2  and  C3_3 
REMARK    2  A    between atoms: C3_3  and  C4_4 
REMARK    3  A    between atoms: C8_9  and  C9_10 
REMARK    4  A    between atoms: C9_10  and  N1_11 
ROOT
HETATM    1  C3  UNL     1     -34.929 -14.289   2.723  1.00  0.00     0.167 C 
HETATM    2  O1  UNL     1     -33.604 -14.733   2.892  1.00  0.00    -0.352 OA
HETATM    3  C7  UNL     1     -33.685 -15.481   4.092  1.00  0.00     0.205 C 
HETATM    4  C8  UNL     1     -34.522 -14.536   4.895  1.00  0.00     0.166 C 
HETATM    5  O2  UNL     1     -35.510 -14.211   3.959  1.00  0.00    -0.346 OA
ENDROOT
BRANCH   1   6
HETATM    6  C2  UNL     1     -34.915 -12.900   2.106  1.00  0.00     0.064 C 
HETATM    7  C1  UNL     1     -33.658 -12.155   2.423  1.00  0.00     0.010 C 
ENDBRANCH   1   6
BRANCH   1   8
HETATM    8  C4  UNL     1     -35.561 -15.295   1.787  1.00  0.00     0.040 C 
HETATM    9  C5  UNL     1     -36.272 -14.464   0.713  1.00  0.00     0.015 C 
HETATM   10  C6  UNL     1     -36.570 -16.171   2.456  1.00  0.00     0.015 C 
ENDBRANCH   1   8
BRANCH   4  11
HETATM   11  C9  UNL     1     -35.146 -15.124   6.121  1.00  0.00     0.147 C 
BRANCH  11  12
HETATM   12  N1  UNL     1     -36.564 -15.256   6.040  1.00  0.00    -0.423 N 
HETATM   13  C10 UNL     1     -37.083 -16.579   6.165  1.00  0.00     0.139 C 
ATOM     14  H1  UNL     1     -37.172 -14.450   5.901  1.00  0.00     0.152 HD
ENDBRANCH  11  12
ENDBRANCH   4  11
TORSDOF 4
ENDMDL
MODEL 2
REMARK VINA RESULT: -4.480703584      1.709      3.068
REMARK  4 active torsions:
REMARK  status: ('A' for Active; 'I' for Inactive)
REMARK    1  A    between atoms: C2_2  and  C3_3 
REMARK    2  A    between atoms: C3_3  and  C4_4 
REMARK    3  A    between atoms: C8_9  and  C9_10 
REMARK    4  A    between atoms: C9_10  and  N1_11 
ROOT
HETATM    1  C3  UNL     1     -34.275 -13.660   4.110  1.00  0.00     0.167 C 
HETATM    2  O1  UNL     1     -33.353 -14.685   4.392  1.00  0.00    -0.352 OA
HETATM    3  C7  UNL     1     -34.035 -15.841   3.936  1.00  0.00     0.205 C 
HETATM    4  C8  UNL     1     -35.389 -15.544   4.500  1.00  0.00     0.166 C 
HETATM    5  O2  UNL     1     -35.531 -14.202   4.132  1.00  0.00    -0.346 OA
ENDROOT
BRANCH   1   6
HETATM    6  C2  UNL     1     -34.187 -12.598   5.193  1.00  0.00     0.064 C 
HETATM    7  C1  UNL     1     -35.534 -12.221   5.724  1.00  0.00     0.010 C 
ENDBRANCH   1   6
BRANCH   1   8
HETATM    8  C4  UNL     1     -33.845 -13.107   2.769  1.00  0.00     0.040 C 
HETATM    9  C5  UNL     1     -33.033 -11.848   3.086  1.00  0.00     0.015 C 
HETATM   10  C6  UNL     1     -34.994 -12.725   1.893  1.00  0.00     0.015 C 
ENDBRANCH   1   8
BRANCH   4  11
HETATM   11  C9  UNL     1     -36.507 -16.357   3.927  1.00  0.00     0.147 C 
BRANCH  11  12
HETATM   12  N1  UNL     1     -36.237 -16.875   2.626  1.00  0.00    -0.423 N 
HETATM   13  C10 UNL     1     -36.877 -16.213   1.537  1.00  0.00     0.139 C 
ATOM     14  H1  UNL     1     -35.620 -17.674   2.483  1.00  0.00     0.152 HD
ENDBRANCH  11  12
ENDBRANCH   4  11
TORSDOF 4
ENDMDL
MODEL 3
REMARK VINA RESULT: -4.463944583      1.944      3.526
REMARK  4 active torsions:
REMARK  status: ('A' for Active; 'I' for Inactive)
REMARK    1  A    between atoms: C2_2  and  C3_3 
REMARK    2  A    between atoms: C3_3  and  C4_4 
REMARK    3  A    between atoms: C8_9  and  C9_10 
REMARK    4  A    between atoms: C9_10  and  N1_11 
ROOT
HETATM    1  C3  UNL     1     -34.909 -14.811   3.033  1.00  0.00     0.167 C 
HETATM    2  O1  UNL     1     -33.524 -14.665   2.826  1.00  0.00    -0.352 OA
HETATM    3  C7  UNL     1     -33.293 -13.331   3.245  1.00  0.00     0.205 C 
HETATM    4  C8  UNL     1     -34.467 -12.678   2.586  1.00  0.00     0.166 C 
HETATM    5  O2  UNL     1     -35.485 -13.574   2.930  1.00  0.00    -0.346 OA
ENDROOT
BRANCH   1   6
HETATM    6  C2  UNL     1     -35.485 -15.705   1.948  1.00  0.00     0.064 C 
HETATM    7  C1  UNL     1     -36.328 -14.941   0.976  1.00  0.00     0.010 C 
ENDBRANCH   1   6
BRANCH   1   8
HETATM    8  C4  UNL     1     -35.034 -15.457   4.395  1.00  0.00     0.040 C 
HETATM    9  C5  UNL     1     -34.239 -16.764   4.302  1.00  0.00     0.015 C 
HETATM   10  C6  UNL     1     -36.444 -15.782   4.767  1.00  0.00     0.015 C 
ENDBRANCH   1   8
BRANCH   4  11
HETATM   11  C9  UNL     1     -34.795 -11.308   3.088  1.00  0.00     0.147 C 
BRANCH  11  12
HETATM   12  N1  UNL     1     -35.902 -11.272   3.987  1.00  0.00    -0.423 N 
HETATM   13  C10 UNL     1     -35.774 -10.403   5.112  1.00  0.00     0.139 C 
ATOM     14  H1  UNL     1     -36.737 -11.835   3.834  1.00  0.00     0.152 HD
ENDBRANCH  11  12
ENDBRANCH   4  11
TORSDOF 4
ENDMDL
MODEL 4
REMARK VINA RESULT: -4.462869774      0.999      1.058
REMARK  4 active torsions:
REMARK  status: ('A' for Active; 'I' for Inactive)
REMARK    1  A    between atoms: C2_2  and  C3_3 
REMARK    2  A    between atoms: C3_3  and  C4_4 
REMARK    3  A    between atoms: C8_9  and  C9_10 
REMARK    4  A    between atoms: C9_10  and  N1_11 
ROOT
HETATM    1  C3  UNL     1     -35.207 -14.722   2.784  1.00  0.00     0.167 C 
HETATM    2  O1  UNL     1     -34.010 -15.406   3.070  1.00  0.00    -0.352 OA
HETATM    3  C7  UNL     1     -34.433 -16.376   4.012  1.00  0.00     0.205 C 
HETATM    4  C8  UNL     1     -35.303 -15.506   4.862  1.00  0.00     0.166 C 
HETATM    5  O2  UNL     1     -36.024 -14.823   3.877  1.00  0.00    -0.346 OA
ENDROOT
BRANCH   1   6
HETATM    6  C2  UNL     1     -34.898 -13.253   2.546  1.00  0.00     0.064 C 
HETATM    7  C1  UNL     1     -33.481 -12.913   2.882  1.00  0.00     0.010 C 
ENDBRANCH   1   6
BRANCH   1   8
HETATM    8  C4  UNL     1     -35.741 -15.377   1.530  1.00  0.00     0.040 C 
HETATM    9  C5  UNL     1     -36.211 -14.225   0.635  1.00  0.00     0.015 C 
HETATM   10  C6  UNL     1     -36.900 -16.285   1.785  1.00  0.00     0.015 C 
ENDBRANCH   1   8
BRANCH   4  11
HETATM   11  C9  UNL     1     -36.239 -16.238   5.771  1.00  0.00     0.147 C 
BRANCH  11  12
HETATM   12  N1  UNL     1     -37.581 -16.297   5.293  1.00  0.00    -0.423 N 
HETATM   13  C10 UNL     1     -38.581 -15.741   6.145  1.00  0.00     0.139 C 
ATOM     14  H1  UNL     1     -37.812 -16.714   4.391  1.00  0.00     0.152 HD
ENDBRANCH  11  12
ENDBRANCH   4  11
TORSDOF 4
ENDMDL
MODEL 5
REMARK VINA RESULT: -4.444891958      1.803      2.952
REMARK  4 active torsions:
REMARK  status: ('A' for Active; 'I' for Inactive)
REMARK    1  A    between atoms: C2_2  and  C3_3 
REMARK    2  A    between atoms: C3_3  and  C4_4 
REMARK    3  A    between atoms: C8_9  and  C9_10 
REMARK    4  A    between atoms: C9_10  and  N1_11 
ROOT
HETATM    1  C3  UNL     1     -34.685 -14.005   4.080  1.00  0.00     0.167 C 
HETATM    2  O1  UNL     1     -33.765 -14.959   4.556  1.00  0.00    -0.352 OA
HETATM    3  C7  UNL     1     -34.220 -16.152   3.942  1.00  0.00     0.205 C 
HETATM    4  C8  UNL     1     -35.688 -15.987   4.181  1.00  0.00     0.166 C 
HETATM    5  O2  UNL     1     -35.860 -14.650   3.806  1.00  0.00    -0.346 OA
ENDROOT
BRANCH   1   6
HETATM    6  C2  UNL     1     -34.941 -12.974   5.167  1.00  0.00     0.064 C 
HETATM    7  C1  UNL     1     -34.600 -13.492   6.528  1.00  0.00     0.010 C 
ENDBRANCH   1   6
BRANCH   1   8
HETATM    8  C4  UNL     1     -34.011 -13.377   2.881  1.00  0.00     0.040 C 
HETATM    9  C5  UNL     1     -33.115 -12.271   3.448  1.00  0.00     0.015 C 
HETATM   10  C6  UNL     1     -34.974 -12.763   1.918  1.00  0.00     0.015 C 
ENDBRANCH   1   8
BRANCH   4  11
HETATM   11  C9  UNL     1     -36.569 -16.872   3.358  1.00  0.00     0.147 C 
BRANCH  11  12
HETATM   12  N1  UNL     1     -36.662 -18.209   3.844  1.00  0.00    -0.423 N 
HETATM   13  C10 UNL     1     -36.618 -18.371   5.261  1.00  0.00     0.139 C 
ATOM     14  H1  UNL     1     -36.754 -19.005   3.214  1.00  0.00     0.152 HD
ENDBRANCH  11  12
ENDBRANCH   4  11
TORSDOF 4
ENDMDL
