MODEL 1
REMARK VINA RESULT: -4.272767204      0.000      0.000
REMARK  0 active torsions:
REMARK  status: ('A' for Active; 'I' for Inactive)
ROOT
HETATM    1  C1  UNL     1      -6.401  19.228 -10.066  1.00  0.00     0.059 C 
HETATM    2  C2  UNL     1      -5.621  19.503  -8.825  1.00  0.00     0.228 C 
HETATM    3  N1  UNL     1      -4.830  20.715  -8.960  1.00  0.00    -0.114 NA
HETATM    4  N2  UNL     1      -3.759  20.566  -8.054  1.00  0.00    -0.114 NA
HETATM    5  C3  UNL     1      -3.903  19.199  -7.564  1.00  0.00     0.228 C 
HETATM    6  C4  UNL     1      -2.584  18.544  -7.287  1.00  0.00     0.059 C 
HETATM    7  O1  UNL     1      -4.597  18.554  -8.608  1.00  0.00    -0.346 OA
ENDROOT
TORSDOF 0
ENDMDL
MODEL 2
REMARK VINA RESULT: -4.260739709      2.495      3.904
REMARK  0 active torsions:
REMARK  status: ('A' for Active; 'I' for Inactive)
ROOT
HETATM    1  C1  UNL     1      -5.064  18.486  -8.542  1.00  0.00     0.059 C 
HETATM    2  C2  UNL     1      -6.305  19.158  -9.024  1.00  0.00     0.228 C 
HETATM    3  N1  UNL     1      -6.532  18.894 -10.435  1.00  0.00    -0.114 NA
HETATM    4  N2  UNL     1      -7.312  19.972 -10.898  1.00  0.00    -0.114 NA
HETATM    5  C3  UNL     1      -7.356  20.887  -9.762  1.00  0.00     0.228 C 
HETATM    6  C4  UNL     1      -7.374  22.326 -10.178  1.00  0.00     0.059 C 
HETATM    7  O1  UNL     1      -6.184  20.566  -9.046  1.00  0.00    -0.346 OA
ENDROOT
TORSDOF 0
ENDMDL
MODEL 3
REMARK VINA RESULT: -4.215260782      2.665      3.245
REMARK  0 active torsions:
REMARK  status: ('A' for Active; 'I' for Inactive)
ROOT
HETATM    1  C1  UNL     1      -8.355  22.060  -9.852  1.00  0.00     0.059 C 
HETATM    2  C2  UNL     1      -7.171  21.182 -10.077  1.00  0.00     0.228 C 
HETATM    3  N1  UNL     1      -7.490  20.091 -10.983  1.00  0.00    -0.114 NA
HETATM    4  N2  UNL     1      -6.573  19.067 -10.675  1.00  0.00    -0.114 NA
HETATM    5  C3  UNL     1      -5.878  19.563  -9.492  1.00  0.00     0.228 C 
HETATM    6  C4  UNL     1      -5.502  18.468  -8.541  1.00  0.00     0.059 C 
HETATM    7  O1  UNL     1      -6.810  20.453  -8.922  1.00  0.00    -0.346 OA
ENDROOT
TORSDOF 0
ENDMDL
MODEL 4
REMARK VINA RESULT: -4.144734235      2.035      3.611
REMARK  0 active torsions:
REMARK  status: ('A' for Active; 'I' for Inactive)
ROOT
HETATM    1  C1  UNL     1      -3.901  18.635  -7.889  1.00  0.00     0.059 C 
HETATM    2  C2  UNL     1      -5.313  18.855  -8.316  1.00  0.00     0.228 C 
HETATM    3  N1  UNL     1      -5.721  17.876  -9.309  1.00  0.00    -0.114 NA
HETATM    4  N2  UNL     1      -6.764  18.487 -10.033  1.00  0.00    -0.114 NA
HETATM    5  C3  UNL     1      -6.791  19.854  -9.522  1.00  0.00     0.228 C 
HETATM    6  C4  UNL     1      -7.161  20.857 -10.572  1.00  0.00     0.059 C 
HETATM    7  O1  UNL     1      -5.475  20.048  -9.056  1.00  0.00    -0.346 OA
ENDROOT
TORSDOF 0
ENDMDL
MODEL 5
REMARK VINA RESULT: -3.971318641      2.012      3.640
REMARK  0 active torsions:
REMARK  status: ('A' for Active; 'I' for Inactive)
ROOT
HETATM    1  C1  UNL     1      -5.201  18.411  -8.589  1.00  0.00     0.059 C 
HETATM    2  C2  UNL     1      -5.798  19.510  -9.401  1.00  0.00     0.228 C 
HETATM    3  N1  UNL     1      -5.220  20.797  -9.050  1.00  0.00    -0.114 NA
HETATM    4  N2  UNL     1      -6.195  21.753  -9.399  1.00  0.00    -0.114 NA
HETATM    5  C3  UNL     1      -7.352  20.951  -9.783  1.00  0.00     0.228 C 
HETATM    6  C4  UNL     1      -8.652  21.600  -9.417  1.00  0.00     0.059 C 
HETATM    7  O1  UNL     1      -7.154  19.745  -9.080  1.00  0.00    -0.346 OA
ENDROOT
TORSDOF 0
ENDMDL
