MODEL 1
REMARK VINA RESULT: -4.986633697      0.000      0.000
REMARK  3 active torsions:
REMARK  status: ('A' for Active; 'I' for Inactive)
REMARK    1  A    between atoms: C2_2  and  O1_3 
REMARK    2  A    between atoms: O1_3  and  C3_4 
REMARK       I    between atoms: C3_4  and  N1_6 
REMARK    3  A    between atoms: N1_6  and  O3_8 
ROOT
HETATM    1  C3  UNL     1      -6.419  18.678  -9.535  1.00  0.00     0.384 C 
HETATM    2  O2  UNL     1      -6.852  17.496  -9.746  1.00  0.00    -0.236 OA
HETATM    3  N1  UNL     1      -6.245  19.598 -10.605  1.00  0.00    -0.213 N 
ATOM      4  H1  UNL     1      -5.898  20.535 -10.402  1.00  0.00     0.199 HD
ENDROOT
BRANCH   1   5
HETATM    5  O1  UNL     1      -6.139  18.988  -8.220  1.00  0.00    -0.303 OA
BRANCH   5   6
HETATM    6  C2  UNL     1      -4.959  19.633  -7.815  1.00  0.00     0.176 C 
HETATM    7  C1  UNL     1      -3.771  18.706  -7.736  1.00  0.00     0.034 C 
ENDBRANCH   5   6
ENDBRANCH   1   5
BRANCH   3   8
HETATM    8  O3  UNL     1      -6.527  19.268 -11.882  1.00  0.00    -0.285 OA
ATOM      9  H3  UNL     1      -5.844  19.134 -12.529  1.00  0.00     0.244 HD
ENDBRANCH   3   8
TORSDOF 3
ENDMDL
MODEL 2
REMARK VINA RESULT: -4.966011741      1.229      1.887
REMARK  3 active torsions:
REMARK  status: ('A' for Active; 'I' for Inactive)
REMARK    1  A    between atoms: C2_2  and  O1_3 
REMARK    2  A    between atoms: O1_3  and  C3_4 
REMARK       I    between atoms: C3_4  and  N1_6 
REMARK    3  A    between atoms: N1_6  and  O3_8 
ROOT
HETATM    1  C3  UNL     1      -6.112  18.854  -9.746  1.00  0.00     0.384 C 
HETATM    2  O2  UNL     1      -6.514  19.086 -10.935  1.00  0.00    -0.236 OA
HETATM    3  N1  UNL     1      -6.459  17.648  -9.076  1.00  0.00    -0.213 N 
ATOM      4  H1  UNL     1      -6.120  17.494  -8.127  1.00  0.00     0.199 HD
ENDROOT
BRANCH   1   5
HETATM    5  O1  UNL     1      -5.332  19.837  -9.174  1.00  0.00    -0.303 OA
BRANCH   5   6
HETATM    6  C2  UNL     1      -4.951  19.829  -7.822  1.00  0.00     0.176 C 
HETATM    7  C1  UNL     1      -3.654  19.098  -7.574  1.00  0.00     0.034 C 
ENDBRANCH   5   6
ENDBRANCH   1   5
BRANCH   3   8
HETATM    8  O3  UNL     1      -7.223  16.702  -9.660  1.00  0.00    -0.285 OA
ATOM      9  H3  UNL     1      -7.818  16.906 -10.372  1.00  0.00     0.244 HD
ENDBRANCH   3   8
TORSDOF 3
ENDMDL
MODEL 3
REMARK VINA RESULT: -4.872436813      1.886      2.482
REMARK  3 active torsions:
REMARK  status: ('A' for Active; 'I' for Inactive)
REMARK    1  A    between atoms: C2_2  and  O1_3 
REMARK    2  A    between atoms: O1_3  and  C3_4 
REMARK       I    between atoms: C3_4  and  N1_6 
REMARK    3  A    between atoms: N1_6  and  O3_8 
ROOT
HETATM    1  C3  UNL     1      -6.108  18.954  -9.840  1.00  0.00     0.384 C 
HETATM    2  O2  UNL     1      -6.567  19.101 -11.022  1.00  0.00    -0.236 OA
HETATM    3  N1  UNL     1      -6.388  17.782  -9.085  1.00  0.00    -0.213 N 
ATOM      4  H1  UNL     1      -6.004  17.696  -8.144  1.00  0.00     0.199 HD
ENDROOT
BRANCH   1   5
HETATM    5  O1  UNL     1      -5.336  19.993  -9.364  1.00  0.00    -0.303 OA
BRANCH   5   6
HETATM    6  C2  UNL     1      -5.865  21.245  -9.007  1.00  0.00     0.176 C 
HETATM    7  C1  UNL     1      -6.300  21.318  -7.564  1.00  0.00     0.034 C 
ENDBRANCH   5   6
ENDBRANCH   1   5
BRANCH   3   8
HETATM    8  O3  UNL     1      -7.145  16.780  -9.577  1.00  0.00    -0.285 OA
ATOM      9  H3  UNL     1      -8.043  16.644  -9.295  1.00  0.00     0.244 HD
ENDBRANCH   3   8
TORSDOF 3
ENDMDL
MODEL 4
REMARK VINA RESULT: -4.755422940      0.747      1.258
REMARK  3 active torsions:
REMARK  status: ('A' for Active; 'I' for Inactive)
REMARK    1  A    between atoms: C2_2  and  O1_3 
REMARK    2  A    between atoms: O1_3  and  C3_4 
REMARK       I    between atoms: C3_4  and  N1_6 
REMARK    3  A    between atoms: N1_6  and  O3_8 
ROOT
HETATM    1  C3  UNL     1      -6.456  18.563  -9.612  1.00  0.00     0.384 C 
HETATM    2  O2  UNL     1      -6.975  17.429  -9.885  1.00  0.00    -0.236 OA
HETATM    3  N1  UNL     1      -6.224  19.528 -10.630  1.00  0.00    -0.213 N 
ATOM      4  H1  UNL     1      -5.809  20.424 -10.377  1.00  0.00     0.199 HD
ENDROOT
BRANCH   1   5
HETATM    5  O1  UNL     1      -6.146  18.776  -8.285  1.00  0.00    -0.303 OA
BRANCH   5   6
HETATM    6  C2  UNL     1      -5.313  19.818  -7.846  1.00  0.00     0.176 C 
HETATM    7  C1  UNL     1      -6.076  21.012  -7.327  1.00  0.00     0.034 C 
ENDBRANCH   5   6
ENDBRANCH   1   5
BRANCH   3   8
HETATM    8  O3  UNL     1      -6.538  19.293 -11.921  1.00  0.00    -0.285 OA
ATOM      9  H3  UNL     1      -7.346  19.610 -12.307  1.00  0.00     0.244 HD
ENDBRANCH   3   8
TORSDOF 3
ENDMDL
MODEL 5
REMARK VINA RESULT: -4.413108968      1.601      1.800
REMARK  3 active torsions:
REMARK  status: ('A' for Active; 'I' for Inactive)
REMARK    1  A    between atoms: C2_2  and  O1_3 
REMARK    2  A    between atoms: O1_3  and  C3_4 
REMARK       I    between atoms: C3_4  and  N1_6 
REMARK    3  A    between atoms: N1_6  and  O3_8 
ROOT
HETATM    1  C3  UNL     1      -6.250  19.263  -9.393  1.00  0.00     0.384 C 
HETATM    2  O2  UNL     1      -6.679  18.742 -10.476  1.00  0.00    -0.236 OA
HETATM    3  N1  UNL     1      -7.036  20.201  -8.668  1.00  0.00    -0.213 N 
ATOM      4  H1  UNL     1      -6.664  20.598  -7.806  1.00  0.00     0.199 HD
ENDROOT
BRANCH   1   5
HETATM    5  O1  UNL     1      -4.995  18.857  -8.988  1.00  0.00    -0.303 OA
BRANCH   5   6
HETATM    6  C2  UNL     1      -4.423  19.232  -7.761  1.00  0.00     0.176 C 
HETATM    7  C1  UNL     1      -3.078  18.595  -7.513  1.00  0.00     0.034 C 
ENDBRANCH   5   6
ENDBRANCH   1   5
BRANCH   3   8
HETATM    8  O3  UNL     1      -8.260  20.580  -9.088  1.00  0.00    -0.285 OA
ATOM      9  H3  UNL     1      -8.552  21.483  -9.036  1.00  0.00     0.244 HD
ENDBRANCH   3   8
TORSDOF 3
ENDMDL
