MODEL 1
REMARK VINA RESULT: -4.176153433      0.000      0.000
REMARK  0 active torsions:
REMARK  status: ('A' for Active; 'I' for Inactive)
ROOT
HETATM    1  C1  UNL     1      -3.958  19.935  -7.569  1.00  0.00     0.004 C 
HETATM    2  C2  UNL     1      -5.474  20.131  -7.383  1.00  0.00     0.029 C 
HETATM    3  C3  UNL     1      -5.625  19.211  -8.521  1.00  0.00     0.061 C 
HETATM    4  C4  UNL     1      -4.345  18.551  -8.119  1.00  0.00     0.029 C 
HETATM    5  C5  UNL     1      -6.826  18.444  -8.747  1.00  0.00     0.158 C 
HETATM    6  N1  UNL     1      -6.477  18.544 -10.175  1.00  0.00    -0.146 NA
HETATM    7  N2  UNL     1      -5.740  19.711  -9.836  1.00  0.00    -0.137 NA
ENDROOT
TORSDOF 0
ENDMDL
MODEL 2
REMARK VINA RESULT: -3.822089703      2.786      3.306
REMARK  0 active torsions:
REMARK  status: ('A' for Active; 'I' for Inactive)
ROOT
HETATM    1  C1  UNL     1      -7.937  22.706  -9.913  1.00  0.00     0.004 C 
HETATM    2  C2  UNL     1      -8.490  21.445  -9.224  1.00  0.00     0.029 C 
HETATM    3  C3  UNL     1      -7.334  20.747  -9.811  1.00  0.00     0.061 C 
HETATM    4  C4  UNL     1      -6.566  22.028  -9.745  1.00  0.00     0.029 C 
HETATM    5  C5  UNL     1      -6.803  19.523  -9.261  1.00  0.00     0.158 C 
HETATM    6  N1  UNL     1      -6.415  19.211 -10.647  1.00  0.00    -0.146 NA
HETATM    7  N2  UNL     1      -7.449  20.094 -11.057  1.00  0.00    -0.137 NA
ENDROOT
TORSDOF 0
ENDMDL
MODEL 3
REMARK VINA RESULT: -3.795346765      1.933      2.441
REMARK  0 active torsions:
REMARK  status: ('A' for Active; 'I' for Inactive)
ROOT
HETATM    1  C1  UNL     1      -6.778  21.634  -8.058  1.00  0.00     0.004 C 
HETATM    2  C2  UNL     1      -5.610  21.172  -8.948  1.00  0.00     0.029 C 
HETATM    3  C3  UNL     1      -6.480  20.045  -9.321  1.00  0.00     0.061 C 
HETATM    4  C4  UNL     1      -7.667  20.925  -9.096  1.00  0.00     0.029 C 
HETATM    5  C5  UNL     1      -6.314  19.308 -10.551  1.00  0.00     0.158 C 
HETATM    6  N1  UNL     1      -6.856  18.164  -9.798  1.00  0.00    -0.146 NA
HETATM    7  N2  UNL     1      -6.406  18.821  -8.621  1.00  0.00    -0.137 NA
ENDROOT
TORSDOF 0
ENDMDL
MODEL 4
REMARK VINA RESULT: -3.751760519      1.308      1.803
REMARK  0 active torsions:
REMARK  status: ('A' for Active; 'I' for Inactive)
ROOT
HETATM    1  C1  UNL     1      -6.063  21.896  -7.897  1.00  0.00     0.004 C 
HETATM    2  C2  UNL     1      -6.063  20.505  -7.238  1.00  0.00     0.029 C 
HETATM    3  C3  UNL     1      -6.033  19.973  -8.610  1.00  0.00     0.061 C 
HETATM    4  C4  UNL     1      -5.299  21.203  -9.039  1.00  0.00     0.029 C 
HETATM    5  C5  UNL     1      -5.536  18.655  -8.922  1.00  0.00     0.158 C 
HETATM    6  N1  UNL     1      -6.501  18.686 -10.035  1.00  0.00    -0.146 NA
HETATM    7  N2  UNL     1      -7.232  19.638  -9.275  1.00  0.00    -0.137 NA
ENDROOT
TORSDOF 0
ENDMDL
MODEL 5
REMARK VINA RESULT: -3.735454683      1.533      1.755
REMARK  0 active torsions:
REMARK  status: ('A' for Active; 'I' for Inactive)
ROOT
HETATM    1  C1  UNL     1      -4.398  21.328  -7.648  1.00  0.00     0.004 C 
HETATM    2  C2  UNL     1      -5.107  21.833  -8.918  1.00  0.00     0.029 C 
HETATM    3  C3  UNL     1      -5.872  20.577  -8.861  1.00  0.00     0.061 C 
HETATM    4  C4  UNL     1      -5.717  20.586  -7.374  1.00  0.00     0.029 C 
HETATM    5  C5  UNL     1      -7.167  20.427  -9.480  1.00  0.00     0.158 C 
HETATM    6  N1  UNL     1      -6.791  19.012  -9.642  1.00  0.00    -0.146 NA
HETATM    7  N2  UNL     1      -5.438  19.441  -9.577  1.00  0.00    -0.137 NA
ENDROOT
TORSDOF 0
ENDMDL
