MODEL 1
REMARK VINA RESULT: -4.657665606      0.000      0.000
REMARK  1 active torsions:
REMARK  status: ('A' for Active; 'I' for Inactive)
REMARK    1  A    between atoms: O1_1  and  N1_3 
ROOT
HETATM    1  N1  UNL     1      -6.630  19.485 -10.165  1.00  0.00    -0.206 N 
HETATM    2  C1  UNL     1      -6.312  18.434  -9.275  1.00  0.00     0.176 C 
HETATM    3  C2  UNL     1      -5.092  18.680  -8.420  1.00  0.00     0.026 C 
HETATM    4  C3  UNL     1      -5.260  20.052  -7.793  1.00  0.00     0.023 C 
HETATM    5  C4  UNL     1      -5.347  21.044  -8.925  1.00  0.00     0.141 C 
HETATM    6  N2  UNL     1      -6.511  20.754  -9.708  1.00  0.00    -0.315 N 
ATOM      7  H2  UNL     1      -7.213  21.466  -9.910  1.00  0.00     0.182 HD
ENDROOT
BRANCH   1   8
HETATM    8  O1  UNL     1      -6.362  19.276 -11.448  1.00  0.00    -0.273 OA
ATOM      9  H1  UNL     1      -7.029  19.543 -12.069  1.00  0.00     0.246 HD
ENDBRANCH   1   8
TORSDOF 1
ENDMDL
MODEL 2
REMARK VINA RESULT: -4.454830808      1.814      2.230
REMARK  1 active torsions:
REMARK  status: ('A' for Active; 'I' for Inactive)
REMARK    1  A    between atoms: O1_1  and  N1_3 
ROOT
HETATM    1  N1  UNL     1      -6.085  18.164  -9.528  1.00  0.00    -0.206 N 
HETATM    2  C1  UNL     1      -6.453  19.258 -10.343  1.00  0.00     0.176 C 
HETATM    3  C2  UNL     1      -6.905  20.484  -9.586  1.00  0.00     0.026 C 
HETATM    4  C3  UNL     1      -5.850  20.767  -8.532  1.00  0.00     0.023 C 
HETATM    5  C4  UNL     1      -5.791  19.557  -7.635  1.00  0.00     0.141 C 
HETATM    6  N2  UNL     1      -5.372  18.426  -8.408  1.00  0.00    -0.315 N 
ATOM      7  H2  UNL     1      -4.579  17.849  -8.128  1.00  0.00     0.182 HD
ENDROOT
BRANCH   1   8
HETATM    8  O1  UNL     1      -6.938  17.149  -9.480  1.00  0.00    -0.273 OA
ATOM      9  H1  UNL     1      -6.920  16.545 -10.213  1.00  0.00     0.246 HD
ENDBRANCH   1   8
TORSDOF 1
ENDMDL
MODEL 3
REMARK VINA RESULT: -4.072876610      1.988      2.580
REMARK  1 active torsions:
REMARK  status: ('A' for Active; 'I' for Inactive)
REMARK    1  A    between atoms: O1_1  and  N1_3 
ROOT
HETATM    1  N1  UNL     1      -5.308  21.167  -8.813  1.00  0.00    -0.206 N 
HETATM    2  C1  UNL     1      -6.412  20.717  -9.573  1.00  0.00     0.176 C 
HETATM    3  C2  UNL     1      -6.350  19.263  -9.973  1.00  0.00     0.026 C 
HETATM    4  C3  UNL     1      -6.045  18.471  -8.716  1.00  0.00     0.023 C 
HETATM    5  C4  UNL     1      -4.713  18.957  -8.204  1.00  0.00     0.141 C 
HETATM    6  N2  UNL     1      -4.827  20.341  -7.854  1.00  0.00    -0.315 N 
ATOM      7  H2  UNL     1      -4.560  20.686  -6.932  1.00  0.00     0.182 HD
ENDROOT
BRANCH   1   8
HETATM    8  O1  UNL     1      -4.433  21.942  -9.441  1.00  0.00    -0.273 OA
ATOM      9  H1  UNL     1      -4.175  22.739  -8.993  1.00  0.00     0.246 HD
ENDBRANCH   1   8
TORSDOF 1
ENDMDL
MODEL 4
REMARK VINA RESULT: -4.061373289      1.939      2.366
REMARK  1 active torsions:
REMARK  status: ('A' for Active; 'I' for Inactive)
REMARK    1  A    between atoms: O1_1  and  N1_3 
ROOT
HETATM    1  N1  UNL     1      -6.232  18.769  -8.850  1.00  0.00    -0.206 N 
HETATM    2  C1  UNL     1      -6.646  20.015  -9.372  1.00  0.00     0.176 C 
HETATM    3  C2  UNL     1      -6.238  21.211  -8.547  1.00  0.00     0.026 C 
HETATM    4  C3  UNL     1      -4.753  21.070  -8.268  1.00  0.00     0.023 C 
HETATM    5  C4  UNL     1      -4.571  19.785  -7.501  1.00  0.00     0.141 C 
HETATM    6  N2  UNL     1      -4.986  18.690  -8.326  1.00  0.00    -0.315 N 
ATOM      7  H2  UNL     1      -4.376  17.893  -8.507  1.00  0.00     0.182 HD
ENDROOT
BRANCH   1   8
HETATM    8  O1  UNL     1      -7.173  18.018  -8.292  1.00  0.00    -0.273 OA
ATOM      9  H1  UNL     1      -6.978  17.663  -7.433  1.00  0.00     0.246 HD
ENDBRANCH   1   8
TORSDOF 1
ENDMDL
MODEL 5
REMARK VINA RESULT: -4.043753913      1.381      2.250
REMARK  1 active torsions:
REMARK  status: ('A' for Active; 'I' for Inactive)
REMARK    1  A    between atoms: O1_1  and  N1_3 
ROOT
HETATM    1  N1  UNL     1      -7.000  20.518  -9.299  1.00  0.00    -0.206 N 
HETATM    2  C1  UNL     1      -6.151  21.099  -8.329  1.00  0.00     0.176 C 
HETATM    3  C2  UNL     1      -5.520  20.116  -7.374  1.00  0.00     0.026 C 
HETATM    4  C3  UNL     1      -4.907  19.012  -8.216  1.00  0.00     0.023 C 
HETATM    5  C4  UNL     1      -6.032  18.378  -8.994  1.00  0.00     0.141 C 
HETATM    6  N2  UNL     1      -6.600  19.359  -9.870  1.00  0.00    -0.315 N 
ATOM      7  H2  UNL     1      -6.698  19.191 -10.872  1.00  0.00     0.182 HD
ENDROOT
BRANCH   1   8
HETATM    8  O1  UNL     1      -8.304  20.688  -9.121  1.00  0.00    -0.273 OA
ATOM      9  H1  UNL     1      -8.851  19.921  -9.239  1.00  0.00     0.246 HD
ENDBRANCH   1   8
TORSDOF 1
ENDMDL
