MODEL 1
REMARK VINA RESULT: -4.388686654      0.000      0.000
REMARK  3 active torsions:
REMARK  status: ('A' for Active; 'I' for Inactive)
REMARK    1  A    between atoms: C2_2  and  O2_4 
REMARK    2  A    between atoms: O2_4  and  N1_5 
REMARK    3  A    between atoms: N1_5  and  O3_7 
ROOT
HETATM    1  O2  UNL     1      -7.200  19.664  -9.128  1.00  0.00    -0.200 OA
ENDROOT
BRANCH   1   2
HETATM    2  C2  UNL     1      -6.385  18.545  -9.132  1.00  0.00     0.274 C 
HETATM    3  C1  UNL     1      -5.069  18.563  -8.467  1.00  0.00     0.128 C 
HETATM    4  O1  UNL     1      -6.788  17.509  -9.716  1.00  0.00    -0.264 OA
ENDBRANCH   1   2
BRANCH   1   5
HETATM    5  N1  UNL     1      -7.515  20.342 -10.293  1.00  0.00    -0.067 NA
HETATM    6  C3  UNL     1      -7.220  21.751 -10.197  1.00  0.00     0.179 C 
BRANCH   5   7
HETATM    7  O3  UNL     1      -6.747  19.826 -11.282  1.00  0.00    -0.289 OA
ATOM      8  H3  UNL     1      -7.241  19.124 -11.689  1.00  0.00     0.239 HD
ENDBRANCH   5   7
ENDBRANCH   1   5
TORSDOF 3
ENDMDL
MODEL 2
REMARK VINA RESULT: -4.250186185      1.225      1.254
REMARK  3 active torsions:
REMARK  status: ('A' for Active; 'I' for Inactive)
REMARK    1  A    between atoms: C2_2  and  O2_4 
REMARK    2  A    between atoms: O2_4  and  N1_5 
REMARK    3  A    between atoms: N1_5  and  O3_7 
ROOT
HETATM    1  O2  UNL     1      -5.669  19.354 -10.028  1.00  0.00    -0.200 OA
ENDROOT
BRANCH   1   2
HETATM    2  C2  UNL     1      -5.661  18.756  -8.778  1.00  0.00     0.274 C 
HETATM    3  C1  UNL     1      -4.419  18.670  -7.987  1.00  0.00     0.128 C 
HETATM    4  O1  UNL     1      -6.734  18.286  -8.330  1.00  0.00    -0.264 OA
ENDBRANCH   1   2
BRANCH   1   5
HETATM    5  N1  UNL     1      -6.822  19.440 -10.787  1.00  0.00    -0.067 NA
HETATM    6  C3  UNL     1      -7.462  20.727 -10.659  1.00  0.00     0.179 C 
BRANCH   5   7
HETATM    7  O3  UNL     1      -6.466  19.286 -12.085  1.00  0.00    -0.289 OA
ATOM      8  H3  UNL     1      -7.259  19.332 -12.606  1.00  0.00     0.239 HD
ENDBRANCH   5   7
ENDBRANCH   1   5
TORSDOF 3
ENDMDL
MODEL 3
REMARK VINA RESULT: -4.207333267      2.167      2.779
REMARK  3 active torsions:
REMARK  status: ('A' for Active; 'I' for Inactive)
REMARK    1  A    between atoms: C2_2  and  O2_4 
REMARK    2  A    between atoms: O2_4  and  N1_5 
REMARK    3  A    between atoms: N1_5  and  O3_7 
ROOT
HETATM    1  O2  UNL     1      -5.140  18.106  -8.774  1.00  0.00    -0.200 OA
ENDROOT
BRANCH   1   2
HETATM    2  C2  UNL     1      -4.515  18.936  -7.859  1.00  0.00     0.274 C 
HETATM    3  C1  UNL     1      -3.099  18.732  -7.495  1.00  0.00     0.128 C 
HETATM    4  O1  UNL     1      -5.176  19.868  -7.341  1.00  0.00    -0.264 OA
ENDBRANCH   1   2
BRANCH   1   5
HETATM    5  N1  UNL     1      -6.435  18.339  -9.204  1.00  0.00    -0.067 NA
HETATM    6  C3  UNL     1      -6.477  19.230 -10.338  1.00  0.00     0.179 C 
BRANCH   5   7
HETATM    7  O3  UNL     1      -6.952  17.150  -9.595  1.00  0.00    -0.289 OA
ATOM      8  H3  UNL     1      -7.651  17.333 -10.213  1.00  0.00     0.239 HD
ENDBRANCH   5   7
ENDBRANCH   1   5
TORSDOF 3
ENDMDL
MODEL 4
REMARK VINA RESULT: -4.191257057      2.155      2.812
REMARK  3 active torsions:
REMARK  status: ('A' for Active; 'I' for Inactive)
REMARK    1  A    between atoms: C2_2  and  O2_4 
REMARK    2  A    between atoms: O2_4  and  N1_5 
REMARK    3  A    between atoms: N1_5  and  O3_7 
ROOT
HETATM    1  O2  UNL     1      -5.446  18.268  -8.472  1.00  0.00    -0.200 OA
ENDROOT
BRANCH   1   2
HETATM    2  C2  UNL     1      -4.823  19.387  -7.943  1.00  0.00     0.274 C 
HETATM    3  C1  UNL     1      -5.600  20.427  -7.242  1.00  0.00     0.128 C 
HETATM    4  O1  UNL     1      -3.580  19.500  -8.072  1.00  0.00    -0.264 OA
ENDBRANCH   1   2
BRANCH   1   5
HETATM    5  N1  UNL     1      -6.613  18.364  -9.210  1.00  0.00    -0.067 NA
HETATM    6  C3  UNL     1      -6.449  19.199 -10.375  1.00  0.00     0.179 C 
BRANCH   5   7
HETATM    7  O3  UNL     1      -6.926  17.118  -9.638  1.00  0.00    -0.289 OA
ATOM      8  H3  UNL     1      -7.597  17.206 -10.305  1.00  0.00     0.239 HD
ENDBRANCH   5   7
ENDBRANCH   1   5
TORSDOF 3
ENDMDL
MODEL 5
REMARK VINA RESULT: -4.136190821      1.376      3.053
REMARK  3 active torsions:
REMARK  status: ('A' for Active; 'I' for Inactive)
REMARK    1  A    between atoms: C2_2  and  O2_4 
REMARK    2  A    between atoms: O2_4  and  N1_5 
REMARK    3  A    between atoms: N1_5  and  O3_7 
ROOT
HETATM    1  O2  UNL     1      -7.351  19.264  -9.187  1.00  0.00    -0.200 OA
ENDROOT
BRANCH   1   2
HETATM    2  C2  UNL     1      -7.273  20.613  -9.490  1.00  0.00     0.274 C 
HETATM    3  C1  UNL     1      -7.018  21.613  -8.436  1.00  0.00     0.128 C 
HETATM    4  O1  UNL     1      -7.424  20.972 -10.683  1.00  0.00    -0.264 OA
ENDBRANCH   1   2
BRANCH   1   5
HETATM    5  N1  UNL     1      -6.389  18.365  -9.612  1.00  0.00    -0.067 NA
HETATM    6  C3  UNL     1      -5.237  18.352  -8.744  1.00  0.00     0.179 C 
BRANCH   5   7
HETATM    7  O3  UNL     1      -6.944  17.130  -9.577  1.00  0.00    -0.289 OA
ATOM      8  H3  UNL     1      -7.572  17.080 -10.288  1.00  0.00     0.239 HD
ENDBRANCH   5   7
ENDBRANCH   1   5
TORSDOF 3
ENDMDL
