MODEL 1
REMARK VINA RESULT: -7.974009740      0.000      0.000
REMARK  10 active torsions:
REMARK  status: ('A' for Active; 'I' for Inactive)
REMARK    1  A    between atoms: N1_1  and  C1_4 
REMARK    2  A    between atoms: N3_9  and  C3_10 
REMARK    3  A    between atoms: C3_10  and  C4_11 
REMARK    4  A    between atoms: C4_11  and  C5_12 
REMARK    5  A    between atoms: C5_12  and  C6_13 
REMARK    6  A    between atoms: C6_13  and  C7_14 
REMARK    7  A    between atoms: C7_14  and  C8_15 
REMARK    8  A    between atoms: C8_15  and  C9_16 
REMARK    9  A    between atoms: C9_16  and  N4_17 
REMARK   10  A    between atoms: C10_20  and  N6_21 
ROOT
HETATM    1  C5  UNL     1      14.219  38.013  -8.909  1.00  0.00     0.002 C 
ENDROOT
BRANCH   1   2
HETATM    2  C4  UNL     1      14.342  36.974 -10.001  1.00  0.00     0.020 C 
BRANCH   2   3
HETATM    3  C3  UNL     1      13.153  37.099 -10.951  1.00  0.00     0.139 C 
BRANCH   3   4
HETATM    4  N3  UNL     1      13.564  36.866 -12.322  1.00  0.00    -0.250 N 
HETATM    5  C2  UNL     1      13.511  35.646 -12.893  1.00  0.00     0.344 A 
HETATM    6  N2  UNL     1      13.898  35.456 -14.170  1.00  0.00    -0.141 N 
HETATM    7  O1  UNL     1      13.096  34.654 -12.241  1.00  0.00    -0.246 OA
HETATM    8  C1  UNL     1      14.353  36.474 -14.921  1.00  0.00     0.683 A 
ATOM      9  H2  UNL     1      13.845  34.520 -14.574  1.00  0.00     0.189 HD
HETATM   10  N8  UNL     1      14.413  37.683 -14.375  1.00  0.00    -0.141 N 
HETATM   11  C12 UNL     1      14.025  37.873 -13.099  1.00  0.00     0.344 A 
ATOM     12  H8  UNL     1      14.755  38.472 -14.924  1.00  0.00     0.189 HD
HETATM   13  O3  UNL     1      14.089  39.023 -12.599  1.00  0.00    -0.246 OA
BRANCH   8  14
HETATM   14  N1  UNL     1      14.715  36.235 -16.150  1.00  0.00    -0.234 N 
ATOM     15  H12 UNL     1      15.428  35.546 -16.393  1.00  0.00     0.174 HD
ATOM     16  H11 UNL     1      14.270  36.756 -16.904  1.00  0.00     0.174 HD
ENDBRANCH   8  14
ENDBRANCH   3   4
ENDBRANCH   2   3
ENDBRANCH   1   2
BRANCH   1  17
HETATM   17  C6  UNL     1      12.810  38.438  -8.666  1.00  0.00     0.000 C 
BRANCH  17  18
HETATM   18  C7  UNL     1      12.635  39.196  -7.372  1.00  0.00     0.002 C 
BRANCH  18  19
HETATM   19  C8  UNL     1      11.881  38.417  -6.345  1.00  0.00     0.022 C 
BRANCH  19  20
HETATM   20  C9  UNL     1      10.926  39.357  -5.625  1.00  0.00     0.154 C 
BRANCH  20  21
HETATM   21  N4  UNL     1      10.655  38.944  -4.265  1.00  0.00    -0.228 N 
HETATM   22  N5  UNL     1      11.415  39.088  -3.197  1.00  0.00    -0.126 N 
HETATM   23  C10 UNL     1      10.781  38.562  -2.137  1.00  0.00     0.694 A 
ATOM     24  H5  UNL     1      12.335  39.528  -3.179  1.00  0.00     0.206 HD
HETATM   25  N7  UNL     1       9.614  38.086  -2.549  1.00  0.00    -0.139 N 
HETATM   26  C11 UNL     1       9.536  38.324  -3.868  1.00  0.00     0.355 A 
ATOM     27  H7  UNL     1       8.909  37.626  -1.973  1.00  0.00     0.189 HD
HETATM   28  O2  UNL     1       8.573  38.020  -4.629  1.00  0.00    -0.244 OA
BRANCH  23  29
HETATM   29  N6  UNL     1      11.190  38.502  -0.911  1.00  0.00    -0.233 N 
ATOM     30  H62 UNL     1      12.121  38.188  -0.639  1.00  0.00     0.174 HD
ATOM     31  H61 UNL     1      10.677  38.746  -0.064  1.00  0.00     0.174 HD
ENDBRANCH  23  29
ENDBRANCH  20  21
ENDBRANCH  19  20
ENDBRANCH  18  19
ENDBRANCH  17  18
ENDBRANCH   1  17
TORSDOF 10
ENDMDL
MODEL 2
REMARK VINA RESULT: -7.964684047      0.126      1.640
REMARK  10 active torsions:
REMARK  status: ('A' for Active; 'I' for Inactive)
REMARK    1  A    between atoms: N1_1  and  C1_4 
REMARK    2  A    between atoms: N3_9  and  C3_10 
REMARK    3  A    between atoms: C3_10  and  C4_11 
REMARK    4  A    between atoms: C4_11  and  C5_12 
REMARK    5  A    between atoms: C5_12  and  C6_13 
REMARK    6  A    between atoms: C6_13  and  C7_14 
REMARK    7  A    between atoms: C7_14  and  C8_15 
REMARK    8  A    between atoms: C8_15  and  C9_16 
REMARK    9  A    between atoms: C9_16  and  N4_17 
REMARK   10  A    between atoms: C10_20  and  N6_21 
ROOT
HETATM    1  C5  UNL     1      14.208  37.854  -8.775  1.00  0.00     0.002 C 
ENDROOT
BRANCH   1   2
HETATM    2  C4  UNL     1      14.373  36.941  -9.969  1.00  0.00     0.020 C 
BRANCH   2   3
HETATM    3  C3  UNL     1      13.173  37.105 -10.899  1.00  0.00     0.139 C 
BRANCH   3   4
HETATM    4  N3  UNL     1      13.564  36.914 -12.282  1.00  0.00    -0.250 N 
HETATM    5  C2  UNL     1      13.996  37.929 -13.056  1.00  0.00     0.344 A 
HETATM    6  N2  UNL     1      14.355  37.725 -14.339  1.00  0.00    -0.141 N 
HETATM    7  O1  UNL     1      14.074  39.095 -12.593  1.00  0.00    -0.246 OA
HETATM    8  C1  UNL     1      14.295  36.502 -14.895  1.00  0.00     0.683 A 
ATOM      9  H2  UNL     1      14.679  38.514 -14.899  1.00  0.00     0.189 HD
HETATM   10  N8  UNL     1      13.871  35.489 -14.148  1.00  0.00    -0.141 N 
HETATM   11  C12 UNL     1      13.513  35.694 -12.865  1.00  0.00     0.344 A 
ATOM     12  H8  UNL     1      13.815  34.552 -14.547  1.00  0.00     0.189 HD
HETATM   13  O3  UNL     1      13.115  34.725 -12.173  1.00  0.00    -0.246 OA
BRANCH   8  14
HETATM   14  N1  UNL     1      14.653  36.360 -16.141  1.00  0.00    -0.234 N 
ATOM     15  H12 UNL     1      14.087  35.858 -16.825  1.00  0.00     0.174 HD
ATOM     16  H11 UNL     1      15.536  36.766 -16.447  1.00  0.00     0.174 HD
ENDBRANCH   8  14
ENDBRANCH   3   4
ENDBRANCH   2   3
ENDBRANCH   1   2
BRANCH   1  17
HETATM   17  C6  UNL     1      12.846  38.455  -8.686  1.00  0.00     0.000 C 
BRANCH  17  18
HETATM   18  C7  UNL     1      12.614  39.206  -7.397  1.00  0.00     0.002 C 
BRANCH  18  19
HETATM   19  C8  UNL     1      11.978  38.361  -6.343  1.00  0.00     0.022 C 
BRANCH  19  20
HETATM   20  C9  UNL     1      10.794  39.117  -5.761  1.00  0.00     0.154 C 
BRANCH  20  21
HETATM   21  N4  UNL     1      10.582  38.832  -4.358  1.00  0.00    -0.228 N 
HETATM   22  N5  UNL     1      11.410  39.019  -3.349  1.00  0.00    -0.126 N 
HETATM   23  C10 UNL     1      10.814  38.616  -2.216  1.00  0.00     0.694 A 
ATOM     24  H5  UNL     1      12.350  39.408  -3.418  1.00  0.00     0.206 HD
HETATM   25  N7  UNL     1       9.602  38.173  -2.523  1.00  0.00    -0.139 N 
HETATM   26  C11 UNL     1       9.459  38.308  -3.851  1.00  0.00     0.355 A 
ATOM     27  H7  UNL     1       8.910  37.801  -1.873  1.00  0.00     0.189 HD
HETATM   28  O2  UNL     1       8.439  37.996  -4.531  1.00  0.00    -0.244 OA
BRANCH  23  29
HETATM   29  N6  UNL     1      11.290  38.634  -1.013  1.00  0.00    -0.233 N 
ATOM     30  H62 UNL     1      11.148  39.403  -0.359  1.00  0.00     0.174 HD
ATOM     31  H61 UNL     1      11.854  37.921  -0.549  1.00  0.00     0.174 HD
ENDBRANCH  23  29
ENDBRANCH  20  21
ENDBRANCH  19  20
ENDBRANCH  18  19
ENDBRANCH  17  18
ENDBRANCH   1  17
TORSDOF 10
ENDMDL
MODEL 3
REMARK VINA RESULT: -7.641649996      1.991      9.091
REMARK  10 active torsions:
REMARK  status: ('A' for Active; 'I' for Inactive)
REMARK    1  A    between atoms: N1_1  and  C1_4 
REMARK    2  A    between atoms: N3_9  and  C3_10 
REMARK    3  A    between atoms: C3_10  and  C4_11 
REMARK    4  A    between atoms: C4_11  and  C5_12 
REMARK    5  A    between atoms: C5_12  and  C6_13 
REMARK    6  A    between atoms: C6_13  and  C7_14 
REMARK    7  A    between atoms: C7_14  and  C8_15 
REMARK    8  A    between atoms: C8_15  and  C9_16 
REMARK    9  A    between atoms: C9_16  and  N4_17 
REMARK   10  A    between atoms: C10_20  and  N6_21 
ROOT
HETATM    1  C5  UNL     1      13.939  41.146  -9.013  1.00  0.00     0.002 C 
ENDROOT
BRANCH   1   2
HETATM    2  C4  UNL     1      13.098  41.350  -7.773  1.00  0.00     0.020 C 
BRANCH   2   3
HETATM    3  C3  UNL     1      11.802  40.555  -7.907  1.00  0.00     0.139 C 
BRANCH   3   4
HETATM    4  N3  UNL     1      11.491  39.865  -6.670  1.00  0.00    -0.250 N 
HETATM    5  C2  UNL     1      11.953  38.628  -6.399  1.00  0.00     0.344 A 
HETATM    6  N2  UNL     1      11.651  38.009  -5.241  1.00  0.00    -0.141 N 
HETATM    7  O1  UNL     1      12.681  38.023  -7.227  1.00  0.00    -0.246 OA
HETATM    8  C1  UNL     1      10.877  38.599  -4.313  1.00  0.00     0.683 A 
ATOM      9  H2  UNL     1      12.017  37.072  -5.065  1.00  0.00     0.189 HD
HETATM   10  N8  UNL     1      10.413  39.819  -4.563  1.00  0.00    -0.141 N 
HETATM   11  C12 UNL     1      10.716  40.438  -5.721  1.00  0.00     0.344 A 
ATOM     12  H8  UNL     1       9.823  40.288  -3.876  1.00  0.00     0.189 HD
HETATM   13  O3  UNL     1      10.267  41.590  -5.940  1.00  0.00    -0.246 OA
BRANCH   8  14
HETATM   14  N1  UNL     1      10.615  37.956  -3.211  1.00  0.00    -0.234 N 
ATOM     15  H12 UNL     1      10.305  36.984  -3.198  1.00  0.00     0.174 HD
ATOM     16  H11 UNL     1      10.723  38.441  -2.321  1.00  0.00     0.174 HD
ENDBRANCH   8  14
ENDBRANCH   3   4
ENDBRANCH   2   3
ENDBRANCH   1   2
BRANCH   1  17
HETATM   17  C6  UNL     1      13.313  40.212  -9.994  1.00  0.00     0.000 C 
BRANCH  17  18
HETATM   18  C7  UNL     1      14.220  39.069 -10.384  1.00  0.00     0.002 C 
BRANCH  18  19
HETATM   19  C8  UNL     1      13.510  37.756 -10.415  1.00  0.00     0.022 C 
BRANCH  19  20
HETATM   20  C9  UNL     1      14.516  36.667 -10.756  1.00  0.00     0.154 C 
BRANCH  20  21
HETATM   21  N4  UNL     1      14.604  36.411 -12.178  1.00  0.00    -0.228 N 
HETATM   22  N5  UNL     1      15.477  36.885 -13.044  1.00  0.00    -0.126 N 
HETATM   23  C10 UNL     1      15.195  36.394 -14.260  1.00  0.00     0.694 A 
ATOM     24  H5  UNL     1      16.244  37.522 -12.825  1.00  0.00     0.206 HD
HETATM   25  N7  UNL     1      14.134  35.605 -14.151  1.00  0.00    -0.139 N 
HETATM   26  C11 UNL     1      13.769  35.616 -12.859  1.00  0.00     0.355 A 
ATOM     27  H7  UNL     1      13.682  35.088 -14.904  1.00  0.00     0.189 HD
HETATM   28  O2  UNL     1      12.798  34.986 -12.349  1.00  0.00    -0.244 OA
BRANCH  23  29
HETATM   29  N6  UNL     1      15.813  36.617 -15.375  1.00  0.00    -0.233 N 
ATOM     30  H62 UNL     1      15.339  36.841 -16.250  1.00  0.00     0.174 HD
ATOM     31  H61 UNL     1      16.818  36.606 -15.551  1.00  0.00     0.174 HD
ENDBRANCH  23  29
ENDBRANCH  20  21
ENDBRANCH  19  20
ENDBRANCH  18  19
ENDBRANCH  17  18
ENDBRANCH   1  17
TORSDOF 10
ENDMDL
MODEL 4
REMARK VINA RESULT: -7.615013852      2.023      9.106
REMARK  10 active torsions:
REMARK  status: ('A' for Active; 'I' for Inactive)
REMARK    1  A    between atoms: N1_1  and  C1_4 
REMARK    2  A    between atoms: N3_9  and  C3_10 
REMARK    3  A    between atoms: C3_10  and  C4_11 
REMARK    4  A    between atoms: C4_11  and  C5_12 
REMARK    5  A    between atoms: C5_12  and  C6_13 
REMARK    6  A    between atoms: C6_13  and  C7_14 
REMARK    7  A    between atoms: C7_14  and  C8_15 
REMARK    8  A    between atoms: C8_15  and  C9_16 
REMARK    9  A    between atoms: C9_16  and  N4_17 
REMARK   10  A    between atoms: C10_20  and  N6_21 
ROOT
HETATM    1  C5  UNL     1      13.723  41.314  -8.693  1.00  0.00     0.002 C 
ENDROOT
BRANCH   1   2
HETATM    2  C4  UNL     1      12.858  41.424  -7.458  1.00  0.00     0.020 C 
BRANCH   2   3
HETATM    3  C3  UNL     1      11.623  40.543  -7.627  1.00  0.00     0.139 C 
BRANCH   3   4
HETATM    4  N3  UNL     1      11.305  39.860  -6.388  1.00  0.00    -0.250 N 
HETATM    5  C2  UNL     1      10.503  40.403  -5.451  1.00  0.00     0.344 A 
HETATM    6  N2  UNL     1      10.221  39.747  -4.308  1.00  0.00    -0.141 N 
HETATM    7  O1  UNL     1       9.996  41.540  -5.627  1.00  0.00    -0.246 OA
HETATM    8  C1  UNL     1      10.731  38.528  -4.058  1.00  0.00     0.683 A 
ATOM      9  H2  UNL     1       9.609  40.184  -3.618  1.00  0.00     0.189 HD
HETATM   10  N8  UNL     1      11.524  37.977  -4.970  1.00  0.00    -0.141 N 
HETATM   11  C12 UNL     1      11.804  38.632  -6.113  1.00  0.00     0.344 A 
ATOM     12  H8  UNL     1      11.923  37.053  -4.804  1.00  0.00     0.189 HD
HETATM   13  O3  UNL     1      12.556  38.096  -6.964  1.00  0.00    -0.246 OA
BRANCH   8  14
HETATM   14  N1  UNL     1      10.427  37.938  -2.936  1.00  0.00    -0.234 N 
ATOM     15  H12 UNL     1      10.276  36.931  -2.864  1.00  0.00     0.174 HD
ATOM     16  H11 UNL     1      10.336  38.503  -2.093  1.00  0.00     0.174 HD
ENDBRANCH   8  14
ENDBRANCH   3   4
ENDBRANCH   2   3
ENDBRANCH   1   2
BRANCH   1  17
HETATM   17  C6  UNL     1      13.089  40.510  -9.777  1.00  0.00     0.000 C 
BRANCH  17  18
HETATM   18  C7  UNL     1      13.947  39.355 -10.236  1.00  0.00     0.002 C 
BRANCH  18  19
HETATM   19  C8  UNL     1      13.217  38.053 -10.220  1.00  0.00     0.022 C 
BRANCH  19  20
HETATM   20  C9  UNL     1      14.234  36.923 -10.257  1.00  0.00     0.154 C 
BRANCH  20  21
HETATM   21  N4  UNL     1      14.649  36.588 -11.602  1.00  0.00    -0.228 N 
HETATM   22  N5  UNL     1      15.754  36.936 -12.231  1.00  0.00    -0.126 N 
HETATM   23  C10 UNL     1      15.737  36.410 -13.466  1.00  0.00     0.694 A 
ATOM     24  H5  UNL     1      16.502  37.510 -11.842  1.00  0.00     0.206 HD
HETATM   25  N7  UNL     1      14.609  35.727 -13.607  1.00  0.00    -0.139 N 
HETATM   26  C11 UNL     1      13.935  35.838 -12.451  1.00  0.00     0.355 A 
ATOM     27  H7  UNL     1      14.310  35.215 -14.437  1.00  0.00     0.189 HD
HETATM   28  O2  UNL     1      12.809  35.325 -12.188  1.00  0.00    -0.244 OA
BRANCH  23  29
HETATM   29  N6  UNL     1      16.633  36.518 -14.392  1.00  0.00    -0.233 N 
ATOM     30  H62 UNL     1      16.414  36.674 -15.377  1.00  0.00     0.174 HD
ATOM     31  H61 UNL     1      17.648  36.469 -14.296  1.00  0.00     0.174 HD
ENDBRANCH  23  29
ENDBRANCH  20  21
ENDBRANCH  19  20
ENDBRANCH  18  19
ENDBRANCH  17  18
ENDBRANCH   1  17
TORSDOF 10
ENDMDL
MODEL 5
REMARK VINA RESULT: -7.510332748      2.194      9.128
REMARK  10 active torsions:
REMARK  status: ('A' for Active; 'I' for Inactive)
REMARK    1  A    between atoms: N1_1  and  C1_4 
REMARK    2  A    between atoms: N3_9  and  C3_10 
REMARK    3  A    between atoms: C3_10  and  C4_11 
REMARK    4  A    between atoms: C4_11  and  C5_12 
REMARK    5  A    between atoms: C5_12  and  C6_13 
REMARK    6  A    between atoms: C6_13  and  C7_14 
REMARK    7  A    between atoms: C7_14  and  C8_15 
REMARK    8  A    between atoms: C8_15  and  C9_16 
REMARK    9  A    between atoms: C9_16  and  N4_17 
REMARK   10  A    between atoms: C10_20  and  N6_21 
ROOT
HETATM    1  C5  UNL     1      14.212  41.452  -9.448  1.00  0.00     0.002 C 
ENDROOT
BRANCH   1   2
HETATM    2  C4  UNL     1      13.440  41.409  -8.149  1.00  0.00     0.020 C 
BRANCH   2   3
HETATM    3  C3  UNL     1      12.209  40.523  -8.323  1.00  0.00     0.139 C 
BRANCH   3   4
HETATM    4  N3  UNL     1      11.856  39.881  -7.071  1.00  0.00    -0.250 N 
HETATM    5  C2  UNL     1      11.133  40.505  -6.120  1.00  0.00     0.344 A 
HETATM    6  N2  UNL     1      10.817  39.887  -4.965  1.00  0.00    -0.141 N 
HETATM    7  O1  UNL     1      10.736  41.686  -6.293  1.00  0.00    -0.246 OA
HETATM    8  C1  UNL     1      11.211  38.625  -4.718  1.00  0.00     0.683 A 
ATOM      9  H2  UNL     1      10.268  40.386  -4.265  1.00  0.00     0.189 HD
HETATM   10  N8  UNL     1      11.924  37.994  -5.644  1.00  0.00    -0.141 N 
HETATM   11  C12 UNL     1      12.239  38.612  -6.798  1.00  0.00     0.344 A 
ATOM     12  H8  UNL     1      12.235  37.037  -5.479  1.00  0.00     0.189 HD
HETATM   13  O3  UNL     1      12.914  38.000  -7.662  1.00  0.00    -0.246 OA
BRANCH   8  14
HETATM   14  N1  UNL     1      10.878  38.074  -3.584  1.00  0.00    -0.234 N 
ATOM     15  H12 UNL     1      10.612  38.617  -2.763  1.00  0.00     0.174 HD
ATOM     16  H11 UNL     1      10.883  37.057  -3.512  1.00  0.00     0.174 HD
ENDBRANCH   8  14
ENDBRANCH   3   4
ENDBRANCH   2   3
ENDBRANCH   1   2
BRANCH   1  17
HETATM   17  C6  UNL     1      14.914  40.171  -9.750  1.00  0.00     0.000 C 
BRANCH  17  18
HETATM   18  C7  UNL     1      14.599  39.634 -11.126  1.00  0.00     0.002 C 
BRANCH  18  19
HETATM   19  C8  UNL     1      13.656  38.478 -11.092  1.00  0.00     0.022 C 
BRANCH  19  20
HETATM   20  C9  UNL     1      14.459  37.190 -11.194  1.00  0.00     0.154 C 
BRANCH  20  21
HETATM   21  N4  UNL     1      14.493  36.657 -12.539  1.00  0.00    -0.228 N 
HETATM   22  N5  UNL     1      15.304  36.976 -13.528  1.00  0.00    -0.126 N 
HETATM   23  C10 UNL     1      14.988  36.240 -14.605  1.00  0.00     0.694 A 
ATOM     24  H5  UNL     1      16.051  37.669 -13.482  1.00  0.00     0.206 HD
HETATM   25  N7  UNL     1      13.969  35.455 -14.284  1.00  0.00    -0.139 N 
HETATM   26  C11 UNL     1      13.664  35.713 -13.002  1.00  0.00     0.355 A 
ATOM     27  H7  UNL     1      13.506  34.782 -14.894  1.00  0.00     0.189 HD
HETATM   28  O2  UNL     1      12.746  35.166 -12.325  1.00  0.00    -0.244 OA
BRANCH  23  29
HETATM   29  N6  UNL     1      15.544  36.255 -15.774  1.00  0.00    -0.233 N 
ATOM     30  H62 UNL     1      15.021  36.252 -16.650  1.00  0.00     0.174 HD
ATOM     31  H61 UNL     1      16.539  36.272 -15.997  1.00  0.00     0.174 HD
ENDBRANCH  23  29
ENDBRANCH  20  21
ENDBRANCH  19  20
ENDBRANCH  18  19
ENDBRANCH  17  18
ENDBRANCH   1  17
TORSDOF 10
ENDMDL
