MODEL 1
REMARK VINA RESULT: -7.006884609      0.000      0.000
REMARK  1 active torsions:
REMARK  status: ('A' for Active; 'I' for Inactive)
REMARK    1  A    between atoms: C5_6  and  O1_7 
ROOT
HETATM    1  C1  UNL     1     -13.041  -3.437  -8.004  1.00  0.00     0.012 C 
HETATM    2  C2  UNL     1     -14.567  -3.566  -7.882  1.00  0.00     0.006 C 
HETATM    3  C3  UNL     1     -15.043  -2.106  -7.849  1.00  0.00     0.126 C 
HETATM    4  C4  UNL     1     -14.394  -1.425  -6.731  1.00  0.00     0.067 C 
HETATM    5  N1  UNL     1     -13.883  -0.869  -5.855  1.00  0.00    -0.197 NA
HETATM    6  C5  UNL     1     -16.540  -2.124  -7.706  1.00  0.00     0.144 C 
HETATM    7  C6  UNL     1     -17.140  -2.893  -8.847  1.00  0.00    -0.016 C 
HETATM    8  C7  UNL     1     -18.013  -1.897  -9.625  1.00  0.00     0.018 C 
HETATM    9  C8  UNL     1     -17.938  -4.068  -8.381  1.00  0.00     0.012 C 
HETATM   10  C9  UNL     1     -17.395  -5.391  -8.731  1.00  0.00     0.010 C 
HETATM   11  C10 UNL     1     -15.906  -5.533  -8.697  1.00  0.00    -0.044 C 
HETATM   12  C11 UNL     1     -15.580  -6.583  -9.775  1.00  0.00     0.015 C 
HETATM   13  C12 UNL     1     -15.445  -6.172  -7.396  1.00  0.00     0.015 C 
HETATM   14  C13 UNL     1     -15.160  -4.293  -9.039  1.00  0.00    -0.001 C 
HETATM   15  C14 UNL     1     -16.102  -3.388  -9.828  1.00  0.00     0.017 C 
ENDROOT
BRANCH   6  16
HETATM   16  O1  UNL     1     -16.870  -2.681  -6.460  1.00  0.00    -0.393 OA
ATOM     17  H1  UNL     1     -17.809  -2.616  -6.334  1.00  0.00     0.210 HD
ENDBRANCH   6  16
TORSDOF 1
ENDMDL
MODEL 2
REMARK VINA RESULT: -6.465498395      2.516      3.420
REMARK  1 active torsions:
REMARK  status: ('A' for Active; 'I' for Inactive)
REMARK    1  A    between atoms: C5_6  and  O1_7 
ROOT
HETATM    1  C1  UNL     1     -15.983  -1.531  -6.733  1.00  0.00     0.012 C 
HETATM    2  C2  UNL     1     -17.386  -1.487  -7.357  1.00  0.00     0.006 C 
HETATM    3  C3  UNL     1     -17.567  -0.006  -7.720  1.00  0.00     0.126 C 
HETATM    4  C4  UNL     1     -17.409   0.797  -6.509  1.00  0.00     0.067 C 
HETATM    5  N1  UNL     1     -17.280   1.447  -5.561  1.00  0.00    -0.197 NA
HETATM    6  C5  UNL     1     -18.935   0.147  -8.323  1.00  0.00     0.144 C 
HETATM    7  C6  UNL     1     -19.055  -0.750  -9.520  1.00  0.00    -0.016 C 
HETATM    8  C7  UNL     1     -19.279   0.171 -10.728  1.00  0.00     0.018 C 
HETATM    9  C8  UNL     1     -20.165  -1.741  -9.377  1.00  0.00     0.012 C 
HETATM   10  C9  UNL     1     -19.756  -3.151  -9.272  1.00  0.00     0.010 C 
HETATM   11  C10 UNL     1     -18.504  -3.429  -8.501  1.00  0.00    -0.044 C 
HETATM   12  C11 UNL     1     -17.897  -4.681  -9.162  1.00  0.00     0.015 C 
HETATM   13  C12 UNL     1     -18.820  -3.869  -7.080  1.00  0.00     0.015 C 
HETATM   14  C13 UNL     1     -17.485  -2.348  -8.569  1.00  0.00    -0.001 C 
HETATM   15  C14 UNL     1     -17.780  -1.511  -9.811  1.00  0.00     0.017 C 
ENDROOT
BRANCH   6  16
HETATM   16  O1  UNL     1     -19.898  -0.145  -7.343  1.00  0.00    -0.393 OA
ATOM     17  H1  UNL     1     -20.567   0.530  -7.360  1.00  0.00     0.210 HD
ENDBRANCH   6  16
TORSDOF 1
ENDMDL
MODEL 3
REMARK VINA RESULT: -6.201606776      3.703      5.200
REMARK  1 active torsions:
REMARK  status: ('A' for Active; 'I' for Inactive)
REMARK    1  A    between atoms: C5_6  and  O1_7 
ROOT
HETATM    1  C1  UNL     1     -17.969  -2.252  -6.928  1.00  0.00     0.012 C 
HETATM    2  C2  UNL     1     -18.729  -1.102  -7.606  1.00  0.00     0.006 C 
HETATM    3  C3  UNL     1     -17.612  -0.280  -8.265  1.00  0.00     0.126 C 
HETATM    4  C4  UNL     1     -16.663   0.135  -7.235  1.00  0.00     0.067 C 
HETATM    5  N1  UNL     1     -15.899   0.466  -6.432  1.00  0.00    -0.197 NA
HETATM    6  C5  UNL     1     -18.259   0.896  -8.943  1.00  0.00     0.144 C 
HETATM    7  C6  UNL     1     -19.267   0.404  -9.939  1.00  0.00    -0.016 C 
HETATM    8  C7  UNL     1     -18.779   0.879 -11.316  1.00  0.00     0.018 C 
HETATM    9  C8  UNL     1     -20.644   0.905  -9.647  1.00  0.00     0.012 C 
HETATM   10  C9  UNL     1     -21.626  -0.115  -9.244  1.00  0.00     0.010 C 
HETATM   11  C10 UNL     1     -21.119  -1.228  -8.382  1.00  0.00    -0.044 C 
HETATM   12  C11 UNL     1     -21.984  -2.447  -8.753  1.00  0.00     0.015 C 
HETATM   13  C12 UNL     1     -21.433  -0.974  -6.916  1.00  0.00     0.015 C 
HETATM   14  C13 UNL     1     -19.698  -1.596  -8.623  1.00  0.00    -0.001 C 
HETATM   15  C14 UNL     1     -19.323  -1.105 -10.019  1.00  0.00     0.017 C 
ENDROOT
BRANCH   6  16
HETATM   16  O1  UNL     1     -18.838   1.721  -7.965  1.00  0.00    -0.393 OA
ATOM     17  H1  UNL     1     -18.481   2.597  -8.053  1.00  0.00     0.210 HD
ENDBRANCH   6  16
TORSDOF 1
ENDMDL
MODEL 4
REMARK VINA RESULT: -6.162238669      1.411      1.924
REMARK  1 active torsions:
REMARK  status: ('A' for Active; 'I' for Inactive)
REMARK    1  A    between atoms: C5_6  and  O1_7 
ROOT
HETATM    1  C1  UNL     1     -14.328  -3.896  -9.114  1.00  0.00     0.012 C 
HETATM    2  C2  UNL     1     -15.518  -3.349  -8.312  1.00  0.00     0.006 C 
HETATM    3  C3  UNL     1     -15.139  -1.880  -8.074  1.00  0.00     0.126 C 
HETATM    4  C4  UNL     1     -13.855  -1.832  -7.377  1.00  0.00     0.067 C 
HETATM    5  N1  UNL     1     -12.837  -1.777  -6.832  1.00  0.00    -0.197 NA
HETATM    6  C5  UNL     1     -16.242  -1.254  -7.267  1.00  0.00     0.144 C 
HETATM    7  C6  UNL     1     -17.541  -1.395  -8.006  1.00  0.00    -0.016 C 
HETATM    8  C7  UNL     1     -18.020   0.033  -8.308  1.00  0.00     0.018 C 
HETATM    9  C8  UNL     1     -18.560  -2.157  -7.221  1.00  0.00     0.012 C 
HETATM   10  C9  UNL     1     -18.945  -3.466  -7.772  1.00  0.00     0.010 C 
HETATM   11  C10 UNL     1     -17.858  -4.266  -8.417  1.00  0.00    -0.044 C 
HETATM   12  C11 UNL     1     -18.561  -5.080  -9.520  1.00  0.00     0.015 C 
HETATM   13  C12 UNL     1     -17.310  -5.317  -7.464  1.00  0.00     0.015 C 
HETATM   14  C13 UNL     1     -16.797  -3.453  -9.068  1.00  0.00    -0.001 C 
HETATM   15  C14 UNL     1     -17.380  -2.071  -9.349  1.00  0.00     0.017 C 
ENDROOT
BRANCH   6  16
HETATM   16  O1  UNL     1     -16.282  -1.866  -6.003  1.00  0.00    -0.393 OA
ATOM     17  H1  UNL     1     -15.392  -2.040  -5.718  1.00  0.00     0.210 HD
ENDBRANCH   6  16
TORSDOF 1
ENDMDL
MODEL 5
REMARK VINA RESULT: -6.121531972      2.062      3.251
REMARK  1 active torsions:
REMARK  status: ('A' for Active; 'I' for Inactive)
REMARK    1  A    between atoms: C5_6  and  O1_7 
ROOT
HETATM    1  C1  UNL     1     -15.400  -3.000  -8.130  1.00  0.00     0.012 C 
HETATM    2  C2  UNL     1     -16.619  -2.135  -7.773  1.00  0.00     0.006 C 
HETATM    3  C3  UNL     1     -16.063  -0.705  -7.818  1.00  0.00     0.126 C 
HETATM    4  C4  UNL     1     -14.945  -0.605  -6.883  1.00  0.00     0.067 C 
HETATM    5  N1  UNL     1     -14.053  -0.512  -6.152  1.00  0.00    -0.197 NA
HETATM    6  C5  UNL     1     -17.186   0.227  -7.456  1.00  0.00     0.144 C 
HETATM    7  C6  UNL     1     -18.325   0.029  -8.413  1.00  0.00    -0.016 C 
HETATM    8  C7  UNL     1     -18.504   1.364  -9.151  1.00  0.00     0.018 C 
HETATM    9  C8  UNL     1     -19.583  -0.382  -7.718  1.00  0.00     0.012 C 
HETATM   10  C9  UNL     1     -20.060  -1.744  -8.008  1.00  0.00     0.010 C 
HETATM   11  C10 UNL     1     -19.012  -2.798  -8.179  1.00  0.00    -0.044 C 
HETATM   12  C11 UNL     1     -19.612  -3.801  -9.181  1.00  0.00     0.015 C 
HETATM   13  C12 UNL     1     -18.830  -3.603  -6.902  1.00  0.00     0.015 C 
HETATM   14  C13 UNL     1     -17.730  -2.306  -8.751  1.00  0.00    -0.001 C 
HETATM   15  C14 UNL     1     -18.020  -0.997  -9.481  1.00  0.00     0.017 C 
ENDROOT
BRANCH   6  16
HETATM   16  O1  UNL     1     -17.563  -0.013  -6.125  1.00  0.00    -0.393 OA
ATOM     17  H1  UNL     1     -18.398  -0.467  -6.120  1.00  0.00     0.210 HD
ENDBRANCH   6  16
TORSDOF 1
ENDMDL
