MODEL 1
REMARK VINA RESULT: -6.669624238      0.000      0.000
REMARK  1 active torsions:
REMARK  status: ('A' for Active; 'I' for Inactive)
REMARK    1  A    between atoms: C4_4  and  O1_5 
ROOT
HETATM    1  C1  UNL     1     -16.835  -2.399  -7.879  1.00  0.00     0.018 C 
HETATM    2  C2  UNL     1     -15.833  -3.368  -8.525  1.00  0.00    -0.017 C 
HETATM    3  C3  UNL     1     -16.041  -3.332  -9.976  1.00  0.00     0.018 C 
HETATM    4  C4  UNL     1     -14.464  -2.820  -8.197  1.00  0.00     0.126 C 
HETATM    5  C5  UNL     1     -13.404  -3.757  -8.654  1.00  0.00     0.033 C 
HETATM    6  C6  UNL     1     -13.574  -5.165  -8.257  1.00  0.00     0.013 C 
HETATM    7  C7  UNL     1     -14.939  -5.696  -8.137  1.00  0.00    -0.023 C 
HETATM    8  C8  UNL     1     -14.957  -6.708  -6.991  1.00  0.00     0.017 C 
HETATM    9  C9  UNL     1     -15.296  -6.479  -9.388  1.00  0.00     0.101 C 
HETATM   10  C10 UNL     1     -14.260  -7.526  -9.579  1.00  0.00     0.064 C 
HETATM   11  N1  UNL     1     -13.448  -8.333  -9.745  1.00  0.00    -0.197 NA
HETATM   12  C11 UNL     1     -16.605  -7.208  -9.261  1.00  0.00     0.020 C 
HETATM   13  C12 UNL     1     -17.548  -6.626  -8.282  1.00  0.00     0.002 C 
HETATM   14  C13 UNL     1     -17.390  -5.165  -8.024  1.00  0.00     0.006 C 
HETATM   15  C14 UNL     1     -16.005  -4.680  -7.840  1.00  0.00     0.005 C 
ENDROOT
BRANCH   4  16
HETATM   16  O1  UNL     1     -14.333  -2.467  -6.869  1.00  0.00    -0.395 OA
ATOM     17  H1  UNL     1     -13.669  -2.974  -6.417  1.00  0.00     0.210 HD
ENDBRANCH   4  16
TORSDOF 1
ENDMDL
MODEL 2
REMARK VINA RESULT: -6.437943732      3.036      5.062
REMARK  1 active torsions:
REMARK  status: ('A' for Active; 'I' for Inactive)
REMARK    1  A    between atoms: C4_4  and  O1_5 
ROOT
HETATM    1  C1  UNL     1     -14.179  -4.169  -8.208  1.00  0.00     0.018 C 
HETATM    2  C2  UNL     1     -15.644  -4.019  -8.647  1.00  0.00    -0.017 C 
HETATM    3  C3  UNL     1     -15.655  -3.468 -10.006  1.00  0.00     0.018 C 
HETATM    4  C4  UNL     1     -16.214  -5.417  -8.663  1.00  0.00     0.126 C 
HETATM    5  C5  UNL     1     -17.674  -5.383  -8.939  1.00  0.00     0.033 C 
HETATM    6  C6  UNL     1     -18.462  -4.447  -8.120  1.00  0.00     0.013 C 
HETATM    7  C7  UNL     1     -17.828  -3.196  -7.685  1.00  0.00    -0.023 C 
HETATM    8  C8  UNL     1     -18.360  -2.850  -6.294  1.00  0.00     0.017 C 
HETATM    9  C9  UNL     1     -18.265  -2.058  -8.590  1.00  0.00     0.101 C 
HETATM   10  C10 UNL     1     -19.749  -2.013  -8.579  1.00  0.00     0.064 C 
HETATM   11  N1  UNL     1     -20.906  -1.982  -8.589  1.00  0.00    -0.197 NA
HETATM   12  C11 UNL     1     -17.804  -0.714  -8.096  1.00  0.00     0.020 C 
HETATM   13  C12 UNL     1     -16.604  -0.748  -7.232  1.00  0.00     0.002 C 
HETATM   14  C13 UNL     1     -15.688  -1.905  -7.447  1.00  0.00     0.006 C 
HETATM   15  C14 UNL     1     -16.330  -3.231  -7.583  1.00  0.00     0.005 C 
ENDROOT
BRANCH   4  16
HETATM   16  O1  UNL     1     -15.898  -6.137  -7.529  1.00  0.00    -0.395 OA
ATOM     17  H1  UNL     1     -15.981  -5.625  -6.733  1.00  0.00     0.210 HD
ENDBRANCH   4  16
TORSDOF 1
ENDMDL
MODEL 3
REMARK VINA RESULT: -6.344241194      4.281      6.431
REMARK  1 active torsions:
REMARK  status: ('A' for Active; 'I' for Inactive)
REMARK    1  A    between atoms: C4_4  and  O1_5 
ROOT
HETATM    1  C1  UNL     1     -19.094  -3.911  -9.267  1.00  0.00     0.018 C 
HETATM    2  C2  UNL     1     -18.424  -2.983  -8.242  1.00  0.00    -0.017 C 
HETATM    3  C3  UNL     1     -18.798  -3.445  -6.901  1.00  0.00     0.018 C 
HETATM    4  C4  UNL     1     -16.937  -3.158  -8.440  1.00  0.00     0.126 C 
HETATM    5  C5  UNL     1     -16.181  -2.198  -7.593  1.00  0.00     0.033 C 
HETATM    6  C6  UNL     1     -16.613  -0.793  -7.669  1.00  0.00     0.013 C 
HETATM    7  C7  UNL     1     -18.036  -0.512  -7.902  1.00  0.00    -0.023 C 
HETATM    8  C8  UNL     1     -18.139   0.749  -8.760  1.00  0.00     0.017 C 
HETATM    9  C9  UNL     1     -18.714  -0.174  -6.586  1.00  0.00     0.101 C 
HETATM   10  C10 UNL     1     -17.972   0.956  -5.971  1.00  0.00     0.064 C 
HETATM   11  N1  UNL     1     -17.390   1.825  -5.476  1.00  0.00    -0.197 NA
HETATM   12  C11 UNL     1     -20.127   0.306  -6.768  1.00  0.00     0.020 C 
HETATM   13  C12 UNL     1     -20.785  -0.157  -8.010  1.00  0.00     0.002 C 
HETATM   14  C13 UNL     1     -20.271  -1.438  -8.573  1.00  0.00     0.006 C 
HETATM   15  C14 UNL     1     -18.800  -1.590  -8.616  1.00  0.00     0.005 C 
ENDROOT
BRANCH   4  16
HETATM   16  O1  UNL     1     -16.565  -3.110  -9.768  1.00  0.00    -0.395 OA
ATOM     17  H1  UNL     1     -15.663  -3.373  -9.908  1.00  0.00     0.210 HD
ENDBRANCH   4  16
TORSDOF 1
ENDMDL
MODEL 4
REMARK VINA RESULT: -6.106611948      5.333      7.311
REMARK  1 active torsions:
REMARK  status: ('A' for Active; 'I' for Inactive)
REMARK    1  A    between atoms: C4_4  and  O1_5 
ROOT
HETATM    1  C1  UNL     1     -22.402  -1.333  -8.822  1.00  0.00     0.018 C 
HETATM    2  C2  UNL     1     -20.934  -1.468  -8.388  1.00  0.00    -0.017 C 
HETATM    3  C3  UNL     1     -20.912  -2.069  -7.050  1.00  0.00     0.018 C 
HETATM    4  C4  UNL     1     -20.299  -2.415  -9.378  1.00  0.00     0.126 C 
HETATM    5  C5  UNL     1     -18.835  -2.513  -9.141  1.00  0.00     0.033 C 
HETATM    6  C6  UNL     1     -18.115  -1.234  -9.021  1.00  0.00     0.013 C 
HETATM    7  C7  UNL     1     -18.820  -0.090  -8.427  1.00  0.00    -0.023 C 
HETATM    8  C8  UNL     1     -18.344   1.181  -9.132  1.00  0.00     0.017 C 
HETATM    9  C9  UNL     1     -18.412   0.065  -6.973  1.00  0.00     0.101 C 
HETATM   10  C10 UNL     1     -16.933   0.183  -6.927  1.00  0.00     0.064 C 
HETATM   11  N1  UNL     1     -15.779   0.258  -6.880  1.00  0.00    -0.197 NA
HETATM   12  C11 UNL     1     -18.949   1.324  -6.351  1.00  0.00     0.020 C 
HETATM   13  C12 UNL     1     -20.171   1.861  -6.990  1.00  0.00     0.002 C 
HETATM   14  C13 UNL     1     -21.025   0.859  -7.691  1.00  0.00     0.006 C 
HETATM   15  C14 UNL     1     -20.317  -0.121  -8.545  1.00  0.00     0.005 C 
ENDROOT
BRANCH   4  16
HETATM   16  O1  UNL     1     -20.612  -2.110 -10.687  1.00  0.00    -0.395 OA
ATOM     17  H1  UNL     1     -20.018  -2.509 -11.311  1.00  0.00     0.210 HD
ENDBRANCH   4  16
TORSDOF 1
ENDMDL
MODEL 5
REMARK VINA RESULT: -6.094446547      3.523      4.932
REMARK  1 active torsions:
REMARK  status: ('A' for Active; 'I' for Inactive)
REMARK    1  A    between atoms: C4_4  and  O1_5 
ROOT
HETATM    1  C1  UNL     1     -19.888   1.274  -6.869  1.00  0.00     0.018 C 
HETATM    2  C2  UNL     1     -18.707   0.542  -7.525  1.00  0.00    -0.017 C 
HETATM    3  C3  UNL     1     -18.617   0.988  -8.919  1.00  0.00     0.018 C 
HETATM    4  C4  UNL     1     -17.477   0.988  -6.771  1.00  0.00     0.126 C 
HETATM    5  C5  UNL     1     -16.281   0.234  -7.229  1.00  0.00     0.033 C 
HETATM    6  C6  UNL     1     -16.426  -1.231  -7.284  1.00  0.00     0.013 C 
HETATM    7  C7  UNL     1     -17.744  -1.790  -7.613  1.00  0.00    -0.023 C 
HETATM    8  C8  UNL     1     -17.922  -3.087  -6.824  1.00  0.00     0.017 C 
HETATM    9  C9  UNL     1     -17.781  -2.187  -9.078  1.00  0.00     0.101 C 
HETATM   10  C10 UNL     1     -16.655  -3.123  -9.323  1.00  0.00     0.064 C 
HETATM   11  N1  UNL     1     -15.769  -3.840  -9.526  1.00  0.00    -0.197 NA
HETATM   12  C11 UNL     1     -19.032  -2.937  -9.444  1.00  0.00     0.020 C 
HETATM   13  C12 UNL     1     -20.195  -2.670  -8.569  1.00  0.00     0.002 C 
HETATM   14  C13 UNL     1     -20.199  -1.342  -7.890  1.00  0.00     0.006 C 
HETATM   15  C14 UNL     1     -18.919  -0.913  -7.284  1.00  0.00     0.005 C 
ENDROOT
BRANCH   4  16
HETATM   16  O1  UNL     1     -17.646   0.949  -5.402  1.00  0.00    -0.395 OA
ATOM     17  H1  UNL     1     -17.398   1.761  -4.977  1.00  0.00     0.210 HD
ENDBRANCH   4  16
TORSDOF 1
ENDMDL
