MODEL 1
REMARK VINA RESULT: -6.015618116      0.000      0.000
REMARK  4 active torsions:
REMARK  status: ('A' for Active; 'I' for Inactive)
REMARK    1  A    between atoms: C6_7  and  O1_8 
REMARK    2  A    between atoms: C6_7  and  C7_10 
REMARK    3  A    between atoms: N2_15  and  C12_16 
REMARK    4  A    between atoms: C12_16  and  C13_17 
ROOT
HETATM    1  C1  UNL     1      20.417   0.009  58.670  1.00  0.00     0.014 C 
HETATM    2  C2  UNL     1      20.813   0.104  57.538  1.00  0.00    -0.090 C 
HETATM    3  C3  UNL     1      21.290   0.180  56.179  1.00  0.00     0.192 C 
HETATM    4  C4  UNL     1      20.778  -1.083  55.441  1.00  0.00     0.313 C 
HETATM    5  N1  UNL     1      19.719  -0.619  54.592  1.00  0.00     0.117 N 
HETATM    6  C5  UNL     1      19.884  -0.958  53.206  1.00  0.00     0.313 C 
HETATM    7  C6  UNL     1      20.298   0.307  52.501  1.00  0.00     0.091 C 
HETATM    8  C10 UNL     1      19.509   1.324  53.296  1.00  0.00     0.097 C 
HETATM    9  C11 UNL     1      19.623   0.810  54.688  1.00  0.00     0.327 C 
HETATM   10  N2  UNL     1      20.800   1.188  55.380  1.00  0.00    -0.347 N 
ENDROOT
BRANCH  10  11
HETATM   11  C12 UNL     1      21.090   2.532  55.522  1.00  0.00     0.061 C 
BRANCH  11  12
HETATM   12  C13 UNL     1      22.464   2.923  55.991  1.00  0.00     0.040 C 
HETATM   13  C14 UNL     1      22.230   3.600  57.355  1.00  0.00     0.010 C 
ENDBRANCH  11  12
ENDBRANCH  10  11
BRANCH   7  14
HETATM   14  O1  UNL     1      21.672   0.432  52.676  1.00  0.00    -0.388 OA
ATOM     15  H1  UNL     1      21.802   0.924  53.478  1.00  0.00     0.210 HD
ENDBRANCH   7  14
BRANCH   7  16
HETATM   16  C7  UNL     1      19.993   0.327  51.048  1.00  0.00     0.014 C 
HETATM   17  C8  UNL     1      21.173   0.090  50.152  1.00  0.00     0.012 C 
HETATM   18  C9  UNL     1      19.392   1.669  50.621  1.00  0.00     0.012 C 
ENDBRANCH   7  16
TORSDOF 4
ENDMDL
MODEL 2
REMARK VINA RESULT: -5.668501178      1.608      5.413
REMARK  4 active torsions:
REMARK  status: ('A' for Active; 'I' for Inactive)
REMARK    1  A    between atoms: C6_7  and  O1_8 
REMARK    2  A    between atoms: C6_7  and  C7_10 
REMARK    3  A    between atoms: N2_15  and  C12_16 
REMARK    4  A    between atoms: C12_16  and  C13_17 
ROOT
HETATM    1  C1  UNL     1      17.106  -0.590  50.464  1.00  0.00     0.014 C 
HETATM    2  C2  UNL     1      18.136  -0.236  50.973  1.00  0.00    -0.090 C 
HETATM    3  C3  UNL     1      19.358   0.225  51.585  1.00  0.00     0.192 C 
HETATM    4  C4  UNL     1      18.984   1.385  52.543  1.00  0.00     0.313 C 
HETATM    5  N1  UNL     1      19.090   0.833  53.862  1.00  0.00     0.117 N 
HETATM    6  C5  UNL     1      19.957   1.567  54.740  1.00  0.00     0.313 C 
HETATM    7  C6  UNL     1      21.223   0.759  54.867  1.00  0.00     0.091 C 
HETATM    8  C10 UNL     1      20.651  -0.640  54.806  1.00  0.00     0.097 C 
HETATM    9  C11 UNL     1      19.584  -0.513  53.777  1.00  0.00     0.327 C 
HETATM   10  N2  UNL     1      20.017  -0.635  52.434  1.00  0.00    -0.347 N 
ENDROOT
BRANCH  10  11
HETATM   11  C12 UNL     1      20.682  -1.784  52.048  1.00  0.00     0.061 C 
BRANCH  11  12
HETATM   12  C13 UNL     1      22.042  -1.649  51.424  1.00  0.00     0.040 C 
HETATM   13  C14 UNL     1      21.840  -2.072  49.957  1.00  0.00     0.010 C 
ENDBRANCH  11  12
ENDBRANCH  10  11
BRANCH   7  14
HETATM   14  O1  UNL     1      22.009   1.070  53.762  1.00  0.00    -0.388 OA
ATOM     15  H1  UNL     1      22.437   1.895  53.955  1.00  0.00     0.210 HD
ENDBRANCH   7  14
BRANCH   7  16
HETATM   16  C7  UNL     1      22.000   1.027  56.103  1.00  0.00     0.014 C 
HETATM   17  C8  UNL     1      21.202   0.975  57.374  1.00  0.00     0.012 C 
HETATM   18  C9  UNL     1      22.654   2.411  56.063  1.00  0.00     0.012 C 
ENDBRANCH   7  16
TORSDOF 4
ENDMDL
MODEL 3
REMARK VINA RESULT: -5.644776142      2.730      6.357
REMARK  4 active torsions:
REMARK  status: ('A' for Active; 'I' for Inactive)
REMARK    1  A    between atoms: C6_7  and  O1_8 
REMARK    2  A    between atoms: C6_7  and  C7_10 
REMARK    3  A    between atoms: N2_15  and  C12_16 
REMARK    4  A    between atoms: C12_16  and  C13_17 
ROOT
HETATM    1  C1  UNL     1      17.886   1.894  47.567  1.00  0.00     0.014 C 
HETATM    2  C2  UNL     1      18.107   1.153  48.488  1.00  0.00    -0.090 C 
HETATM    3  C3  UNL     1      18.406   0.254  49.576  1.00  0.00     0.192 C 
HETATM    4  C4  UNL     1      19.948   0.205  49.723  1.00  0.00     0.313 C 
HETATM    5  N1  UNL     1      20.237   0.968  50.902  1.00  0.00     0.117 N 
HETATM    6  C5  UNL     1      21.008   0.261  51.886  1.00  0.00     0.313 C 
HETATM    7  C6  UNL     1      20.054  -0.108  52.993  1.00  0.00     0.091 C 
HETATM    8  C10 UNL     1      19.143   1.099  52.973  1.00  0.00     0.097 C 
HETATM    9  C11 UNL     1      19.007   1.380  51.517  1.00  0.00     0.327 C 
HETATM   10  N2  UNL     1      18.016   0.625  50.843  1.00  0.00    -0.347 N 
ENDROOT
BRANCH  10  11
HETATM   11  C12 UNL     1      16.710   0.684  51.292  1.00  0.00     0.061 C 
BRANCH  11  12
HETATM   12  C13 UNL     1      15.765  -0.414  50.891  1.00  0.00     0.040 C 
HETATM   13  C14 UNL     1      14.608   0.311  50.179  1.00  0.00     0.010 C 
ENDBRANCH  11  12
ENDBRANCH  10  11
BRANCH   7  14
HETATM   14  O1  UNL     1      19.413  -1.276  52.596  1.00  0.00    -0.388 OA
ATOM     15  H1  UNL     1      18.549  -1.025  52.292  1.00  0.00     0.210 HD
ENDBRANCH   7  14
BRANCH   7  16
HETATM   16  C7  UNL     1      20.703  -0.337  54.309  1.00  0.00     0.014 C 
HETATM   17  C8  UNL     1      19.755  -0.458  55.467  1.00  0.00     0.012 C 
HETATM   18  C9  UNL     1      21.668   0.798  54.661  1.00  0.00     0.012 C 
ENDBRANCH   7  16
TORSDOF 4
ENDMDL
MODEL 4
REMARK VINA RESULT: -5.588680610      2.271      4.995
REMARK  4 active torsions:
REMARK  status: ('A' for Active; 'I' for Inactive)
REMARK    1  A    between atoms: C6_7  and  O1_8 
REMARK    2  A    between atoms: C6_7  and  C7_10 
REMARK    3  A    between atoms: N2_15  and  C12_16 
REMARK    4  A    between atoms: C12_16  and  C13_17 
ROOT
HETATM    1  C1  UNL     1      21.930  -1.430  58.334  1.00  0.00     0.014 C 
HETATM    2  C2  UNL     1      21.460  -0.492  57.746  1.00  0.00    -0.090 C 
HETATM    3  C3  UNL     1      20.875   0.642  57.073  1.00  0.00     0.192 C 
HETATM    4  C4  UNL     1      20.626   1.734  58.144  1.00  0.00     0.313 C 
HETATM    5  N1  UNL     1      21.639   2.723  57.914  1.00  0.00     0.117 N 
HETATM    6  C5  UNL     1      21.131   4.052  57.717  1.00  0.00     0.313 C 
HETATM    7  C6  UNL     1      21.252   4.343  56.244  1.00  0.00     0.091 C 
HETATM    8  C10 UNL     1      22.531   3.600  55.930  1.00  0.00     0.097 C 
HETATM    9  C11 UNL     1      22.401   2.365  56.751  1.00  0.00     0.327 C 
HETATM   10  N2  UNL     1      21.651   1.319  56.159  1.00  0.00    -0.347 N 
ENDROOT
BRANCH  10  11
HETATM   11  C12 UNL     1      22.043   0.830  54.927  1.00  0.00     0.061 C 
BRANCH  11  12
HETATM   12  C13 UNL     1      20.987   0.303  53.997  1.00  0.00     0.040 C 
HETATM   13  C14 UNL     1      21.722   0.081  52.661  1.00  0.00     0.010 C 
ENDBRANCH  11  12
ENDBRANCH  10  11
BRANCH   7  14
HETATM   14  O1  UNL     1      20.136   3.782  55.632  1.00  0.00    -0.388 OA
ATOM     15  H1  UNL     1      20.426   2.975  55.223  1.00  0.00     0.210 HD
ENDBRANCH   7  14
BRANCH   7  16
HETATM   16  C7  UNL     1      21.310   5.788  55.908  1.00  0.00     0.014 C 
HETATM   17  C8  UNL     1      21.239   6.714  57.087  1.00  0.00     0.012 C 
HETATM   18  C9  UNL     1      20.165   6.192  54.975  1.00  0.00     0.012 C 
ENDBRANCH   7  16
TORSDOF 4
ENDMDL
MODEL 5
REMARK VINA RESULT: -5.576302608      1.648      4.803
REMARK  4 active torsions:
REMARK  status: ('A' for Active; 'I' for Inactive)
REMARK    1  A    between atoms: C6_7  and  O1_8 
REMARK    2  A    between atoms: C6_7  and  C7_10 
REMARK    3  A    between atoms: N2_15  and  C12_16 
REMARK    4  A    between atoms: C12_16  and  C13_17 
ROOT
HETATM    1  C1  UNL     1      20.253  -3.335  54.270  1.00  0.00     0.014 C 
HETATM    2  C2  UNL     1      20.141  -2.137  54.279  1.00  0.00    -0.090 C 
HETATM    3  C3  UNL     1      19.984  -0.704  54.319  1.00  0.00     0.192 C 
HETATM    4  C4  UNL     1      19.740  -0.310  55.798  1.00  0.00     0.313 C 
HETATM    5  N1  UNL     1      20.968   0.289  56.235  1.00  0.00     0.117 N 
HETATM    6  C5  UNL     1      20.817   1.608  56.783  1.00  0.00     0.313 C 
HETATM    7  C6  UNL     1      21.329   2.567  55.740  1.00  0.00     0.091 C 
HETATM    8  C10 UNL     1      22.455   1.745  55.153  1.00  0.00     0.097 C 
HETATM    9  C11 UNL     1      21.878   0.373  55.128  1.00  0.00     0.327 C 
HETATM   10  N2  UNL     1      21.075   0.073  54.000  1.00  0.00    -0.347 N 
ENDROOT
BRANCH  10  11
HETATM   11  C12 UNL     1      21.621   0.201  52.737  1.00  0.00     0.061 C 
BRANCH  11  12
HETATM   12  C13 UNL     1      20.692   0.381  51.569  1.00  0.00     0.040 C 
HETATM   13  C14 UNL     1      21.496  -0.114  50.353  1.00  0.00     0.010 C 
ENDBRANCH  11  12
ENDBRANCH  10  11
BRANCH   7  14
HETATM   14  O1  UNL     1      20.287   2.776  54.842  1.00  0.00    -0.388 OA
ATOM     15  H1  UNL     1      19.997   3.672  54.964  1.00  0.00     0.210 HD
ENDBRANCH   7  14
BRANCH   7  16
HETATM   16  C7  UNL     1      21.773   3.878  56.278  1.00  0.00     0.014 C 
HETATM   17  C8  UNL     1      21.780   3.976  57.776  1.00  0.00     0.012 C 
HETATM   18  C9  UNL     1      20.883   5.019  55.777  1.00  0.00     0.012 C 
ENDBRANCH   7  16
TORSDOF 4
ENDMDL
