MODEL 1
REMARK VINA RESULT: -5.692311029      0.000      0.000
REMARK  4 active torsions:
REMARK  status: ('A' for Active; 'I' for Inactive)
REMARK    1  A    between atoms: C2_2  and  C3_3 
REMARK    2  A    between atoms: C7_8  and  C8_9 
REMARK    3  A    between atoms: C8_9  and  O2_10 
REMARK    4  A    between atoms: C9_12  and  N1_13 
ROOT
HETATM    1  C3  UNL     1      19.980  -1.468  53.196  1.00  0.00     0.046 C 
HETATM    2  C4  UNL     1      19.915  -1.670  51.678  1.00  0.00     0.043 C 
HETATM    3  C5  UNL     1      21.135  -1.073  51.063  1.00  0.00     0.131 C 
HETATM    4  O1  UNL     1      22.152  -1.106  52.031  1.00  0.00    -0.377 OA
HETATM    5  C6  UNL     1      21.651   0.134  52.493  1.00  0.00     0.164 C 
HETATM    6  C7  UNL     1      21.114   0.409  51.126  1.00  0.00     0.069 C 
HETATM    7  C9  UNL     1      20.608  -0.164  53.539  1.00  0.00     0.259 C 
ENDROOT
BRANCH   7   8
HETATM    8  N1  UNL     1      21.202  -0.047  54.825  1.00  0.00     0.096 N 
HETATM    9  C10 UNL     1      22.067   1.141  54.807  1.00  0.00     0.273 C 
HETATM   10  C11 UNL     1      21.988   1.949  56.072  1.00  0.00     0.030 C 
HETATM   11  C12 UNL     1      21.980   1.145  57.329  1.00  0.00     0.003 C 
HETATM   12  C13 UNL     1      21.032  -0.005  57.187  1.00  0.00     0.030 C 
HETATM   13  C14 UNL     1      20.263   0.201  55.897  1.00  0.00     0.273 C 
ENDBRANCH   7   8
BRANCH   1  14
HETATM   14  C2  UNL     1      20.630  -2.675  53.741  1.00  0.00    -0.030 C 
HETATM   15  C1  UNL     1      20.000  -3.366  54.676  1.00  0.00     0.007 C 
ENDBRANCH   1  14
BRANCH   6  16
HETATM   16  C8  UNL     1      19.816   1.101  50.968  1.00  0.00     0.173 C 
BRANCH  16  17
HETATM   17  O2  UNL     1      19.995   2.221  50.116  1.00  0.00    -0.400 OA
ATOM     18  H2  UNL     1      19.425   2.922  50.408  1.00  0.00     0.209 HD
ENDBRANCH  16  17
ENDBRANCH   6  16
TORSDOF 4
ENDMDL
MODEL 2
REMARK VINA RESULT: -5.459611301      3.071      5.218
REMARK  4 active torsions:
REMARK  status: ('A' for Active; 'I' for Inactive)
REMARK    1  A    between atoms: C2_2  and  C3_3 
REMARK    2  A    between atoms: C7_8  and  C8_9 
REMARK    3  A    between atoms: C8_9  and  O2_10 
REMARK    4  A    between atoms: C9_12  and  N1_13 
ROOT
HETATM    1  C3  UNL     1      21.217   1.807  55.298  1.00  0.00     0.046 C 
HETATM    2  C4  UNL     1      21.726   3.248  55.180  1.00  0.00     0.043 C 
HETATM    3  C5  UNL     1      22.833   3.446  56.159  1.00  0.00     0.131 C 
HETATM    4  O1  UNL     1      23.427   2.194  56.380  1.00  0.00    -0.377 OA
HETATM    5  C6  UNL     1      22.443   1.984  57.376  1.00  0.00     0.164 C 
HETATM    6  C7  UNL     1      22.334   3.463  57.556  1.00  0.00     0.069 C 
HETATM    7  C9  UNL     1      21.259   1.335  56.708  1.00  0.00     0.259 C 
ENDROOT
BRANCH   7   8
HETATM    8  N1  UNL     1      21.325  -0.069  56.922  1.00  0.00     0.096 N 
HETATM    9  C10 UNL     1      21.698  -0.286  58.326  1.00  0.00     0.273 C 
HETATM   10  C11 UNL     1      20.944  -1.416  58.970  1.00  0.00     0.030 C 
HETATM   11  C12 UNL     1      20.795  -2.634  58.120  1.00  0.00     0.003 C 
HETATM   12  C13 UNL     1      20.388  -2.236  56.735  1.00  0.00     0.030 C 
HETATM   13  C14 UNL     1      20.061  -0.757  56.768  1.00  0.00     0.273 C 
ENDBRANCH   7   8
BRANCH   1  14
HETATM   14  C2  UNL     1      21.989   1.021  54.317  1.00  0.00    -0.030 C 
HETATM   15  C1  UNL     1      21.331   0.306  53.419  1.00  0.00     0.007 C 
ENDBRANCH   1  14
BRANCH   6  16
HETATM   16  C8  UNL     1      21.016   4.079  57.825  1.00  0.00     0.173 C 
BRANCH  16  17
HETATM   17  O2  UNL     1      21.218   5.372  58.372  1.00  0.00    -0.400 OA
ATOM     18  H2  UNL     1      22.054   5.706  58.069  1.00  0.00     0.209 HD
ENDBRANCH  16  17
ENDBRANCH   6  16
TORSDOF 4
ENDMDL
MODEL 3
REMARK VINA RESULT: -5.332699726      2.965      5.182
REMARK  4 active torsions:
REMARK  status: ('A' for Active; 'I' for Inactive)
REMARK    1  A    between atoms: C2_2  and  C3_3 
REMARK    2  A    between atoms: C7_8  and  C8_9 
REMARK    3  A    between atoms: C8_9  and  O2_10 
REMARK    4  A    between atoms: C9_12  and  N1_13 
ROOT
HETATM    1  C3  UNL     1      20.928  -0.736  55.409  1.00  0.00     0.046 C 
HETATM    2  C4  UNL     1      20.489  -2.164  55.753  1.00  0.00     0.043 C 
HETATM    3  C5  UNL     1      19.774  -2.142  57.061  1.00  0.00     0.131 C 
HETATM    4  O1  UNL     1      19.215  -0.863  57.213  1.00  0.00    -0.377 OA
HETATM    5  C6  UNL     1      20.456  -0.467  57.767  1.00  0.00     0.164 C 
HETATM    6  C7  UNL     1      20.700  -1.879  58.189  1.00  0.00     0.069 C 
HETATM    7  C9  UNL     1      21.321   0.016  56.631  1.00  0.00     0.259 C 
ENDROOT
BRANCH   7   8
HETATM    8  N1  UNL     1      21.250   1.434  56.573  1.00  0.00     0.096 N 
HETATM    9  C10 UNL     1      21.069   1.926  57.945  1.00  0.00     0.273 C 
HETATM   10  C11 UNL     1      21.876   3.159  58.243  1.00  0.00     0.030 C 
HETATM   11  C12 UNL     1      21.876   4.184  57.158  1.00  0.00     0.003 C 
HETATM   12  C13 UNL     1      22.098   3.519  55.835  1.00  0.00     0.030 C 
HETATM   13  C14 UNL     1      22.463   2.075  56.112  1.00  0.00     0.273 C 
ENDBRANCH   7   8
BRANCH   1  14
HETATM   14  C2  UNL     1      19.837  -0.157  54.602  1.00  0.00    -0.030 C 
HETATM   15  C1  UNL     1      20.108   0.262  53.378  1.00  0.00     0.007 C 
ENDBRANCH   1  14
BRANCH   6  16
HETATM   16  C8  UNL     1      22.065  -2.444  58.125  1.00  0.00     0.173 C 
BRANCH  16  17
HETATM   17  O2  UNL     1      22.595  -2.513  59.439  1.00  0.00    -0.400 OA
ATOM     18  H2  UNL     1      23.501  -2.228  59.420  1.00  0.00     0.209 HD
ENDBRANCH  16  17
ENDBRANCH   6  16
TORSDOF 4
ENDMDL
MODEL 4
REMARK VINA RESULT: -5.099073992      1.602      2.102
REMARK  4 active torsions:
REMARK  status: ('A' for Active; 'I' for Inactive)
REMARK    1  A    between atoms: C2_2  and  C3_3 
REMARK    2  A    between atoms: C7_8  and  C8_9 
REMARK    3  A    between atoms: C8_9  and  O2_10 
REMARK    4  A    between atoms: C9_12  and  N1_13 
ROOT
HETATM    1  C3  UNL     1      20.249  -1.645  51.918  1.00  0.00     0.046 C 
HETATM    2  C4  UNL     1      19.824  -1.214  50.510  1.00  0.00     0.043 C 
HETATM    3  C5  UNL     1      19.935   0.269  50.410  1.00  0.00     0.131 C 
HETATM    4  O1  UNL     1      20.920   0.679  51.324  1.00  0.00    -0.377 OA
HETATM    5  C6  UNL     1      19.894   0.718  52.299  1.00  0.00     0.164 C 
HETATM    6  C7  UNL     1      18.894   0.955  51.214  1.00  0.00     0.069 C 
HETATM    7  C9  UNL     1      19.830  -0.645  52.937  1.00  0.00     0.259 C 
ENDROOT
BRANCH   7   8
HETATM    8  N1  UNL     1      20.559  -0.615  54.157  1.00  0.00     0.096 N 
HETATM    9  C10 UNL     1      21.172   0.715  54.274  1.00  0.00     0.273 C 
HETATM   10  C11 UNL     1      21.113   1.273  55.668  1.00  0.00     0.030 C 
HETATM   11  C12 UNL     1      21.427   0.293  56.749  1.00  0.00     0.003 C 
HETATM   12  C13 UNL     1      20.704  -0.993  56.491  1.00  0.00     0.030 C 
HETATM   13  C14 UNL     1      19.744  -0.747  55.345  1.00  0.00     0.273 C 
ENDBRANCH   7   8
BRANCH   1  14
HETATM   14  C2  UNL     1      21.693  -1.936  51.837  1.00  0.00    -0.030 C 
HETATM   15  C1  UNL     1      22.130  -2.705  50.853  1.00  0.00     0.007 C 
ENDBRANCH   1  14
BRANCH   6  16
HETATM   16  C8  UNL     1      17.552   0.338  51.300  1.00  0.00     0.173 C 
BRANCH  16  17
HETATM   17  O2  UNL     1      16.583   1.367  51.417  1.00  0.00    -0.400 OA
ATOM     18  H2  UNL     1      16.813   1.922  52.153  1.00  0.00     0.209 HD
ENDBRANCH  16  17
ENDBRANCH   6  16
TORSDOF 4
ENDMDL
MODEL 5
REMARK VINA RESULT: -5.068214951      1.628      3.455
REMARK  4 active torsions:
REMARK  status: ('A' for Active; 'I' for Inactive)
REMARK    1  A    between atoms: C2_2  and  C3_3 
REMARK    2  A    between atoms: C7_8  and  C8_9 
REMARK    3  A    between atoms: C8_9  and  O2_10 
REMARK    4  A    between atoms: C9_12  and  N1_13 
ROOT
HETATM    1  C3  UNL     1      20.778   0.559  51.266  1.00  0.00     0.046 C 
HETATM    2  C4  UNL     1      20.587  -0.359  50.054  1.00  0.00     0.043 C 
HETATM    3  C5  UNL     1      19.972  -1.637  50.514  1.00  0.00     0.131 C 
HETATM    4  O1  UNL     1      19.237  -1.355  51.677  1.00  0.00    -0.377 OA
HETATM    5  C6  UNL     1      20.440  -1.553  52.396  1.00  0.00     0.164 C 
HETATM    6  C7  UNL     1      20.925  -2.452  51.306  1.00  0.00     0.069 C 
HETATM    7  C9  UNL     1      21.137  -0.220  52.480  1.00  0.00     0.259 C 
ENDROOT
BRANCH   7   8
HETATM    8  N1  UNL     1      20.848   0.370  53.741  1.00  0.00     0.096 N 
HETATM    9  C10 UNL     1      20.362  -0.696  54.628  1.00  0.00     0.273 C 
HETATM   10  C11 UNL     1      20.895  -0.589  56.029  1.00  0.00     0.030 C 
HETATM   11  C12 UNL     1      20.911   0.794  56.589  1.00  0.00     0.003 C 
HETATM   12  C13 UNL     1      21.457   1.745  55.571  1.00  0.00     0.030 C 
HETATM   13  C14 UNL     1      22.000   0.916  54.425  1.00  0.00     0.273 C 
ENDBRANCH   7   8
BRANCH   1  14
HETATM   14  C2  UNL     1      19.556   1.383  51.350  1.00  0.00    -0.030 C 
HETATM   15  C1  UNL     1      19.191   2.084  50.290  1.00  0.00     0.007 C 
ENDBRANCH   1  14
BRANCH   6  16
HETATM   16  C8  UNL     1      22.353  -2.438  50.919  1.00  0.00     0.173 C 
BRANCH  16  17
HETATM   17  O2  UNL     1      22.994  -3.566  51.493  1.00  0.00    -0.400 OA
ATOM     18  H2  UNL     1      23.374  -3.311  52.326  1.00  0.00     0.209 HD
ENDBRANCH  16  17
ENDBRANCH   6  16
TORSDOF 4
ENDMDL
