MODEL 1
REMARK VINA RESULT: -6.424662027      0.000      0.000
REMARK  4 active torsions:
REMARK  status: ('A' for Active; 'I' for Inactive)
REMARK    1  A    between atoms: C2_2  and  O1_3 
REMARK    2  A    between atoms: N1_7  and  C5_8 
REMARK    3  A    between atoms: C5_8  and  C6_9 
REMARK    4  A    between atoms: C6_9  and  N2_10 
ROOT
HETATM    1  C1  UNL     1      17.723   0.753  50.504  1.00  0.00     0.045 C 
HETATM    2  C2  UNL     1      18.701   1.451  51.432  1.00  0.00     0.057 C 
HETATM    3  C3  UNL     1      20.024   0.680  51.435  1.00  0.00     0.067 C 
HETATM    4  C4  UNL     1      19.873  -0.487  52.352  1.00  0.00     0.275 C 
HETATM    5  N1  UNL     1      19.854  -0.053  53.748  1.00  0.00     0.090 N 
HETATM    6  C12 UNL     1      19.295   1.254  53.804  1.00  0.00     0.275 C 
HETATM    7  C13 UNL     1      18.142   1.376  52.823  1.00  0.00     0.067 C 
ENDROOT
BRANCH   5   8
HETATM    8  C5  UNL     1      21.163  -0.211  54.325  1.00  0.00     0.302 C 
BRANCH   8   9
HETATM    9  C6  UNL     1      21.875   1.031  54.629  1.00  0.00     0.302 C 
BRANCH   9  10
HETATM   10  N2  UNL     1      22.229   1.387  55.934  1.00  0.00     0.090 N 
HETATM   11  C7  UNL     1      21.248   1.245  56.946  1.00  0.00     0.272 C 
HETATM   12  C8  UNL     1      21.526   2.153  58.126  1.00  0.00     0.030 C 
HETATM   13  C9  UNL     1      21.530   3.607  57.726  1.00  0.00     0.003 C 
HETATM   14  C10 UNL     1      22.188   3.811  56.388  1.00  0.00     0.030 C 
HETATM   15  C11 UNL     1      22.955   2.616  55.921  1.00  0.00     0.272 C 
ENDBRANCH   9  10
ENDBRANCH   8   9
ENDBRANCH   5   8
BRANCH   2  16
HETATM   16  O1  UNL     1      18.947   2.760  51.009  1.00  0.00    -0.390 OA
ATOM     17  H1  UNL     1      19.810   3.050  51.281  1.00  0.00     0.210 HD
ENDBRANCH   2  16
TORSDOF 4
ENDMDL
MODEL 2
REMARK VINA RESULT: -6.395152229      1.284      1.727
REMARK  4 active torsions:
REMARK  status: ('A' for Active; 'I' for Inactive)
REMARK    1  A    between atoms: C2_2  and  O1_3 
REMARK    2  A    between atoms: N1_7  and  C5_8 
REMARK    3  A    between atoms: C5_8  and  C6_9 
REMARK    4  A    between atoms: C6_9  and  N2_10 
ROOT
HETATM    1  C1  UNL     1      18.649   1.605  48.785  1.00  0.00     0.045 C 
HETATM    2  C2  UNL     1      19.024   1.881  50.230  1.00  0.00     0.057 C 
HETATM    3  C3  UNL     1      20.245   1.034  50.600  1.00  0.00     0.067 C 
HETATM    4  C4  UNL     1      19.769  -0.346  50.910  1.00  0.00     0.275 C 
HETATM    5  N1  UNL     1      19.067  -0.378  52.192  1.00  0.00     0.090 N 
HETATM    6  C12 UNL     1      18.451   0.887  52.399  1.00  0.00     0.275 C 
HETATM    7  C13 UNL     1      17.886   1.418  51.093  1.00  0.00     0.067 C 
ENDROOT
BRANCH   5   8
HETATM    8  C5  UNL     1      19.962  -0.827  53.226  1.00  0.00     0.302 C 
BRANCH   8   9
HETATM    9  C6  UNL     1      19.825  -0.154  54.518  1.00  0.00     0.302 C 
BRANCH   9  10
HETATM   10  N2  UNL     1      20.885  -0.060  55.425  1.00  0.00     0.090 N 
HETATM   11  C7  UNL     1      20.571   0.022  56.803  1.00  0.00     0.272 C 
HETATM   12  C8  UNL     1      21.687   0.673  57.594  1.00  0.00     0.030 C 
HETATM   13  C9  UNL     1      21.958   2.080  57.126  1.00  0.00     0.003 C 
HETATM   14  C10 UNL     1      21.870   2.193  55.629  1.00  0.00     0.030 C 
HETATM   15  C11 UNL     1      21.857   0.867  54.938  1.00  0.00     0.272 C 
ENDBRANCH   9  10
ENDBRANCH   8   9
ENDBRANCH   5   8
BRANCH   2  16
HETATM   16  O1  UNL     1      19.341   3.229  50.417  1.00  0.00    -0.390 OA
ATOM     17  H1  UNL     1      19.020   3.542  51.255  1.00  0.00     0.210 HD
ENDBRANCH   2  16
TORSDOF 4
ENDMDL
MODEL 3
REMARK VINA RESULT: -6.214695509      2.104      2.876
REMARK  4 active torsions:
REMARK  status: ('A' for Active; 'I' for Inactive)
REMARK    1  A    between atoms: C2_2  and  O1_3 
REMARK    2  A    between atoms: N1_7  and  C5_8 
REMARK    3  A    between atoms: C5_8  and  C6_9 
REMARK    4  A    between atoms: C6_9  and  N2_10 
ROOT
HETATM    1  C1  UNL     1      18.325   1.460  49.226  1.00  0.00     0.045 C 
HETATM    2  C2  UNL     1      18.921   1.787  50.583  1.00  0.00     0.057 C 
HETATM    3  C3  UNL     1      20.240   1.025  50.747  1.00  0.00     0.067 C 
HETATM    4  C4  UNL     1      19.914  -0.375  51.145  1.00  0.00     0.275 C 
HETATM    5  N1  UNL     1      19.443  -0.427  52.528  1.00  0.00     0.090 N 
HETATM    6  C12 UNL     1      18.791   0.802  52.827  1.00  0.00     0.275 C 
HETATM    7  C13 UNL     1      17.979   1.271  51.632  1.00  0.00     0.067 C 
ENDROOT
BRANCH   5   8
HETATM    8  C5  UNL     1      20.528  -0.799  53.398  1.00  0.00     0.302 C 
BRANCH   8   9
HETATM    9  C6  UNL     1      20.153  -1.573  54.582  1.00  0.00     0.302 C 
BRANCH   9  10
HETATM   10  N2  UNL     1      19.869  -0.966  55.809  1.00  0.00     0.090 N 
HETATM   11  C7  UNL     1      20.663   0.140  56.198  1.00  0.00     0.272 C 
HETATM   12  C8  UNL     1      20.660   0.332  57.700  1.00  0.00     0.030 C 
HETATM   13  C9  UNL     1      21.210  -0.873  58.420  1.00  0.00     0.003 C 
HETATM   14  C10 UNL     1      20.759  -2.156  57.778  1.00  0.00     0.030 C 
HETATM   15  C11 UNL     1      19.642  -1.966  56.803  1.00  0.00     0.272 C 
ENDBRANCH   9  10
ENDBRANCH   8   9
ENDBRANCH   5   8
BRANCH   2  16
HETATM   16  O1  UNL     1      19.178   3.156  50.702  1.00  0.00    -0.390 OA
ATOM     17  H1  UNL     1      20.069   3.312  50.994  1.00  0.00     0.210 HD
ENDBRANCH   2  16
TORSDOF 4
ENDMDL
MODEL 4
REMARK VINA RESULT: -6.019341935      2.444      3.818
REMARK  4 active torsions:
REMARK  status: ('A' for Active; 'I' for Inactive)
REMARK    1  A    between atoms: C2_2  and  O1_3 
REMARK    2  A    between atoms: N1_7  and  C5_8 
REMARK    3  A    between atoms: C5_8  and  C6_9 
REMARK    4  A    between atoms: C6_9  and  N2_10 
ROOT
HETATM    1  C1  UNL     1      20.202  -1.625  53.941  1.00  0.00     0.045 C 
HETATM    2  C2  UNL     1      20.002  -0.371  54.774  1.00  0.00     0.057 C 
HETATM    3  C3  UNL     1      20.563   0.832  54.011  1.00  0.00     0.067 C 
HETATM    4  C4  UNL     1      22.043   0.849  54.206  1.00  0.00     0.275 C 
HETATM    5  N1  UNL     1      22.382   1.259  55.568  1.00  0.00     0.090 N 
HETATM    6  C12 UNL     1      21.333   0.848  56.436  1.00  0.00     0.275 C 
HETATM    7  C13 UNL     1      20.816  -0.520  56.026  1.00  0.00     0.067 C 
ENDROOT
BRANCH   5   8
HETATM    8  C5  UNL     1      22.712   2.661  55.587  1.00  0.00     0.302 C 
BRANCH   8   9
HETATM    9  C6  UNL     1      22.224   3.410  56.745  1.00  0.00     0.302 C 
BRANCH   9  10
HETATM   10  N2  UNL     1      21.081   4.214  56.683  1.00  0.00     0.090 N 
HETATM   11  C7  UNL     1      20.649   4.652  55.408  1.00  0.00     0.272 C 
HETATM   12  C8  UNL     1      19.814   5.912  55.501  1.00  0.00     0.030 C 
HETATM   13  C9  UNL     1      20.587   7.052  56.113  1.00  0.00     0.003 C 
HETATM   14  C10 UNL     1      21.458   6.586  57.247  1.00  0.00     0.030 C 
HETATM   15  C11 UNL     1      21.129   5.203  57.712  1.00  0.00     0.272 C 
ENDBRANCH   9  10
ENDBRANCH   8   9
ENDBRANCH   5   8
BRANCH   2  16
HETATM   16  O1  UNL     1      18.645  -0.147  55.026  1.00  0.00    -0.390 OA
ATOM     17  H1  UNL     1      18.415   0.761  54.870  1.00  0.00     0.210 HD
ENDBRANCH   2  16
TORSDOF 4
ENDMDL
MODEL 5
REMARK VINA RESULT: -5.898761416      3.034      4.383
REMARK  4 active torsions:
REMARK  status: ('A' for Active; 'I' for Inactive)
REMARK    1  A    between atoms: C2_2  and  O1_3 
REMARK    2  A    between atoms: N1_7  and  C5_8 
REMARK    3  A    between atoms: C5_8  and  C6_9 
REMARK    4  A    between atoms: C6_9  and  N2_10 
ROOT
HETATM    1  C1  UNL     1      18.992  -1.801  56.612  1.00  0.00     0.045 C 
HETATM    2  C2  UNL     1      20.311  -1.525  55.913  1.00  0.00     0.057 C 
HETATM    3  C3  UNL     1      21.251  -0.807  56.886  1.00  0.00     0.067 C 
HETATM    4  C4  UNL     1      20.874   0.637  56.905  1.00  0.00     0.275 C 
HETATM    5  N1  UNL     1      21.277   1.296  55.664  1.00  0.00     0.090 N 
HETATM    6  C12 UNL     1      21.238   0.338  54.613  1.00  0.00     0.275 C 
HETATM    7  C13 UNL     1      20.039  -0.578  54.781  1.00  0.00     0.067 C 
ENDROOT
BRANCH   5   8
HETATM    8  C5  UNL     1      22.531   1.977  55.858  1.00  0.00     0.302 C 
BRANCH   8   9
HETATM    9  C6  UNL     1      22.454   3.437  55.932  1.00  0.00     0.302 C 
BRANCH   9  10
HETATM   10  N2  UNL     1      21.253   4.106  56.188  1.00  0.00     0.090 N 
HETATM   11  C7  UNL     1      20.674   4.850  55.131  1.00  0.00     0.272 C 
HETATM   12  C8  UNL     1      19.759   5.940  55.649  1.00  0.00     0.030 C 
HETATM   13  C9  UNL     1      20.497   6.925  56.519  1.00  0.00     0.003 C 
HETATM   14  C10 UNL     1      21.503   6.239  57.404  1.00  0.00     0.030 C 
HETATM   15  C11 UNL     1      21.323   4.755  57.458  1.00  0.00     0.272 C 
ENDBRANCH   9  10
ENDBRANCH   8   9
ENDBRANCH   5   8
BRANCH   2  16
HETATM   16  O1  UNL     1      20.919  -2.714  55.500  1.00  0.00    -0.390 OA
ATOM     17  H1  UNL     1      20.542  -3.024  54.685  1.00  0.00     0.210 HD
ENDBRANCH   2  16
TORSDOF 4
ENDMDL
