MODEL 1
REMARK VINA RESULT: -5.094786941      0.000      0.000
REMARK  3 active torsions:
REMARK  status: ('A' for Active; 'I' for Inactive)
REMARK    1  A    between atoms: C4_4  and  C6_6 
REMARK    2  A    between atoms: C8_11  and  C9_12 
REMARK    3  A    between atoms: C10_13  and  C11_14 
ROOT
HETATM    1  C1  UNL     1      20.286  -2.228  55.180  1.00  0.00     0.046 C 
HETATM    2  C2  UNL     1      20.502  -1.874  53.755  1.00  0.00    -0.042 C 
HETATM    3  C3  UNL     1      20.170  -2.591  52.686  1.00  0.00     0.033 C 
HETATM    4  C4  UNL     1      20.596  -1.807  51.466  1.00  0.00     0.250 C 
HETATM    5  C5  UNL     1      22.034  -2.206  51.207  1.00  0.00     0.069 C 
HETATM    6  N1  UNL     1      20.495  -0.461  51.978  1.00  0.00     0.040 N 
HETATM    7  C7  UNL     1      21.119   0.521  51.152  1.00  0.00     0.359 C 
HETATM    8  O2  UNL     1      19.198  -0.169  52.161  1.00  0.00    -0.062 OA
HETATM    9  C8  UNL     1      21.144  -0.624  53.264  1.00  0.00     0.307 C 
ENDROOT
BRANCH   9  10
HETATM   10  C9  UNL     1      20.915   0.527  54.169  1.00  0.00     0.017 C 
HETATM   11  C10 UNL     1      21.966   1.010  54.815  1.00  0.00    -0.012 C 
BRANCH  11  12
HETATM   12  C11 UNL     1      21.775   2.166  55.732  1.00  0.00     0.077 C 
HETATM   13  C12 UNL     1      23.002   3.052  55.758  1.00  0.00     0.026 C 
HETATM   14  S1  UNL     1      21.514   1.561  57.440  1.00  0.00    -0.089 SA
ENDBRANCH  11  12
ENDBRANCH   9  10
BRANCH   4  15
HETATM   15  C6  UNL     1      19.704  -2.095  50.353  1.00  0.00     0.283 C 
HETATM   16  O1  UNL     1      20.152  -2.311  49.249  1.00  0.00    -0.303 OA
ENDBRANCH   4  15
TORSDOF 3
ENDMDL
MODEL 2
REMARK VINA RESULT: -5.036599014      2.630      3.593
REMARK  3 active torsions:
REMARK  status: ('A' for Active; 'I' for Inactive)
REMARK    1  A    between atoms: C4_4  and  C6_6 
REMARK    2  A    between atoms: C8_11  and  C9_12 
REMARK    3  A    between atoms: C10_13  and  C11_14 
ROOT
HETATM    1  C1  UNL     1      22.142  -0.280  51.685  1.00  0.00     0.046 C 
HETATM    2  C2  UNL     1      20.832   0.235  51.212  1.00  0.00    -0.042 C 
HETATM    3  C3  UNL     1      20.467   0.476  49.957  1.00  0.00     0.033 C 
HETATM    4  C4  UNL     1      19.045   0.988  49.991  1.00  0.00     0.250 C 
HETATM    5  C5  UNL     1      19.156   2.487  50.179  1.00  0.00     0.069 C 
HETATM    6  N1  UNL     1      18.565   0.331  51.183  1.00  0.00     0.040 N 
HETATM    7  C7  UNL     1      17.323   0.842  51.666  1.00  0.00     0.359 C 
HETATM    8  O2  UNL     1      18.470  -0.985  50.938  1.00  0.00    -0.062 OA
HETATM    9  C8  UNL     1      19.675   0.580  52.082  1.00  0.00     0.307 C 
ENDROOT
BRANCH   9  10
HETATM   10  C9  UNL     1      19.616  -0.251  53.307  1.00  0.00     0.017 C 
HETATM   11  C10 UNL     1      19.761   0.368  54.469  1.00  0.00    -0.012 C 
BRANCH  11  12
HETATM   12  C11 UNL     1      19.707  -0.434  55.721  1.00  0.00     0.077 C 
HETATM   13  C12 UNL     1      20.746   0.035  56.717  1.00  0.00     0.026 C 
HETATM   14  S1  UNL     1      20.076  -2.187  55.346  1.00  0.00    -0.089 SA
ENDBRANCH  11  12
ENDBRANCH   9  10
BRANCH   4  15
HETATM   15  C6  UNL     1      18.348   0.606  48.772  1.00  0.00     0.283 C 
HETATM   16  O1  UNL     1      17.674   1.413  48.173  1.00  0.00    -0.303 OA
ENDBRANCH   4  15
TORSDOF 3
ENDMDL
MODEL 3
REMARK VINA RESULT: -4.742635018      2.240      3.471
REMARK  3 active torsions:
REMARK  status: ('A' for Active; 'I' for Inactive)
REMARK    1  A    between atoms: C4_4  and  C6_6 
REMARK    2  A    between atoms: C8_11  and  C9_12 
REMARK    3  A    between atoms: C10_13  and  C11_14 
ROOT
HETATM    1  C1  UNL     1      22.247  -0.455  51.391  1.00  0.00     0.046 C 
HETATM    2  C2  UNL     1      20.905   0.123  51.129  1.00  0.00    -0.042 C 
HETATM    3  C3  UNL     1      20.353   0.373  49.946  1.00  0.00     0.033 C 
HETATM    4  C4  UNL     1      18.983   0.957  50.203  1.00  0.00     0.250 C 
HETATM    5  C5  UNL     1      19.196   2.451  50.347  1.00  0.00     0.069 C 
HETATM    6  N1  UNL     1      18.671   0.334  51.467  1.00  0.00     0.040 N 
HETATM    7  C7  UNL     1      17.551   0.912  52.137  1.00  0.00     0.359 C 
HETATM    8  O2  UNL     1      18.473  -0.977  51.260  1.00  0.00    -0.062 OA
HETATM    9  C8  UNL     1      19.923   0.532  52.170  1.00  0.00     0.307 C 
ENDROOT
BRANCH   9  10
HETATM   10  C9  UNL     1      20.023  -0.286  53.400  1.00  0.00     0.017 C 
HETATM   11  C10 UNL     1      20.630   0.258  54.444  1.00  0.00    -0.012 C 
BRANCH  11  12
HETATM   12  C11 UNL     1      20.749  -0.534  55.699  1.00  0.00     0.077 C 
HETATM   13  C12 UNL     1      19.455  -1.254  56.016  1.00  0.00     0.026 C 
HETATM   14  S1  UNL     1      21.098   0.587  57.103  1.00  0.00    -0.089 SA
ENDBRANCH  11  12
ENDBRANCH   9  10
BRANCH   4  15
HETATM   15  C6  UNL     1      18.079   0.603  49.119  1.00  0.00     0.283 C 
HETATM   16  O1  UNL     1      17.705   1.444  48.332  1.00  0.00    -0.303 OA
ENDBRANCH   4  15
TORSDOF 3
ENDMDL
MODEL 4
REMARK VINA RESULT: -4.593375261      2.136      3.217
REMARK  3 active torsions:
REMARK  status: ('A' for Active; 'I' for Inactive)
REMARK    1  A    between atoms: C4_4  and  C6_6 
REMARK    2  A    between atoms: C8_11  and  C9_12 
REMARK    3  A    between atoms: C10_13  and  C11_14 
ROOT
HETATM    1  C1  UNL     1      18.948   1.570  53.513  1.00  0.00     0.046 C 
HETATM    2  C2  UNL     1      19.478   0.635  52.488  1.00  0.00    -0.042 C 
HETATM    3  C3  UNL     1      19.553   0.836  51.176  1.00  0.00     0.033 C 
HETATM    4  C4  UNL     1      20.163  -0.404  50.564  1.00  0.00     0.250 C 
HETATM    5  C5  UNL     1      19.001  -1.337  50.289  1.00  0.00     0.069 C 
HETATM    6  N1  UNL     1      20.972  -0.863  51.668  1.00  0.00     0.040 N 
HETATM    7  C7  UNL     1      21.459  -2.196  51.514  1.00  0.00     0.359 C 
HETATM    8  O2  UNL     1      21.990  -0.006  51.838  1.00  0.00    -0.062 OA
HETATM    9  C8  UNL     1      20.028  -0.721  52.758  1.00  0.00     0.307 C 
ENDROOT
BRANCH   9  10
HETATM   10  C9  UNL     1      20.672  -0.819  54.088  1.00  0.00     0.017 C 
HETATM   11  C10 UNL     1      20.138  -1.659  54.962  1.00  0.00    -0.012 C 
BRANCH  11  12
HETATM   12  C11 UNL     1      20.759  -1.785  56.309  1.00  0.00     0.077 C 
HETATM   13  C12 UNL     1      20.022  -2.799  57.158  1.00  0.00     0.026 C 
HETATM   14  S1  UNL     1      20.661  -0.181  57.184  1.00  0.00    -0.089 SA
ENDBRANCH  11  12
ENDBRANCH   9  10
BRANCH   4  15
HETATM   15  C6  UNL     1      20.919  -0.051  49.371  1.00  0.00     0.283 C 
HETATM   16  O1  UNL     1      20.348   0.166  48.326  1.00  0.00    -0.303 OA
ENDBRANCH   4  15
TORSDOF 3
ENDMDL
MODEL 5
REMARK VINA RESULT: -4.582715549      1.609      1.985
REMARK  3 active torsions:
REMARK  status: ('A' for Active; 'I' for Inactive)
REMARK    1  A    between atoms: C4_4  and  C6_6 
REMARK    2  A    between atoms: C8_11  and  C9_12 
REMARK    3  A    between atoms: C10_13  and  C11_14 
ROOT
HETATM    1  C1  UNL     1      20.457  -2.380  53.068  1.00  0.00     0.046 C 
HETATM    2  C2  UNL     1      20.114  -1.431  51.979  1.00  0.00    -0.042 C 
HETATM    3  C3  UNL     1      19.593  -1.721  50.792  1.00  0.00     0.033 C 
HETATM    4  C4  UNL     1      19.429  -0.420  50.041  1.00  0.00     0.250 C 
HETATM    5  C5  UNL     1      20.748  -0.188  49.333  1.00  0.00     0.069 C 
HETATM    6  N1  UNL     1      19.243   0.491  51.145  1.00  0.00     0.040 N 
HETATM    7  C7  UNL     1      19.354   1.868  50.785  1.00  0.00     0.359 C 
HETATM    8  O2  UNL     1      18.050   0.244  51.707  1.00  0.00    -0.062 OA
HETATM    9  C8  UNL     1      20.300   0.044  52.030  1.00  0.00     0.307 C 
ENDROOT
BRANCH   9  10
HETATM   10  C9  UNL     1      20.165   0.588  53.401  1.00  0.00     0.017 C 
HETATM   11  C10 UNL     1      21.281   0.860  54.060  1.00  0.00    -0.012 C 
BRANCH  11  12
HETATM   12  C11 UNL     1      21.185   1.408  55.441  1.00  0.00     0.077 C 
HETATM   13  C12 UNL     1      22.478   2.078  55.855  1.00  0.00     0.026 C 
HETATM   14  S1  UNL     1      20.883   0.045  56.625  1.00  0.00    -0.089 SA
ENDBRANCH  11  12
ENDBRANCH   9  10
BRANCH   4  15
HETATM   15  C6  UNL     1      18.292  -0.506  49.136  1.00  0.00     0.283 C 
HETATM   16  O1  UNL     1      18.399  -0.153  47.982  1.00  0.00    -0.303 OA
ENDBRANCH   4  15
TORSDOF 3
ENDMDL
