MODEL 1
REMARK VINA RESULT: -5.842882704      0.000      0.000
REMARK  3 active torsions:
REMARK  status: ('A' for Active; 'I' for Inactive)
REMARK    1  A    between atoms: C2_2  and  C4_4 
REMARK    2  A    between atoms: C4_4  and  C5_5 
REMARK    3  A    between atoms: C5_5  and  C6_6 
ROOT
HETATM    1  C6  UNL     1      21.584   0.532  55.564  1.00  0.00     0.143 C 
HETATM    2  C7  UNL     1      20.689  -0.063  54.535  1.00  0.00     0.135 C 
HETATM    3  C8  UNL     1      19.261   0.287  54.568  1.00  0.00     0.047 C 
HETATM    4  C9  UNL     1      21.223   0.204  53.140  1.00  0.00     0.047 C 
HETATM    5  N1  UNL     1      20.805  -1.524  54.698  1.00  0.00    -0.065 N 
ATOM      6  H11 UNL     1      21.784  -1.812  54.688  1.00  0.00     0.278 HD
ATOM      7  H12 UNL     1      20.477  -2.009  53.862  1.00  0.00     0.278 HD
HETATM    8  C10 UNL     1      20.146  -2.020  55.859  1.00  0.00     0.248 C 
HETATM    9  C11 UNL     1      20.878  -1.722  57.157  1.00  0.00     0.168 C 
HETATM   10  S1  UNL     1      21.096   0.056  57.203  1.00  0.00     0.152 S 
HETATM   11  O1  UNL     1      19.910   0.766  57.706  1.00  0.00    -0.227 OA
HETATM   12  O2  UNL     1      22.256   0.366  58.114  1.00  0.00    -0.227 OA
ENDROOT
BRANCH   1  13
HETATM   13  C5  UNL     1      21.912   1.969  55.441  1.00  0.00     0.023 C 
BRANCH  13  14
HETATM   14  C4  UNL     1      22.872   2.544  56.405  1.00  0.00     0.005 C 
BRANCH  14  15
HETATM   15  C2  UNL     1      22.325   3.873  56.902  1.00  0.00    -0.023 C 
HETATM   16  C1  UNL     1      21.710   3.757  58.274  1.00  0.00     0.009 C 
HETATM   17  C3  UNL     1      21.294   4.443  55.971  1.00  0.00     0.009 C 
ENDBRANCH  14  15
ENDBRANCH  13  14
ENDBRANCH   1  13
TORSDOF 3
ENDMDL
MODEL 2
REMARK VINA RESULT: -5.717217106      3.503      4.787
REMARK  3 active torsions:
REMARK  status: ('A' for Active; 'I' for Inactive)
REMARK    1  A    between atoms: C2_2  and  C4_4 
REMARK    2  A    between atoms: C4_4  and  C5_5 
REMARK    3  A    between atoms: C5_5  and  C6_6 
ROOT
HETATM    1  C6  UNL     1      20.059  -0.268  52.355  1.00  0.00     0.143 C 
HETATM    2  C7  UNL     1      20.494  -1.052  51.168  1.00  0.00     0.135 C 
HETATM    3  C8  UNL     1      21.037  -0.322  50.013  1.00  0.00     0.047 C 
HETATM    4  C9  UNL     1      21.483  -2.130  51.572  1.00  0.00     0.047 C 
HETATM    5  N1  UNL     1      19.303  -1.797  50.720  1.00  0.00    -0.065 N 
ATOM      6  H11 UNL     1      18.888  -2.315  51.495  1.00  0.00     0.278 HD
ATOM      7  H12 UNL     1      19.570  -2.577  50.118  1.00  0.00     0.278 HD
HETATM    8  C10 UNL     1      18.328  -0.979  50.082  1.00  0.00     0.248 C 
HETATM    9  C11 UNL     1      17.536  -0.104  51.040  1.00  0.00     0.168 C 
HETATM   10  S1  UNL     1      18.748   0.858  51.945  1.00  0.00     0.152 S 
HETATM   11  O1  UNL     1      19.192   2.055  51.215  1.00  0.00    -0.227 OA
HETATM   12  O2  UNL     1      18.125   1.299  53.244  1.00  0.00    -0.227 OA
ENDROOT
BRANCH   1  13
HETATM   13  C5  UNL     1      21.109   0.335  53.204  1.00  0.00     0.023 C 
BRANCH  13  14
HETATM   14  C4  UNL     1      21.192  -0.097  54.614  1.00  0.00     0.005 C 
BRANCH  14  15
HETATM   15  C2  UNL     1      21.226   1.138  55.500  1.00  0.00    -0.023 C 
HETATM   16  C1  UNL     1      22.501   1.925  55.330  1.00  0.00     0.009 C 
HETATM   17  C3  UNL     1      21.075   0.795  56.954  1.00  0.00     0.009 C 
ENDBRANCH  14  15
ENDBRANCH  13  14
ENDBRANCH   1  13
TORSDOF 3
ENDMDL
MODEL 3
REMARK VINA RESULT: -5.657093988      1.497      2.112
REMARK  3 active torsions:
REMARK  status: ('A' for Active; 'I' for Inactive)
REMARK    1  A    between atoms: C2_2  and  C4_4 
REMARK    2  A    between atoms: C4_4  and  C5_5 
REMARK    3  A    between atoms: C5_5  and  C6_6 
ROOT
HETATM    1  C6  UNL     1      21.009  -0.581  56.425  1.00  0.00     0.143 C 
HETATM    2  C7  UNL     1      20.276  -1.818  56.043  1.00  0.00     0.135 C 
HETATM    3  C8  UNL     1      18.897  -1.987  56.524  1.00  0.00     0.047 C 
HETATM    4  C9  UNL     1      20.293  -2.008  54.537  1.00  0.00     0.047 C 
HETATM    5  N1  UNL     1      21.082  -2.939  56.562  1.00  0.00    -0.065 N 
ATOM      6  H11 UNL     1      22.052  -2.858  56.257  1.00  0.00     0.278 HD
ATOM      7  H12 UNL     1      20.829  -3.812  56.097  1.00  0.00     0.278 HD
HETATM    8  C10 UNL     1      21.008  -3.083  57.977  1.00  0.00     0.248 C 
HETATM    9  C11 UNL     1      21.799  -2.036  58.744  1.00  0.00     0.168 C 
HETATM   10  S1  UNL     1      21.183  -0.448  58.187  1.00  0.00     0.152 S 
HETATM   11  O1  UNL     1      19.954  -0.033  58.881  1.00  0.00    -0.227 OA
HETATM   12  O2  UNL     1      22.247   0.588  58.446  1.00  0.00    -0.227 OA
ENDROOT
BRANCH   1  13
HETATM   13  C5  UNL     1      20.606   0.685  55.775  1.00  0.00     0.023 C 
BRANCH  13  14
HETATM   14  C4  UNL     1      21.650   1.473  55.089  1.00  0.00     0.005 C 
BRANCH  14  15
HETATM   15  C2  UNL     1      22.039   2.644  55.978  1.00  0.00    -0.023 C 
HETATM   16  C1  UNL     1      21.142   3.838  55.771  1.00  0.00     0.009 C 
HETATM   17  C3  UNL     1      23.458   3.077  55.751  1.00  0.00     0.009 C 
ENDBRANCH  14  15
ENDBRANCH  13  14
ENDBRANCH   1  13
TORSDOF 3
ENDMDL
MODEL 4
REMARK VINA RESULT: -5.636878522      3.679      4.939
REMARK  3 active torsions:
REMARK  status: ('A' for Active; 'I' for Inactive)
REMARK    1  A    between atoms: C2_2  and  C4_4 
REMARK    2  A    between atoms: C4_4  and  C5_5 
REMARK    3  A    between atoms: C5_5  and  C6_6 
ROOT
HETATM    1  C6  UNL     1      20.125  -0.087  52.748  1.00  0.00     0.143 C 
HETATM    2  C7  UNL     1      19.067   0.819  52.225  1.00  0.00     0.135 C 
HETATM    3  C8  UNL     1      17.863   0.215  51.634  1.00  0.00     0.047 C 
HETATM    4  C9  UNL     1      18.640   1.815  53.288  1.00  0.00     0.047 C 
HETATM    5  N1  UNL     1      19.719   1.644  51.191  1.00  0.00    -0.065 N 
ATOM      6  H11 UNL     1      20.566   2.079  51.557  1.00  0.00     0.278 HD
ATOM      7  H12 UNL     1      19.169   2.481  50.996  1.00  0.00     0.278 HD
HETATM    8  C10 UNL     1      19.996   0.933  49.989  1.00  0.00     0.248 C 
HETATM    9  C11 UNL     1      21.170  -0.026  50.098  1.00  0.00     0.168 C 
HETATM   10  S1  UNL     1      20.787  -1.120  51.465  1.00  0.00     0.152 S 
HETATM   11  O1  UNL     1      19.909  -2.235  51.079  1.00  0.00    -0.227 OA
HETATM   12  O2  UNL     1      22.080  -1.694  51.986  1.00  0.00    -0.227 OA
ENDROOT
BRANCH   1  13
HETATM   13  C5  UNL     1      19.847  -0.814  54.005  1.00  0.00     0.023 C 
BRANCH  13  14
HETATM   14  C4  UNL     1      20.891  -0.812  55.050  1.00  0.00     0.005 C 
BRANCH  14  15
HETATM   15  C2  UNL     1      20.852   0.524  55.775  1.00  0.00    -0.023 C 
HETATM   16  C1  UNL     1      22.035   1.393  55.431  1.00  0.00     0.009 C 
HETATM   17  C3  UNL     1      20.809   0.356  57.267  1.00  0.00     0.009 C 
ENDBRANCH  14  15
ENDBRANCH  13  14
ENDBRANCH   1  13
TORSDOF 3
ENDMDL
MODEL 5
REMARK VINA RESULT: -5.612417263      2.072      4.447
REMARK  3 active torsions:
REMARK  status: ('A' for Active; 'I' for Inactive)
REMARK    1  A    between atoms: C2_2  and  C4_4 
REMARK    2  A    between atoms: C4_4  and  C5_5 
REMARK    3  A    between atoms: C5_5  and  C6_6 
ROOT
HETATM    1  C6  UNL     1      21.136   1.385  56.872  1.00  0.00     0.143 C 
HETATM    2  C7  UNL     1      20.970   1.394  55.393  1.00  0.00     0.135 C 
HETATM    3  C8  UNL     1      22.176   1.304  54.556  1.00  0.00     0.047 C 
HETATM    4  C9  UNL     1      19.994   0.316  54.957  1.00  0.00     0.047 C 
HETATM    5  N1  UNL     1      20.284   2.659  55.073  1.00  0.00    -0.065 N 
ATOM      6  H11 UNL     1      19.441   2.766  55.637  1.00  0.00     0.278 HD
ATOM      7  H12 UNL     1      19.863   2.617  54.144  1.00  0.00     0.278 HD
HETATM    8  C10 UNL     1      21.121   3.805  55.194  1.00  0.00     0.248 C 
HETATM    9  C11 UNL     1      21.404   4.212  56.631  1.00  0.00     0.168 C 
HETATM   10  S1  UNL     1      22.106   2.765  57.424  1.00  0.00     0.152 S 
HETATM   11  O1  UNL     1      23.549   2.621  57.179  1.00  0.00    -0.227 OA
HETATM   12  O2  UNL     1      21.887   2.889  58.910  1.00  0.00    -0.227 OA
ENDROOT
BRANCH   1  13
HETATM   13  C5  UNL     1      21.511   0.107  57.514  1.00  0.00     0.023 C 
BRANCH  13  14
HETATM   14  C4  UNL     1      20.627  -0.421  58.573  1.00  0.00     0.005 C 
BRANCH  14  15
HETATM   15  C2  UNL     1      20.713  -1.939  58.568  1.00  0.00    -0.023 C 
HETATM   16  C1  UNL     1      22.051  -2.434  59.057  1.00  0.00     0.009 C 
HETATM   17  C3  UNL     1      20.468  -2.513  57.203  1.00  0.00     0.009 C 
ENDBRANCH  14  15
ENDBRANCH  13  14
ENDBRANCH   1  13
TORSDOF 3
ENDMDL
