MODEL 1
REMARK VINA RESULT: -5.290385484      0.000      0.000
REMARK  3 active torsions:
REMARK  status: ('A' for Active; 'I' for Inactive)
REMARK    1  A    between atoms: C2_2  and  O1_3 
REMARK    2  A    between atoms: O1_3  and  C3_4 
REMARK    3  A    between atoms: C6_7  and  O2_8 
ROOT
HETATM    1  C3  UNL     1      -9.564  19.783  77.933  1.00  0.00     0.169 C 
HETATM    2  C4  UNL     1     -10.317  20.005  76.640  1.00  0.00     0.038 C 
HETATM    3  C5  UNL     1     -10.980  18.714  76.294  1.00  0.00     0.038 C 
HETATM    4  C6  UNL     1     -11.091  17.980  77.611  1.00  0.00     0.166 C 
HETATM    5  C7  UNL     1      -9.940  18.452  78.459  1.00  0.00     0.160 C 
HETATM    6  O3  UNL     1      -8.971  17.519  78.535  1.00  0.00    -0.363 OA
HETATM    7  C8  UNL     1      -8.413  17.311  79.700  1.00  0.00     0.180 C 
HETATM    8  C9  UNL     1      -9.281  17.530  80.880  1.00  0.00     0.103 C 
HETATM    9  S1  UNL     1     -10.582  18.617  80.173  1.00  0.00    -0.124 SA
ENDROOT
BRANCH   1  10
HETATM   10  O1  UNL     1      -8.219  19.952  77.687  1.00  0.00    -0.382 OA
BRANCH  10  11
HETATM   11  C2  UNL     1      -7.968  21.178  77.096  1.00  0.00     0.164 C 
HETATM   12  C1  UNL     1      -6.728  21.093  76.244  1.00  0.00     0.033 C 
ENDBRANCH  10  11
ENDBRANCH   1  10
BRANCH   4  13
HETATM   13  O2  UNL     1     -11.098  16.622  77.389  1.00  0.00    -0.392 OA
ATOM     14  H2  UNL     1     -10.205  16.300  77.337  1.00  0.00     0.210 HD
ENDBRANCH   4  13
TORSDOF 3
ENDMDL
MODEL 2
REMARK VINA RESULT: -5.167556493      1.105      1.272
REMARK  3 active torsions:
REMARK  status: ('A' for Active; 'I' for Inactive)
REMARK    1  A    between atoms: C2_2  and  O1_3 
REMARK    2  A    between atoms: O1_3  and  C3_4 
REMARK    3  A    between atoms: C6_7  and  O2_8 
ROOT
HETATM    1  C3  UNL     1     -10.075  18.925  77.937  1.00  0.00     0.169 C 
HETATM    2  C4  UNL     1     -10.753  18.735  76.599  1.00  0.00     0.038 C 
HETATM    3  C5  UNL     1     -10.965  17.269  76.421  1.00  0.00     0.038 C 
HETATM    4  C6  UNL     1     -10.956  16.712  77.826  1.00  0.00     0.166 C 
HETATM    5  C7  UNL     1     -10.073  17.622  78.639  1.00  0.00     0.160 C 
HETATM    6  O3  UNL     1      -8.877  17.053  78.886  1.00  0.00    -0.363 OA
HETATM    7  C8  UNL     1      -8.378  17.179  80.090  1.00  0.00     0.180 C 
HETATM    8  C9  UNL     1      -9.364  17.268  81.191  1.00  0.00     0.103 C 
HETATM    9  S1  UNL     1     -10.871  17.797  80.284  1.00  0.00    -0.124 SA
ENDROOT
BRANCH   1  10
HETATM   10  O1  UNL     1      -8.828  19.470  77.720  1.00  0.00    -0.382 OA
BRANCH  10  11
HETATM   11  C2  UNL     1      -8.897  20.546  76.853  1.00  0.00     0.164 C 
HETATM   12  C1  UNL     1      -9.161  21.813  77.627  1.00  0.00     0.033 C 
ENDBRANCH  10  11
ENDBRANCH   1  10
BRANCH   4  13
HETATM   13  O2  UNL     1     -10.534  15.402  77.806  1.00  0.00    -0.392 OA
ATOM     14  H2  UNL     1     -10.954  14.918  78.507  1.00  0.00     0.210 HD
ENDBRANCH   4  13
TORSDOF 3
ENDMDL
MODEL 3
REMARK VINA RESULT: -4.904300928      1.906      4.012
REMARK  3 active torsions:
REMARK  status: ('A' for Active; 'I' for Inactive)
REMARK    1  A    between atoms: C2_2  and  O1_3 
REMARK    2  A    between atoms: O1_3  and  C3_4 
REMARK    3  A    between atoms: C6_7  and  O2_8 
ROOT
HETATM    1  C3  UNL     1     -11.202  17.458  77.386  1.00  0.00     0.169 C 
HETATM    2  C4  UNL     1     -11.085  18.373  76.189  1.00  0.00     0.038 C 
HETATM    3  C5  UNL     1     -10.459  19.641  76.667  1.00  0.00     0.038 C 
HETATM    4  C6  UNL     1      -9.719  19.247  77.925  1.00  0.00     0.166 C 
HETATM    5  C7  UNL     1     -10.469  18.081  78.512  1.00  0.00     0.160 C 
HETATM    6  O3  UNL     1     -11.189  18.453  79.589  1.00  0.00    -0.363 OA
HETATM    7  C8  UNL     1     -11.184  17.659  80.630  1.00  0.00     0.180 C 
HETATM    8  C9  UNL     1      -9.944  16.877  80.839  1.00  0.00     0.103 C 
HETATM    9  S1  UNL     1      -9.206  16.914  79.158  1.00  0.00    -0.124 SA
ENDROOT
BRANCH   1  10
HETATM   10  O1  UNL     1     -12.538  17.219  77.624  1.00  0.00    -0.382 OA
BRANCH  10  11
HETATM   11  C2  UNL     1     -13.252  17.155  76.440  1.00  0.00     0.164 C 
HETATM   12  C1  UNL     1     -14.712  16.920  76.734  1.00  0.00     0.033 C 
ENDBRANCH  10  11
ENDBRANCH   1  10
BRANCH   4  13
HETATM   13  O2  UNL     1      -9.626  20.330  78.769  1.00  0.00    -0.392 OA
ATOM     14  H2  UNL     1     -10.493  20.672  78.951  1.00  0.00     0.210 HD
ENDBRANCH   4  13
TORSDOF 3
ENDMDL
MODEL 4
REMARK VINA RESULT: -4.863787789      1.602      3.796
REMARK  3 active torsions:
REMARK  status: ('A' for Active; 'I' for Inactive)
REMARK    1  A    between atoms: C2_2  and  O1_3 
REMARK    2  A    between atoms: O1_3  and  C3_4 
REMARK    3  A    between atoms: C6_7  and  O2_8 
ROOT
HETATM    1  C3  UNL     1     -10.343  17.887  77.172  1.00  0.00     0.169 C 
HETATM    2  C4  UNL     1      -9.969  18.557  75.869  1.00  0.00     0.038 C 
HETATM    3  C5  UNL     1      -9.263  19.825  76.217  1.00  0.00     0.038 C 
HETATM    4  C6  UNL     1      -8.738  19.594  77.616  1.00  0.00     0.166 C 
HETATM    5  C7  UNL     1      -9.689  18.630  78.273  1.00  0.00     0.160 C 
HETATM    6  O3  UNL     1     -10.488  19.255  79.159  1.00  0.00    -0.363 OA
HETATM    7  C8  UNL     1     -10.708  18.665  80.307  1.00  0.00     0.180 C 
HETATM    8  C9  UNL     1      -9.606  17.818  80.818  1.00  0.00     0.103 C 
HETATM    9  S1  UNL     1      -8.664  17.483  79.278  1.00  0.00    -0.124 SA
ENDROOT
BRANCH   1  10
HETATM   10  O1  UNL     1     -11.717  17.823  77.250  1.00  0.00    -0.382 OA
BRANCH  10  11
HETATM   11  C2  UNL     1     -12.157  16.511  77.259  1.00  0.00     0.164 C 
HETATM   12  C1  UNL     1     -12.965  16.249  78.505  1.00  0.00     0.033 C 
ENDBRANCH  10  11
ENDBRANCH   1  10
BRANCH   4  13
HETATM   13  O2  UNL     1      -8.624  20.797  78.275  1.00  0.00    -0.392 OA
ATOM     14  H2  UNL     1      -7.721  21.092  78.251  1.00  0.00     0.210 HD
ENDBRANCH   4  13
TORSDOF 3
ENDMDL
MODEL 5
REMARK VINA RESULT: -4.856965416      2.146      4.057
REMARK  3 active torsions:
REMARK  status: ('A' for Active; 'I' for Inactive)
REMARK    1  A    between atoms: C2_2  and  O1_3 
REMARK    2  A    between atoms: O1_3  and  C3_4 
REMARK    3  A    between atoms: C6_7  and  O2_8 
ROOT
HETATM    1  C3  UNL     1      -9.627  18.649  78.168  1.00  0.00     0.169 C 
HETATM    2  C4  UNL     1     -10.345  17.413  77.677  1.00  0.00     0.038 C 
HETATM    3  C5  UNL     1     -10.750  17.675  76.265  1.00  0.00     0.038 C 
HETATM    4  C6  UNL     1      -9.799  18.750  75.792  1.00  0.00     0.166 C 
HETATM    5  C7  UNL     1      -9.419  19.548  77.011  1.00  0.00     0.160 C 
HETATM    6  O3  UNL     1     -10.046  20.741  77.032  1.00  0.00    -0.363 OA
HETATM    7  C8  UNL     1      -9.349  21.791  77.384  1.00  0.00     0.180 C 
HETATM    8  C9  UNL     1      -7.908  21.752  77.047  1.00  0.00     0.103 C 
HETATM    9  S1  UNL     1      -7.634  19.948  76.842  1.00  0.00    -0.124 SA
ENDROOT
BRANCH   1  10
HETATM   10  O1  UNL     1     -10.354  19.193  79.204  1.00  0.00    -0.382 OA
BRANCH  10  11
HETATM   11  C2  UNL     1     -10.746  18.220  80.106  1.00  0.00     0.164 C 
HETATM   12  C1  UNL     1     -10.930  18.831  81.472  1.00  0.00     0.033 C 
ENDBRANCH  10  11
ENDBRANCH   1  10
BRANCH   4  13
HETATM   13  O2  UNL     1     -10.396  19.498  74.802  1.00  0.00    -0.392 OA
ATOM     14  H2  UNL     1     -10.721  20.313  75.166  1.00  0.00     0.210 HD
ENDBRANCH   4  13
TORSDOF 3
ENDMDL
