MODEL 1
REMARK VINA RESULT: -5.734825240      0.000      0.000
REMARK  2 active torsions:
REMARK  status: ('A' for Active; 'I' for Inactive)
REMARK    1  A    between atoms: N2_5  and  N3_6 
REMARK    2  A    between atoms: N3_6  and  C4_8 
ROOT
HETATM    1  C1  UNL     1      -9.502  16.140  83.083  1.00  0.00     0.143 C 
HETATM    2  N1  UNL     1      -9.292  16.884  81.882  1.00  0.00    -0.200 NA
HETATM    3  C2  UNL     1     -10.042  18.124  81.828  1.00  0.00     0.136 C 
HETATM    4  C3  UNL     1     -10.891  18.028  80.552  1.00  0.00     0.130 C 
HETATM    5  N2  UNL     1      -9.988  17.944  79.458  1.00  0.00    -0.232 NA
HETATM    6  C9  UNL     1      -9.164  16.776  79.457  1.00  0.00     0.141 C 
HETATM    7  C10 UNL     1      -7.859  17.094  80.140  1.00  0.00     0.210 C 
HETATM    8  O1  UNL     1      -8.021  17.002  81.514  1.00  0.00    -0.303 OA
ENDROOT
BRANCH   5   9
HETATM    9  N3  UNL     1      -9.318  19.091  79.144  1.00  0.00    -0.350 N 
ATOM     10  H3  UNL     1      -8.381  19.291  79.496  1.00  0.00     0.174 HD
BRANCH   9  11
HETATM   11  C4  UNL     1     -10.021  19.990  78.291  1.00  0.00     0.094 C 
HETATM   12  C5  UNL     1     -10.362  19.251  77.012  1.00  0.00     0.026 C 
HETATM   13  C6  UNL     1      -9.295  19.672  76.025  1.00  0.00     0.002 C 
HETATM   14  C7  UNL     1      -9.179  21.156  76.339  1.00  0.00     0.002 C 
HETATM   15  C8  UNL     1      -9.156  21.156  77.836  1.00  0.00     0.026 C 
ENDBRANCH   9  11
ENDBRANCH   5   9
TORSDOF 2
ENDMDL
MODEL 2
REMARK VINA RESULT: -5.527371388      1.094      1.119
REMARK  2 active torsions:
REMARK  status: ('A' for Active; 'I' for Inactive)
REMARK    1  A    between atoms: N2_5  and  N3_6 
REMARK    2  A    between atoms: N3_6  and  C4_8 
ROOT
HETATM    1  C1  UNL     1      -9.741  17.404  84.343  1.00  0.00     0.143 C 
HETATM    2  N1  UNL     1      -9.497  17.613  82.951  1.00  0.00    -0.200 NA
HETATM    3  C2  UNL     1     -10.330  18.644  82.364  1.00  0.00     0.136 C 
HETATM    4  C3  UNL     1     -11.072  17.956  81.209  1.00  0.00     0.130 C 
HETATM    5  N2  UNL     1     -10.085  17.524  80.282  1.00  0.00    -0.232 NA
HETATM    6  C9  UNL     1      -9.178  16.543  80.793  1.00  0.00     0.141 C 
HETATM    7  C10 UNL     1      -7.956  17.238  81.333  1.00  0.00     0.210 C 
HETATM    8  O1  UNL     1      -8.213  17.697  82.617  1.00  0.00    -0.303 OA
ENDROOT
BRANCH   5   9
HETATM    9  N3  UNL     1      -9.481  18.505  79.550  1.00  0.00    -0.350 N 
ATOM     10  H3  UNL     1      -8.477  18.681  79.596  1.00  0.00     0.174 HD
BRANCH   9  11
HETATM   11  C4  UNL     1     -10.352  19.265  78.718  1.00  0.00     0.094 C 
HETATM   12  C5  UNL     1     -10.743  18.400  77.535  1.00  0.00     0.026 C 
HETATM   13  C6  UNL     1      -9.828  18.841  76.414  1.00  0.00     0.002 C 
HETATM   14  C7  UNL     1      -9.830  20.349  76.612  1.00  0.00     0.002 C 
HETATM   15  C8  UNL     1      -9.659  20.467  78.095  1.00  0.00     0.026 C 
ENDBRANCH   9  11
ENDBRANCH   5   9
TORSDOF 2
ENDMDL
MODEL 3
REMARK VINA RESULT: -5.480752393      0.749      1.269
REMARK  2 active torsions:
REMARK  status: ('A' for Active; 'I' for Inactive)
REMARK    1  A    between atoms: N2_5  and  N3_6 
REMARK    2  A    between atoms: N3_6  and  C4_8 
ROOT
HETATM    1  C1  UNL     1      -9.400  16.482  83.649  1.00  0.00     0.143 C 
HETATM    2  N1  UNL     1      -9.215  17.037  82.346  1.00  0.00    -0.200 NA
HETATM    3  C2  UNL     1      -9.956  18.263  82.125  1.00  0.00     0.136 C 
HETATM    4  C3  UNL     1     -10.838  17.988  80.899  1.00  0.00     0.130 C 
HETATM    5  N2  UNL     1      -9.964  17.731  79.809  1.00  0.00    -0.232 NA
HETATM    6  C9  UNL     1      -9.149  16.567  79.962  1.00  0.00     0.141 C 
HETATM    7  C10 UNL     1      -7.825  16.968  80.558  1.00  0.00     0.210 C 
HETATM    8  O1  UNL     1      -7.952  17.084  81.935  1.00  0.00    -0.303 OA
ENDROOT
BRANCH   5   9
HETATM    9  N3  UNL     1      -9.293  18.812  79.311  1.00  0.00    -0.350 N 
ATOM     10  H3  UNL     1      -8.937  19.557  79.910  1.00  0.00     0.174 HD
BRANCH   9  11
HETATM   11  C4  UNL     1      -9.127  18.824  77.896  1.00  0.00     0.094 C 
HETATM   12  C5  UNL     1      -8.523  20.159  77.507  1.00  0.00     0.026 C 
HETATM   13  C6  UNL     1      -9.696  20.995  77.044  1.00  0.00     0.002 C 
HETATM   14  C7  UNL     1     -10.487  19.968  76.247  1.00  0.00     0.002 C 
HETATM   15  C8  UNL     1     -10.454  18.778  77.155  1.00  0.00     0.026 C 
ENDBRANCH   9  11
ENDBRANCH   5   9
TORSDOF 2
ENDMDL
MODEL 4
REMARK VINA RESULT: -5.445068188      3.007      4.365
REMARK  2 active torsions:
REMARK  status: ('A' for Active; 'I' for Inactive)
REMARK    1  A    between atoms: N2_5  and  N3_6 
REMARK    2  A    between atoms: N3_6  and  C4_8 
ROOT
HETATM    1  C1  UNL     1     -11.515  17.359  78.258  1.00  0.00     0.143 C 
HETATM    2  N1  UNL     1     -10.531  18.134  77.571  1.00  0.00    -0.200 NA
HETATM    3  C2  UNL     1      -9.561  18.755  78.451  1.00  0.00     0.136 C 
HETATM    4  C3  UNL     1      -9.649  20.259  78.154  1.00  0.00     0.130 C 
HETATM    5  N2  UNL     1      -9.274  20.436  76.795  1.00  0.00    -0.232 NA
HETATM    6  C9  UNL     1     -10.146  19.808  75.852  1.00  0.00     0.141 C 
HETATM    7  C10 UNL     1      -9.611  18.439  75.523  1.00  0.00     0.210 C 
HETATM    8  O1  UNL     1      -9.998  17.541  76.507  1.00  0.00    -0.303 OA
ENDROOT
BRANCH   5   9
HETATM    9  N3  UNL     1      -7.948  20.273  76.514  1.00  0.00    -0.350 N 
ATOM     10  H3  UNL     1      -7.613  19.583  75.841  1.00  0.00     0.174 HD
BRANCH   9  11
HETATM   11  C4  UNL     1      -7.066  21.135  77.227  1.00  0.00     0.094 C 
HETATM   12  C5  UNL     1      -6.135  21.787  76.222  1.00  0.00     0.026 C 
HETATM   13  C6  UNL     1      -4.861  20.973  76.290  1.00  0.00     0.002 C 
HETATM   14  C7  UNL     1      -4.739  20.750  77.790  1.00  0.00     0.002 C 
HETATM   15  C8  UNL     1      -6.140  20.374  78.163  1.00  0.00     0.026 C 
ENDBRANCH   9  11
ENDBRANCH   5   9
TORSDOF 2
ENDMDL
MODEL 5
REMARK VINA RESULT: -5.403657145      2.430      5.543
REMARK  2 active torsions:
REMARK  status: ('A' for Active; 'I' for Inactive)
REMARK    1  A    between atoms: N2_5  and  N3_6 
REMARK    2  A    between atoms: N3_6  and  C4_8 
ROOT
HETATM    1  C1  UNL     1      -8.231  20.784  74.002  1.00  0.00     0.143 C 
HETATM    2  N1  UNL     1      -8.441  20.590  75.401  1.00  0.00    -0.200 NA
HETATM    3  C2  UNL     1      -9.145  19.363  75.718  1.00  0.00     0.136 C 
HETATM    4  C3  UNL     1     -10.387  19.801  76.508  1.00  0.00     0.130 C 
HETATM    5  N2  UNL     1      -9.923  20.430  77.694  1.00  0.00    -0.232 NA
HETATM    6  C9  UNL     1      -9.166  21.624  77.477  1.00  0.00     0.141 C 
HETATM    7  C10 UNL     1      -7.701  21.276  77.429  1.00  0.00     0.210 C 
HETATM    8  O1  UNL     1      -7.376  20.816  76.162  1.00  0.00    -0.303 OA
ENDROOT
BRANCH   5   9
HETATM    9  N3  UNL     1      -9.388  19.604  78.641  1.00  0.00    -0.350 N 
ATOM     10  H3  UNL     1      -8.429  19.703  78.975  1.00  0.00     0.174 HD
BRANCH   9  11
HETATM   11  C4  UNL     1     -10.265  18.592  79.128  1.00  0.00     0.094 C 
HETATM   12  C5  UNL     1     -10.670  18.964  80.541  1.00  0.00     0.026 C 
HETATM   13  C6  UNL     1      -9.763  18.143  81.433  1.00  0.00     0.002 C 
HETATM   14  C7  UNL     1      -9.760  16.812  80.695  1.00  0.00     0.002 C 
HETATM   15  C8  UNL     1      -9.574  17.245  79.275  1.00  0.00     0.026 C 
ENDBRANCH   9  11
ENDBRANCH   5   9
TORSDOF 2
ENDMDL
