MODEL 1
REMARK VINA RESULT: -5.227111176      0.000      0.000
REMARK  3 active torsions:
REMARK  status: ('A' for Active; 'I' for Inactive)
REMARK    1  A    between atoms: O1_1  and  C1_3 
REMARK    2  A    between atoms: C1_3  and  C2_4 
REMARK    3  A    between atoms: C2_4  and  N1_5 
ROOT
HETATM    1  N1  UNL     1     -10.300  19.217  78.440  1.00  0.00    -0.185 NA
HETATM    2  C3  UNL     1     -10.884  17.991  77.863  1.00  0.00     0.194 C 
HETATM    3  S1  UNL     1     -10.536  17.823  76.115  1.00  0.00    -0.152 SA
HETATM    4  C4  UNL     1     -10.016  19.412  75.415  1.00  0.00     0.082 C 
HETATM    5  C5  UNL     1      -8.614  19.656  75.878  1.00  0.00     0.026 C 
HETATM    6  C6  UNL     1      -7.929  20.824  75.232  1.00  0.00     0.008 C 
HETATM    7  C7  UNL     1      -6.963  21.383  76.286  1.00  0.00     0.003 C 
HETATM    8  C8  UNL     1      -7.088  20.417  77.446  1.00  0.00     0.034 C 
HETATM    9  C9  UNL     1      -8.590  20.104  77.347  1.00  0.00     0.150 C 
HETATM   10  O2  UNL     1      -8.946  19.099  78.195  1.00  0.00    -0.297 OA
ENDROOT
BRANCH   1  11
HETATM   11  C2  UNL     1     -10.417  19.028  79.902  1.00  0.00     0.147 C 
BRANCH  11  12
HETATM   12  C1  UNL     1      -9.807  17.707  80.309  1.00  0.00     0.181 C 
BRANCH  12  13
HETATM   13  O1  UNL     1      -8.526  17.886  80.795  1.00  0.00    -0.400 OA
ATOM     14  H1  UNL     1      -8.424  17.467  81.641  1.00  0.00     0.209 HD
ENDBRANCH  12  13
ENDBRANCH  11  12
ENDBRANCH   1  11
TORSDOF 3
ENDMDL
MODEL 2
REMARK VINA RESULT: -5.055036670      2.153      4.563
REMARK  3 active torsions:
REMARK  status: ('A' for Active; 'I' for Inactive)
REMARK    1  A    between atoms: O1_1  and  C1_3 
REMARK    2  A    between atoms: C1_3  and  C2_4 
REMARK    3  A    between atoms: C2_4  and  N1_5 
ROOT
HETATM    1  N1  UNL     1      -9.977  20.089  77.573  1.00  0.00    -0.185 NA
HETATM    2  C3  UNL     1      -8.955  19.447  78.420  1.00  0.00     0.194 C 
HETATM    3  S1  UNL     1      -9.377  17.759  78.843  1.00  0.00    -0.152 SA
HETATM    4  C4  UNL     1     -11.142  17.457  78.564  1.00  0.00     0.082 C 
HETATM    5  C5  UNL     1     -11.337  17.349  77.084  1.00  0.00     0.026 C 
HETATM    6  C6  UNL     1     -12.701  16.890  76.658  1.00  0.00     0.008 C 
HETATM    7  C7  UNL     1     -12.973  17.567  75.307  1.00  0.00     0.003 C 
HETATM    8  C8  UNL     1     -11.682  18.298  74.998  1.00  0.00     0.034 C 
HETATM    9  C9  UNL     1     -11.298  18.735  76.422  1.00  0.00     0.150 C 
HETATM   10  O2  UNL     1     -10.051  19.282  76.455  1.00  0.00    -0.297 OA
ENDROOT
BRANCH   1  11
HETATM   11  C2  UNL     1      -9.326  21.323  77.081  1.00  0.00     0.147 C 
BRANCH  11  12
HETATM   12  C1  UNL     1      -8.058  20.983  76.334  1.00  0.00     0.181 C 
BRANCH  12  13
HETATM   13  O1  UNL     1      -8.294  20.907  74.975  1.00  0.00    -0.400 OA
ATOM     14  H1  UNL     1      -8.920  21.568  74.704  1.00  0.00     0.209 HD
ENDBRANCH  12  13
ENDBRANCH  11  12
ENDBRANCH   1  11
TORSDOF 3
ENDMDL
MODEL 3
REMARK VINA RESULT: -5.042926539      1.709      4.018
REMARK  3 active torsions:
REMARK  status: ('A' for Active; 'I' for Inactive)
REMARK    1  A    between atoms: O1_1  and  C1_3 
REMARK    2  A    between atoms: C1_3  and  C2_4 
REMARK    3  A    between atoms: C2_4  and  N1_5 
ROOT
HETATM    1  N1  UNL     1      -8.880  19.638  76.202  1.00  0.00    -0.185 NA
HETATM    2  C3  UNL     1      -9.712  19.463  74.997  1.00  0.00     0.194 C 
HETATM    3  S1  UNL     1     -11.012  18.254  75.231  1.00  0.00    -0.152 SA
HETATM    4  C4  UNL     1     -10.657  17.212  76.671  1.00  0.00     0.082 C 
HETATM    5  C5  UNL     1     -10.931  18.041  77.888  1.00  0.00     0.026 C 
HETATM    6  C6  UNL     1     -10.897  17.288  79.186  1.00  0.00     0.008 C 
HETATM    7  C7  UNL     1     -10.406  18.289  80.241  1.00  0.00     0.003 C 
HETATM    8  C8  UNL     1     -10.289  19.595  79.482  1.00  0.00     0.034 C 
HETATM    9  C9  UNL     1      -9.798  19.051  78.130  1.00  0.00     0.150 C 
HETATM   10  O2  UNL     1      -9.773  20.028  77.180  1.00  0.00    -0.297 OA
ENDROOT
BRANCH   1  11
HETATM   11  C2  UNL     1      -8.092  20.860  75.931  1.00  0.00     0.147 C 
BRANCH  11  12
HETATM   12  C1  UNL     1      -6.740  20.770  76.600  1.00  0.00     0.181 C 
BRANCH  12  13
HETATM   13  O1  UNL     1      -6.873  20.765  77.976  1.00  0.00    -0.400 OA
ATOM     14  H1  UNL     1      -6.757  21.638  78.330  1.00  0.00     0.209 HD
ENDBRANCH  12  13
ENDBRANCH  11  12
ENDBRANCH   1  11
TORSDOF 3
ENDMDL
MODEL 4
REMARK VINA RESULT: -5.040054756      1.270      1.640
REMARK  3 active torsions:
REMARK  status: ('A' for Active; 'I' for Inactive)
REMARK    1  A    between atoms: O1_1  and  C1_3 
REMARK    2  A    between atoms: C1_3  and  C2_4 
REMARK    3  A    between atoms: C2_4  and  N1_5 
ROOT
HETATM    1  N1  UNL     1     -10.951  18.486  79.333  1.00  0.00    -0.185 NA
HETATM    2  C3  UNL     1     -11.296  17.053  79.268  1.00  0.00     0.194 C 
HETATM    3  S1  UNL     1     -11.207  16.402  77.602  1.00  0.00    -0.152 SA
HETATM    4  C4  UNL     1     -11.225  17.751  76.392  1.00  0.00     0.082 C 
HETATM    5  C5  UNL     1      -9.871  18.390  76.430  1.00  0.00     0.026 C 
HETATM    6  C6  UNL     1      -9.616  19.398  75.348  1.00  0.00     0.008 C 
HETATM    7  C7  UNL     1      -8.662  20.436  75.953  1.00  0.00     0.003 C 
HETATM    8  C8  UNL     1      -8.349  19.887  77.330  1.00  0.00     0.034 C 
HETATM    9  C9  UNL     1      -9.720  19.282  77.673  1.00  0.00     0.150 C 
HETATM   10  O2  UNL     1      -9.670  18.553  78.822  1.00  0.00    -0.297 OA
ENDROOT
BRANCH   1  11
HETATM   11  C2  UNL     1     -10.775  18.757  80.776  1.00  0.00     0.147 C 
BRANCH  11  12
HETATM   12  C1  UNL     1      -9.966  17.655  81.420  1.00  0.00     0.181 C 
BRANCH  12  13
HETATM   13  O1  UNL     1      -8.652  18.046  81.590  1.00  0.00    -0.400 OA
ATOM     14  H1  UNL     1      -8.059  17.329  81.400  1.00  0.00     0.209 HD
ENDBRANCH  12  13
ENDBRANCH  11  12
ENDBRANCH   1  11
TORSDOF 3
ENDMDL
MODEL 5
REMARK VINA RESULT: -5.030213107      1.856      4.334
REMARK  3 active torsions:
REMARK  status: ('A' for Active; 'I' for Inactive)
REMARK    1  A    between atoms: O1_1  and  C1_3 
REMARK    2  A    between atoms: C1_3  and  C2_4 
REMARK    3  A    between atoms: C2_4  and  N1_5 
ROOT
HETATM    1  N1  UNL     1      -8.386  20.026  76.841  1.00  0.00    -0.185 NA
HETATM    2  C3  UNL     1      -8.974  20.116  75.491  1.00  0.00     0.194 C 
HETATM    3  S1  UNL     1     -10.310  18.950  75.245  1.00  0.00    -0.152 SA
HETATM    4  C4  UNL     1     -10.251  17.644  76.500  1.00  0.00     0.082 C 
HETATM    5  C5  UNL     1     -10.742  18.246  77.780  1.00  0.00     0.026 C 
HETATM    6  C6  UNL     1     -10.967  17.266  78.895  1.00  0.00     0.008 C 
HETATM    7  C7  UNL     1     -10.674  18.029  80.194  1.00  0.00     0.003 C 
HETATM    8  C8  UNL     1     -10.397  19.445  79.733  1.00  0.00     0.034 C 
HETATM    9  C9  UNL     1      -9.664  19.138  78.416  1.00  0.00     0.150 C 
HETATM   10  O2  UNL     1      -9.446  20.271  77.692  1.00  0.00    -0.297 OA
ENDROOT
BRANCH   1  11
HETATM   11  C2  UNL     1      -7.545  21.236  76.958  1.00  0.00     0.147 C 
BRANCH  11  12
HETATM   12  C1  UNL     1      -6.110  20.912  76.613  1.00  0.00     0.181 C 
BRANCH  12  13
HETATM   13  O1  UNL     1      -5.753  21.490  75.409  1.00  0.00    -0.400 OA
ATOM     14  H1  UNL     1      -5.618  20.826  74.744  1.00  0.00     0.209 HD
ENDBRANCH  12  13
ENDBRANCH  11  12
ENDBRANCH   1  11
TORSDOF 3
ENDMDL
