MODEL 1
REMARK VINA RESULT: -6.526743389      0.000      0.000
REMARK  17 active torsions:
REMARK  status: ('A' for Active; 'I' for Inactive)
REMARK    1  A    between atoms: C2_2  and  C3_3 
REMARK    2  A    between atoms: C3_3  and  C4_4 
REMARK    3  A    between atoms: C4_4  and  C5_5 
REMARK    4  A    between atoms: C5_5  and  C6_6 
REMARK    5  A    between atoms: C6_6  and  C7_7 
REMARK    6  A    between atoms: C7_7  and  C8_8 
REMARK    7  A    between atoms: C8_8  and  N1_9 
REMARK    8  A    between atoms: N1_9  and  C9_10 
REMARK    9  A    between atoms: N1_9  and  C11_12 
REMARK   10  A    between atoms: C11_12  and  C12_13 
REMARK   11  A    between atoms: C13_15  and  C14_16 
REMARK   12  A    between atoms: C14_16  and  O2_17 
REMARK   13  A    between atoms: C15_19  and  N2_20 
REMARK   14  A    between atoms: N2_20  and  C16_21 
REMARK   15  A    between atoms: C19_26  and  N4_27 
REMARK   16  A    between atoms: C20_32  and  O3_33 
REMARK   17  A    between atoms: C21_35  and  O4_36 
ROOT
HETATM    1  C12 UNL     1      13.135  42.277  -7.187  1.00  0.00     0.181 C 
HETATM    2  O1  UNL     1      13.239  40.886  -7.239  1.00  0.00    -0.371 OA
HETATM    3  C13 UNL     1      12.079  40.251  -7.590  1.00  0.00     0.184 C 
HETATM    4  C15 UNL     1      10.917  40.592  -6.672  1.00  0.00     0.227 C 
HETATM    5  C20 UNL     1      10.861  42.095  -6.412  1.00  0.00     0.188 C 
HETATM    6  C21 UNL     1      11.772  42.748  -7.492  1.00  0.00     0.180 C 
ENDROOT
BRANCH   1   7
HETATM    7  C11 UNL     1      14.268  42.972  -7.826  1.00  0.00     0.306 C 
BRANCH   7   8
HETATM    8  N1  UNL     1      14.346  43.109  -9.216  1.00  0.00     0.090 N 
BRANCH   8   9
HETATM    9  C8  UNL     1      15.142  41.985  -9.755  1.00  0.00     0.272 C 
BRANCH   9  10
HETATM   10  C7  UNL     1      14.346  41.102 -10.634  1.00  0.00     0.030 C 
BRANCH  10  11
HETATM   11  C6  UNL     1      14.598  39.646 -10.317  1.00  0.00     0.002 C 
BRANCH  11  12
HETATM   12  C5  UNL     1      13.818  38.808 -11.269  1.00  0.00     0.000 C 
BRANCH  12  13
HETATM   13  C4  UNL     1      13.426  37.442 -10.735  1.00  0.00     0.000 C 
BRANCH  13  14
HETATM   14  C3  UNL     1      14.067  36.338 -11.489  1.00  0.00    -0.000 C 
BRANCH  14  15
HETATM   15  C2  UNL     1      13.134  35.753 -12.507  1.00  0.00    -0.005 C 
HETATM   16  C1  UNL     1      13.571  36.121 -13.902  1.00  0.00     0.005 C 
ENDBRANCH  14  15
ENDBRANCH  13  14
ENDBRANCH  12  13
ENDBRANCH  11  12
ENDBRANCH  10  11
ENDBRANCH   9  10
ENDBRANCH   8   9
BRANCH   8  17
HETATM   17  C9  UNL     1      14.687  44.325  -9.832  1.00  0.00     0.268 C 
HETATM   18  C10 UNL     1      13.534  45.196 -10.278  1.00  0.00     0.037 C 
ENDBRANCH   8  17
ENDBRANCH   7   8
ENDBRANCH   1   7
BRANCH   6  19
HETATM   19  O4  UNL     1      11.640  44.141  -7.343  1.00  0.00    -0.390 OA
ATOM     20  H4  UNL     1      11.527  44.398  -6.435  1.00  0.00     0.210 HD
ENDBRANCH   6  19
BRANCH   3  21
HETATM   21  C14 UNL     1      12.329  38.765  -7.499  1.00  0.00     0.199 C 
BRANCH  21  22
HETATM   22  O2  UNL     1      11.198  38.003  -7.771  1.00  0.00    -0.398 OA
ATOM     23  H2  UNL     1      10.870  37.537  -7.011  1.00  0.00     0.209 HD
ENDBRANCH  21  22
ENDBRANCH   3  21
BRANCH   5  24
HETATM   24  O3  UNL     1       9.573  42.582  -6.511  1.00  0.00    -0.390 OA
ATOM     25  H3  UNL     1       9.484  43.429  -6.089  1.00  0.00     0.210 HD
ENDBRANCH   5  24
BRANCH   4  26
HETATM   26  N2  UNL     1      10.812  39.902  -5.536  1.00  0.00    -0.419 NA
BRANCH  26  27
HETATM   27  C16 UNL     1      10.491  39.356  -4.512  1.00  0.00     0.189 A 
HETATM   28  C17 UNL     1       9.255  38.681  -4.443  1.00  0.00     0.081 A 
HETATM   29  C18 UNL     1       8.895  38.059  -3.287  1.00  0.00     0.111 A 
HETATM   30  N3  UNL     1       9.704  38.077  -2.198  1.00  0.00    -0.202 N 
HETATM   31  C19 UNL     1      10.881  38.711  -2.237  1.00  0.00     0.678 A 
ATOM     32  H3  UNL     1       9.412  37.604  -1.343  1.00  0.00     0.183 HD
HETATM   33  N5  UNL     1      11.227  39.314  -3.368  1.00  0.00    -0.165 N 
ATOM     34  H5  UNL     1      12.130  39.791  -3.381  1.00  0.00     0.187 HD
BRANCH  31  35
HETATM   35  N4  UNL     1      11.676  38.744  -1.195  1.00  0.00    -0.234 N 
ATOM     36  H42 UNL     1      12.606  38.329  -1.240  1.00  0.00     0.174 HD
ATOM     37  H41 UNL     1      11.388  39.183  -0.320  1.00  0.00     0.174 HD
ENDBRANCH  31  35
ENDBRANCH  26  27
ENDBRANCH   4  26
TORSDOF 17
ENDMDL
MODEL 2
REMARK VINA RESULT: -6.500232488      2.048      3.305
REMARK  17 active torsions:
REMARK  status: ('A' for Active; 'I' for Inactive)
REMARK    1  A    between atoms: C2_2  and  C3_3 
REMARK    2  A    between atoms: C3_3  and  C4_4 
REMARK    3  A    between atoms: C4_4  and  C5_5 
REMARK    4  A    between atoms: C5_5  and  C6_6 
REMARK    5  A    between atoms: C6_6  and  C7_7 
REMARK    6  A    between atoms: C7_7  and  C8_8 
REMARK    7  A    between atoms: C8_8  and  N1_9 
REMARK    8  A    between atoms: N1_9  and  C9_10 
REMARK    9  A    between atoms: N1_9  and  C11_12 
REMARK   10  A    between atoms: C11_12  and  C12_13 
REMARK   11  A    between atoms: C13_15  and  C14_16 
REMARK   12  A    between atoms: C14_16  and  O2_17 
REMARK   13  A    between atoms: C15_19  and  N2_20 
REMARK   14  A    between atoms: N2_20  and  C16_21 
REMARK   15  A    between atoms: C19_26  and  N4_27 
REMARK   16  A    between atoms: C20_32  and  O3_33 
REMARK   17  A    between atoms: C21_35  and  O4_36 
ROOT
HETATM    1  C12 UNL     1      14.416  42.832  -9.705  1.00  0.00     0.181 C 
HETATM    2  O1  UNL     1      13.088  42.447  -9.903  1.00  0.00    -0.371 OA
HETATM    3  C13 UNL     1      12.199  43.048  -9.054  1.00  0.00     0.184 C 
HETATM    4  C15 UNL     1      12.532  42.818  -7.590  1.00  0.00     0.227 C 
HETATM    5  C20 UNL     1      14.022  43.034  -7.337  1.00  0.00     0.188 C 
HETATM    6  C21 UNL     1      14.561  43.783  -8.590  1.00  0.00     0.180 C 
ENDROOT
BRANCH   1   7
HETATM    7  C11 UNL     1      15.133  43.119 -10.961  1.00  0.00     0.306 C 
BRANCH   7   8
HETATM    8  N1  UNL     1      16.099  42.242 -11.464  1.00  0.00     0.090 N 
BRANCH   8   9
HETATM    9  C8  UNL     1      15.472  41.397 -12.502  1.00  0.00     0.272 C 
BRANCH   9  10
HETATM   10  C7  UNL     1      15.406  39.974 -12.106  1.00  0.00     0.030 C 
BRANCH  10  11
HETATM   11  C6  UNL     1      13.981  39.547 -11.842  1.00  0.00     0.002 C 
BRANCH  11  12
HETATM   12  C5  UNL     1      13.917  38.897 -10.504  1.00  0.00     0.000 C 
BRANCH  12  13
HETATM   13  C4  UNL     1      13.246  37.535 -10.495  1.00  0.00     0.000 C 
BRANCH  13  14
HETATM   14  C3  UNL     1      14.002  36.530 -11.282  1.00  0.00    -0.000 C 
BRANCH  14  15
HETATM   15  C2  UNL     1      13.157  35.930 -12.364  1.00  0.00    -0.005 C 
HETATM   16  C1  UNL     1      13.721  36.259 -13.723  1.00  0.00     0.005 C 
ENDBRANCH  14  15
ENDBRANCH  13  14
ENDBRANCH  12  13
ENDBRANCH  11  12
ENDBRANCH  10  11
ENDBRANCH   9  10
ENDBRANCH   8   9
BRANCH   8  17
HETATM   17  C9  UNL     1      16.939  41.491 -10.624  1.00  0.00     0.268 C 
HETATM   18  C10 UNL     1      18.423  41.761 -10.745  1.00  0.00     0.037 C 
ENDBRANCH   8  17
ENDBRANCH   7   8
ENDBRANCH   1   7
BRANCH   6  19
HETATM   19  O4  UNL     1      15.908  44.095  -8.324  1.00  0.00    -0.390 OA
ATOM     20  H4  UNL     1      16.011  44.962  -7.949  1.00  0.00     0.210 HD
ENDBRANCH   6  19
BRANCH   3  21
HETATM   21  C14 UNL     1      10.839  42.453  -9.325  1.00  0.00     0.199 C 
BRANCH  21  22
HETATM   22  O2  UNL     1      10.241  42.956 -10.475  1.00  0.00    -0.398 OA
ATOM     23  H2  UNL     1      10.385  43.887 -10.595  1.00  0.00     0.209 HD
ENDBRANCH  21  22
ENDBRANCH   3  21
BRANCH   5  24
HETATM   24  O3  UNL     1      14.243  43.781  -6.197  1.00  0.00    -0.390 OA
ATOM     25  H3  UNL     1      13.876  44.654  -6.272  1.00  0.00     0.210 HD
ENDBRANCH   5  24
BRANCH   4  26
HETATM   26  N2  UNL     1      12.109  41.681  -7.037  1.00  0.00    -0.419 NA
BRANCH  26  27
HETATM   27  C16 UNL     1      11.959  40.590  -6.550  1.00  0.00     0.189 A 
HETATM   28  C17 UNL     1      12.427  39.451  -7.235  1.00  0.00     0.081 A 
HETATM   29  C18 UNL     1      12.260  38.220  -6.681  1.00  0.00     0.111 A 
HETATM   30  N3  UNL     1      11.649  38.067  -5.478  1.00  0.00    -0.202 N 
HETATM   31  C19 UNL     1      11.195  39.132  -4.808  1.00  0.00     0.678 A 
ATOM     32  H3  UNL     1      11.536  37.133  -5.083  1.00  0.00     0.183 HD
HETATM   33  N5  UNL     1      11.363  40.330  -5.354  1.00  0.00    -0.165 N 
ATOM     34  H5  UNL     1      11.012  41.131  -4.827  1.00  0.00     0.187 HD
BRANCH  31  35
HETATM   35  N4  UNL     1      10.599  39.006  -3.647  1.00  0.00    -0.234 N 
ATOM     36  H42 UNL     1      10.287  38.091  -3.322  1.00  0.00     0.174 HD
ATOM     37  H41 UNL     1      10.435  39.811  -3.043  1.00  0.00     0.174 HD
ENDBRANCH  31  35
ENDBRANCH  26  27
ENDBRANCH   4  26
TORSDOF 17
ENDMDL
MODEL 3
REMARK VINA RESULT: -6.497015318      3.009      5.386
REMARK  17 active torsions:
REMARK  status: ('A' for Active; 'I' for Inactive)
REMARK    1  A    between atoms: C2_2  and  C3_3 
REMARK    2  A    between atoms: C3_3  and  C4_4 
REMARK    3  A    between atoms: C4_4  and  C5_5 
REMARK    4  A    between atoms: C5_5  and  C6_6 
REMARK    5  A    between atoms: C6_6  and  C7_7 
REMARK    6  A    between atoms: C7_7  and  C8_8 
REMARK    7  A    between atoms: C8_8  and  N1_9 
REMARK    8  A    between atoms: N1_9  and  C9_10 
REMARK    9  A    between atoms: N1_9  and  C11_12 
REMARK   10  A    between atoms: C11_12  and  C12_13 
REMARK   11  A    between atoms: C13_15  and  C14_16 
REMARK   12  A    between atoms: C14_16  and  O2_17 
REMARK   13  A    between atoms: C15_19  and  N2_20 
REMARK   14  A    between atoms: N2_20  and  C16_21 
REMARK   15  A    between atoms: C19_26  and  N4_27 
REMARK   16  A    between atoms: C20_32  and  O3_33 
REMARK   17  A    between atoms: C21_35  and  O4_36 
ROOT
HETATM    1  C12 UNL     1      12.773  39.785  -8.376  1.00  0.00     0.181 C 
HETATM    2  O1  UNL     1      13.217  41.103  -8.494  1.00  0.00    -0.371 OA
HETATM    3  C13 UNL     1      13.182  41.812  -7.324  1.00  0.00     0.184 C 
HETATM    4  C15 UNL     1      11.800  41.847  -6.695  1.00  0.00     0.227 C 
HETATM    5  C20 UNL     1      11.168  40.457  -6.710  1.00  0.00     0.188 C 
HETATM    6  C21 UNL     1      12.329  39.465  -7.008  1.00  0.00     0.180 C 
ENDROOT
BRANCH   1   7
HETATM    7  C11 UNL     1      13.638  38.813  -9.070  1.00  0.00     0.306 C 
BRANCH   7   8
HETATM    8  N1  UNL     1      13.599  38.668 -10.461  1.00  0.00     0.090 N 
BRANCH   8   9
HETATM    9  C8  UNL     1      13.272  37.261 -10.777  1.00  0.00     0.272 C 
BRANCH   9  10
HETATM   10  C7  UNL     1      14.481  36.424 -10.934  1.00  0.00     0.030 C 
BRANCH  10  11
HETATM   11  C6  UNL     1      14.289  35.389 -12.019  1.00  0.00     0.002 C 
BRANCH  11  12
HETATM   12  C5  UNL     1      13.169  35.821 -12.899  1.00  0.00     0.000 C 
BRANCH  12  13
HETATM   13  C4  UNL     1      13.503  35.849 -14.380  1.00  0.00     0.000 C 
BRANCH  13  14
HETATM   14  C3  UNL     1      14.260  37.066 -14.763  1.00  0.00    -0.000 C 
BRANCH  14  15
HETATM   15  C2  UNL     1      15.674  36.739 -15.138  1.00  0.00    -0.005 C 
HETATM   16  C1  UNL     1      16.638  37.328 -14.140  1.00  0.00     0.005 C 
ENDBRANCH  14  15
ENDBRANCH  13  14
ENDBRANCH  12  13
ENDBRANCH  11  12
ENDBRANCH  10  11
ENDBRANCH   9  10
ENDBRANCH   8   9
BRANCH   8  17
HETATM   17  C9  UNL     1      14.615  39.163 -11.295  1.00  0.00     0.268 C 
HETATM   18  C10 UNL     1      14.164  39.857 -12.561  1.00  0.00     0.037 C 
ENDBRANCH   8  17
ENDBRANCH   7   8
ENDBRANCH   1   7
BRANCH   6  19
HETATM   19  O4  UNL     1      11.787  38.169  -6.910  1.00  0.00    -0.390 OA
ATOM     20  H4  UNL     1      11.306  38.039  -6.101  1.00  0.00     0.210 HD
ENDBRANCH   6  19
BRANCH   3  21
HETATM   21  C14 UNL     1      13.590  43.231  -7.640  1.00  0.00     0.199 C 
BRANCH  21  22
HETATM   22  O2  UNL     1      13.663  44.043  -6.514  1.00  0.00    -0.398 OA
ATOM     23  H2  UNL     1      12.825  44.160  -6.083  1.00  0.00     0.209 HD
ENDBRANCH  21  22
ENDBRANCH   3  21
BRANCH   5  24
HETATM   24  O3  UNL     1      10.573  40.155  -5.501  1.00  0.00    -0.390 OA
ATOM     25  H3  UNL     1      10.399  39.224  -5.419  1.00  0.00     0.210 HD
ENDBRANCH   5  24
BRANCH   4  26
HETATM   26  N2  UNL     1      10.947  42.769  -7.142  1.00  0.00    -0.419 NA
BRANCH  26  27
HETATM   27  C16 UNL     1      10.032  43.416  -7.582  1.00  0.00     0.189 A 
HETATM   28  C17 UNL     1       9.109  44.006  -6.695  1.00  0.00     0.081 A 
HETATM   29  C18 UNL     1       8.077  44.741  -7.194  1.00  0.00     0.111 A 
HETATM   30  N3  UNL     1       7.919  44.915  -8.531  1.00  0.00    -0.202 N 
HETATM   31  C19 UNL     1       8.781  44.365  -9.393  1.00  0.00     0.678 A 
ATOM     32  H3  UNL     1       7.138  45.470  -8.880  1.00  0.00     0.183 HD
HETATM   33  N5  UNL     1       9.786  43.651  -8.900  1.00  0.00    -0.165 N 
ATOM     34  H5  UNL     1      10.435  43.240  -9.572  1.00  0.00     0.187 HD
BRANCH  31  35
HETATM   35  N4  UNL     1       8.645  44.517 -10.688  1.00  0.00    -0.234 N 
ATOM     36  H42 UNL     1       8.095  45.289 -11.063  1.00  0.00     0.174 HD
ATOM     37  H41 UNL     1       9.084  43.875 -11.349  1.00  0.00     0.174 HD
ENDBRANCH  31  35
ENDBRANCH  26  27
ENDBRANCH   4  26
TORSDOF 17
ENDMDL
MODEL 4
REMARK VINA RESULT: -6.486664150      3.040      5.458
REMARK  17 active torsions:
REMARK  status: ('A' for Active; 'I' for Inactive)
REMARK    1  A    between atoms: C2_2  and  C3_3 
REMARK    2  A    between atoms: C3_3  and  C4_4 
REMARK    3  A    between atoms: C4_4  and  C5_5 
REMARK    4  A    between atoms: C5_5  and  C6_6 
REMARK    5  A    between atoms: C6_6  and  C7_7 
REMARK    6  A    between atoms: C7_7  and  C8_8 
REMARK    7  A    between atoms: C8_8  and  N1_9 
REMARK    8  A    between atoms: N1_9  and  C9_10 
REMARK    9  A    between atoms: N1_9  and  C11_12 
REMARK   10  A    between atoms: C11_12  and  C12_13 
REMARK   11  A    between atoms: C13_15  and  C14_16 
REMARK   12  A    between atoms: C14_16  and  O2_17 
REMARK   13  A    between atoms: C15_19  and  N2_20 
REMARK   14  A    between atoms: N2_20  and  C16_21 
REMARK   15  A    between atoms: C19_26  and  N4_27 
REMARK   16  A    between atoms: C20_32  and  O3_33 
REMARK   17  A    between atoms: C21_35  and  O4_36 
ROOT
HETATM    1  C12 UNL     1      12.863  39.766  -8.501  1.00  0.00     0.181 C 
HETATM    2  O1  UNL     1      13.306  41.089  -8.551  1.00  0.00    -0.371 OA
HETATM    3  C13 UNL     1      13.222  41.753  -7.357  1.00  0.00     0.184 C 
HETATM    4  C15 UNL     1      11.816  41.759  -6.782  1.00  0.00     0.227 C 
HETATM    5  C20 UNL     1      11.191  40.369  -6.874  1.00  0.00     0.188 C 
HETATM    6  C21 UNL     1      12.368  39.393  -7.164  1.00  0.00     0.180 C 
ENDROOT
BRANCH   1   7
HETATM    7  C11 UNL     1      13.759  38.824  -9.197  1.00  0.00     0.306 C 
BRANCH   7   8
HETATM    8  N1  UNL     1      13.638  38.585 -10.569  1.00  0.00     0.090 N 
BRANCH   8   9
HETATM    9  C8  UNL     1      13.173  37.194 -10.764  1.00  0.00     0.272 C 
BRANCH   9  10
HETATM   10  C7  UNL     1      14.219  36.328 -11.348  1.00  0.00     0.030 C 
BRANCH  10  11
HETATM   11  C6  UNL     1      13.638  35.395 -12.385  1.00  0.00     0.002 C 
BRANCH  11  12
HETATM   12  C5  UNL     1      13.516  36.129 -13.674  1.00  0.00     0.000 C 
BRANCH  12  13
HETATM   13  C4  UNL     1      14.839  36.454 -14.344  1.00  0.00     0.000 C 
BRANCH  13  14
HETATM   14  C3  UNL     1      14.859  36.055 -15.773  1.00  0.00    -0.000 C 
BRANCH  14  15
HETATM   15  C2  UNL     1      13.479  35.772 -16.284  1.00  0.00    -0.005 C 
HETATM   16  C1  UNL     1      13.456  35.790 -17.791  1.00  0.00     0.005 C 
ENDBRANCH  14  15
ENDBRANCH  13  14
ENDBRANCH  12  13
ENDBRANCH  11  12
ENDBRANCH  10  11
ENDBRANCH   9  10
ENDBRANCH   8   9
BRANCH   8  17
HETATM   17  C9  UNL     1      14.650  38.924 -11.482  1.00  0.00     0.268 C 
HETATM   18  C10 UNL     1      14.232  39.776 -12.660  1.00  0.00     0.037 C 
ENDBRANCH   8  17
ENDBRANCH   7   8
ENDBRANCH   1   7
BRANCH   6  19
HETATM   19  O4  UNL     1      11.829  38.092  -7.136  1.00  0.00    -0.390 OA
ATOM     20  H4  UNL     1      10.879  38.095  -7.153  1.00  0.00     0.210 HD
ENDBRANCH   6  19
BRANCH   3  21
HETATM   21  C14 UNL     1      13.635  43.184  -7.603  1.00  0.00     0.199 C 
BRANCH  21  22
HETATM   22  O2  UNL     1      13.668  43.951  -6.444  1.00  0.00    -0.398 OA
ATOM     23  H2  UNL     1      14.389  44.568  -6.424  1.00  0.00     0.209 HD
ENDBRANCH  21  22
ENDBRANCH   3  21
BRANCH   5  24
HETATM   24  O3  UNL     1      10.551  40.019  -5.702  1.00  0.00    -0.390 OA
ATOM     25  H3  UNL     1       9.760  39.519  -5.869  1.00  0.00     0.210 HD
ENDBRANCH   5  24
BRANCH   4  26
HETATM   26  N2  UNL     1      10.977  42.695  -7.226  1.00  0.00    -0.419 NA
BRANCH  26  27
HETATM   27  C16 UNL     1      10.063  43.360  -7.641  1.00  0.00     0.189 A 
HETATM   28  C17 UNL     1       9.148  43.928  -6.731  1.00  0.00     0.081 A 
HETATM   29  C18 UNL     1       8.117  44.683  -7.201  1.00  0.00     0.111 A 
HETATM   30  N3  UNL     1       7.953  44.900  -8.531  1.00  0.00    -0.202 N 
HETATM   31  C19 UNL     1       8.808  44.371  -9.415  1.00  0.00     0.678 A 
ATOM     32  H3  UNL     1       7.174  45.469  -8.859  1.00  0.00     0.183 HD
HETATM   33  N5  UNL     1       9.811  43.637  -8.950  1.00  0.00    -0.165 N 
ATOM     34  H5  UNL     1      10.454  43.244  -9.638  1.00  0.00     0.187 HD
BRANCH  31  35
HETATM   35  N4  UNL     1       8.665  44.565 -10.704  1.00  0.00    -0.234 N 
ATOM     36  H42 UNL     1       7.772  44.875 -11.085  1.00  0.00     0.174 HD
ATOM     37  H41 UNL     1       9.438  44.414 -11.353  1.00  0.00     0.174 HD
ENDBRANCH  31  35
ENDBRANCH  26  27
ENDBRANCH   4  26
TORSDOF 17
ENDMDL
MODEL 5
REMARK VINA RESULT: -6.379713541      4.862      9.529
REMARK  17 active torsions:
REMARK  status: ('A' for Active; 'I' for Inactive)
REMARK    1  A    between atoms: C2_2  and  C3_3 
REMARK    2  A    between atoms: C3_3  and  C4_4 
REMARK    3  A    between atoms: C4_4  and  C5_5 
REMARK    4  A    between atoms: C5_5  and  C6_6 
REMARK    5  A    between atoms: C6_6  and  C7_7 
REMARK    6  A    between atoms: C7_7  and  C8_8 
REMARK    7  A    between atoms: C8_8  and  N1_9 
REMARK    8  A    between atoms: N1_9  and  C9_10 
REMARK    9  A    between atoms: N1_9  and  C11_12 
REMARK   10  A    between atoms: C11_12  and  C12_13 
REMARK   11  A    between atoms: C13_15  and  C14_16 
REMARK   12  A    between atoms: C14_16  and  O2_17 
REMARK   13  A    between atoms: C15_19  and  N2_20 
REMARK   14  A    between atoms: N2_20  and  C16_21 
REMARK   15  A    between atoms: C19_26  and  N4_27 
REMARK   16  A    between atoms: C20_32  and  O3_33 
REMARK   17  A    between atoms: C21_35  and  O4_36 
ROOT
HETATM    1  C12 UNL     1      14.287  39.242 -11.534  1.00  0.00     0.181 C 
HETATM    2  O1  UNL     1      13.472  38.147 -11.824  1.00  0.00    -0.371 OA
HETATM    3  C13 UNL     1      14.137  36.953 -11.881  1.00  0.00     0.184 C 
HETATM    4  C15 UNL     1      15.276  36.958 -12.886  1.00  0.00     0.227 C 
HETATM    5  C20 UNL     1      16.103  38.234 -12.755  1.00  0.00     0.188 C 
HETATM    6  C21 UNL     1      15.703  38.861 -11.388  1.00  0.00     0.180 C 
ENDROOT
BRANCH   1   7
HETATM    7  C11 UNL     1      13.707  40.154 -10.531  1.00  0.00     0.306 C 
BRANCH   7   8
HETATM    8  N1  UNL     1      12.950  39.668  -9.459  1.00  0.00     0.090 N 
BRANCH   8   9
HETATM    9  C8  UNL     1      12.387  40.820  -8.722  1.00  0.00     0.272 C 
BRANCH   9  10
HETATM   10  C7  UNL     1      13.387  41.886  -8.496  1.00  0.00     0.030 C 
BRANCH  10  11
HETATM   11  C6  UNL     1      13.342  42.381  -7.069  1.00  0.00     0.002 C 
BRANCH  11  12
HETATM   12  C5  UNL     1      14.428  43.381  -6.877  1.00  0.00     0.000 C 
BRANCH  12  13
HETATM   13  C4  UNL     1      15.263  43.655  -8.115  1.00  0.00     0.000 C 
BRANCH  13  14
HETATM   14  C3  UNL     1      16.494  44.422  -7.805  1.00  0.00    -0.000 C 
BRANCH  14  15
HETATM   15  C2  UNL     1      17.493  44.330  -8.919  1.00  0.00    -0.005 C 
HETATM   16  C1  UNL     1      17.136  43.210  -9.862  1.00  0.00     0.005 C 
ENDBRANCH  14  15
ENDBRANCH  13  14
ENDBRANCH  12  13
ENDBRANCH  11  12
ENDBRANCH  10  11
ENDBRANCH   9  10
ENDBRANCH   8   9
BRANCH   8  17
HETATM   17  C9  UNL     1      13.435  38.681  -8.585  1.00  0.00     0.268 C 
HETATM   18  C10 UNL     1      12.628  38.444  -7.328  1.00  0.00     0.037 C 
ENDBRANCH   8  17
ENDBRANCH   7   8
ENDBRANCH   1   7
BRANCH   6  19
HETATM   19  O4  UNL     1      16.541  39.976 -11.195  1.00  0.00    -0.390 OA
ATOM     20  H4  UNL     1      17.333  39.754 -10.719  1.00  0.00     0.210 HD
ENDBRANCH   6  19
BRANCH   3  21
HETATM   21  C14 UNL     1      13.143  35.898 -12.302  1.00  0.00     0.199 C 
BRANCH  21  22
HETATM   22  O2  UNL     1      13.707  34.634 -12.430  1.00  0.00    -0.398 OA
ATOM     23  H2  UNL     1      13.209  33.956 -11.991  1.00  0.00     0.209 HD
ENDBRANCH  21  22
ENDBRANCH   3  21
BRANCH   5  24
HETATM   24  O3  UNL     1      17.458  37.968 -12.785  1.00  0.00    -0.390 OA
ATOM     25  H3  UNL     1      17.774  37.658 -11.944  1.00  0.00     0.210 HD
ENDBRANCH   5  24
BRANCH   4  26
HETATM   26  N2  UNL     1      14.968  36.712 -14.160  1.00  0.00    -0.419 NA
BRANCH  26  27
HETATM   27  C16 UNL     1      14.884  36.349 -15.305  1.00  0.00     0.189 A 
HETATM   28  C17 UNL     1      15.393  37.169 -16.333  1.00  0.00     0.081 A 
HETATM   29  C18 UNL     1      15.302  36.755 -17.627  1.00  0.00     0.111 A 
HETATM   30  N3  UNL     1      14.728  35.567 -17.946  1.00  0.00    -0.202 N 
HETATM   31  C19 UNL     1      14.237  34.772 -16.989  1.00  0.00     0.678 A 
ATOM     32  H3  UNL     1      14.671  35.279 -18.923  1.00  0.00     0.183 HD
HETATM   33  N5  UNL     1      14.331  35.180 -15.730  1.00  0.00    -0.165 N 
ATOM     34  H5  UNL     1      13.952  34.560 -15.013  1.00  0.00     0.187 HD
BRANCH  31  35
HETATM   35  N4  UNL     1      13.675  33.623 -17.277  1.00  0.00    -0.234 N 
ATOM     36  H42 UNL     1      12.663  33.550 -17.370  1.00  0.00     0.174 HD
ATOM     37  H41 UNL     1      14.232  32.779 -17.417  1.00  0.00     0.174 HD
ENDBRANCH  31  35
ENDBRANCH  26  27
ENDBRANCH   4  26
TORSDOF 17
ENDMDL
