MODEL 1
REMARK VINA RESULT: -7.869969309      0.000      0.000
REMARK  13 active torsions:
REMARK  status: ('A' for Active; 'I' for Inactive)
REMARK    1  A    between atoms: N1_2  and  C2_3 
REMARK    2  A    between atoms: N1_2  and  C5_10 
REMARK    3  A    between atoms: C2_3  and  C3_4 
REMARK    4  A    between atoms: C3_4  and  C4_5 
REMARK    5  A    between atoms: C4_5  and  N2_6 
REMARK    6  A    between atoms: C5_10  and  C6_11 
REMARK    7  A    between atoms: C6_11  and  C7_12 
REMARK    8  A    between atoms: C7_12  and  C8_13 
REMARK    9  A    between atoms: C8_13  and  C9_14 
REMARK   10  A    between atoms: N3_15  and  C10_17 
REMARK   11  A    between atoms: N7_28  and  C14_29 
REMARK   12  A    between atoms: C15_30  and  O1_31 
REMARK   13  A    between atoms: C16_33  and  O2_34 
ROOT
HETATM    1  C10 UNL     1      12.583  38.953  -7.201  1.00  0.00     0.685 A 
HETATM    2  N4  UNL     1      12.169  40.057  -7.850  1.00  0.00    -0.174 N 
ATOM      3  H4  UNL     1      12.555  40.238  -8.777  1.00  0.00     0.186 HD
HETATM    4  C11 UNL     1      11.282  40.936  -7.359  1.00  0.00     0.145 A 
HETATM    5  N5  UNL     1      10.928  41.981  -8.045  1.00  0.00    -0.383 N 
ATOM      6  H51 UNL     1      10.254  42.649  -7.672  1.00  0.00     0.157 HD
ATOM      7  H52 UNL     1      11.318  42.159  -8.971  1.00  0.00     0.157 HD
HETATM    8  C12 UNL     1      10.756  40.697  -6.110  1.00  0.00     0.123 A 
HETATM    9  N6  UNL     1       9.869  41.349  -5.357  1.00  0.00    -0.346 N 
ATOM     10  H6  UNL     1       9.391  42.217  -5.598  1.00  0.00     0.167 HD
HETATM   11  C13 UNL     1       9.722  40.654  -4.230  1.00  0.00     0.185 A 
HETATM   12  N7  UNL     1      10.500  39.558  -4.234  1.00  0.00    -0.319 N 
HETATM   13  C20 UNL     1      11.172  39.566  -5.427  1.00  0.00     0.155 A 
HETATM   14  N8  UNL     1      12.050  38.724  -5.947  1.00  0.00    -0.174 N 
ATOM     15  H8  UNL     1      12.336  37.899  -5.419  1.00  0.00     0.186 HD
ENDROOT
BRANCH   1  16
HETATM   16  N3  UNL     1      13.381  38.107  -7.615  1.00  0.00    -0.205 N 
HETATM   17  C9  UNL     1      13.918  37.586  -8.751  1.00  0.00     0.079 C 
ATOM     18  H3  UNL     1      13.784  37.622  -6.814  1.00  0.00     0.183 HD
BRANCH  17  19
HETATM   19  C8  UNL     1      13.222  37.677 -10.061  1.00  0.00     0.045 C 
BRANCH  19  20
HETATM   20  C7  UNL     1      13.814  38.811 -10.910  1.00  0.00     0.010 C 
BRANCH  20  21
HETATM   21  C6  UNL     1      13.851  38.491 -12.335  1.00  0.00     0.044 C 
BRANCH  21  22
HETATM   22  C5  UNL     1      14.791  37.403 -12.775  1.00  0.00     0.057 C 
BRANCH  22  23
HETATM   23  N1  UNL     1      14.216  36.375 -13.494  1.00  0.00    -0.398 N 
HETATM   24  C1  UNL     1      13.429  35.377 -12.888  1.00  0.00     0.148 C 
BRANCH  23  25
HETATM   25  C2  UNL     1      14.615  36.118 -14.829  1.00  0.00     0.123 C 
BRANCH  25  26
HETATM   26  C3  UNL     1      13.532  35.734 -15.783  1.00  0.00     0.047 C 
BRANCH  26  27
HETATM   27  C4  UNL     1      14.025  35.018 -17.014  1.00  0.00     0.231 C 
BRANCH  27  28
HETATM   28  N2  UNL     1      13.605  33.635 -17.046  1.00  0.00    -0.079 N 
ATOM     29  H23 UNL     1      12.645  33.533 -16.717  1.00  0.00     0.274 HD
ATOM     30  H22 UNL     1      13.482  33.309 -18.005  1.00  0.00     0.274 HD
ATOM     31  H21 UNL     1      14.240  33.028 -16.527  1.00  0.00     0.274 HD
ENDBRANCH  27  28
ENDBRANCH  26  27
ENDBRANCH  25  26
ENDBRANCH  23  25
ENDBRANCH  22  23
ENDBRANCH  21  22
ENDBRANCH  20  21
ENDBRANCH  19  20
ENDBRANCH  17  19
ENDBRANCH   1  16
BRANCH  12  32
HETATM   32  C14 UNL     1      10.624  38.553  -3.225  1.00  0.00     0.128 C 
HETATM   33  C15 UNL     1       9.406  37.649  -3.175  1.00  0.00     0.170 C 
HETATM   34  C16 UNL     1       8.852  37.743  -1.777  1.00  0.00     0.153 C 
HETATM   35  C17 UNL     1       9.988  38.289  -0.945  1.00  0.00     0.024 A 
HETATM   36  C18 UNL     1      10.054  39.834  -0.998  1.00  0.00     0.015 A 
HETATM   37  C19 UNL     1      10.913  39.023  -1.850  1.00  0.00     0.018 A 
BRANCH  33  38
HETATM   38  O1  UNL     1       8.514  38.063  -4.150  1.00  0.00    -0.391 OA
ATOM     39  H1  UNL     1       7.744  37.508  -4.108  1.00  0.00     0.210 HD
ENDBRANCH  33  38
BRANCH  34  40
HETATM   40  O2  UNL     1       8.365  36.547  -1.292  1.00  0.00    -0.393 OA
ATOM     41  H2  UNL     1       7.436  36.424  -1.443  1.00  0.00     0.210 HD
ENDBRANCH  34  40
ENDBRANCH  12  32
TORSDOF 13
ENDMDL
MODEL 2
REMARK VINA RESULT: -7.804589798      3.384     10.122
REMARK  13 active torsions:
REMARK  status: ('A' for Active; 'I' for Inactive)
REMARK    1  A    between atoms: N1_2  and  C2_3 
REMARK    2  A    between atoms: N1_2  and  C5_10 
REMARK    3  A    between atoms: C2_3  and  C3_4 
REMARK    4  A    between atoms: C3_4  and  C4_5 
REMARK    5  A    between atoms: C4_5  and  N2_6 
REMARK    6  A    between atoms: C5_10  and  C6_11 
REMARK    7  A    between atoms: C6_11  and  C7_12 
REMARK    8  A    between atoms: C7_12  and  C8_13 
REMARK    9  A    between atoms: C8_13  and  C9_14 
REMARK   10  A    between atoms: N3_15  and  C10_17 
REMARK   11  A    between atoms: N7_28  and  C14_29 
REMARK   12  A    between atoms: C15_30  and  O1_31 
REMARK   13  A    between atoms: C16_33  and  O2_34 
ROOT
HETATM    1  C10 UNL     1      13.038  40.907  -9.411  1.00  0.00     0.685 A 
HETATM    2  N4  UNL     1      14.170  41.595  -9.165  1.00  0.00    -0.174 N 
ATOM      3  H4  UNL     1      14.144  42.313  -8.442  1.00  0.00     0.186 HD
HETATM    4  C11 UNL     1      15.330  41.396  -9.810  1.00  0.00     0.145 A 
HETATM    5  N5  UNL     1      16.384  42.099  -9.518  1.00  0.00    -0.383 N 
ATOM      6  H51 UNL     1      17.265  41.949 -10.008  1.00  0.00     0.157 HD
ATOM      7  H52 UNL     1      16.353  42.817  -8.794  1.00  0.00     0.157 HD
HETATM    8  C12 UNL     1      15.371  40.428 -10.787  1.00  0.00     0.123 A 
HETATM    9  N6  UNL     1      16.343  39.984 -11.587  1.00  0.00    -0.346 N 
ATOM     10  H6  UNL     1      17.304  40.324 -11.618  1.00  0.00     0.167 HD
HETATM   11  C13 UNL     1      15.823  39.015 -12.338  1.00  0.00     0.185 A 
HETATM   12  N7  UNL     1      14.527  38.818 -12.043  1.00  0.00    -0.319 N 
HETATM   13  C20 UNL     1      14.216  39.712 -11.053  1.00  0.00     0.155 A 
HETATM   14  N8  UNL     1      13.091  39.939 -10.394  1.00  0.00    -0.174 N 
ATOM     15  H8  UNL     1      12.257  39.394 -10.614  1.00  0.00     0.186 HD
ENDROOT
BRANCH   1  16
HETATM   16  N3  UNL     1      11.954  41.039  -8.835  1.00  0.00    -0.205 N 
HETATM   17  C9  UNL     1      11.359  40.979  -7.613  1.00  0.00     0.079 C 
ATOM     18  H3  UNL     1      11.246  41.281  -9.529  1.00  0.00     0.183 HD
BRANCH  17  19
HETATM   19  C8  UNL     1      11.938  40.185  -6.498  1.00  0.00     0.045 C 
BRANCH  19  20
HETATM   20  C7  UNL     1      11.162  38.873  -6.310  1.00  0.00     0.010 C 
BRANCH  20  21
HETATM   21  C6  UNL     1      10.940  38.544  -4.903  1.00  0.00     0.044 C 
BRANCH  21  22
HETATM   22  C5  UNL     1       9.547  38.716  -4.365  1.00  0.00     0.057 C 
BRANCH  22  23
HETATM   23  N1  UNL     1       9.455  39.362  -3.148  1.00  0.00    -0.398 N 
HETATM   24  C1  UNL     1       8.619  40.476  -2.946  1.00  0.00     0.148 C 
BRANCH  23  25
HETATM   25  C2  UNL     1      10.402  39.107  -2.124  1.00  0.00     0.123 C 
BRANCH  25  26
HETATM   26  C3  UNL     1       9.855  38.624  -0.822  1.00  0.00     0.047 C 
BRANCH  26  27
HETATM   27  C4  UNL     1       9.327  37.213  -0.865  1.00  0.00     0.231 C 
BRANCH  27  28
HETATM   28  N2  UNL     1      10.272  36.294  -1.459  1.00  0.00    -0.079 N 
ATOM     29  H23 UNL     1      10.270  36.369  -2.475  1.00  0.00     0.274 HD
ATOM     30  H22 UNL     1      11.233  36.585  -1.277  1.00  0.00     0.274 HD
ATOM     31  H21 UNL     1      10.115  35.332  -1.159  1.00  0.00     0.274 HD
ENDBRANCH  27  28
ENDBRANCH  26  27
ENDBRANCH  25  26
ENDBRANCH  23  25
ENDBRANCH  22  23
ENDBRANCH  21  22
ENDBRANCH  20  21
ENDBRANCH  19  20
ENDBRANCH  17  19
ENDBRANCH   1  16
BRANCH  12  32
HETATM   32  C14 UNL     1      13.621  37.870 -12.611  1.00  0.00     0.128 C 
HETATM   33  C15 UNL     1      13.419  36.669 -11.705  1.00  0.00     0.170 C 
HETATM   34  C16 UNL     1      13.814  35.452 -12.502  1.00  0.00     0.153 C 
HETATM   35  C17 UNL     1      13.771  35.902 -13.944  1.00  0.00     0.024 A 
HETATM   36  C18 UNL     1      15.089  36.586 -14.377  1.00  0.00     0.015 A 
HETATM   37  C19 UNL     1      13.937  37.380 -13.973  1.00  0.00     0.018 A 
BRANCH  33  38
HETATM   38  O1  UNL     1      14.180  36.849 -10.563  1.00  0.00    -0.391 OA
ATOM     39  H1  UNL     1      13.677  36.545  -9.816  1.00  0.00     0.210 HD
ENDBRANCH  33  38
BRANCH  34  40
HETATM   40  O2  UNL     1      13.019  34.351 -12.265  1.00  0.00    -0.393 OA
ATOM     41  H2  UNL     1      12.457  34.121 -12.996  1.00  0.00     0.210 HD
ENDBRANCH  34  40
ENDBRANCH  12  32
TORSDOF 13
ENDMDL
MODEL 3
REMARK VINA RESULT: -7.798817112      1.027      1.992
REMARK  13 active torsions:
REMARK  status: ('A' for Active; 'I' for Inactive)
REMARK    1  A    between atoms: N1_2  and  C2_3 
REMARK    2  A    between atoms: N1_2  and  C5_10 
REMARK    3  A    between atoms: C2_3  and  C3_4 
REMARK    4  A    between atoms: C3_4  and  C4_5 
REMARK    5  A    between atoms: C4_5  and  N2_6 
REMARK    6  A    between atoms: C5_10  and  C6_11 
REMARK    7  A    between atoms: C6_11  and  C7_12 
REMARK    8  A    between atoms: C7_12  and  C8_13 
REMARK    9  A    between atoms: C8_13  and  C9_14 
REMARK   10  A    between atoms: N3_15  and  C10_17 
REMARK   11  A    between atoms: N7_28  and  C14_29 
REMARK   12  A    between atoms: C15_30  and  O1_31 
REMARK   13  A    between atoms: C16_33  and  O2_34 
ROOT
HETATM    1  C10 UNL     1      12.616  38.816  -7.205  1.00  0.00     0.685 A 
HETATM    2  N4  UNL     1      12.224  39.914  -7.878  1.00  0.00    -0.174 N 
ATOM      3  H4  UNL     1      12.617  40.070  -8.806  1.00  0.00     0.186 HD
HETATM    4  C11 UNL     1      11.350  40.817  -7.409  1.00  0.00     0.145 A 
HETATM    5  N5  UNL     1      11.017  41.854  -8.117  1.00  0.00    -0.383 N 
ATOM      6  H51 UNL     1      10.352  42.540  -7.760  1.00  0.00     0.157 HD
ATOM      7  H52 UNL     1      11.413  42.006  -9.045  1.00  0.00     0.157 HD
HETATM    8  C12 UNL     1      10.815  40.612  -6.157  1.00  0.00     0.123 A 
HETATM    9  N6  UNL     1       9.935  41.293  -5.421  1.00  0.00    -0.346 N 
ATOM     10  H6  UNL     1       9.474  42.165  -5.682  1.00  0.00     0.167 HD
HETATM   11  C13 UNL     1       9.772  40.623  -4.282  1.00  0.00     0.185 A 
HETATM   12  N7  UNL     1      10.531  39.515  -4.260  1.00  0.00    -0.319 N 
HETATM   13  C20 UNL     1      11.209  39.487  -5.450  1.00  0.00     0.155 A 
HETATM   14  N8  UNL     1      12.075  38.621  -5.949  1.00  0.00    -0.174 N 
ATOM     15  H8  UNL     1      12.345  37.802  -5.404  1.00  0.00     0.186 HD
ENDROOT
BRANCH   1  16
HETATM   16  N3  UNL     1      13.402  37.948  -7.599  1.00  0.00    -0.205 N 
HETATM   17  C9  UNL     1      14.235  37.623  -8.624  1.00  0.00     0.079 C 
ATOM     18  H3  UNL     1      13.439  37.205  -6.902  1.00  0.00     0.183 HD
BRANCH  17  19
HETATM   19  C8  UNL     1      14.056  38.184  -9.988  1.00  0.00     0.045 C 
BRANCH  19  20
HETATM   20  C7  UNL     1      13.208  37.239 -10.853  1.00  0.00     0.010 C 
BRANCH  20  21
HETATM   21  C6  UNL     1      13.994  36.165 -11.456  1.00  0.00     0.044 C 
BRANCH  21  22
HETATM   22  C5  UNL     1      13.447  35.526 -12.703  1.00  0.00     0.057 C 
BRANCH  22  23
HETATM   23  N1  UNL     1      13.907  36.054 -13.893  1.00  0.00    -0.398 N 
HETATM   24  C1  UNL     1      13.278  35.800 -15.125  1.00  0.00     0.148 C 
BRANCH  23  25
HETATM   25  C2  UNL     1      15.192  36.648 -13.968  1.00  0.00     0.123 C 
BRANCH  25  26
HETATM   26  C3  UNL     1      15.227  38.133 -14.125  1.00  0.00     0.047 C 
BRANCH  26  27
HETATM   27  C4  UNL     1      16.101  38.835 -13.118  1.00  0.00     0.231 C 
BRANCH  27  28
HETATM   28  N2  UNL     1      17.116  37.961 -12.574  1.00  0.00    -0.079 N 
ATOM     29  H23 UNL     1      17.933  38.490 -12.268  1.00  0.00     0.274 HD
ATOM     30  H22 UNL     1      16.828  37.575 -11.674  1.00  0.00     0.274 HD
ATOM     31  H21 UNL     1      17.378  37.222 -13.226  1.00  0.00     0.274 HD
ENDBRANCH  27  28
ENDBRANCH  26  27
ENDBRANCH  25  26
ENDBRANCH  23  25
ENDBRANCH  22  23
ENDBRANCH  21  22
ENDBRANCH  20  21
ENDBRANCH  19  20
ENDBRANCH  17  19
ENDBRANCH   1  16
BRANCH  12  32
HETATM   32  C14 UNL     1      10.635  38.529  -3.231  1.00  0.00     0.128 C 
HETATM   33  C15 UNL     1       9.397  37.653  -3.162  1.00  0.00     0.170 C 
HETATM   34  C16 UNL     1       8.846  37.788  -1.766  1.00  0.00     0.153 C 
HETATM   35  C17 UNL     1       9.995  38.326  -0.945  1.00  0.00     0.024 A 
HETATM   36  C18 UNL     1      10.096  39.867  -1.030  1.00  0.00     0.015 A 
HETATM   37  C19 UNL     1      10.935  39.020  -1.866  1.00  0.00     0.018 A 
BRANCH  33  38
HETATM   38  O1  UNL     1       8.513  38.066  -4.144  1.00  0.00    -0.391 OA
ATOM     39  H1  UNL     1       8.983  38.621  -4.756  1.00  0.00     0.210 HD
ENDBRANCH  33  38
BRANCH  34  40
HETATM   40  O2  UNL     1       8.334  36.613  -1.256  1.00  0.00    -0.393 OA
ATOM     41  H2  UNL     1       7.384  36.579  -1.256  1.00  0.00     0.210 HD
ENDBRANCH  34  40
ENDBRANCH  12  32
TORSDOF 13
ENDMDL
MODEL 4
REMARK VINA RESULT: -7.775990684      3.470     10.235
REMARK  13 active torsions:
REMARK  status: ('A' for Active; 'I' for Inactive)
REMARK    1  A    between atoms: N1_2  and  C2_3 
REMARK    2  A    between atoms: N1_2  and  C5_10 
REMARK    3  A    between atoms: C2_3  and  C3_4 
REMARK    4  A    between atoms: C3_4  and  C4_5 
REMARK    5  A    between atoms: C4_5  and  N2_6 
REMARK    6  A    between atoms: C5_10  and  C6_11 
REMARK    7  A    between atoms: C6_11  and  C7_12 
REMARK    8  A    between atoms: C7_12  and  C8_13 
REMARK    9  A    between atoms: C8_13  and  C9_14 
REMARK   10  A    between atoms: N3_15  and  C10_17 
REMARK   11  A    between atoms: N7_28  and  C14_29 
REMARK   12  A    between atoms: C15_30  and  O1_31 
REMARK   13  A    between atoms: C16_33  and  O2_34 
ROOT
HETATM    1  C10 UNL     1      12.367  39.229  -6.863  1.00  0.00     0.685 A 
HETATM    2  N4  UNL     1      12.630  40.541  -6.714  1.00  0.00    -0.174 N 
ATOM      3  H4  UNL     1      12.460  40.960  -5.800  1.00  0.00     0.186 HD
HETATM    4  C11 UNL     1      13.100  41.334  -7.689  1.00  0.00     0.145 A 
HETATM    5  N5  UNL     1      13.332  42.594  -7.471  1.00  0.00    -0.383 N 
ATOM      6  H51 UNL     1      13.689  43.196  -8.212  1.00  0.00     0.157 HD
ATOM      7  H52 UNL     1      13.160  43.009  -6.555  1.00  0.00     0.157 HD
HETATM    8  C12 UNL     1      13.332  40.773  -8.924  1.00  0.00     0.123 A 
HETATM    9  N6  UNL     1      13.795  41.267 -10.074  1.00  0.00    -0.346 N 
ATOM     10  H6  UNL     1      14.074  42.232 -10.250  1.00  0.00     0.167 HD
HETATM   11  C13 UNL     1      13.825  40.264 -10.950  1.00  0.00     0.185 A 
HETATM   12  N7  UNL     1      13.388  39.123 -10.392  1.00  0.00    -0.319 N 
HETATM   13  C20 UNL     1      13.065  39.425  -9.095  1.00  0.00     0.155 A 
HETATM   14  N8  UNL     1      12.601  38.678  -8.107  1.00  0.00    -0.174 N 
ATOM     15  H8  UNL     1      12.416  37.687  -8.265  1.00  0.00     0.186 HD
ENDROOT
BRANCH   1  16
HETATM   16  N3  UNL     1      11.951  38.455  -5.995  1.00  0.00    -0.205 N 
HETATM   17  C9  UNL     1      10.912  38.234  -5.146  1.00  0.00     0.079 C 
ATOM     18  H3  UNL     1      12.637  37.711  -5.869  1.00  0.00     0.183 HD
BRANCH  17  19
HETATM   19  C8  UNL     1      10.018  39.332  -4.697  1.00  0.00     0.045 C 
BRANCH  19  20
HETATM   20  C7  UNL     1       8.956  38.801  -3.724  1.00  0.00     0.010 C 
BRANCH  20  21
HETATM   21  C6  UNL     1       9.477  37.776  -2.822  1.00  0.00     0.044 C 
BRANCH  21  22
HETATM   22  C5  UNL     1       8.961  37.773  -1.409  1.00  0.00     0.057 C 
BRANCH  22  23
HETATM   23  N1  UNL     1       9.679  38.539  -0.513  1.00  0.00    -0.398 N 
HETATM   24  C1  UNL     1       9.389  38.561   0.864  1.00  0.00     0.148 C 
BRANCH  23  25
HETATM   25  C2  UNL     1      10.563  39.547  -0.973  1.00  0.00     0.123 C 
BRANCH  25  26
HETATM   26  C3  UNL     1      10.275  40.939  -0.515  1.00  0.00     0.047 C 
BRANCH  26  27
HETATM   27  C4  UNL     1       9.156  41.611  -1.268  1.00  0.00     0.231 C 
BRANCH  27  28
HETATM   28  N2  UNL     1       9.299  43.050  -1.289  1.00  0.00    -0.079 N 
ATOM     29  H23 UNL     1       8.470  43.509  -0.914  1.00  0.00     0.274 HD
ATOM     30  H22 UNL     1       9.983  43.363  -0.600  1.00  0.00     0.274 HD
ATOM     31  H21 UNL     1       9.526  43.401  -2.220  1.00  0.00     0.274 HD
ENDBRANCH  27  28
ENDBRANCH  26  27
ENDBRANCH  25  26
ENDBRANCH  23  25
ENDBRANCH  22  23
ENDBRANCH  21  22
ENDBRANCH  20  21
ENDBRANCH  19  20
ENDBRANCH  17  19
ENDBRANCH   1  16
BRANCH  12  32
HETATM   32  C14 UNL     1      13.276  37.828 -10.987  1.00  0.00     0.128 C 
HETATM   33  C15 UNL     1      14.256  36.840 -10.379  1.00  0.00     0.170 C 
HETATM   34  C16 UNL     1      15.109  36.323 -11.508  1.00  0.00     0.153 C 
HETATM   35  C17 UNL     1      14.325  36.633 -12.761  1.00  0.00     0.024 A 
HETATM   36  C18 UNL     1      14.578  38.075 -13.261  1.00  0.00     0.015 A 
HETATM   37  C19 UNL     1      13.402  37.761 -12.462  1.00  0.00     0.018 A 
BRANCH  33  38
HETATM   38  O1  UNL     1      14.980  37.492  -9.395  1.00  0.00    -0.391 OA
ATOM     39  H1  UNL     1      15.266  36.849  -8.757  1.00  0.00     0.210 HD
ENDBRANCH  33  38
BRANCH  34  40
HETATM   40  O2  UNL     1      15.424  34.985 -11.396  1.00  0.00    -0.393 OA
ATOM     41  H2  UNL     1      16.254  34.753 -11.796  1.00  0.00     0.210 HD
ENDBRANCH  34  40
ENDBRANCH  12  32
TORSDOF 13
ENDMDL
MODEL 5
REMARK VINA RESULT: -7.731443925      1.278      1.633
REMARK  13 active torsions:
REMARK  status: ('A' for Active; 'I' for Inactive)
REMARK    1  A    between atoms: N1_2  and  C2_3 
REMARK    2  A    between atoms: N1_2  and  C5_10 
REMARK    3  A    between atoms: C2_3  and  C3_4 
REMARK    4  A    between atoms: C3_4  and  C4_5 
REMARK    5  A    between atoms: C4_5  and  N2_6 
REMARK    6  A    between atoms: C5_10  and  C6_11 
REMARK    7  A    between atoms: C6_11  and  C7_12 
REMARK    8  A    between atoms: C7_12  and  C8_13 
REMARK    9  A    between atoms: C8_13  and  C9_14 
REMARK   10  A    between atoms: N3_15  and  C10_17 
REMARK   11  A    between atoms: N7_28  and  C14_29 
REMARK   12  A    between atoms: C15_30  and  O1_31 
REMARK   13  A    between atoms: C16_33  and  O2_34 
ROOT
HETATM    1  C10 UNL     1      12.555  39.028  -7.262  1.00  0.00     0.685 A 
HETATM    2  N4  UNL     1      12.137  40.136  -7.902  1.00  0.00    -0.174 N 
ATOM      3  H4  UNL     1      12.520  40.325  -8.828  1.00  0.00     0.186 HD
HETATM    4  C11 UNL     1      11.249  41.009  -7.402  1.00  0.00     0.145 A 
HETATM    5  N5  UNL     1      10.891  42.059  -8.079  1.00  0.00    -0.383 N 
ATOM      6  H51 UNL     1      10.217  42.722  -7.699  1.00  0.00     0.157 HD
ATOM      7  H52 UNL     1      11.278  42.244  -9.004  1.00  0.00     0.157 HD
HETATM    8  C12 UNL     1      10.727  40.759  -6.153  1.00  0.00     0.123 A 
HETATM    9  N6  UNL     1       9.839  41.403  -5.393  1.00  0.00    -0.346 N 
ATOM     10  H6  UNL     1       9.360  42.272  -5.627  1.00  0.00     0.167 HD
HETATM   11  C13 UNL     1       9.697  40.698  -4.272  1.00  0.00     0.185 A 
HETATM   12  N7  UNL     1      10.477  39.605  -4.286  1.00  0.00    -0.319 N 
HETATM   13  C20 UNL     1      11.147  39.623  -5.480  1.00  0.00     0.155 A 
HETATM   14  N8  UNL     1      12.026  38.787  -6.009  1.00  0.00    -0.174 N 
ATOM     15  H8  UNL     1      12.315  37.959  -5.488  1.00  0.00     0.186 HD
ENDROOT
BRANCH   1  16
HETATM   16  N3  UNL     1      13.354  38.186  -7.685  1.00  0.00    -0.205 N 
HETATM   17  C9  UNL     1      13.923  37.707  -8.823  1.00  0.00     0.079 C 
ATOM     18  H3  UNL     1      13.720  37.660  -6.892  1.00  0.00     0.183 HD
BRANCH  17  19
HETATM   19  C8  UNL     1      13.276  37.866 -10.151  1.00  0.00     0.045 C 
BRANCH  19  20
HETATM   20  C7  UNL     1      13.825  39.106 -10.873  1.00  0.00     0.010 C 
BRANCH  20  21
HETATM   21  C6  UNL     1      14.674  38.768 -12.013  1.00  0.00     0.044 C 
BRANCH  21  22
HETATM   22  C5  UNL     1      14.163  39.119 -13.383  1.00  0.00     0.057 C 
BRANCH  22  23
HETATM   23  N1  UNL     1      14.533  38.256 -14.395  1.00  0.00    -0.398 N 
HETATM   24  C1  UNL     1      14.495  38.624 -15.753  1.00  0.00     0.148 C 
BRANCH  23  25
HETATM   25  C2  UNL     1      14.706  36.873 -14.136  1.00  0.00     0.123 C 
BRANCH  25  26
HETATM   26  C3  UNL     1      13.461  36.053 -14.058  1.00  0.00     0.047 C 
BRANCH  26  27
HETATM   27  C4  UNL     1      13.245  35.392 -12.721  1.00  0.00     0.231 C 
BRANCH  27  28
HETATM   28  N2  UNL     1      14.493  35.052 -12.073  1.00  0.00    -0.079 N 
ATOM     29  H23 UNL     1      14.802  35.800 -11.453  1.00  0.00     0.274 HD
ATOM     30  H22 UNL     1      14.360  34.314 -11.382  1.00  0.00     0.274 HD
ATOM     31  H21 UNL     1      15.220  34.804 -12.744  1.00  0.00     0.274 HD
ENDBRANCH  27  28
ENDBRANCH  26  27
ENDBRANCH  25  26
ENDBRANCH  23  25
ENDBRANCH  22  23
ENDBRANCH  21  22
ENDBRANCH  20  21
ENDBRANCH  19  20
ENDBRANCH  17  19
ENDBRANCH   1  16
BRANCH  12  32
HETATM   32  C14 UNL     1      10.606  38.592  -3.285  1.00  0.00     0.128 C 
HETATM   33  C15 UNL     1       9.387  37.688  -3.236  1.00  0.00     0.170 C 
HETATM   34  C16 UNL     1       8.841  37.772  -1.834  1.00  0.00     0.153 C 
HETATM   35  C17 UNL     1       9.981  38.311  -1.004  1.00  0.00     0.024 A 
HETATM   36  C18 UNL     1      10.048  39.856  -1.046  1.00  0.00     0.015 A 
HETATM   37  C19 UNL     1      10.902  39.051  -1.908  1.00  0.00     0.018 A 
BRANCH  33  38
HETATM   38  O1  UNL     1       8.491  38.110  -4.203  1.00  0.00    -0.391 OA
ATOM     39  H1  UNL     1       7.660  37.674  -4.053  1.00  0.00     0.210 HD
ENDBRANCH  33  38
BRANCH  34  40
HETATM   40  O2  UNL     1       8.356  36.573  -1.356  1.00  0.00    -0.393 OA
ATOM     41  H2  UNL     1       7.409  36.545  -1.285  1.00  0.00     0.210 HD
ENDBRANCH  34  40
ENDBRANCH  12  32
TORSDOF 13
ENDMDL
