MODEL 1
REMARK VINA RESULT: -9.733396153      0.000      0.000
REMARK  5 active torsions:
REMARK  status: ('A' for Active; 'I' for Inactive)
REMARK    1  A    between atoms: C3_4  and  O2_5 
REMARK    2  A    between atoms: O2_5  and  C4_6 
REMARK    3  A    between atoms: C4_6  and  C5_7 
REMARK    4  A    between atoms: C12_14  and  C13_15 
REMARK    5  A    between atoms: C16_18  and  C17_19 
ROOT
HETATM    1  O1  UNL     1      32.829  30.751  50.109  1.00  0.00    -0.293 OA
HETATM    2  C1  UNL     1      32.968  30.140  51.172  1.00  0.00     0.159 C 
HETATM    3  C2  UNL     1      31.837  29.677  51.958  1.00  0.00     0.088 C 
HETATM    4  C3  UNL     1      31.950  28.611  52.728  1.00  0.00     0.086 C 
HETATM    5  C11 UNL     1      33.218  27.831  52.828  1.00  0.00     0.044 C 
HETATM    6  C12 UNL     1      33.282  26.767  53.575  1.00  0.00     0.029 C 
HETATM    7  C23 UNL     1      34.293  28.333  52.013  1.00  0.00     0.169 C 
HETATM    8  O5  UNL     1      35.171  27.589  51.529  1.00  0.00    -0.292 OA
HETATM    9  C24 UNL     1      34.335  29.822  51.745  1.00  0.00     0.167 C 
ENDROOT
BRANCH   4  10
HETATM   10  O2  UNL     1      30.898  28.134  53.498  1.00  0.00    -0.346 OA
BRANCH  10  11
HETATM   11  C4  UNL     1      30.260  29.036  54.382  1.00  0.00     0.214 C 
BRANCH  11  12
HETATM   12  C5  UNL     1      30.683  28.859  55.793  1.00  0.00    -0.034 A 
HETATM   13  C6  UNL     1      32.021  28.887  56.127  1.00  0.00     0.009 A 
HETATM   14  C7  UNL     1      32.484  28.733  57.420  1.00  0.00     0.001 A 
HETATM   15  C8  UNL     1      31.521  28.544  58.392  1.00  0.00     0.000 A 
HETATM   16  C9  UNL     1      30.175  28.507  58.114  1.00  0.00     0.001 A 
HETATM   17  C10 UNL     1      29.772  28.667  56.808  1.00  0.00     0.009 A 
ENDBRANCH  11  12
ENDBRANCH  10  11
ENDBRANCH   4  10
BRANCH   6  18
HETATM   18  C13 UNL     1      34.456  25.947  53.750  1.00  0.00    -0.035 A 
HETATM   19  C14 UNL     1      34.648  24.734  53.099  1.00  0.00     0.012 A 
HETATM   20  C15 UNL     1      35.776  23.974  53.283  1.00  0.00     0.012 A 
HETATM   21  C16 UNL     1      36.788  24.394  54.142  1.00  0.00    -0.035 A 
HETATM   22  C21 UNL     1      36.624  25.579  54.793  1.00  0.00     0.012 A 
HETATM   23  C22 UNL     1      35.489  26.322  54.593  1.00  0.00     0.012 A 
BRANCH  21  24
HETATM   24  C17 UNL     1      37.983  23.582  54.346  1.00  0.00     0.036 C 
HETATM   25  C18 UNL     1      39.141  23.766  53.796  1.00  0.00     0.079 A 
HETATM   26  S1  UNL     1      39.562  25.059  52.651  1.00  0.00    -0.024 SA
HETATM   27  C20 UNL     1      40.354  23.004  53.951  1.00  0.00     0.266 A 
HETATM   28  C19 UNL     1      41.321  24.707  52.592  1.00  0.00     0.291 A 
HETATM   29  O3  UNL     1      42.191  25.412  52.012  1.00  0.00    -0.260 OA
HETATM   30  N1  UNL     1      41.476  23.508  53.319  1.00  0.00    -0.283 N 
ATOM     31  H1  UNL     1      42.377  23.033  53.377  1.00  0.00     0.172 HD
HETATM   32  O4  UNL     1      40.352  21.922  54.647  1.00  0.00    -0.267 OA
ENDBRANCH  21  24
ENDBRANCH   6  18
TORSDOF 5
ENDMDL
MODEL 2
REMARK VINA RESULT: -9.525023624      1.750      2.067
REMARK  5 active torsions:
REMARK  status: ('A' for Active; 'I' for Inactive)
REMARK    1  A    between atoms: C3_4  and  O2_5 
REMARK    2  A    between atoms: O2_5  and  C4_6 
REMARK    3  A    between atoms: C4_6  and  C5_7 
REMARK    4  A    between atoms: C12_14  and  C13_15 
REMARK    5  A    between atoms: C16_18  and  C17_19 
ROOT
HETATM    1  O1  UNL     1      29.928  26.949  50.478  1.00  0.00    -0.293 OA
HETATM    2  C1  UNL     1      30.840  27.306  51.230  1.00  0.00     0.159 C 
HETATM    3  C2  UNL     1      30.600  28.103  52.421  1.00  0.00     0.088 C 
HETATM    4  C3  UNL     1      31.410  28.012  53.459  1.00  0.00     0.086 C 
HETATM    5  C11 UNL     1      32.590  27.100  53.472  1.00  0.00     0.044 C 
HETATM    6  C12 UNL     1      33.349  27.016  54.527  1.00  0.00     0.029 C 
HETATM    7  C23 UNL     1      32.762  26.329  52.269  1.00  0.00     0.169 C 
HETATM    8  O5  UNL     1      33.276  25.191  52.269  1.00  0.00    -0.292 OA
HETATM    9  C24 UNL     1      32.288  26.942  50.968  1.00  0.00     0.167 C 
ENDROOT
BRANCH   4  10
HETATM   10  O2  UNL     1      31.223  28.756  54.617  1.00  0.00    -0.346 OA
BRANCH  10  11
HETATM   11  C4  UNL     1      29.917  29.222  54.902  1.00  0.00     0.214 C 
BRANCH  11  12
HETATM   12  C5  UNL     1      29.560  29.101  56.336  1.00  0.00    -0.034 A 
HETATM   13  C6  UNL     1      28.250  29.247  56.743  1.00  0.00     0.009 A 
HETATM   14  C7  UNL     1      27.848  29.143  58.061  1.00  0.00     0.001 A 
HETATM   15  C8  UNL     1      28.843  28.877  58.981  1.00  0.00     0.000 A 
HETATM   16  C9  UNL     1      30.163  28.722  58.631  1.00  0.00     0.001 A 
HETATM   17  C10 UNL     1      30.506  28.837  57.302  1.00  0.00     0.009 A 
ENDBRANCH  11  12
ENDBRANCH  10  11
ENDBRANCH   4  10
BRANCH   6  18
HETATM   18  C13 UNL     1      34.516  26.176  54.642  1.00  0.00    -0.035 A 
HETATM   19  C14 UNL     1      34.465  24.841  55.030  1.00  0.00     0.012 A 
HETATM   20  C15 UNL     1      35.592  24.064  55.131  1.00  0.00     0.012 A 
HETATM   21  C16 UNL     1      36.849  24.588  54.845  1.00  0.00    -0.035 A 
HETATM   22  C21 UNL     1      36.927  25.893  54.463  1.00  0.00     0.012 A 
HETATM   23  C22 UNL     1      35.788  26.651  54.369  1.00  0.00     0.012 A 
BRANCH  21  24
HETATM   24  C17 UNL     1      38.048  23.765  54.962  1.00  0.00     0.036 C 
HETATM   25  C18 UNL     1      39.119  23.860  54.239  1.00  0.00     0.079 A 
HETATM   26  S1  UNL     1      39.393  25.021  52.921  1.00  0.00    -0.024 SA
HETATM   27  C20 UNL     1      40.330  23.081  54.300  1.00  0.00     0.266 A 
HETATM   28  C19 UNL     1      41.120  24.612  52.653  1.00  0.00     0.291 A 
HETATM   29  O3  UNL     1      41.910  25.231  51.889  1.00  0.00    -0.260 OA
HETATM   30  N1  UNL     1      41.359  23.487  53.470  1.00  0.00    -0.283 N 
ATOM     31  H1  UNL     1      42.252  22.994  53.449  1.00  0.00     0.172 HD
HETATM   32  O4  UNL     1      40.410  22.074  55.096  1.00  0.00    -0.267 OA
ENDBRANCH  21  24
ENDBRANCH   6  18
TORSDOF 5
ENDMDL
MODEL 3
REMARK VINA RESULT: -9.355463308      4.164      9.869
REMARK  5 active torsions:
REMARK  status: ('A' for Active; 'I' for Inactive)
REMARK    1  A    between atoms: C3_4  and  O2_5 
REMARK    2  A    between atoms: O2_5  and  C4_6 
REMARK    3  A    between atoms: C4_6  and  C5_7 
REMARK    4  A    between atoms: C12_14  and  C13_15 
REMARK    5  A    between atoms: C16_18  and  C17_19 
ROOT
HETATM    1  O1  UNL     1      36.292  20.896  56.004  1.00  0.00    -0.293 OA
HETATM    2  C1  UNL     1      36.331  22.120  55.849  1.00  0.00     0.159 C 
HETATM    3  C2  UNL     1      37.343  22.771  55.034  1.00  0.00     0.088 C 
HETATM    4  C3  UNL     1      37.082  23.918  54.435  1.00  0.00     0.086 C 
HETATM    5  C11 UNL     1      35.758  24.595  54.552  1.00  0.00     0.044 C 
HETATM    6  C12 UNL     1      35.528  25.710  53.921  1.00  0.00     0.029 C 
HETATM    7  C23 UNL     1      34.796  23.891  55.360  1.00  0.00     0.169 C 
HETATM    8  O5  UNL     1      33.568  23.953  55.147  1.00  0.00    -0.292 OA
HETATM    9  C24 UNL     1      35.322  23.045  56.500  1.00  0.00     0.167 C 
ENDROOT
BRANCH   4  10
HETATM   10  O2  UNL     1      38.018  24.577  53.650  1.00  0.00    -0.346 OA
BRANCH  10  11
HETATM   11  C4  UNL     1      39.372  24.181  53.757  1.00  0.00     0.214 C 
BRANCH  11  12
HETATM   12  C5  UNL     1      40.283  25.004  52.924  1.00  0.00    -0.034 A 
HETATM   13  C6  UNL     1      39.830  26.170  52.341  1.00  0.00     0.009 A 
HETATM   14  C7  UNL     1      40.624  26.985  51.558  1.00  0.00     0.001 A 
HETATM   15  C8  UNL     1      41.930  26.570  51.378  1.00  0.00     0.000 A 
HETATM   16  C9  UNL     1      42.432  25.418  51.935  1.00  0.00     0.001 A 
HETATM   17  C10 UNL     1      41.594  24.645  52.707  1.00  0.00     0.009 A 
ENDBRANCH  11  12
ENDBRANCH  10  11
ENDBRANCH   4  10
BRANCH   6  18
HETATM   18  C13 UNL     1      34.291  26.451  53.972  1.00  0.00    -0.035 A 
HETATM   19  C14 UNL     1      33.299  26.353  53.002  1.00  0.00     0.012 A 
HETATM   20  C15 UNL     1      32.130  27.069  53.075  1.00  0.00     0.012 A 
HETATM   21  C16 UNL     1      31.888  27.933  54.139  1.00  0.00    -0.035 A 
HETATM   22  C21 UNL     1      32.843  28.047  55.103  1.00  0.00     0.012 A 
HETATM   23  C22 UNL     1      34.004  27.322  55.009  1.00  0.00     0.012 A 
BRANCH  21  24
HETATM   24  C17 UNL     1      30.649  28.702  54.212  1.00  0.00     0.036 C 
HETATM   25  C18 UNL     1      29.770  28.655  55.163  1.00  0.00     0.079 A 
HETATM   26  S1  UNL     1      29.856  27.639  56.619  1.00  0.00    -0.024 SA
HETATM   27  C20 UNL     1      28.533  29.381  55.295  1.00  0.00     0.266 A 
HETATM   28  C19 UNL     1      28.425  28.345  57.439  1.00  0.00     0.291 A 
HETATM   29  O3  UNL     1      28.056  28.093  58.618  1.00  0.00    -0.260 OA
HETATM   30  N1  UNL     1      27.848  29.209  56.483  1.00  0.00    -0.283 N 
ATOM     31  H1  UNL     1      26.963  29.685  56.662  1.00  0.00     0.172 HD
HETATM   32  O4  UNL     1      28.123  30.138  54.338  1.00  0.00    -0.267 OA
ENDBRANCH  21  24
ENDBRANCH   6  18
TORSDOF 5
ENDMDL
MODEL 4
REMARK VINA RESULT: -9.268101889      3.912      8.500
REMARK  5 active torsions:
REMARK  status: ('A' for Active; 'I' for Inactive)
REMARK    1  A    between atoms: C3_4  and  O2_5 
REMARK    2  A    between atoms: O2_5  and  C4_6 
REMARK    3  A    between atoms: C4_6  and  C5_7 
REMARK    4  A    between atoms: C12_14  and  C13_15 
REMARK    5  A    between atoms: C16_18  and  C17_19 
ROOT
HETATM    1  O1  UNL     1      38.141  29.653  48.831  1.00  0.00    -0.293 OA
HETATM    2  C1  UNL     1      37.609  28.653  49.321  1.00  0.00     0.159 C 
HETATM    3  C2  UNL     1      38.367  27.471  49.696  1.00  0.00     0.088 C 
HETATM    4  C3  UNL     1      37.943  26.687  50.669  1.00  0.00     0.086 C 
HETATM    5  C11 UNL     1      36.692  26.967  51.431  1.00  0.00     0.044 C 
HETATM    6  C12 UNL     1      36.323  26.187  52.406  1.00  0.00     0.029 C 
HETATM    7  C23 UNL     1      35.998  28.160  51.021  1.00  0.00     0.169 C 
HETATM    8  O5  UNL     1      35.320  28.847  51.813  1.00  0.00    -0.292 OA
HETATM    9  C24 UNL     1      36.116  28.578  49.571  1.00  0.00     0.167 C 
ENDROOT
BRANCH   4  10
HETATM   10  O2  UNL     1      38.633  25.547  51.059  1.00  0.00    -0.346 OA
BRANCH  10  11
HETATM   11  C4  UNL     1      39.721  25.701  51.951  1.00  0.00     0.214 C 
BRANCH  11  12
HETATM   12  C5  UNL     1      39.730  24.685  53.032  1.00  0.00    -0.034 A 
HETATM   13  C6  UNL     1      38.709  24.647  53.961  1.00  0.00     0.009 A 
HETATM   14  C7  UNL     1      38.654  23.727  54.990  1.00  0.00     0.001 A 
HETATM   15  C8  UNL     1      39.694  22.819  55.051  1.00  0.00     0.000 A 
HETATM   16  C9  UNL     1      40.734  22.813  54.153  1.00  0.00     0.001 A 
HETATM   17  C10 UNL     1      40.737  23.753  53.148  1.00  0.00     0.009 A 
ENDBRANCH  11  12
ENDBRANCH  10  11
ENDBRANCH   4  10
BRANCH   6  18
HETATM   18  C13 UNL     1      35.131  26.360  53.199  1.00  0.00    -0.035 A 
HETATM   19  C14 UNL     1      33.866  25.966  52.776  1.00  0.00     0.012 A 
HETATM   20  C15 UNL     1      32.747  26.141  53.551  1.00  0.00     0.012 A 
HETATM   21  C16 UNL     1      32.835  26.727  54.810  1.00  0.00    -0.035 A 
HETATM   22  C21 UNL     1      34.062  27.123  55.249  1.00  0.00     0.012 A 
HETATM   23  C22 UNL     1      35.167  26.938  54.456  1.00  0.00     0.012 A 
BRANCH  21  24
HETATM   24  C17 UNL     1      31.644  26.923  55.631  1.00  0.00     0.036 C 
HETATM   25  C18 UNL     1      30.716  27.807  55.441  1.00  0.00     0.079 A 
HETATM   26  S1  UNL     1      30.665  29.006  54.129  1.00  0.00    -0.024 SA
HETATM   27  C20 UNL     1      29.523  28.053  56.210  1.00  0.00     0.266 A 
HETATM   28  C19 UNL     1      29.018  29.621  54.488  1.00  0.00     0.291 A 
HETATM   29  O3  UNL     1      28.368  30.434  53.776  1.00  0.00    -0.260 OA
HETATM   30  N1  UNL     1      28.652  28.998  55.700  1.00  0.00    -0.283 N 
ATOM     31  H1  UNL     1      27.783  29.235  56.179  1.00  0.00     0.172 HD
HETATM   32  O4  UNL     1      29.316  27.409  57.304  1.00  0.00    -0.267 OA
ENDBRANCH  21  24
ENDBRANCH   6  18
TORSDOF 5
ENDMDL
MODEL 5
REMARK VINA RESULT: -9.218114152      3.919      9.427
REMARK  5 active torsions:
REMARK  status: ('A' for Active; 'I' for Inactive)
REMARK    1  A    between atoms: C3_4  and  O2_5 
REMARK    2  A    between atoms: O2_5  and  C4_6 
REMARK    3  A    between atoms: C4_6  and  C5_7 
REMARK    4  A    between atoms: C12_14  and  C13_15 
REMARK    5  A    between atoms: C16_18  and  C17_19 
ROOT
HETATM    1  O1  UNL     1      35.513  20.583  55.752  1.00  0.00    -0.293 OA
HETATM    2  C1  UNL     1      35.696  21.799  55.858  1.00  0.00     0.159 C 
HETATM    3  C2  UNL     1      37.016  22.400  55.765  1.00  0.00     0.088 C 
HETATM    4  C3  UNL     1      37.157  23.638  55.332  1.00  0.00     0.086 C 
HETATM    5  C11 UNL     1      35.994  24.473  54.912  1.00  0.00     0.044 C 
HETATM    6  C12 UNL     1      36.176  25.680  54.460  1.00  0.00     0.029 C 
HETATM    7  C23 UNL     1      34.718  23.814  55.013  1.00  0.00     0.169 C 
HETATM    8  O5  UNL     1      33.767  24.074  54.248  1.00  0.00    -0.292 OA
HETATM    9  C24 UNL     1      34.553  22.766  56.093  1.00  0.00     0.167 C 
ENDROOT
BRANCH   4  10
HETATM   10  O2  UNL     1      38.397  24.254  55.229  1.00  0.00    -0.346 OA
BRANCH  10  11
HETATM   11  C4  UNL     1      39.390  23.621  54.445  1.00  0.00     0.214 C 
BRANCH  11  12
HETATM   12  C5  UNL     1      40.001  24.529  53.444  1.00  0.00    -0.034 A 
HETATM   13  C6  UNL     1      39.266  25.563  52.901  1.00  0.00     0.009 A 
HETATM   14  C7  UNL     1      39.774  26.446  51.968  1.00  0.00     0.001 A 
HETATM   15  C8  UNL     1      41.087  26.244  51.590  1.00  0.00     0.000 A 
HETATM   16  C9  UNL     1      41.863  25.230  52.098  1.00  0.00     0.001 A 
HETATM   17  C10 UNL     1      41.305  24.380  53.026  1.00  0.00     0.009 A 
ENDBRANCH  11  12
ENDBRANCH  10  11
ENDBRANCH   4  10
BRANCH   6  18
HETATM   18  C13 UNL     1      35.125  26.574  54.038  1.00  0.00    -0.035 A 
HETATM   19  C14 UNL     1      34.161  27.084  54.901  1.00  0.00     0.012 A 
HETATM   20  C15 UNL     1      33.172  27.934  54.473  1.00  0.00     0.012 A 
HETATM   21  C16 UNL     1      33.094  28.326  53.140  1.00  0.00    -0.035 A 
HETATM   22  C21 UNL     1      34.026  27.840  52.274  1.00  0.00     0.012 A 
HETATM   23  C22 UNL     1      35.005  26.992  52.724  1.00  0.00     0.012 A 
BRANCH  21  24
HETATM   24  C17 UNL     1      32.036  29.221  52.683  1.00  0.00     0.036 C 
HETATM   25  C18 UNL     1      31.024  28.901  51.940  1.00  0.00     0.079 A 
HETATM   26  S1  UNL     1      30.673  27.283  51.292  1.00  0.00    -0.024 SA
HETATM   27  C20 UNL     1      29.952  29.732  51.454  1.00  0.00     0.266 A 
HETATM   28  C19 UNL     1      29.060  27.686  50.615  1.00  0.00     0.291 A 
HETATM   29  O3  UNL     1      28.244  26.861  50.122  1.00  0.00    -0.260 OA
HETATM   30  N1  UNL     1      28.941  29.084  50.768  1.00  0.00    -0.283 N 
ATOM     31  H1  UNL     1      28.143  29.595  50.390  1.00  0.00     0.172 HD
HETATM   32  O4  UNL     1      29.972  31.000  51.666  1.00  0.00    -0.267 OA
ENDBRANCH  21  24
ENDBRANCH   6  18
TORSDOF 5
ENDMDL
