MODEL 1
REMARK VINA RESULT: -10.359786215      0.000      0.000
REMARK  5 active torsions:
REMARK  status: ('A' for Active; 'I' for Inactive)
REMARK    1  A    between atoms: C6_7  and  C7_8 
REMARK    2  A    between atoms: C11_12  and  N1_13 
REMARK    3  A    between atoms: N1_13  and  S1_15 
REMARK    4  A    between atoms: S1_15  and  C12_18 
REMARK    5  A    between atoms: C17_23  and  N2_24 
ROOT
HETATM    1  C7  UNL     1      36.710  23.471  54.897  1.00  0.00    -0.024 A 
HETATM    2  C8  UNL     1      36.489  22.263  55.544  1.00  0.00     0.012 A 
HETATM    3  C9  UNL     1      35.292  21.923  56.075  1.00  0.00     0.003 A 
HETATM    4  C10 UNL     1      34.219  22.818  55.976  1.00  0.00     0.030 A 
HETATM    5  C11 UNL     1      34.388  24.017  55.351  1.00  0.00     0.043 A 
HETATM    6  C18 UNL     1      35.658  24.327  54.812  1.00  0.00     0.042 A 
ENDROOT
BRANCH   5   7
HETATM    7  N1  UNL     1      33.397  24.988  55.174  1.00  0.00    -0.281 N 
ATOM      8  H1  UNL     1      32.465  24.669  55.441  1.00  0.00     0.179 HD
BRANCH   7   9
HETATM    9  S1  UNL     1      33.424  26.579  54.609  1.00  0.00     0.265 S 
HETATM   10  O2  UNL     1      33.710  26.476  53.087  1.00  0.00    -0.200 OA
HETATM   11  O3  UNL     1      34.584  27.378  55.145  1.00  0.00    -0.200 OA
BRANCH   9  12
HETATM   12  C12 UNL     1      31.936  27.467  54.740  1.00  0.00     0.112 A 
HETATM   13  C13 UNL     1      31.439  28.093  53.574  1.00  0.00     0.028 A 
HETATM   14  C14 UNL     1      30.222  28.720  53.510  1.00  0.00     0.002 A 
HETATM   15  C15 UNL     1      29.431  28.749  54.635  1.00  0.00     0.003 A 
HETATM   16  C16 UNL     1      29.863  28.161  55.790  1.00  0.00     0.038 A 
HETATM   17  C17 UNL     1      31.125  27.519  55.838  1.00  0.00     0.126 A 
BRANCH  17  18
HETATM   18  N2  UNL     1      31.444  27.006  57.113  1.00  0.00    -0.114 N 
HETATM   19  O4  UNL     1      31.449  25.809  57.348  1.00  0.00    -0.532 OA
HETATM   20  O5  UNL     1      31.849  27.870  58.097  1.00  0.00    -0.532 OA
ENDBRANCH  17  18
ENDBRANCH   9  12
ENDBRANCH   7   9
ENDBRANCH   5   7
BRANCH   1  21
HETATM   21  C6  UNL     1      38.028  23.764  54.349  1.00  0.00    -0.025 A 
HETATM   22  C5  UNL     1      38.254  24.820  53.499  1.00  0.00     0.026 A 
HETATM   23  C4  UNL     1      39.532  25.074  52.989  1.00  0.00    -0.001 A 
HETATM   24  C3  UNL     1      39.761  26.128  52.141  1.00  0.00     0.020 A 
HETATM   25  C21 UNL     1      40.592  24.263  53.333  1.00  0.00     0.089 A 
HETATM   26  C2  UNL     1      41.047  26.332  51.667  1.00  0.00     0.083 A 
HETATM   27  C1  UNL     1      42.060  25.498  52.040  1.00  0.00     0.288 A 
HETATM   28  O1  UNL     1      43.208  25.733  51.577  1.00  0.00    -0.260 OA
HETATM   29  O6  UNL     1      41.812  24.506  52.846  1.00  0.00    -0.275 OA
HETATM   30  C20 UNL     1      40.372  23.207  54.180  1.00  0.00     0.039 A 
HETATM   31  C19 UNL     1      39.103  22.976  54.670  1.00  0.00     0.015 A 
ENDBRANCH   1  21
TORSDOF 5
ENDMDL
MODEL 2
REMARK VINA RESULT: -10.357305902      2.332      3.685
REMARK  5 active torsions:
REMARK  status: ('A' for Active; 'I' for Inactive)
REMARK    1  A    between atoms: C6_7  and  C7_8 
REMARK    2  A    between atoms: C11_12  and  N1_13 
REMARK    3  A    between atoms: N1_13  and  S1_15 
REMARK    4  A    between atoms: S1_15  and  C12_18 
REMARK    5  A    between atoms: C17_23  and  N2_24 
ROOT
HETATM    1  C7  UNL     1      39.189  23.929  54.098  1.00  0.00    -0.024 A 
HETATM    2  C8  UNL     1      39.750  22.718  54.480  1.00  0.00     0.012 A 
HETATM    3  C9  UNL     1      39.120  21.845  55.300  1.00  0.00     0.003 A 
HETATM    4  C10 UNL     1      37.848  22.163  55.793  1.00  0.00     0.030 A 
HETATM    5  C11 UNL     1      37.258  23.341  55.447  1.00  0.00     0.043 A 
HETATM    6  C18 UNL     1      37.956  24.221  54.587  1.00  0.00     0.042 A 
ENDROOT
BRANCH   5   7
HETATM    7  N1  UNL     1      35.991  23.767  55.858  1.00  0.00    -0.281 N 
ATOM      8  H1  UNL     1      36.011  24.344  56.699  1.00  0.00     0.179 HD
BRANCH   7   9
HETATM    9  S1  UNL     1      34.434  23.522  55.249  1.00  0.00     0.265 S 
HETATM   10  O2  UNL     1      33.883  22.283  56.004  1.00  0.00    -0.200 OA
HETATM   11  O3  UNL     1      34.423  23.103  53.802  1.00  0.00    -0.200 OA
BRANCH   9  12
HETATM   12  C12 UNL     1      33.286  24.792  55.545  1.00  0.00     0.112 A 
HETATM   13  C13 UNL     1      32.452  24.674  56.681  1.00  0.00     0.028 A 
HETATM   14  C14 UNL     1      31.591  25.655  57.095  1.00  0.00     0.002 A 
HETATM   15  C15 UNL     1      31.524  26.826  56.375  1.00  0.00     0.003 A 
HETATM   16  C16 UNL     1      32.305  26.993  55.267  1.00  0.00     0.038 A 
HETATM   17  C17 UNL     1      33.189  25.965  54.853  1.00  0.00     0.126 A 
BRANCH  17  18
HETATM   18  N2  UNL     1      33.888  26.272  53.666  1.00  0.00    -0.114 N 
HETATM   19  O4  UNL     1      35.018  26.732  53.680  1.00  0.00    -0.532 OA
HETATM   20  O5  UNL     1      33.318  25.964  52.458  1.00  0.00    -0.532 OA
ENDBRANCH  17  18
ENDBRANCH   9  12
ENDBRANCH   7   9
ENDBRANCH   5   7
BRANCH   1  21
HETATM   21  C6  UNL     1      39.929  24.816  53.209  1.00  0.00    -0.025 A 
HETATM   22  C5  UNL     1      41.267  24.646  52.945  1.00  0.00     0.026 A 
HETATM   23  C4  UNL     1      41.949  25.516  52.087  1.00  0.00    -0.001 A 
HETATM   24  C3  UNL     1      43.285  25.348  51.821  1.00  0.00     0.020 A 
HETATM   25  C21 UNL     1      41.285  26.564  51.488  1.00  0.00     0.089 A 
HETATM   26  C2  UNL     1      43.908  26.240  50.963  1.00  0.00     0.083 A 
HETATM   27  C1  UNL     1      43.202  27.261  50.398  1.00  0.00     0.288 A 
HETATM   28  O1  UNL     1      43.823  28.040  49.626  1.00  0.00    -0.260 OA
HETATM   29  O6  UNL     1      41.936  27.395  50.669  1.00  0.00    -0.275 OA
HETATM   30  C20 UNL     1      39.949  26.740  51.748  1.00  0.00     0.039 A 
HETATM   31  C19 UNL     1      39.298  25.869  52.598  1.00  0.00     0.015 A 
ENDBRANCH   1  21
TORSDOF 5
ENDMDL
MODEL 3
REMARK VINA RESULT: -10.285948548      2.927      9.252
REMARK  5 active torsions:
REMARK  status: ('A' for Active; 'I' for Inactive)
REMARK    1  A    between atoms: C6_7  and  C7_8 
REMARK    2  A    between atoms: C11_12  and  N1_13 
REMARK    3  A    between atoms: N1_13  and  S1_15 
REMARK    4  A    between atoms: S1_15  and  C12_18 
REMARK    5  A    between atoms: C17_23  and  N2_24 
ROOT
HETATM    1  C7  UNL     1      33.284  27.109  54.076  1.00  0.00    -0.024 A 
HETATM    2  C8  UNL     1      32.675  26.447  53.019  1.00  0.00     0.012 A 
HETATM    3  C9  UNL     1      33.374  25.833  52.036  1.00  0.00     0.003 A 
HETATM    4  C10 UNL     1      34.775  25.859  52.073  1.00  0.00     0.030 A 
HETATM    5  C11 UNL     1      35.418  26.498  53.091  1.00  0.00     0.043 A 
HETATM    6  C18 UNL     1      34.643  27.124  54.094  1.00  0.00     0.042 A 
ENDROOT
BRANCH   5   7
HETATM    7  N1  UNL     1      36.805  26.582  53.249  1.00  0.00    -0.281 N 
ATOM      8  H1  UNL     1      37.092  27.261  53.953  1.00  0.00     0.179 HD
BRANCH   7   9
HETATM    9  S1  UNL     1      38.102  25.790  52.512  1.00  0.00     0.265 S 
HETATM   10  O2  UNL     1      39.228  26.852  52.398  1.00  0.00    -0.200 OA
HETATM   11  O3  UNL     1      37.824  25.397  51.085  1.00  0.00    -0.200 OA
BRANCH   9  12
HETATM   12  C12 UNL     1      38.801  24.471  53.402  1.00  0.00     0.112 A 
HETATM   13  C13 UNL     1      40.204  24.300  53.331  1.00  0.00     0.028 A 
HETATM   14  C14 UNL     1      40.894  23.379  54.074  1.00  0.00     0.002 A 
HETATM   15  C15 UNL     1      40.196  22.570  54.943  1.00  0.00     0.003 A 
HETATM   16  C16 UNL     1      38.840  22.692  55.049  1.00  0.00     0.038 A 
HETATM   17  C17 UNL     1      38.143  23.648  54.271  1.00  0.00     0.126 A 
BRANCH  17  18
HETATM   18  N2  UNL     1      36.745  23.614  54.461  1.00  0.00    -0.114 N 
HETATM   19  O4  UNL     1      36.007  22.969  53.735  1.00  0.00    -0.532 OA
HETATM   20  O5  UNL     1      36.205  24.252  55.548  1.00  0.00    -0.532 OA
ENDBRANCH  17  18
ENDBRANCH   9  12
ENDBRANCH   7   9
ENDBRANCH   5   7
BRANCH   1  21
HETATM   21  C6  UNL     1      32.462  27.744  55.098  1.00  0.00    -0.025 A 
HETATM   22  C5  UNL     1      31.092  27.807  55.007  1.00  0.00     0.026 A 
HETATM   23  C4  UNL     1      30.331  28.425  56.005  1.00  0.00    -0.001 A 
HETATM   24  C3  UNL     1      28.963  28.489  55.917  1.00  0.00     0.020 A 
HETATM   25  C21 UNL     1      30.947  28.983  57.104  1.00  0.00     0.089 A 
HETATM   26  C2  UNL     1      28.260  29.113  56.935  1.00  0.00     0.083 A 
HETATM   27  C1  UNL     1      28.921  29.649  58.001  1.00  0.00     0.288 A 
HETATM   28  O1  UNL     1      28.229  30.204  58.897  1.00  0.00    -0.260 OA
HETATM   29  O6  UNL     1      30.220  29.573  58.058  1.00  0.00    -0.275 OA
HETATM   30  C20 UNL     1      32.314  28.923  57.201  1.00  0.00     0.039 A 
HETATM   31  C19 UNL     1      33.044  28.309  56.204  1.00  0.00     0.015 A 
ENDBRANCH   1  21
TORSDOF 5
ENDMDL
MODEL 4
REMARK VINA RESULT: -10.258751875      1.478      1.931
REMARK  5 active torsions:
REMARK  status: ('A' for Active; 'I' for Inactive)
REMARK    1  A    between atoms: C6_7  and  C7_8 
REMARK    2  A    between atoms: C11_12  and  N1_13 
REMARK    3  A    between atoms: N1_13  and  S1_15 
REMARK    4  A    between atoms: S1_15  and  C12_18 
REMARK    5  A    between atoms: C17_23  and  N2_24 
ROOT
HETATM    1  C7  UNL     1      37.336  23.620  54.572  1.00  0.00    -0.024 A 
HETATM    2  C8  UNL     1      37.260  22.613  55.525  1.00  0.00     0.012 A 
HETATM    3  C9  UNL     1      36.095  22.234  56.100  1.00  0.00     0.003 A 
HETATM    4  C10 UNL     1      34.906  22.877  55.728  1.00  0.00     0.030 A 
HETATM    5  C11 UNL     1      34.932  23.872  54.798  1.00  0.00     0.043 A 
HETATM    6  C18 UNL     1      36.174  24.232  54.226  1.00  0.00     0.042 A 
ENDROOT
BRANCH   5   7
HETATM    7  N1  UNL     1      33.818  24.577  54.333  1.00  0.00    -0.281 N 
ATOM      8  H1  UNL     1      33.314  24.094  53.590  1.00  0.00     0.179 HD
BRANCH   7   9
HETATM    9  S1  UNL     1      33.135  26.065  54.749  1.00  0.00     0.265 S 
HETATM   10  O2  UNL     1      34.325  26.962  55.184  1.00  0.00    -0.200 OA
HETATM   11  O3  UNL     1      32.263  25.995  55.976  1.00  0.00    -0.200 OA
BRANCH   9  12
HETATM   12  C12 UNL     1      32.346  26.933  53.468  1.00  0.00     0.112 A 
HETATM   13  C13 UNL     1      32.467  26.421  52.155  1.00  0.00     0.028 A 
HETATM   14  C14 UNL     1      31.800  26.938  51.075  1.00  0.00     0.002 A 
HETATM   15  C15 UNL     1      30.963  28.013  51.265  1.00  0.00     0.003 A 
HETATM   16  C16 UNL     1      30.811  28.549  52.512  1.00  0.00     0.038 A 
HETATM   17  C17 UNL     1      31.511  28.004  53.616  1.00  0.00     0.126 A 
BRANCH  17  18
HETATM   18  N2  UNL     1      31.284  28.700  54.822  1.00  0.00    -0.114 N 
HETATM   19  O4  UNL     1      32.135  29.410  55.332  1.00  0.00    -0.532 OA
HETATM   20  O5  UNL     1      30.040  28.650  55.396  1.00  0.00    -0.532 OA
ENDBRANCH  17  18
ENDBRANCH   9  12
ENDBRANCH   7   9
ENDBRANCH   5   7
BRANCH   1  21
HETATM   21  C6  UNL     1      38.629  23.970  53.996  1.00  0.00    -0.025 A 
HETATM   22  C5  UNL     1      38.806  25.076  53.201  1.00  0.00     0.026 A 
HETATM   23  C4  UNL     1      40.060  25.385  52.663  1.00  0.00    -0.001 A 
HETATM   24  C3  UNL     1      40.239  26.490  51.869  1.00  0.00     0.020 A 
HETATM   25  C21 UNL     1      41.146  24.577  52.923  1.00  0.00     0.089 A 
HETATM   26  C2  UNL     1      41.504  26.746  51.364  1.00  0.00     0.083 A 
HETATM   27  C1  UNL     1      42.544  25.912  51.653  1.00  0.00     0.288 A 
HETATM   28  O1  UNL     1      43.671  26.197  51.165  1.00  0.00    -0.260 OA
HETATM   29  O6  UNL     1      42.344  24.872  52.409  1.00  0.00    -0.275 OA
HETATM   30  C20 UNL     1      40.976  23.470  53.716  1.00  0.00     0.039 A 
HETATM   31  C19 UNL     1      39.729  23.187  54.235  1.00  0.00     0.015 A 
ENDBRANCH   1  21
TORSDOF 5
ENDMDL
MODEL 5
REMARK VINA RESULT: -10.126621269      1.757      2.100
REMARK  5 active torsions:
REMARK  status: ('A' for Active; 'I' for Inactive)
REMARK    1  A    between atoms: C6_7  and  C7_8 
REMARK    2  A    between atoms: C11_12  and  N1_13 
REMARK    3  A    between atoms: N1_13  and  S1_15 
REMARK    4  A    between atoms: S1_15  and  C12_18 
REMARK    5  A    between atoms: C17_23  and  N2_24 
ROOT
HETATM    1  C7  UNL     1      37.300  23.542  54.662  1.00  0.00    -0.024 A 
HETATM    2  C8  UNL     1      37.259  22.505  55.584  1.00  0.00     0.012 A 
HETATM    3  C9  UNL     1      36.114  22.097  56.179  1.00  0.00     0.003 A 
HETATM    4  C10 UNL     1      34.910  22.740  55.862  1.00  0.00     0.030 A 
HETATM    5  C11 UNL     1      34.901  23.765  54.964  1.00  0.00     0.043 A 
HETATM    6  C18 UNL     1      36.123  24.154  54.369  1.00  0.00     0.042 A 
ENDROOT
BRANCH   5   7
HETATM    7  N1  UNL     1      33.768  24.474  54.554  1.00  0.00    -0.281 N 
ATOM      8  H1  UNL     1      32.922  23.906  54.524  1.00  0.00     0.179 HD
BRANCH   7   9
HETATM    9  S1  UNL     1      33.512  26.080  54.097  1.00  0.00     0.265 S 
HETATM   10  O2  UNL     1      32.939  26.017  52.656  1.00  0.00    -0.200 OA
HETATM   11  O3  UNL     1      34.790  26.865  53.948  1.00  0.00    -0.200 OA
BRANCH   9  12
HETATM   12  C12 UNL     1      32.337  26.964  55.022  1.00  0.00     0.112 A 
HETATM   13  C13 UNL     1      31.907  26.402  56.247  1.00  0.00     0.028 A 
HETATM   14  C14 UNL     1      31.079  27.047  57.128  1.00  0.00     0.002 A 
HETATM   15  C15 UNL     1      30.634  28.312  56.816  1.00  0.00     0.003 A 
HETATM   16  C16 UNL     1      31.017  28.901  55.645  1.00  0.00     0.038 A 
HETATM   17  C17 UNL     1      31.872  28.218  54.745  1.00  0.00     0.126 A 
BRANCH  17  18
HETATM   18  N2  UNL     1      32.133  28.941  53.562  1.00  0.00    -0.114 N 
HETATM   19  O4  UNL     1      33.112  29.659  53.444  1.00  0.00    -0.532 OA
HETATM   20  O5  UNL     1      31.312  28.766  52.479  1.00  0.00    -0.532 OA
ENDBRANCH  17  18
ENDBRANCH   9  12
ENDBRANCH   7   9
ENDBRANCH   5   7
BRANCH   1  21
HETATM   21  C6  UNL     1      38.572  23.923  54.062  1.00  0.00    -0.025 A 
HETATM   22  C5  UNL     1      38.711  25.043  53.278  1.00  0.00     0.026 A 
HETATM   23  C4  UNL     1      39.948  25.380  52.715  1.00  0.00    -0.001 A 
HETATM   24  C3  UNL     1      40.089  26.498  51.933  1.00  0.00     0.020 A 
HETATM   25  C21 UNL     1      41.053  24.588  52.940  1.00  0.00     0.089 A 
HETATM   26  C2  UNL     1      41.337  26.783  51.402  1.00  0.00     0.083 A 
HETATM   27  C1  UNL     1      42.398  25.965  51.657  1.00  0.00     0.288 A 
HETATM   28  O1  UNL     1      43.508  26.275  51.147  1.00  0.00    -0.260 OA
HETATM   29  O6  UNL     1      42.233  24.911  52.403  1.00  0.00    -0.275 OA
HETATM   30  C20 UNL     1      40.920  23.469  53.722  1.00  0.00     0.039 A 
HETATM   31  C19 UNL     1      39.691  23.156  54.266  1.00  0.00     0.015 A 
ENDBRANCH   1  21
TORSDOF 5
ENDMDL
