MODEL 1
REMARK VINA RESULT: -7.166600231      0.000      0.000
REMARK  11 active torsions:
REMARK  status: ('A' for Active; 'I' for Inactive)
REMARK    1  A    between atoms: N1_1  and  N2_4 
REMARK    2  A    between atoms: N2_4  and  C1_6 
REMARK    3  A    between atoms: C1_6  and  N3_7 
REMARK    4  A    between atoms: C1_6  and  C3_12 
REMARK       I    between atoms: N3_7  and  C2_9 
REMARK    5  A    between atoms: C3_12  and  N6_13 
REMARK    6  A    between atoms: C3_12  and  C6_28 
REMARK    7  A    between atoms: N6_13  and  C4_15 
REMARK    8  A    between atoms: C5_20  and  S1_21 
REMARK    9  A    between atoms: S1_21  and  N9_22 
REMARK   10  A    between atoms: C6_28  and  O4_29 
REMARK   11  A    between atoms: C6_28  and  O5_31 
ROOT
HETATM    1  C3  UNL     1       4.337  23.572   2.659  1.00  0.00     0.209 C 
ENDROOT
BRANCH   1   2
HETATM    2  C1  UNL     1       3.052  23.879   3.323  1.00  0.00     0.125 C 
BRANCH   2   3
HETATM    3  N2  UNL     1       2.655  25.095   3.397  1.00  0.00    -0.294 N 
ATOM      4  H2  UNL     1       2.240  25.444   4.262  1.00  0.00     0.187 HD
BRANCH   3   5
HETATM    5  N1  UNL     1       2.790  25.941   2.298  1.00  0.00    -0.344 N 
ATOM      6  H12 UNL     1       3.658  26.463   2.179  1.00  0.00     0.176 HD
ATOM      7  H11 UNL     1       2.027  26.031   1.627  1.00  0.00     0.176 HD
ENDBRANCH   3   5
ENDBRANCH   2   3
BRANCH   2   8
HETATM    8  N3  UNL     1       2.260  22.828   3.876  1.00  0.00    -0.320 N 
HETATM    9  C2  UNL     1       2.145  22.655   5.151  1.00  0.00     0.202 C 
HETATM   10  N4  UNL     1       2.793  23.495   6.094  1.00  0.00    -0.066 NA
HETATM   11  N5  UNL     1       1.339  21.587   5.594  1.00  0.00    -0.066 NA
ATOM     12  H3  UNL     1       1.771  22.193   3.246  1.00  0.00     0.169 HD
ENDBRANCH   2   8
ENDBRANCH   1   2
BRANCH   1  13
HETATM   13  N6  UNL     1       4.332  22.195   2.294  1.00  0.00    -0.338 N 
ATOM     14  H6  UNL     1       3.426  21.729   2.334  1.00  0.00     0.164 HD
BRANCH  13  15
HETATM   15  C4  UNL     1       5.302  21.479   1.928  1.00  0.00     0.242 A 
HETATM   16  N7  UNL     1       6.398  21.971   1.325  1.00  0.00    -0.262 N 
HETATM   17  N8  UNL     1       7.228  20.976   1.068  1.00  0.00    -0.265 N 
ATOM     18  H7  UNL     1       6.561  22.954   1.103  1.00  0.00     0.190 HD
HETATM   19  C5  UNL     1       6.651  19.846   1.513  1.00  0.00     0.284 A 
ATOM     20  H8  UNL     1       8.138  21.052   0.615  1.00  0.00     0.190 HD
HETATM   21  O3  UNL     1       5.496  20.189   2.022  1.00  0.00    -0.248 OA
BRANCH  19  22
HETATM   22  S1  UNL     1       7.391  18.276   1.382  1.00  0.00     0.297 S 
HETATM   23  O1  UNL     1       7.889  17.777   2.706  1.00  0.00    -0.197 OA
HETATM   24  O2  UNL     1       6.357  17.299   0.907  1.00  0.00    -0.197 OA
BRANCH  22  25
HETATM   25  N9  UNL     1       8.679  18.327   0.244  1.00  0.00    -0.321 N 
ATOM     26  H92 UNL     1       9.113  19.186  -0.093  1.00  0.00     0.169 HD
ATOM     27  H91 UNL     1       8.935  17.380  -0.034  1.00  0.00     0.169 HD
ENDBRANCH  22  25
ENDBRANCH  19  22
ENDBRANCH  13  15
ENDBRANCH   1  13
BRANCH   1  28
HETATM   28  C6  UNL     1       5.441  23.973   3.590  1.00  0.00     0.284 C 
BRANCH  28  29
HETATM   29  O4  UNL     1       5.423  25.361   3.722  1.00  0.00    -0.369 OA
ATOM     30  H4  UNL     1       6.309  25.657   3.897  1.00  0.00     0.212 HD
ENDBRANCH  28  29
BRANCH  28  31
HETATM   31  O5  UNL     1       5.417  23.354   4.805  1.00  0.00    -0.369 OA
ATOM     32  H5  UNL     1       5.638  23.913   5.541  1.00  0.00     0.212 HD
ENDBRANCH  28  31
ENDBRANCH   1  28
TORSDOF 11
ENDMDL
MODEL 2
REMARK VINA RESULT: -7.000924174      1.926      2.890
REMARK  11 active torsions:
REMARK  status: ('A' for Active; 'I' for Inactive)
REMARK    1  A    between atoms: N1_1  and  N2_4 
REMARK    2  A    between atoms: N2_4  and  C1_6 
REMARK    3  A    between atoms: C1_6  and  N3_7 
REMARK    4  A    between atoms: C1_6  and  C3_12 
REMARK       I    between atoms: N3_7  and  C2_9 
REMARK    5  A    between atoms: C3_12  and  N6_13 
REMARK    6  A    between atoms: C3_12  and  C6_28 
REMARK    7  A    between atoms: N6_13  and  C4_15 
REMARK    8  A    between atoms: C5_20  and  S1_21 
REMARK    9  A    between atoms: S1_21  and  N9_22 
REMARK   10  A    between atoms: C6_28  and  O4_29 
REMARK   11  A    between atoms: C6_28  and  O5_31 
ROOT
HETATM    1  C3  UNL     1       4.105  21.647   3.512  1.00  0.00     0.209 C 
ENDROOT
BRANCH   1   2
HETATM    2  C1  UNL     1       4.595  23.032   3.679  1.00  0.00     0.125 C 
BRANCH   2   3
HETATM    3  N2  UNL     1       5.383  23.310   4.650  1.00  0.00    -0.294 N 
ATOM      4  H2  UNL     1       6.335  23.624   4.461  1.00  0.00     0.187 HD
BRANCH   3   5
HETATM    5  N1  UNL     1       4.940  23.183   5.965  1.00  0.00    -0.344 N 
ATOM      6  H12 UNL     1       4.085  22.658   6.151  1.00  0.00     0.176 HD
ATOM      7  H11 UNL     1       5.468  23.611   6.725  1.00  0.00     0.176 HD
ENDBRANCH   3   5
ENDBRANCH   2   3
BRANCH   2   8
HETATM    8  N3  UNL     1       4.194  24.051   2.763  1.00  0.00    -0.320 N 
HETATM    9  C2  UNL     1       3.516  25.084   3.141  1.00  0.00     0.202 C 
HETATM   10  N4  UNL     1       3.122  25.283   4.490  1.00  0.00    -0.066 NA
HETATM   11  N5  UNL     1       3.169  26.032   2.158  1.00  0.00    -0.066 NA
ATOM     12  H3  UNL     1       4.449  23.961   1.780  1.00  0.00     0.169 HD
ENDBRANCH   2   8
ENDBRANCH   1   2
BRANCH   1  13
HETATM   13  N6  UNL     1       4.528  21.174   2.237  1.00  0.00    -0.338 N 
ATOM     14  H6  UNL     1       3.923  21.413   1.452  1.00  0.00     0.164 HD
BRANCH  13  15
HETATM   15  C4  UNL     1       5.553  20.498   1.954  1.00  0.00     0.242 A 
HETATM   16  N7  UNL     1       6.656  21.029   1.398  1.00  0.00    -0.262 N 
HETATM   17  N8  UNL     1       7.550  20.072   1.224  1.00  0.00    -0.265 N 
ATOM     18  H7  UNL     1       6.782  22.011   1.150  1.00  0.00     0.190 HD
HETATM   19  C5  UNL     1       7.007  18.927   1.675  1.00  0.00     0.284 A 
ATOM     20  H8  UNL     1       8.481  20.181   0.822  1.00  0.00     0.190 HD
HETATM   21  O3  UNL     1       5.807  19.225   2.104  1.00  0.00    -0.248 OA
BRANCH  19  22
HETATM   22  S1  UNL     1       7.833  17.395   1.643  1.00  0.00     0.297 S 
HETATM   23  O1  UNL     1       8.289  16.973   3.009  1.00  0.00    -0.197 OA
HETATM   24  O2  UNL     1       6.876  16.347   1.158  1.00  0.00    -0.197 OA
BRANCH  22  25
HETATM   25  N9  UNL     1       9.173  17.473   0.568  1.00  0.00    -0.321 N 
ATOM     26  H92 UNL     1       9.315  18.214  -0.118  1.00  0.00     0.169 HD
ATOM     27  H91 UNL     1       9.789  16.676   0.722  1.00  0.00     0.169 HD
ENDBRANCH  22  25
ENDBRANCH  19  22
ENDBRANCH  13  15
ENDBRANCH   1  13
BRANCH   1  28
HETATM   28  C6  UNL     1       2.620  21.659   3.718  1.00  0.00     0.284 C 
BRANCH  28  29
HETATM   29  O4  UNL     1       2.174  20.339   3.788  1.00  0.00    -0.369 OA
ATOM     30  H4  UNL     1       1.580  20.263   4.525  1.00  0.00     0.212 HD
ENDBRANCH  28  29
BRANCH  28  31
HETATM   31  O5  UNL     1       2.197  22.388   4.790  1.00  0.00    -0.369 OA
ATOM     32  H5  UNL     1       1.431  22.926   4.628  1.00  0.00     0.212 HD
ENDBRANCH  28  31
ENDBRANCH   1  28
TORSDOF 11
ENDMDL
MODEL 3
REMARK VINA RESULT: -6.975464443      1.747      2.034
REMARK  11 active torsions:
REMARK  status: ('A' for Active; 'I' for Inactive)
REMARK    1  A    between atoms: N1_1  and  N2_4 
REMARK    2  A    between atoms: N2_4  and  C1_6 
REMARK    3  A    between atoms: C1_6  and  N3_7 
REMARK    4  A    between atoms: C1_6  and  C3_12 
REMARK       I    between atoms: N3_7  and  C2_9 
REMARK    5  A    between atoms: C3_12  and  N6_13 
REMARK    6  A    between atoms: C3_12  and  C6_28 
REMARK    7  A    between atoms: N6_13  and  C4_15 
REMARK    8  A    between atoms: C5_20  and  S1_21 
REMARK    9  A    between atoms: S1_21  and  N9_22 
REMARK   10  A    between atoms: C6_28  and  O4_29 
REMARK   11  A    between atoms: C6_28  and  O5_31 
ROOT
HETATM    1  C3  UNL     1       3.996  22.796   2.877  1.00  0.00     0.209 C 
ENDROOT
BRANCH   1   2
HETATM    2  C1  UNL     1       4.823  22.994   4.087  1.00  0.00     0.125 C 
BRANCH   2   3
HETATM    3  N2  UNL     1       5.505  24.071   4.216  1.00  0.00    -0.294 N 
ATOM      4  H2  UNL     1       6.368  24.194   3.687  1.00  0.00     0.187 HD
BRANCH   3   5
HETATM    5  N1  UNL     1       5.067  25.073   5.079  1.00  0.00    -0.344 N 
ATOM      6  H12 UNL     1       5.400  25.077   6.043  1.00  0.00     0.176 HD
ATOM      7  H11 UNL     1       4.423  25.790   4.744  1.00  0.00     0.176 HD
ENDBRANCH   3   5
ENDBRANCH   2   3
BRANCH   2   8
HETATM    8  N3  UNL     1       4.860  21.992   5.104  1.00  0.00    -0.320 N 
HETATM    9  C2  UNL     1       4.157  22.085   6.184  1.00  0.00     0.202 C 
HETATM   10  N4  UNL     1       3.298  23.187   6.440  1.00  0.00    -0.066 NA
HETATM   11  N5  UNL     1       4.266  21.042   7.125  1.00  0.00    -0.066 NA
ATOM     12  H3  UNL     1       5.460  21.178   4.974  1.00  0.00     0.169 HD
ENDBRANCH   2   8
ENDBRANCH   1   2
BRANCH   1  13
HETATM   13  N6  UNL     1       4.869  22.591   1.770  1.00  0.00    -0.338 N 
ATOM     14  H6  UNL     1       4.802  23.280   1.019  1.00  0.00     0.164 HD
BRANCH  13  15
HETATM   15  C4  UNL     1       5.712  21.671   1.596  1.00  0.00     0.242 A 
HETATM   16  N7  UNL     1       6.964  21.890   1.160  1.00  0.00    -0.262 N 
HETATM   17  N8  UNL     1       7.598  20.734   1.082  1.00  0.00    -0.265 N 
ATOM     18  H7  UNL     1       7.360  22.801   0.927  1.00  0.00     0.190 HD
HETATM   19  C5  UNL     1       6.739  19.777   1.474  1.00  0.00     0.284 A 
ATOM     20  H8  UNL     1       8.562  20.594   0.781  1.00  0.00     0.190 HD
HETATM   21  O3  UNL     1       5.617  20.379   1.774  1.00  0.00    -0.248 OA
BRANCH  19  22
HETATM   22  S1  UNL     1       7.147  18.086   1.530  1.00  0.00     0.297 S 
HETATM   23  O1  UNL     1       7.238  17.575   2.938  1.00  0.00    -0.197 OA
HETATM   24  O2  UNL     1       6.058  17.308   0.853  1.00  0.00    -0.197 OA
BRANCH  22  25
HETATM   25  N9  UNL     1       8.630  17.812   0.704  1.00  0.00    -0.321 N 
ATOM     26  H92 UNL     1       8.736  17.177  -0.087  1.00  0.00     0.169 HD
ATOM     27  H91 UNL     1       9.370  18.374   1.122  1.00  0.00     0.169 HD
ENDBRANCH  22  25
ENDBRANCH  19  22
ENDBRANCH  13  15
ENDBRANCH   1  13
BRANCH   1  28
HETATM   28  C6  UNL     1       3.082  23.976   2.748  1.00  0.00     0.284 C 
BRANCH  28  29
HETATM   29  O4  UNL     1       2.414  24.151   3.961  1.00  0.00    -0.369 OA
ATOM     30  H4  UNL     1       1.487  24.004   3.817  1.00  0.00     0.212 HD
ENDBRANCH  28  29
BRANCH  28  31
HETATM   31  O5  UNL     1       3.688  25.128   2.341  1.00  0.00    -0.369 OA
ATOM     32  H5  UNL     1       3.164  25.673   1.766  1.00  0.00     0.212 HD
ENDBRANCH  28  31
ENDBRANCH   1  28
TORSDOF 11
ENDMDL
MODEL 4
REMARK VINA RESULT: -6.910483656      1.916      2.325
REMARK  11 active torsions:
REMARK  status: ('A' for Active; 'I' for Inactive)
REMARK    1  A    between atoms: N1_1  and  N2_4 
REMARK    2  A    between atoms: N2_4  and  C1_6 
REMARK    3  A    between atoms: C1_6  and  N3_7 
REMARK    4  A    between atoms: C1_6  and  C3_12 
REMARK       I    between atoms: N3_7  and  C2_9 
REMARK    5  A    between atoms: C3_12  and  N6_13 
REMARK    6  A    between atoms: C3_12  and  C6_28 
REMARK    7  A    between atoms: N6_13  and  C4_15 
REMARK    8  A    between atoms: C5_20  and  S1_21 
REMARK    9  A    between atoms: S1_21  and  N9_22 
REMARK   10  A    between atoms: C6_28  and  O4_29 
REMARK   11  A    between atoms: C6_28  and  O5_31 
ROOT
HETATM    1  C3  UNL     1       3.865  23.099   2.949  1.00  0.00     0.209 C 
ENDROOT
BRANCH   1   2
HETATM    2  C1  UNL     1       4.696  23.154   4.171  1.00  0.00     0.125 C 
BRANCH   2   3
HETATM    3  N2  UNL     1       5.440  24.175   4.384  1.00  0.00    -0.294 N 
ATOM      4  H2  UNL     1       6.308  24.291   3.861  1.00  0.00     0.187 HD
BRANCH   3   5
HETATM    5  N1  UNL     1       5.062  25.128   5.328  1.00  0.00    -0.344 N 
ATOM      6  H12 UNL     1       4.397  25.853   5.060  1.00  0.00     0.176 HD
ATOM      7  H11 UNL     1       5.450  25.093   6.271  1.00  0.00     0.176 HD
ENDBRANCH   3   5
ENDBRANCH   2   3
BRANCH   2   8
HETATM    8  N3  UNL     1       4.669  22.075   5.108  1.00  0.00    -0.320 N 
HETATM    9  C2  UNL     1       3.899  22.087   6.144  1.00  0.00     0.202 C 
HETATM   10  N4  UNL     1       3.023  23.168   6.429  1.00  0.00    -0.066 NA
HETATM   11  N5  UNL     1       3.948  20.974   7.007  1.00  0.00    -0.066 NA
ATOM     12  H3  UNL     1       5.278  21.272   4.954  1.00  0.00     0.169 HD
ENDBRANCH   2   8
ENDBRANCH   1   2
BRANCH   1  13
HETATM   13  N6  UNL     1       4.697  22.704   1.862  1.00  0.00    -0.338 N 
ATOM     14  H6  UNL     1       4.703  23.331   1.058  1.00  0.00     0.164 HD
BRANCH  13  15
HETATM   15  C4  UNL     1       5.427  21.681   1.765  1.00  0.00     0.242 A 
HETATM   16  N7  UNL     1       6.625  21.685   1.156  1.00  0.00    -0.262 N 
HETATM   17  N8  UNL     1       7.140  20.470   1.220  1.00  0.00    -0.265 N 
ATOM     18  H7  UNL     1       7.064  22.494   0.717  1.00  0.00     0.190 HD
HETATM   19  C5  UNL     1       6.260  19.694   1.875  1.00  0.00     0.284 A 
ATOM     20  H8  UNL     1       8.040  20.176   0.841  1.00  0.00     0.190 HD
HETATM   21  O3  UNL     1       5.244  20.457   2.186  1.00  0.00    -0.248 OA
BRANCH  19  22
HETATM   22  S1  UNL     1       6.523  18.003   2.193  1.00  0.00     0.297 S 
HETATM   23  O1  UNL     1       6.411  17.172   0.948  1.00  0.00    -0.197 OA
HETATM   24  O2  UNL     1       7.918  17.826   2.713  1.00  0.00    -0.197 OA
BRANCH  22  25
HETATM   25  N9  UNL     1       5.408  17.447   3.379  1.00  0.00    -0.321 N 
ATOM     26  H92 UNL     1       4.402  17.614   3.342  1.00  0.00     0.169 HD
ATOM     27  H91 UNL     1       5.902  16.936   4.109  1.00  0.00     0.169 HD
ENDBRANCH  22  25
ENDBRANCH  19  22
ENDBRANCH  13  15
ENDBRANCH   1  13
BRANCH   1  28
HETATM   28  C6  UNL     1       3.205  24.433   2.784  1.00  0.00     0.284 C 
BRANCH  28  29
HETATM   29  O4  UNL     1       2.503  24.725   3.954  1.00  0.00    -0.369 OA
ATOM     30  H4  UNL     1       3.069  25.229   4.526  1.00  0.00     0.212 HD
ENDBRANCH  28  29
BRANCH  28  31
HETATM   31  O5  UNL     1       4.047  25.450   2.440  1.00  0.00    -0.369 OA
ATOM     32  H5  UNL     1       4.585  25.779   3.149  1.00  0.00     0.212 HD
ENDBRANCH  28  31
ENDBRANCH   1  28
TORSDOF 11
ENDMDL
MODEL 5
REMARK VINA RESULT: -6.872476249      2.088      2.507
REMARK  11 active torsions:
REMARK  status: ('A' for Active; 'I' for Inactive)
REMARK    1  A    between atoms: N1_1  and  N2_4 
REMARK    2  A    between atoms: N2_4  and  C1_6 
REMARK    3  A    between atoms: C1_6  and  N3_7 
REMARK    4  A    between atoms: C1_6  and  C3_12 
REMARK       I    between atoms: N3_7  and  C2_9 
REMARK    5  A    between atoms: C3_12  and  N6_13 
REMARK    6  A    between atoms: C3_12  and  C6_28 
REMARK    7  A    between atoms: N6_13  and  C4_15 
REMARK    8  A    between atoms: C5_20  and  S1_21 
REMARK    9  A    between atoms: S1_21  and  N9_22 
REMARK   10  A    between atoms: C6_28  and  O4_29 
REMARK   11  A    between atoms: C6_28  and  O5_31 
ROOT
HETATM    1  C3  UNL     1       3.674  22.554   3.549  1.00  0.00     0.209 C 
ENDROOT
BRANCH   1   2
HETATM    2  C1  UNL     1       4.571  23.253   4.494  1.00  0.00     0.125 C 
BRANCH   2   3
HETATM    3  N2  UNL     1       4.715  24.523   4.405  1.00  0.00    -0.294 N 
ATOM      4  H2  UNL     1       3.963  25.145   4.703  1.00  0.00     0.187 HD
BRANCH   3   5
HETATM    5  N1  UNL     1       5.900  25.056   3.901  1.00  0.00    -0.344 N 
ATOM      6  H12 UNL     1       6.764  24.926   4.427  1.00  0.00     0.176 HD
ATOM      7  H11 UNL     1       5.895  25.568   3.018  1.00  0.00     0.176 HD
ENDBRANCH   3   5
ENDBRANCH   2   3
BRANCH   2   8
HETATM    8  N3  UNL     1       5.271  22.518   5.499  1.00  0.00    -0.320 N 
HETATM    9  C2  UNL     1       4.814  22.393   6.700  1.00  0.00     0.202 C 
HETATM   10  N4  UNL     1       3.585  22.975   7.111  1.00  0.00    -0.066 NA
HETATM   11  N5  UNL     1       5.582  21.647   7.616  1.00  0.00    -0.066 NA
ATOM     12  H3  UNL     1       6.160  22.078   5.260  1.00  0.00     0.169 HD
ENDBRANCH   2   8
ENDBRANCH   1   2
BRANCH   1  13
HETATM   13  N6  UNL     1       4.328  22.479   2.286  1.00  0.00    -0.338 N 
ATOM     14  H6  UNL     1       3.995  23.130   1.574  1.00  0.00     0.164 HD
BRANCH  13  15
HETATM   15  C4  UNL     1       5.265  21.713   1.933  1.00  0.00     0.242 A 
HETATM   16  N7  UNL     1       6.397  22.149   1.355  1.00  0.00    -0.262 N 
HETATM   17  N8  UNL     1       7.177  21.113   1.106  1.00  0.00    -0.265 N 
ATOM     18  H7  UNL     1       6.617  23.123   1.143  1.00  0.00     0.190 HD
HETATM   19  C5  UNL     1       6.532  20.013   1.532  1.00  0.00     0.284 A 
ATOM     20  H8  UNL     1       8.099  21.142   0.671  1.00  0.00     0.190 HD
HETATM   21  O3  UNL     1       5.387  20.414   2.021  1.00  0.00    -0.248 OA
BRANCH  19  22
HETATM   22  S1  UNL     1       7.188  18.406   1.404  1.00  0.00     0.297 S 
HETATM   23  O1  UNL     1       8.360  18.349   0.469  1.00  0.00    -0.197 OA
HETATM   24  O2  UNL     1       7.686  17.984   2.754  1.00  0.00    -0.197 OA
BRANCH  22  25
HETATM   25  N9  UNL     1       5.966  17.311   0.889  1.00  0.00    -0.321 N 
ATOM     26  H92 UNL     1       6.025  16.298   0.989  1.00  0.00     0.169 HD
ATOM     27  H91 UNL     1       5.189  17.827   0.476  1.00  0.00     0.169 HD
ENDBRANCH  22  25
ENDBRANCH  19  22
ENDBRANCH  13  15
ENDBRANCH   1  13
BRANCH   1  28
HETATM   28  C6  UNL     1       2.364  23.282   3.537  1.00  0.00     0.284 C 
BRANCH  28  29
HETATM   29  O4  UNL     1       1.954  23.472   4.857  1.00  0.00    -0.369 OA
ATOM     30  H4  UNL     1       1.566  24.336   4.929  1.00  0.00     0.212 HD
ENDBRANCH  28  29
BRANCH  28  31
HETATM   31  O5  UNL     1       2.368  24.455   2.840  1.00  0.00    -0.369 OA
ATOM     32  H5  UNL     1       2.745  25.192   3.304  1.00  0.00     0.212 HD
ENDBRANCH  28  31
ENDBRANCH   1  28
TORSDOF 11
ENDMDL
