MODEL 1
REMARK VINA RESULT: -7.955884567      0.000      0.000
REMARK  5 active torsions:
REMARK  status: ('A' for Active; 'I' for Inactive)
REMARK       I    between atoms: C1_4  and  N2_5 
REMARK       I    between atoms: C1_4  and  N9_31 
REMARK    1  A    between atoms: N2_5  and  C2_7 
REMARK    2  A    between atoms: C4_13  and  N5_14 
REMARK    3  A    between atoms: C8_25  and  C9_26 
REMARK    4  A    between atoms: C9_26  and  O2_27 
REMARK    5  A    between atoms: N9_31  and  N10_33 
ROOT
HETATM    1  C2  UNL     1       5.614  20.671   2.157  1.00  0.00     0.302 C 
HETATM    2  N3  UNL     1       5.159  22.081   2.085  1.00  0.00    -0.336 N 
ATOM      3  H3  UNL     1       5.748  22.688   1.515  1.00  0.00     0.165 HD
HETATM    4  C3  UNL     1       4.126  22.680   2.631  1.00  0.00     0.152 A 
HETATM    5  N4  UNL     1       4.155  23.951   2.263  1.00  0.00    -0.175 N 
ATOM      6  H4  UNL     1       4.900  24.305   1.663  1.00  0.00     0.186 HD
HETATM    7  C4  UNL     1       3.169  24.772   2.704  1.00  0.00     0.680 A 
HETATM    8  N6  UNL     1       2.177  24.297   3.505  1.00  0.00    -0.154 N 
ATOM      9  H6  UNL     1       1.444  24.929   3.825  1.00  0.00     0.187 HD
HETATM   10  C5  UNL     1       2.150  23.007   3.878  1.00  0.00     0.289 A 
HETATM   11  O1  UNL     1       1.247  22.536   4.617  1.00  0.00    -0.265 OA
HETATM   12  C6  UNL     1       3.134  22.152   3.448  1.00  0.00     0.142 A 
HETATM   13  N7  UNL     1       2.926  20.978   3.939  1.00  0.00    -0.380 N 
ATOM     14  H7  UNL     1       2.077  20.963   4.505  1.00  0.00     0.160 HD
HETATM   15  C7  UNL     1       3.555  19.679   3.916  1.00  0.00     0.147 C 
HETATM   16  C8  UNL     1       3.811  19.096   2.581  1.00  0.00     0.121 C 
HETATM   17  N8  UNL     1       4.501  19.893   1.633  1.00  0.00    -0.377 N 
ATOM     18  H8  UNL     1       4.234  19.920   0.650  1.00  0.00     0.157 HD
ENDROOT
BRANCH   1  19
HETATM   19  N2  UNL     1       6.758  20.587   1.290  1.00  0.00    -0.187 N 
HETATM   20  C1  UNL     1       7.536  19.412   1.278  1.00  0.00     0.694 C 
HETATM   21  N1  UNL     1       7.575  18.686   2.345  1.00  0.00    -0.233 N 
HETATM   22  N9  UNL     1       8.273  19.016   0.125  1.00  0.00    -0.072 N 
ATOM     23  H12 UNL     1       7.047  18.970   3.170  1.00  0.00     0.174 HD
ATOM     24  H11 UNL     1       8.138  17.836   2.336  1.00  0.00     0.174 HD
ATOM     25  H9  UNL     1       8.305  18.032  -0.140  1.00  0.00     0.212 HD
ATOM     26  H2  UNL     1       7.004  21.372   0.687  1.00  0.00     0.181 HD
BRANCH  22  27
HETATM   27  N10 UNL     1       8.958  19.972  -0.653  1.00  0.00    -0.024 N 
HETATM   28  O3  UNL     1       8.843  21.198  -0.466  1.00  0.00    -0.516 OA
HETATM   29  O4  UNL     1       9.791  19.547  -1.661  1.00  0.00    -0.516 OA
ENDBRANCH  22  27
ENDBRANCH   1  19
BRANCH  16  30
HETATM   30  C9  UNL     1       2.446  18.755   1.962  1.00  0.00     0.190 C 
BRANCH  30  31
HETATM   31  O2  UNL     1       2.625  18.706   0.587  1.00  0.00    -0.399 OA
ATOM     32  H2  UNL     1       1.763  18.621   0.197  1.00  0.00     0.209 HD
ENDBRANCH  30  31
ENDBRANCH  16  30
BRANCH   7  33
HETATM   33  N5  UNL     1       3.185  26.013   2.353  1.00  0.00    -0.234 N 
ATOM     34  H52 UNL     1       3.553  26.286   1.442  1.00  0.00     0.174 HD
ATOM     35  H51 UNL     1       2.825  26.714   3.000  1.00  0.00     0.174 HD
ENDBRANCH   7  33
TORSDOF 5
ENDMDL
MODEL 2
REMARK VINA RESULT: -7.509400442      1.440      1.575
REMARK  5 active torsions:
REMARK  status: ('A' for Active; 'I' for Inactive)
REMARK       I    between atoms: C1_4  and  N2_5 
REMARK       I    between atoms: C1_4  and  N9_31 
REMARK    1  A    between atoms: N2_5  and  C2_7 
REMARK    2  A    between atoms: C4_13  and  N5_14 
REMARK    3  A    between atoms: C8_25  and  C9_26 
REMARK    4  A    between atoms: C9_26  and  O2_27 
REMARK    5  A    between atoms: N9_31  and  N10_33 
ROOT
HETATM    1  C2  UNL     1       4.859  19.703   2.885  1.00  0.00     0.302 C 
HETATM    2  N3  UNL     1       4.875  21.180   2.751  1.00  0.00    -0.336 N 
ATOM      3  H3  UNL     1       5.729  21.560   2.344  1.00  0.00     0.165 HD
HETATM    4  C3  UNL     1       3.975  22.081   3.068  1.00  0.00     0.152 A 
HETATM    5  N4  UNL     1       4.464  23.270   2.751  1.00  0.00    -0.175 N 
ATOM      6  H4  UNL     1       5.394  23.360   2.342  1.00  0.00     0.186 HD
HETATM    7  C4  UNL     1       3.697  24.365   2.983  1.00  0.00     0.680 A 
HETATM    8  N6  UNL     1       2.457  24.240   3.528  1.00  0.00    -0.154 N 
ATOM      9  H6  UNL     1       1.894  25.074   3.694  1.00  0.00     0.187 HD
HETATM   10  C5  UNL     1       1.963  23.033   3.851  1.00  0.00     0.289 A 
HETATM   11  O1  UNL     1       0.820  22.883   4.356  1.00  0.00    -0.265 OA
HETATM   12  C6  UNL     1       2.715  21.907   3.628  1.00  0.00     0.142 A 
HETATM   13  N7  UNL     1       2.063  20.869   4.029  1.00  0.00    -0.380 N 
ATOM     14  H7  UNL     1       1.145  21.132   4.389  1.00  0.00     0.160 HD
HETATM   15  C7  UNL     1       2.263  19.442   4.111  1.00  0.00     0.147 C 
HETATM   16  C8  UNL     1       2.622  18.755   2.852  1.00  0.00     0.121 C 
HETATM   17  N8  UNL     1       3.709  19.270   2.104  1.00  0.00    -0.377 N 
ATOM     18  H8  UNL     1       3.688  19.335   1.087  1.00  0.00     0.157 HD
ENDROOT
BRANCH   1  19
HETATM   19  N2  UNL     1       6.088  19.246   2.293  1.00  0.00    -0.187 N 
HETATM   20  C1  UNL     1       6.404  17.873   2.320  1.00  0.00     0.694 C 
HETATM   21  N1  UNL     1       5.927  17.148   3.275  1.00  0.00    -0.233 N 
HETATM   22  N9  UNL     1       7.229  17.277   1.323  1.00  0.00    -0.072 N 
ATOM     23  H12 UNL     1       5.335  17.575   3.989  1.00  0.00     0.174 HD
ATOM     24  H11 UNL     1       6.156  16.154   3.294  1.00  0.00     0.174 HD
ATOM     25  H9  UNL     1       6.996  16.354   0.959  1.00  0.00     0.212 HD
ATOM     26  H2  UNL     1       6.727  19.911   1.857  1.00  0.00     0.181 HD
BRANCH  22  27
HETATM   27  N10 UNL     1       8.368  17.952   0.836  1.00  0.00    -0.024 N 
HETATM   28  O3  UNL     1       8.328  19.130   0.430  1.00  0.00    -0.516 OA
HETATM   29  O4  UNL     1       9.576  17.297   0.804  1.00  0.00    -0.516 OA
ENDBRANCH  22  27
ENDBRANCH   1  19
BRANCH  16  30
HETATM   30  C9  UNL     1       1.389  18.809   1.934  1.00  0.00     0.190 C 
BRANCH  30  31
HETATM   31  O2  UNL     1       1.856  18.799   0.627  1.00  0.00    -0.399 OA
ATOM     32  H2  UNL     1       2.012  19.703   0.381  1.00  0.00     0.209 HD
ENDBRANCH  30  31
ENDBRANCH  16  30
BRANCH   7  33
HETATM   33  N5  UNL     1       4.160  25.529   2.678  1.00  0.00    -0.234 N 
ATOM     34  H52 UNL     1       5.102  25.625   2.299  1.00  0.00     0.174 HD
ATOM     35  H51 UNL     1       3.571  26.349   2.822  1.00  0.00     0.174 HD
ENDBRANCH   7  33
TORSDOF 5
ENDMDL
MODEL 3
REMARK VINA RESULT: -7.416369833      1.079      1.298
REMARK  5 active torsions:
REMARK  status: ('A' for Active; 'I' for Inactive)
REMARK       I    between atoms: C1_4  and  N2_5 
REMARK       I    between atoms: C1_4  and  N9_31 
REMARK    1  A    between atoms: N2_5  and  C2_7 
REMARK    2  A    between atoms: C4_13  and  N5_14 
REMARK    3  A    between atoms: C8_25  and  C9_26 
REMARK    4  A    between atoms: C9_26  and  O2_27 
REMARK    5  A    between atoms: N9_31  and  N10_33 
ROOT
HETATM    1  C2  UNL     1       4.973  19.883   2.600  1.00  0.00     0.302 C 
HETATM    2  N3  UNL     1       4.554  21.305   2.605  1.00  0.00    -0.336 N 
ATOM      3  H3  UNL     1       5.199  21.939   2.133  1.00  0.00     0.165 HD
HETATM    4  C3  UNL     1       3.494  21.887   3.114  1.00  0.00     0.152 A 
HETATM    5  N4  UNL     1       3.578  23.182   2.852  1.00  0.00    -0.175 N 
ATOM      6  H4  UNL     1       4.375  23.562   2.342  1.00  0.00     0.186 HD
HETATM    7  C4  UNL     1       2.577  23.992   3.279  1.00  0.00     0.680 A 
HETATM    8  N6  UNL     1       1.515  23.483   3.959  1.00  0.00    -0.154 N 
ATOM      9  H6  UNL     1       0.771  24.107   4.271  1.00  0.00     0.187 HD
HETATM   10  C5  UNL     1       1.431  22.169   4.226  1.00  0.00     0.289 A 
HETATM   11  O1  UNL     1       0.463  21.665   4.852  1.00  0.00    -0.265 OA
HETATM   12  C6  UNL     1       2.429  21.324   3.806  1.00  0.00     0.142 A 
HETATM   13  N7  UNL     1       2.159  20.121   4.185  1.00  0.00    -0.380 N 
ATOM     14  H7  UNL     1       1.268  20.085   4.680  1.00  0.00     0.160 HD
HETATM   15  C7  UNL     1       2.762  18.812   4.108  1.00  0.00     0.147 C 
HETATM   16  C8  UNL     1       3.112  18.328   2.755  1.00  0.00     0.121 C 
HETATM   17  N8  UNL     1       3.890  19.178   1.930  1.00  0.00    -0.377 N 
ATOM     18  H8  UNL     1       3.704  19.288   0.934  1.00  0.00     0.157 HD
ENDROOT
BRANCH   1  19
HETATM   19  N2  UNL     1       6.181  19.836   1.821  1.00  0.00    -0.187 N 
HETATM   20  C1  UNL     1       6.948  18.654   1.798  1.00  0.00     0.694 C 
HETATM   21  N1  UNL     1       6.897  17.865   2.818  1.00  0.00    -0.233 N 
HETATM   22  N9  UNL     1       7.770  18.318   0.683  1.00  0.00    -0.072 N 
ATOM     23  H12 UNL     1       6.309  18.106   3.616  1.00  0.00     0.174 HD
ATOM     24  H11 UNL     1       7.453  17.009   2.801  1.00  0.00     0.174 HD
ATOM     25  H9  UNL     1       7.815  17.351   0.362  1.00  0.00     0.212 HD
ATOM     26  H2  UNL     1       6.481  20.653   1.287  1.00  0.00     0.181 HD
BRANCH  22  27
HETATM   27  N10 UNL     1       8.522  19.310   0.020  1.00  0.00    -0.024 N 
HETATM   28  O3  UNL     1       9.282  19.052  -0.932  1.00  0.00    -0.516 OA
HETATM   29  O4  UNL     1       8.420  20.618   0.430  1.00  0.00    -0.516 OA
ENDBRANCH  22  27
ENDBRANCH   1  19
BRANCH  16  30
HETATM   30  C9  UNL     1       1.793  18.072   2.006  1.00  0.00     0.190 C 
BRANCH  30  31
HETATM   31  O2  UNL     1       1.575  19.168   1.183  1.00  0.00    -0.399 OA
ATOM     32  H2  UNL     1       1.104  18.853   0.420  1.00  0.00     0.209 HD
ENDBRANCH  30  31
ENDBRANCH  16  30
BRANCH   7  33
HETATM   33  N5  UNL     1       2.646  25.256   3.030  1.00  0.00    -0.234 N 
ATOM     34  H52 UNL     1       3.018  25.899   3.728  1.00  0.00     0.174 HD
ATOM     35  H51 UNL     1       2.323  25.599   2.125  1.00  0.00     0.174 HD
ENDBRANCH   7  33
TORSDOF 5
ENDMDL
MODEL 4
REMARK VINA RESULT: -7.194408705      3.797      7.437
REMARK  5 active torsions:
REMARK  status: ('A' for Active; 'I' for Inactive)
REMARK       I    between atoms: C1_4  and  N2_5 
REMARK       I    between atoms: C1_4  and  N9_31 
REMARK    1  A    between atoms: N2_5  and  C2_7 
REMARK    2  A    between atoms: C4_13  and  N5_14 
REMARK    3  A    between atoms: C8_25  and  C9_26 
REMARK    4  A    between atoms: C9_26  and  O2_27 
REMARK    5  A    between atoms: N9_31  and  N10_33 
ROOT
HETATM    1  C2  UNL     1       4.418  22.809   6.213  1.00  0.00     0.302 C 
HETATM    2  N3  UNL     1       4.210  21.523   5.504  1.00  0.00    -0.336 N 
ATOM      3  H3  UNL     1       3.866  20.765   6.094  1.00  0.00     0.165 HD
HETATM    4  C3  UNL     1       4.394  21.195   4.247  1.00  0.00     0.152 A 
HETATM    5  N4  UNL     1       4.062  19.921   4.108  1.00  0.00    -0.175 N 
ATOM      6  H4  UNL     1       3.739  19.375   4.907  1.00  0.00     0.186 HD
HETATM    7  C4  UNL     1       4.164  19.359   2.878  1.00  0.00     0.680 A 
HETATM    8  N6  UNL     1       4.595  20.089   1.815  1.00  0.00    -0.154 N 
ATOM      9  H6  UNL     1       4.664  19.649   0.897  1.00  0.00     0.187 HD
HETATM   10  C5  UNL     1       4.932  21.382   1.957  1.00  0.00     0.289 A 
HETATM   11  O1  UNL     1       5.335  22.086   0.995  1.00  0.00    -0.265 OA
HETATM   12  C6  UNL     1       4.841  21.978   3.190  1.00  0.00     0.142 A 
HETATM   13  N7  UNL     1       5.231  23.204   3.103  1.00  0.00    -0.380 N 
ATOM     14  H7  UNL     1       5.490  23.438   2.144  1.00  0.00     0.160 HD
HETATM   15  C7  UNL     1       5.406  24.339   3.978  1.00  0.00     0.147 C 
HETATM   16  C8  UNL     1       4.224  24.751   4.765  1.00  0.00     0.121 C 
HETATM   17  N8  UNL     1       3.557  23.758   5.524  1.00  0.00    -0.377 N 
ATOM     18  H8  UNL     1       2.540  23.711   5.583  1.00  0.00     0.157 HD
ENDROOT
BRANCH   1  19
HETATM   19  N2  UNL     1       3.970  22.587   7.561  1.00  0.00    -0.187 N 
HETATM   20  C1  UNL     1       4.911  22.550   8.610  1.00  0.00     0.694 C 
HETATM   21  N1  UNL     1       6.118  22.181   8.343  1.00  0.00    -0.233 N 
HETATM   22  N9  UNL     1       4.558  22.908   9.943  1.00  0.00    -0.072 N 
ATOM     23  H12 UNL     1       6.371  21.925   7.388  1.00  0.00     0.174 HD
ATOM     24  H11 UNL     1       6.799  22.155   9.103  1.00  0.00     0.174 HD
ATOM     25  H9  UNL     1       5.208  23.454  10.509  1.00  0.00     0.212 HD
ATOM     26  H2  UNL     1       2.977  22.457   7.758  1.00  0.00     0.181 HD
BRANCH  22  27
HETATM   27  N10 UNL     1       3.317  22.514  10.488  1.00  0.00    -0.024 N 
HETATM   28  O3  UNL     1       3.227  21.760  11.476  1.00  0.00    -0.516 OA
HETATM   29  O4  UNL     1       2.155  22.975   9.917  1.00  0.00    -0.516 OA
ENDBRANCH  22  27
ENDBRANCH   1  19
BRANCH  16  30
HETATM   30  C9  UNL     1       3.193  25.320   3.776  1.00  0.00     0.190 C 
BRANCH  30  31
HETATM   31  O2  UNL     1       3.900  25.794   2.681  1.00  0.00    -0.399 OA
ATOM     32  H2  UNL     1       3.438  25.502   1.904  1.00  0.00     0.209 HD
ENDBRANCH  30  31
ENDBRANCH  16  30
BRANCH   7  33
HETATM   33  N5  UNL     1       3.844  18.118   2.729  1.00  0.00    -0.234 N 
ATOM     34  H52 UNL     1       3.805  17.495   3.536  1.00  0.00     0.174 HD
ATOM     35  H51 UNL     1       3.630  17.772   1.794  1.00  0.00     0.174 HD
ENDBRANCH   7  33
TORSDOF 5
ENDMDL
MODEL 5
REMARK VINA RESULT: -6.960253940      3.185      6.249
REMARK  5 active torsions:
REMARK  status: ('A' for Active; 'I' for Inactive)
REMARK       I    between atoms: C1_4  and  N2_5 
REMARK       I    between atoms: C1_4  and  N9_31 
REMARK    1  A    between atoms: N2_5  and  C2_7 
REMARK    2  A    between atoms: C4_13  and  N5_14 
REMARK    3  A    between atoms: C8_25  and  C9_26 
REMARK    4  A    between atoms: C9_26  and  O2_27 
REMARK    5  A    between atoms: N9_31  and  N10_33 
ROOT
HETATM    1  C2  UNL     1       4.739  19.599   2.494  1.00  0.00     0.302 C 
HETATM    2  N3  UNL     1       3.937  19.298   1.284  1.00  0.00    -0.336 N 
ATOM      3  H3  UNL     1       3.488  20.110   0.860  1.00  0.00     0.165 HD
HETATM    4  C3  UNL     1       3.708  18.163   0.665  1.00  0.00     0.152 A 
HETATM    5  N4  UNL     1       2.927  18.419  -0.373  1.00  0.00    -0.175 N 
ATOM      6  H4  UNL     1       2.608  19.368  -0.566  1.00  0.00     0.186 HD
HETATM    7  C4  UNL     1       2.561  17.387  -1.174  1.00  0.00     0.680 A 
HETATM    8  N6  UNL     1       2.988  16.122  -0.914  1.00  0.00    -0.154 N 
ATOM      9  H6  UNL     1       2.703  15.359  -1.527  1.00  0.00     0.187 HD
HETATM   10  C5  UNL     1       3.779  15.864   0.141  1.00  0.00     0.289 A 
HETATM   11  O1  UNL     1       4.191  14.705   0.410  1.00  0.00    -0.265 OA
HETATM   12  C6  UNL     1       4.166  16.887   0.970  1.00  0.00     0.142 A 
HETATM   13  N7  UNL     1       4.897  16.416   1.921  1.00  0.00    -0.380 N 
ATOM     14  H7  UNL     1       5.029  15.409   1.816  1.00  0.00     0.160 HD
HETATM   15  C7  UNL     1       5.582  16.908   3.092  1.00  0.00     0.147 C 
HETATM   16  C8  UNL     1       6.540  18.013   2.878  1.00  0.00     0.121 C 
HETATM   17  N8  UNL     1       6.086  19.154   2.169  1.00  0.00    -0.377 N 
ATOM     18  H8  UNL     1       6.664  19.630   1.478  1.00  0.00     0.157 HD
ENDROOT
BRANCH   1  19
HETATM   19  N2  UNL     1       4.689  21.028   2.648  1.00  0.00    -0.187 N 
HETATM   20  C1  UNL     1       4.534  21.585   3.933  1.00  0.00     0.694 C 
HETATM   21  N1  UNL     1       3.922  20.893   4.835  1.00  0.00    -0.233 N 
HETATM   22  N9  UNL     1       5.032  22.881   4.251  1.00  0.00    -0.072 N 
ATOM     23  H12 UNL     1       3.566  19.965   4.607  1.00  0.00     0.174 HD
ATOM     24  H11 UNL     1       3.810  21.296   5.766  1.00  0.00     0.174 HD
ATOM     25  H9  UNL     1       5.475  23.044   5.156  1.00  0.00     0.212 HD
ATOM     26  H2  UNL     1       4.767  21.636   1.831  1.00  0.00     0.181 HD
BRANCH  22  27
HETATM   27  N10 UNL     1       4.920  23.941   3.327  1.00  0.00    -0.024 N 
HETATM   28  O3  UNL     1       4.294  23.834   2.255  1.00  0.00    -0.516 OA
HETATM   29  O4  UNL     1       5.519  25.145   3.609  1.00  0.00    -0.516 OA
ENDBRANCH  22  27
ENDBRANCH   1  19
BRANCH  16  30
HETATM   30  C9  UNL     1       7.726  17.443   2.082  1.00  0.00     0.190 C 
BRANCH  30  31
HETATM   31  O2  UNL     1       8.685  17.055   3.007  1.00  0.00    -0.399 OA
ATOM     32  H2  UNL     1       9.074  16.251   2.684  1.00  0.00     0.209 HD
ENDBRANCH  30  31
ENDBRANCH  16  30
BRANCH   7  33
HETATM   33  N5  UNL     1       1.801  17.622  -2.189  1.00  0.00    -0.234 N 
ATOM     34  H52 UNL     1       1.742  18.561  -2.582  1.00  0.00     0.174 HD
ATOM     35  H51 UNL     1       1.261  16.855  -2.590  1.00  0.00     0.174 HD
ENDBRANCH   7  33
TORSDOF 5
ENDMDL
