MODEL 1
REMARK VINA RESULT: -6.303584836      0.000      0.000
REMARK  9 active torsions:
REMARK  status: ('A' for Active; 'I' for Inactive)
REMARK    1  A    between atoms: C2_2  and  O1_3 
REMARK    2  A    between atoms: C2_2  and  C3_5 
REMARK    3  A    between atoms: C2_2  and  C7_24 
REMARK       I    between atoms: C3_5  and  N1_7 
REMARK    4  A    between atoms: N1_7  and  C4_9 
REMARK    5  A    between atoms: C4_9  and  O3_10 
REMARK    6  A    between atoms: C6_18  and  N3_19 
REMARK    7  A    between atoms: N3_19  and  N4_21 
REMARK    8  A    between atoms: C7_24  and  N5_25 
REMARK    9  A    between atoms: C7_24  and  C8_29 
ROOT
HETATM    1  C3  UNL     1       4.831  21.865   2.630  1.00  0.00     0.257 C 
HETATM    2  O2  UNL     1       4.944  22.217   1.434  1.00  0.00    -0.270 OA
HETATM    3  N1  UNL     1       5.035  20.498   2.939  1.00  0.00    -0.320 N 
ATOM      4  H1  UNL     1       4.924  20.237   3.919  1.00  0.00     0.166 HD
ENDROOT
BRANCH   3   5
HETATM    5  C4  UNL     1       5.373  19.458   2.053  1.00  0.00     0.211 C 
HETATM    6  C5  UNL     1       4.931  18.082   2.585  1.00  0.00     0.233 C 
HETATM    7  S1  UNL     1       5.695  17.156   1.229  1.00  0.00     0.236 S 
HETATM    8  O4  UNL     1       6.055  15.791   1.633  1.00  0.00    -0.205 OA
HETATM    9  O5  UNL     1       4.846  17.265   0.022  1.00  0.00    -0.205 OA
HETATM   10  N2  UNL     1       7.075  18.215   1.115  1.00  0.00    -0.268 N 
HETATM   11  C6  UNL     1       6.750  19.367   1.581  1.00  0.00     0.163 C 
ATOM     12  H2  UNL     1       7.990  17.961   0.741  1.00  0.00     0.180 HD
BRANCH   5  13
HETATM   13  O3  UNL     1       4.596  19.582   0.867  1.00  0.00    -0.363 OA
ATOM     14  H3  UNL     1       5.073  19.200   0.139  1.00  0.00     0.213 HD
ENDBRANCH   5  13
BRANCH  11  15
HETATM   15  N3  UNL     1       7.725  20.421   1.576  1.00  0.00    -0.291 N 
ATOM     16  H3  UNL     1       8.469  20.425   2.273  1.00  0.00     0.188 HD
BRANCH  15  17
HETATM   17  N4  UNL     1       7.662  21.421   0.641  1.00  0.00    -0.344 N 
ATOM     18  H42 UNL     1       6.781  21.584   0.155  1.00  0.00     0.176 HD
ATOM     19  H41 UNL     1       8.484  21.990   0.437  1.00  0.00     0.176 HD
ENDBRANCH  15  17
ENDBRANCH  11  15
ENDBRANCH   3   5
BRANCH   1  20
HETATM   20  C2  UNL     1       4.504  22.891   3.629  1.00  0.00     0.172 C 
HETATM   21  C1  UNL     1       4.507  22.308   5.043  1.00  0.00     0.059 C 
BRANCH  20  22
HETATM   22  O1  UNL     1       5.460  23.903   3.604  1.00  0.00    -0.378 OA
ATOM     23  H1  UNL     1       5.203  24.510   2.919  1.00  0.00     0.211 HD
ENDBRANCH  20  22
BRANCH  20  24
HETATM   24  C7  UNL     1       3.188  23.546   3.330  1.00  0.00     0.326 C 
BRANCH  24  25
HETATM   25  N5  UNL     1       2.131  23.019   4.214  1.00  0.00    -0.062 N 
ATOM     26  H53 UNL     1       1.688  22.189   3.820  1.00  0.00     0.275 HD
ATOM     27  H52 UNL     1       2.519  22.599   5.059  1.00  0.00     0.275 HD
ATOM     28  H51 UNL     1       1.449  23.745   4.432  1.00  0.00     0.275 HD
ENDBRANCH  24  25
BRANCH  24  29
HETATM   29  C8  UNL     1       3.232  25.017   3.661  1.00  0.00     0.208 C 
HETATM   30  O6  UNL     1       3.065  25.445   4.844  1.00  0.00    -0.646 OA
HETATM   31  O7  UNL     1       3.458  25.964   2.701  1.00  0.00    -0.646 OA
ENDBRANCH  24  29
ENDBRANCH  20  24
ENDBRANCH   1  20
TORSDOF 9
ENDMDL
MODEL 2
REMARK VINA RESULT: -6.092478924      1.109      1.364
REMARK  9 active torsions:
REMARK  status: ('A' for Active; 'I' for Inactive)
REMARK    1  A    between atoms: C2_2  and  O1_3 
REMARK    2  A    between atoms: C2_2  and  C3_5 
REMARK    3  A    between atoms: C2_2  and  C7_24 
REMARK       I    between atoms: C3_5  and  N1_7 
REMARK    4  A    between atoms: N1_7  and  C4_9 
REMARK    5  A    between atoms: C4_9  and  O3_10 
REMARK    6  A    between atoms: C6_18  and  N3_19 
REMARK    7  A    between atoms: N3_19  and  N4_21 
REMARK    8  A    between atoms: C7_24  and  N5_25 
REMARK    9  A    between atoms: C7_24  and  C8_29 
ROOT
HETATM    1  C3  UNL     1       4.465  21.253   2.741  1.00  0.00     0.257 C 
HETATM    2  O2  UNL     1       4.934  21.684   1.663  1.00  0.00    -0.270 OA
HETATM    3  N1  UNL     1       4.370  19.851   2.906  1.00  0.00    -0.320 N 
ATOM      4  H1  UNL     1       3.972  19.528   3.788  1.00  0.00     0.166 HD
ENDROOT
BRANCH   3   5
HETATM    5  C4  UNL     1       4.759  18.849   1.997  1.00  0.00     0.211 C 
HETATM    6  C5  UNL     1       4.032  17.518   2.260  1.00  0.00     0.233 C 
HETATM    7  S1  UNL     1       4.952  16.604   0.997  1.00  0.00     0.236 S 
HETATM    8  O4  UNL     1       5.029  15.170   1.306  1.00  0.00    -0.205 OA
HETATM    9  O5  UNL     1       4.419  16.943  -0.341  1.00  0.00    -0.205 OA
HETATM   10  N2  UNL     1       6.450  17.443   1.301  1.00  0.00    -0.268 N 
HETATM   11  C6  UNL     1       6.182  18.588   1.818  1.00  0.00     0.163 C 
ATOM     12  H2  UNL     1       7.384  17.084   1.101  1.00  0.00     0.180 HD
BRANCH   5  13
HETATM   13  O3  UNL     1       4.292  19.191   0.696  1.00  0.00    -0.363 OA
ATOM     14  H3  UNL     1       3.629  18.565   0.427  1.00  0.00     0.213 HD
ENDBRANCH   5  13
BRANCH  11  15
HETATM   15  N3  UNL     1       7.263  19.476   2.141  1.00  0.00    -0.291 N 
ATOM     16  H3  UNL     1       7.730  19.397   3.044  1.00  0.00     0.188 HD
BRANCH  15  17
HETATM   17  N4  UNL     1       7.672  20.428   1.244  1.00  0.00    -0.344 N 
ATOM     18  H42 UNL     1       8.085  20.126   0.361  1.00  0.00     0.176 HD
ATOM     19  H41 UNL     1       7.565  21.420   1.457  1.00  0.00     0.176 HD
ENDBRANCH  15  17
ENDBRANCH  11  15
ENDBRANCH   3   5
BRANCH   1  20
HETATM   20  C2  UNL     1       4.056  22.229   3.760  1.00  0.00     0.172 C 
HETATM   21  C1  UNL     1       2.801  21.763   4.500  1.00  0.00     0.059 C 
BRANCH  20  22
HETATM   22  O1  UNL     1       5.060  22.374   4.713  1.00  0.00    -0.378 OA
ATOM     23  H1  UNL     1       5.800  22.781   4.277  1.00  0.00     0.211 HD
ENDBRANCH  20  22
BRANCH  20  24
HETATM   24  C7  UNL     1       3.843  23.589   3.161  1.00  0.00     0.326 C 
BRANCH  24  25
HETATM   25  N5  UNL     1       2.418  23.965   3.217  1.00  0.00    -0.062 N 
ATOM     26  H53 UNL     1       2.026  23.827   4.148  1.00  0.00     0.275 HD
ATOM     27  H52 UNL     1       2.289  24.974   3.146  1.00  0.00     0.275 HD
ATOM     28  H51 UNL     1       1.886  23.465   2.505  1.00  0.00     0.275 HD
ENDBRANCH  24  25
BRANCH  24  29
HETATM   29  C8  UNL     1       4.527  24.651   3.985  1.00  0.00     0.208 C 
HETATM   30  O6  UNL     1       5.623  25.178   3.627  1.00  0.00    -0.646 OA
HETATM   31  O7  UNL     1       3.995  25.101   5.163  1.00  0.00    -0.646 OA
ENDBRANCH  24  29
ENDBRANCH  20  24
ENDBRANCH   1  20
TORSDOF 9
ENDMDL
MODEL 3
REMARK VINA RESULT: -6.062394253      2.977      6.614
REMARK  9 active torsions:
REMARK  status: ('A' for Active; 'I' for Inactive)
REMARK    1  A    between atoms: C2_2  and  O1_3 
REMARK    2  A    between atoms: C2_2  and  C3_5 
REMARK    3  A    between atoms: C2_2  and  C7_24 
REMARK       I    between atoms: C3_5  and  N1_7 
REMARK    4  A    between atoms: N1_7  and  C4_9 
REMARK    5  A    between atoms: C4_9  and  O3_10 
REMARK    6  A    between atoms: C6_18  and  N3_19 
REMARK    7  A    between atoms: N3_19  and  N4_21 
REMARK    8  A    between atoms: C7_24  and  N5_25 
REMARK    9  A    between atoms: C7_24  and  C8_29 
ROOT
HETATM    1  C3  UNL     1       5.523  19.217   2.912  1.00  0.00     0.257 C 
HETATM    2  O2  UNL     1       5.059  18.582   3.887  1.00  0.00    -0.270 OA
HETATM    3  N1  UNL     1       5.107  20.560   2.740  1.00  0.00    -0.320 N 
ATOM      4  H1  UNL     1       5.490  21.049   1.931  1.00  0.00     0.166 HD
ENDROOT
BRANCH   3   5
HETATM    5  C4  UNL     1       4.227  21.298   3.553  1.00  0.00     0.211 C 
HETATM    6  C5  UNL     1       2.771  20.817   3.412  1.00  0.00     0.233 C 
HETATM    7  S1  UNL     1       2.091  22.114   4.477  1.00  0.00     0.236 S 
HETATM    8  O4  UNL     1       0.694  22.420   4.144  1.00  0.00    -0.205 OA
HETATM    9  O5  UNL     1       2.353  21.773   5.893  1.00  0.00    -0.205 OA
HETATM   10  N2  UNL     1       3.204  23.334   3.916  1.00  0.00    -0.268 N 
HETATM   11  C6  UNL     1       4.259  22.754   3.468  1.00  0.00     0.163 C 
ATOM     12  H2  UNL     1       3.044  24.341   3.939  1.00  0.00     0.180 HD
BRANCH   5  13
HETATM   13  O3  UNL     1       4.503  21.014   4.921  1.00  0.00    -0.363 OA
ATOM     14  H3  UNL     1       4.697  21.825   5.376  1.00  0.00     0.213 HD
ENDBRANCH   5  13
BRANCH  11  15
HETATM   15  N3  UNL     1       5.335  23.559   2.964  1.00  0.00    -0.291 N 
ATOM     16  H3  UNL     1       5.818  23.281   2.110  1.00  0.00     0.188 HD
BRANCH  15  17
HETATM   17  N4  UNL     1       5.719  24.698   3.622  1.00  0.00    -0.344 N 
ATOM     18  H42 UNL     1       6.096  24.615   4.566  1.00  0.00     0.176 HD
ATOM     19  H41 UNL     1       5.628  25.610   3.175  1.00  0.00     0.176 HD
ENDBRANCH  15  17
ENDBRANCH  11  15
ENDBRANCH   3   5
BRANCH   1  20
HETATM   20  C2  UNL     1       6.470  18.532   2.023  1.00  0.00     0.172 C 
HETATM   21  C1  UNL     1       5.842  18.249   0.657  1.00  0.00     0.059 C 
BRANCH  20  22
HETATM   22  O1  UNL     1       7.583  19.337   1.800  1.00  0.00    -0.378 OA
ATOM     23  H1  UNL     1       8.151  19.242   2.556  1.00  0.00     0.211 HD
ENDBRANCH  20  22
BRANCH  20  24
HETATM   24  C7  UNL     1       6.983  17.265   2.642  1.00  0.00     0.326 C 
BRANCH  24  25
HETATM   25  N5  UNL     1       5.931  16.231   2.659  1.00  0.00    -0.062 N 
ATOM     26  H53 UNL     1       5.191  16.455   3.324  1.00  0.00     0.275 HD
ATOM     27  H52 UNL     1       5.376  16.242   1.804  1.00  0.00     0.275 HD
ATOM     28  H51 UNL     1       6.334  15.311   2.837  1.00  0.00     0.275 HD
ENDBRANCH  24  25
BRANCH  24  29
HETATM   29  C8  UNL     1       8.072  16.655   1.795  1.00  0.00     0.208 C 
HETATM   30  O6  UNL     1       9.152  17.270   1.544  1.00  0.00    -0.646 OA
HETATM   31  O7  UNL     1       7.947  15.405   1.254  1.00  0.00    -0.646 OA
ENDBRANCH  24  29
ENDBRANCH  20  24
ENDBRANCH   1  20
TORSDOF 9
ENDMDL
MODEL 4
REMARK VINA RESULT: -6.057931116      2.727      6.624
REMARK  9 active torsions:
REMARK  status: ('A' for Active; 'I' for Inactive)
REMARK    1  A    between atoms: C2_2  and  O1_3 
REMARK    2  A    between atoms: C2_2  and  C3_5 
REMARK    3  A    between atoms: C2_2  and  C7_24 
REMARK       I    between atoms: C3_5  and  N1_7 
REMARK    4  A    between atoms: N1_7  and  C4_9 
REMARK    5  A    between atoms: C4_9  and  O3_10 
REMARK    6  A    between atoms: C6_18  and  N3_19 
REMARK    7  A    between atoms: N3_19  and  N4_21 
REMARK    8  A    between atoms: C7_24  and  N5_25 
REMARK    9  A    between atoms: C7_24  and  C8_29 
ROOT
HETATM    1  C3  UNL     1       4.962  20.068   2.334  1.00  0.00     0.257 C 
HETATM    2  O2  UNL     1       3.772  19.922   1.970  1.00  0.00    -0.270 OA
HETATM    3  N1  UNL     1       5.300  21.254   3.029  1.00  0.00    -0.320 N 
ATOM      4  H1  UNL     1       6.278  21.352   3.302  1.00  0.00     0.166 HD
ENDROOT
BRANCH   3   5
HETATM    5  C4  UNL     1       4.447  22.314   3.386  1.00  0.00     0.211 C 
HETATM    6  C5  UNL     1       4.339  23.369   2.270  1.00  0.00     0.233 C 
HETATM    7  S1  UNL     1       3.317  24.502   3.245  1.00  0.00     0.236 S 
HETATM    8  O4  UNL     1       3.481  25.896   2.815  1.00  0.00    -0.205 OA
HETATM    9  O5  UNL     1       1.925  24.001   3.278  1.00  0.00    -0.205 OA
HETATM   10  N2  UNL     1       4.138  24.154   4.743  1.00  0.00    -0.268 N 
HETATM   11  C6  UNL     1       4.671  22.988   4.659  1.00  0.00     0.163 C 
ATOM     12  H2  UNL     1       4.188  24.774   5.552  1.00  0.00     0.180 HD
BRANCH   5  13
HETATM   13  O3  UNL     1       3.109  21.832   3.468  1.00  0.00    -0.363 OA
ATOM     14  H3  UNL     1       2.538  22.538   3.748  1.00  0.00     0.213 HD
ENDBRANCH   5  13
BRANCH  11  15
HETATM   15  N3  UNL     1       5.392  22.470   5.787  1.00  0.00    -0.291 N 
ATOM     16  H3  UNL     1       6.167  21.824   5.639  1.00  0.00     0.188 HD
BRANCH  15  17
HETATM   17  N4  UNL     1       5.047  22.837   7.062  1.00  0.00    -0.344 N 
ATOM     18  H42 UNL     1       4.139  23.275   7.217  1.00  0.00     0.176 HD
ATOM     19  H41 UNL     1       5.686  22.672   7.839  1.00  0.00     0.176 HD
ENDBRANCH  15  17
ENDBRANCH  11  15
ENDBRANCH   3   5
BRANCH   1  20
HETATM   20  C2  UNL     1       5.919  18.997   2.025  1.00  0.00     0.172 C 
HETATM   21  C1  UNL     1       5.687  18.436   0.621  1.00  0.00     0.059 C 
BRANCH  20  22
HETATM   22  O1  UNL     1       7.218  19.495   2.056  1.00  0.00    -0.378 OA
ATOM     23  H1  UNL     1       7.796  18.754   2.197  1.00  0.00     0.211 HD
ENDBRANCH  20  22
BRANCH  20  24
HETATM   24  C7  UNL     1       5.863  17.901   3.049  1.00  0.00     0.326 C 
BRANCH  24  25
HETATM   25  N5  UNL     1       4.598  17.150   2.939  1.00  0.00    -0.062 N 
ATOM     26  H53 UNL     1       4.739  16.149   3.077  1.00  0.00     0.275 HD
ATOM     27  H52 UNL     1       3.982  17.328   3.732  1.00  0.00     0.275 HD
ATOM     28  H51 UNL     1       4.138  17.348   2.051  1.00  0.00     0.275 HD
ENDBRANCH  24  25
BRANCH  24  29
HETATM   29  C8  UNL     1       6.922  16.861   2.781  1.00  0.00     0.208 C 
HETATM   30  O6  UNL     1       6.630  15.680   2.422  1.00  0.00    -0.646 OA
HETATM   31  O7  UNL     1       8.255  17.142   2.911  1.00  0.00    -0.646 OA
ENDBRANCH  24  29
ENDBRANCH  20  24
ENDBRANCH   1  20
TORSDOF 9
ENDMDL
MODEL 5
REMARK VINA RESULT: -6.048964140      4.252      6.478
REMARK  9 active torsions:
REMARK  status: ('A' for Active; 'I' for Inactive)
REMARK    1  A    between atoms: C2_2  and  O1_3 
REMARK    2  A    between atoms: C2_2  and  C3_5 
REMARK    3  A    between atoms: C2_2  and  C7_24 
REMARK       I    between atoms: C3_5  and  N1_7 
REMARK    4  A    between atoms: N1_7  and  C4_9 
REMARK    5  A    between atoms: C4_9  and  O3_10 
REMARK    6  A    between atoms: C6_18  and  N3_19 
REMARK    7  A    between atoms: N3_19  and  N4_21 
REMARK    8  A    between atoms: C7_24  and  N5_25 
REMARK    9  A    between atoms: C7_24  and  C8_29 
ROOT
HETATM    1  C3  UNL     1       3.708  21.796   7.026  1.00  0.00     0.257 C 
HETATM    2  O2  UNL     1       4.864  21.405   6.748  1.00  0.00    -0.270 OA
HETATM    3  N1  UNL     1       3.126  22.781   6.191  1.00  0.00    -0.320 N 
ATOM      4  H1  UNL     1       2.188  23.091   6.448  1.00  0.00     0.166 HD
ENDROOT
BRANCH   3   5
HETATM    5  C4  UNL     1       3.688  23.383   5.050  1.00  0.00     0.211 C 
HETATM    6  C5  UNL     1       3.092  24.776   4.781  1.00  0.00     0.233 C 
HETATM    7  S1  UNL     1       3.990  25.015   3.227  1.00  0.00     0.236 S 
HETATM    8  O4  UNL     1       3.279  25.923   2.318  1.00  0.00    -0.205 OA
HETATM    9  O5  UNL     1       5.395  25.374   3.521  1.00  0.00    -0.205 OA
HETATM   10  N2  UNL     1       3.863  23.343   2.750  1.00  0.00    -0.268 N 
HETATM   11  C6  UNL     1       3.710  22.625   3.805  1.00  0.00     0.163 C 
ATOM     12  H2  UNL     1       3.902  22.992   1.793  1.00  0.00     0.180 HD
BRANCH   5  13
HETATM   13  O3  UNL     1       5.055  23.688   5.307  1.00  0.00    -0.363 OA
ATOM     14  H3  UNL     1       5.521  23.752   4.482  1.00  0.00     0.213 HD
ENDBRANCH   5  13
BRANCH  11  15
HETATM   15  N3  UNL     1       3.600  21.200   3.667  1.00  0.00    -0.291 N 
ATOM     16  H3  UNL     1       2.687  20.777   3.499  1.00  0.00     0.188 HD
BRANCH  15  17
HETATM   17  N4  UNL     1       4.712  20.404   3.760  1.00  0.00    -0.344 N 
ATOM     18  H42 UNL     1       5.575  20.713   3.313  1.00  0.00     0.176 HD
ATOM     19  H41 UNL     1       4.675  19.520   4.267  1.00  0.00     0.176 HD
ENDBRANCH  15  17
ENDBRANCH  11  15
ENDBRANCH   3   5
BRANCH   1  20
HETATM   20  C2  UNL     1       3.033  21.203   8.188  1.00  0.00     0.172 C 
HETATM   21  C1  UNL     1       1.839  20.349   7.758  1.00  0.00     0.059 C 
BRANCH  20  22
HETATM   22  O1  UNL     1       3.909  20.364   8.871  1.00  0.00    -0.378 OA
ATOM     23  H1  UNL     1       4.751  20.427   8.436  1.00  0.00     0.211 HD
ENDBRANCH  20  22
BRANCH  20  24
HETATM   24  C7  UNL     1       2.605  22.255   9.169  1.00  0.00     0.326 C 
BRANCH  24  25
HETATM   25  N5  UNL     1       1.323  21.890   9.798  1.00  0.00    -0.062 N 
ATOM     26  H53 UNL     1       0.748  21.316   9.181  1.00  0.00     0.275 HD
ATOM     27  H52 UNL     1       1.450  21.218  10.555  1.00  0.00     0.275 HD
ATOM     28  H51 UNL     1       0.825  22.723  10.112  1.00  0.00     0.275 HD
ENDBRANCH  24  25
BRANCH  24  29
HETATM   29  C8  UNL     1       3.566  22.330  10.329  1.00  0.00     0.208 C 
HETATM   30  O6  UNL     1       3.269  21.882  11.478  1.00  0.00    -0.646 OA
HETATM   31  O7  UNL     1       4.809  22.886  10.198  1.00  0.00    -0.646 OA
ENDBRANCH  24  29
ENDBRANCH  20  24
ENDBRANCH   1  20
TORSDOF 9
ENDMDL
