MODEL 1
REMARK VINA RESULT: -7.556271771      0.000      0.000
REMARK  7 active torsions:
REMARK  status: ('A' for Active; 'I' for Inactive)
REMARK    1  A    between atoms: C5_10  and  N3_11 
REMARK    2  A    between atoms: N3_11  and  C6_13 
REMARK    3  A    between atoms: C6_13  and  C7_19 
REMARK    4  A    between atoms: N4_14  and  N5_16 
REMARK    5  A    between atoms: C7_19  and  O3_20 
REMARK    6  A    between atoms: C7_19  and  N6_22 
REMARK    7  A    between atoms: N6_22  and  N7_24 
ROOT
HETATM    1  N3  UNL     1       4.610  22.027   1.937  1.00  0.00    -0.326 N 
ATOM      2  H3  UNL     1       3.740  21.960   1.407  1.00  0.00     0.169 HD
ENDROOT
BRANCH   1   3
HETATM    3  C5  UNL     1       5.644  21.338   1.601  1.00  0.00     0.127 A 
HETATM    4  C4  UNL     1       5.499  19.962   1.803  1.00  0.00     0.120 A 
HETATM    5  C3  UNL     1       4.344  19.408   2.316  1.00  0.00     0.267 A 
HETATM    6  C10 UNL     1       6.563  19.155   1.468  1.00  0.00     0.131 A 
HETATM    7  N2  UNL     1       4.284  18.073   2.481  1.00  0.00    -0.274 N 
HETATM    8  O2  UNL     1       3.405  20.182   2.605  1.00  0.00    -0.267 OA
HETATM    9  C2  UNL     1       5.316  17.271   2.159  1.00  0.00     0.330 A 
ATOM     10  H2  UNL     1       3.434  17.658   2.861  1.00  0.00     0.173 HD
HETATM   11  N1  UNL     1       6.439  17.819   1.658  1.00  0.00    -0.289 N 
HETATM   12  O1  UNL     1       5.250  16.013   2.317  1.00  0.00    -0.246 OA
HETATM   13  C1  UNL     1       7.562  16.996   1.302  1.00  0.00     0.163 C 
HETATM   14  N11 UNL     1       7.699  19.680   0.966  1.00  0.00    -0.337 N 
HETATM   15  C9  UNL     1       7.777  21.014   0.795  1.00  0.00     0.183 A 
ATOM     16  H11 UNL     1       8.485  19.077   0.720  1.00  0.00     0.168 HD
HETATM   17  N10 UNL     1       6.775  21.855   1.101  1.00  0.00    -0.338 N 
ATOM     18  H10 UNL     1       6.872  22.860   0.958  1.00  0.00     0.168 HD
ENDBRANCH   1   3
BRANCH   1  19
HETATM   19  C6  UNL     1       4.719  22.902   3.090  1.00  0.00     0.148 C 
HETATM   20  N4  UNL     1       5.130  22.427   4.203  1.00  0.00    -0.292 N 
ATOM     21  H4  UNL     1       5.357  21.433   4.196  1.00  0.00     0.188 HD
BRANCH  20  22
HETATM   22  N5  UNL     1       5.310  23.057   5.404  1.00  0.00    -0.344 N 
ATOM     23  H52 UNL     1       5.281  24.075   5.348  1.00  0.00     0.176 HD
ATOM     24  H51 UNL     1       5.467  22.657   6.329  1.00  0.00     0.176 HD
ENDBRANCH  20  22
BRANCH  19  25
HETATM   25  C7  UNL     1       4.376  24.331   2.980  1.00  0.00     0.302 C 
BRANCH  25  26
HETATM   26  O3  UNL     1       5.386  25.179   3.424  1.00  0.00    -0.368 OA
ATOM     27  H3  UNL     1       5.091  26.069   3.579  1.00  0.00     0.212 HD
ENDBRANCH  25  26
BRANCH  25  28
HETATM   28  N6  UNL     1       3.175  24.619   3.712  1.00  0.00    -0.299 N 
ATOM     29  H6  UNL     1       3.151  25.361   4.412  1.00  0.00     0.183 HD
BRANCH  28  30
HETATM   30  N7  UNL     1       2.025  23.840   3.434  1.00  0.00    -0.278 N 
HETATM   31  C8  UNL     1       1.587  23.058   4.349  1.00  0.00     0.215 C 
HETATM   32  N8  UNL     1       2.246  22.990   5.587  1.00  0.00    -0.065 NA
HETATM   33  N9  UNL     1       0.431  22.272   4.076  1.00  0.00    -0.065 NA
ATOM     34  H7  UNL     1       1.557  23.902   2.529  1.00  0.00     0.189 HD
ENDBRANCH  28  30
ENDBRANCH  25  28
ENDBRANCH  19  25
ENDBRANCH   1  19
TORSDOF 7
ENDMDL
MODEL 2
REMARK VINA RESULT: -7.438071311      1.568      2.441
REMARK  7 active torsions:
REMARK  status: ('A' for Active; 'I' for Inactive)
REMARK    1  A    between atoms: C5_10  and  N3_11 
REMARK    2  A    between atoms: N3_11  and  C6_13 
REMARK    3  A    between atoms: C6_13  and  C7_19 
REMARK    4  A    between atoms: N4_14  and  N5_16 
REMARK    5  A    between atoms: C7_19  and  O3_20 
REMARK    6  A    between atoms: C7_19  and  N6_22 
REMARK    7  A    between atoms: N6_22  and  N7_24 
ROOT
HETATM    1  N3  UNL     1       4.782  22.457   1.882  1.00  0.00    -0.326 N 
ATOM      2  H3  UNL     1       5.090  22.648   0.928  1.00  0.00     0.169 HD
ENDROOT
BRANCH   1   3
HETATM    3  C5  UNL     1       4.591  21.251   2.287  1.00  0.00     0.127 A 
HETATM    4  C4  UNL     1       5.613  20.365   1.932  1.00  0.00     0.120 A 
HETATM    5  C3  UNL     1       6.720  20.764   1.212  1.00  0.00     0.267 A 
HETATM    6  C10 UNL     1       5.483  19.053   2.330  1.00  0.00     0.131 A 
HETATM    7  N2  UNL     1       7.660  19.848   0.910  1.00  0.00    -0.274 N 
HETATM    8  O2  UNL     1       6.793  21.966   0.874  1.00  0.00    -0.267 OA
HETATM    9  C2  UNL     1       7.547  18.563   1.292  1.00  0.00     0.330 A 
ATOM     10  H2  UNL     1       8.480  20.137   0.377  1.00  0.00     0.173 HD
HETATM   11  N1  UNL     1       6.464  18.181   1.995  1.00  0.00    -0.289 N 
HETATM   12  O1  UNL     1       8.439  17.707   1.003  1.00  0.00    -0.246 OA
HETATM   13  C1  UNL     1       6.308  16.817   2.419  1.00  0.00     0.163 C 
HETATM   14  N11 UNL     1       4.407  18.646   3.034  1.00  0.00    -0.337 N 
HETATM   15  C9  UNL     1       3.457  19.549   3.345  1.00  0.00     0.183 A 
ATOM     16  H11 UNL     1       4.315  17.673   3.326  1.00  0.00     0.168 HD
HETATM   17  N10 UNL     1       3.524  20.843   2.987  1.00  0.00    -0.338 N 
ATOM     18  H10 UNL     1       2.783  21.496   3.241  1.00  0.00     0.168 HD
ENDBRANCH   1   3
BRANCH   1  19
HETATM   19  C6  UNL     1       4.545  23.538   2.822  1.00  0.00     0.148 C 
HETATM   20  N4  UNL     1       5.297  23.653   3.850  1.00  0.00    -0.292 N 
ATOM     21  H4  UNL     1       6.031  22.950   3.934  1.00  0.00     0.188 HD
BRANCH  20  22
HETATM   22  N5  UNL     1       5.261  24.582   4.854  1.00  0.00    -0.344 N 
ATOM     23  H52 UNL     1       4.393  24.582   5.389  1.00  0.00     0.176 HD
ATOM     24  H51 UNL     1       5.969  25.260   5.135  1.00  0.00     0.176 HD
ENDBRANCH  20  22
BRANCH  19  25
HETATM   25  C7  UNL     1       3.460  24.508   2.590  1.00  0.00     0.302 C 
BRANCH  25  26
HETATM   26  O3  UNL     1       3.912  25.809   2.391  1.00  0.00    -0.368 OA
ATOM     27  H3  UNL     1       3.337  26.329   1.842  1.00  0.00     0.212 HD
ENDBRANCH  25  26
BRANCH  25  28
HETATM   28  N6  UNL     1       2.536  24.502   3.689  1.00  0.00    -0.299 N 
ATOM     29  H6  UNL     1       2.583  25.214   4.419  1.00  0.00     0.183 HD
BRANCH  28  30
HETATM   30  N7  UNL     1       1.559  23.478   3.730  1.00  0.00    -0.278 N 
HETATM   31  C8  UNL     1       1.632  22.608   4.667  1.00  0.00     0.215 C 
HETATM   32  N8  UNL     1       2.663  22.687   5.618  1.00  0.00    -0.065 NA
HETATM   33  N9  UNL     1       0.652  21.575   4.715  1.00  0.00    -0.065 NA
ATOM     34  H7  UNL     1       0.816  23.435   3.032  1.00  0.00     0.189 HD
ENDBRANCH  28  30
ENDBRANCH  25  28
ENDBRANCH  19  25
ENDBRANCH   1  19
TORSDOF 7
ENDMDL
MODEL 3
REMARK VINA RESULT: -7.301299613      1.833      2.691
REMARK  7 active torsions:
REMARK  status: ('A' for Active; 'I' for Inactive)
REMARK    1  A    between atoms: C5_10  and  N3_11 
REMARK    2  A    between atoms: N3_11  and  C6_13 
REMARK    3  A    between atoms: C6_13  and  C7_19 
REMARK    4  A    between atoms: N4_14  and  N5_16 
REMARK    5  A    between atoms: C7_19  and  O3_20 
REMARK    6  A    between atoms: C7_19  and  N6_22 
REMARK    7  A    between atoms: N6_22  and  N7_24 
ROOT
HETATM    1  N3  UNL     1       3.395  22.653   3.220  1.00  0.00    -0.326 N 
ATOM      2  H3  UNL     1       2.524  22.262   3.579  1.00  0.00     0.169 HD
ENDROOT
BRANCH   1   3
HETATM    3  C5  UNL     1       4.292  21.897   2.690  1.00  0.00     0.127 A 
HETATM    4  C4  UNL     1       4.298  20.591   3.187  1.00  0.00     0.120 A 
HETATM    5  C3  UNL     1       3.415  20.165   4.159  1.00  0.00     0.267 A 
HETATM    6  C10 UNL     1       5.229  19.718   2.670  1.00  0.00     0.131 A 
HETATM    7  N2  UNL     1       3.487  18.890   4.585  1.00  0.00    -0.274 N 
HETATM    8  O2  UNL     1       2.588  20.994   4.597  1.00  0.00    -0.267 OA
HETATM    9  C2  UNL     1       4.392  18.026   4.089  1.00  0.00     0.330 A 
ATOM     10  H2  UNL     1       2.838  18.570   5.304  1.00  0.00     0.173 HD
HETATM   11  N1  UNL     1       5.249  18.448   3.140  1.00  0.00    -0.289 N 
HETATM   12  O1  UNL     1       4.451  16.825   4.496  1.00  0.00    -0.246 OA
HETATM   13  C1  UNL     1       6.230  17.555   2.587  1.00  0.00     0.163 C 
HETATM   14  N11 UNL     1       6.099  20.117   1.720  1.00  0.00    -0.337 N 
HETATM   15  C9  UNL     1       6.042  21.390   1.282  1.00  0.00     0.183 A 
ATOM     16  H11 UNL     1       6.788  19.467   1.340  1.00  0.00     0.168 HD
HETATM   17  N10 UNL     1       5.158  22.289   1.746  1.00  0.00    -0.338 N 
ATOM     18  H10 UNL     1       5.147  23.245   1.389  1.00  0.00     0.168 HD
ENDBRANCH   1   3
BRANCH   1  19
HETATM   19  C6  UNL     1       3.661  24.079   3.290  1.00  0.00     0.148 C 
HETATM   20  N4  UNL     1       3.001  24.879   2.544  1.00  0.00    -0.292 N 
ATOM     21  H4  UNL     1       2.314  24.438   1.932  1.00  0.00     0.188 HD
BRANCH  20  22
HETATM   22  N5  UNL     1       3.081  26.241   2.444  1.00  0.00    -0.344 N 
ATOM     23  H52 UNL     1       2.691  26.740   3.244  1.00  0.00     0.176 HD
ATOM     24  H51 UNL     1       3.469  26.815   1.696  1.00  0.00     0.176 HD
ENDBRANCH  20  22
BRANCH  19  25
HETATM   25  C7  UNL     1       4.671  24.607   4.225  1.00  0.00     0.302 C 
BRANCH  25  26
HETATM   26  O3  UNL     1       5.850  25.003   3.602  1.00  0.00    -0.368 OA
ATOM     27  H3  UNL     1       6.362  25.616   4.117  1.00  0.00     0.212 HD
ENDBRANCH  25  26
BRANCH  25  28
HETATM   28  N6  UNL     1       4.984  23.632   5.231  1.00  0.00    -0.299 N 
ATOM     29  H6  UNL     1       5.872  23.130   5.218  1.00  0.00     0.183 HD
BRANCH  28  30
HETATM   30  N7  UNL     1       4.022  23.389   6.243  1.00  0.00    -0.278 N 
HETATM   31  C8  UNL     1       4.289  22.505   7.131  1.00  0.00     0.215 C 
HETATM   32  N8  UNL     1       5.507  21.808   7.083  1.00  0.00    -0.065 NA
HETATM   33  N9  UNL     1       3.327  22.255   8.152  1.00  0.00    -0.065 NA
ATOM     34  H7  UNL     1       3.142  23.904   6.263  1.00  0.00     0.189 HD
ENDBRANCH  28  30
ENDBRANCH  25  28
ENDBRANCH  19  25
ENDBRANCH   1  19
TORSDOF 7
ENDMDL
MODEL 4
REMARK VINA RESULT: -7.249020979      1.848      3.160
REMARK  7 active torsions:
REMARK  status: ('A' for Active; 'I' for Inactive)
REMARK    1  A    between atoms: C5_10  and  N3_11 
REMARK    2  A    between atoms: N3_11  and  C6_13 
REMARK    3  A    between atoms: C6_13  and  C7_19 
REMARK    4  A    between atoms: N4_14  and  N5_16 
REMARK    5  A    between atoms: C7_19  and  O3_20 
REMARK    6  A    between atoms: C7_19  and  N6_22 
REMARK    7  A    between atoms: N6_22  and  N7_24 
ROOT
HETATM    1  N3  UNL     1       3.718  21.129   3.043  1.00  0.00    -0.326 N 
ATOM      2  H3  UNL     1       3.306  21.474   2.176  1.00  0.00     0.169 HD
ENDROOT
BRANCH   1   3
HETATM    3  C5  UNL     1       4.179  19.930   3.126  1.00  0.00     0.127 A 
HETATM    4  C4  UNL     1       5.322  19.707   2.353  1.00  0.00     0.120 A 
HETATM    5  C3  UNL     1       5.893  20.694   1.576  1.00  0.00     0.267 A 
HETATM    6  C10 UNL     1       5.877  18.447   2.389  1.00  0.00     0.131 A 
HETATM    7  N2  UNL     1       6.994  20.397   0.859  1.00  0.00    -0.274 N 
HETATM    8  O2  UNL     1       5.353  21.822   1.577  1.00  0.00    -0.267 OA
HETATM    9  C2  UNL     1       7.548  19.171   0.884  1.00  0.00     0.330 A 
ATOM     10  H2  UNL     1       7.420  21.122   0.282  1.00  0.00     0.173 HD
HETATM   11  N1  UNL     1       6.985  18.214   1.646  1.00  0.00    -0.289 N 
HETATM   12  O1  UNL     1       8.586  18.901   0.206  1.00  0.00    -0.246 OA
HETATM   13  C1  UNL     1       7.547  16.892   1.697  1.00  0.00     0.163 C 
HETATM   14  N11 UNL     1       5.332  17.471   3.143  1.00  0.00    -0.337 N 
HETATM   15  C9  UNL     1       4.230  17.750   3.866  1.00  0.00     0.183 A 
ATOM     16  H11 UNL     1       5.747  16.540   3.166  1.00  0.00     0.168 HD
HETATM   17  N10 UNL     1       3.641  18.958   3.875  1.00  0.00    -0.338 N 
ATOM     18  H10 UNL     1       2.806  19.130   4.435  1.00  0.00     0.168 HD
ENDBRANCH   1   3
BRANCH   1  19
HETATM   19  C6  UNL     1       3.804  21.975   4.219  1.00  0.00     0.148 C 
HETATM   20  N4  UNL     1       4.946  22.216   4.740  1.00  0.00    -0.292 N 
ATOM     21  H4  UNL     1       5.739  21.777   4.272  1.00  0.00     0.188 HD
BRANCH  20  22
HETATM   22  N5  UNL     1       5.261  22.976   5.833  1.00  0.00    -0.344 N 
ATOM     23  H52 UNL     1       5.016  22.545   6.723  1.00  0.00     0.176 HD
ATOM     24  H51 UNL     1       5.699  23.897   5.878  1.00  0.00     0.176 HD
ENDBRANCH  20  22
BRANCH  19  25
HETATM   25  C7  UNL     1       2.588  22.570   4.803  1.00  0.00     0.302 C 
BRANCH  25  26
HETATM   26  O3  UNL     1       1.419  22.205   4.143  1.00  0.00    -0.368 OA
ATOM     27  H3  UNL     1       1.565  21.609   3.417  1.00  0.00     0.212 HD
ENDBRANCH  25  26
BRANCH  25  28
HETATM   28  N6  UNL     1       2.684  24.002   4.816  1.00  0.00    -0.299 N 
ATOM     29  H6  UNL     1       2.944  24.505   5.665  1.00  0.00     0.183 HD
BRANCH  28  30
HETATM   30  N7  UNL     1       2.405  24.697   3.613  1.00  0.00    -0.278 N 
HETATM   31  C8  UNL     1       3.371  25.296   3.023  1.00  0.00     0.215 C 
HETATM   32  N8  UNL     1       4.663  25.253   3.571  1.00  0.00    -0.065 NA
HETATM   33  N9  UNL     1       3.099  25.997   1.812  1.00  0.00    -0.065 NA
ATOM     34  H7  UNL     1       1.461  24.719   3.227  1.00  0.00     0.189 HD
ENDBRANCH  28  30
ENDBRANCH  25  28
ENDBRANCH  19  25
ENDBRANCH   1  19
TORSDOF 7
ENDMDL
MODEL 5
REMARK VINA RESULT: -7.175151516      1.942      3.249
REMARK  7 active torsions:
REMARK  status: ('A' for Active; 'I' for Inactive)
REMARK    1  A    between atoms: C5_10  and  N3_11 
REMARK    2  A    between atoms: N3_11  and  C6_13 
REMARK    3  A    between atoms: C6_13  and  C7_19 
REMARK    4  A    between atoms: N4_14  and  N5_16 
REMARK    5  A    between atoms: C7_19  and  O3_20 
REMARK    6  A    between atoms: C7_19  and  N6_22 
REMARK    7  A    between atoms: N6_22  and  N7_24 
ROOT
HETATM    1  N3  UNL     1       3.844  21.877   2.488  1.00  0.00    -0.326 N 
ATOM      2  H3  UNL     1       3.896  22.069   1.487  1.00  0.00     0.169 HD
ENDROOT
BRANCH   1   3
HETATM    3  C5  UNL     1       3.991  20.681   2.941  1.00  0.00     0.127 A 
HETATM    4  C4  UNL     1       5.129  20.028   2.459  1.00  0.00     0.120 A 
HETATM    5  C3  UNL     1       6.006  20.625   1.577  1.00  0.00     0.267 A 
HETATM    6  C10 UNL     1       5.358  18.743   2.899  1.00  0.00     0.131 A 
HETATM    7  N2  UNL     1       7.079  19.927   1.160  1.00  0.00    -0.274 N 
HETATM    8  O2  UNL     1       5.755  21.793   1.207  1.00  0.00    -0.267 OA
HETATM    9  C2  UNL     1       7.316  18.671   1.580  1.00  0.00     0.330 A 
ATOM     10  H2  UNL     1       7.731  20.362   0.507  1.00  0.00     0.173 HD
HETATM   11  N1  UNL     1       6.456  18.095   2.442  1.00  0.00    -0.289 N 
HETATM   12  O1  UNL     1       8.331  18.021   1.182  1.00  0.00    -0.246 OA
HETATM   13  C1  UNL     1       6.675  16.755   2.912  1.00  0.00     0.163 C 
HETATM   14  N11 UNL     1       4.511  18.145   3.761  1.00  0.00    -0.337 N 
HETATM   15  C9  UNL     1       3.432  18.828   4.189  1.00  0.00     0.183 A 
ATOM     16  H11 UNL     1       4.685  17.192   4.083  1.00  0.00     0.168 HD
HETATM   17  N10 UNL     1       3.152  20.083   3.798  1.00  0.00    -0.338 N 
ATOM     18  H10 UNL     1       2.323  20.567   4.144  1.00  0.00     0.168 HD
ENDBRANCH   1   3
BRANCH   1  19
HETATM   19  C6  UNL     1       3.602  22.943   3.443  1.00  0.00     0.148 C 
HETATM   20  N4  UNL     1       2.404  23.201   3.808  1.00  0.00    -0.292 N 
ATOM     21  H4  UNL     1       1.684  22.617   3.383  1.00  0.00     0.188 HD
BRANCH  20  22
HETATM   22  N5  UNL     1       1.947  24.145   4.686  1.00  0.00    -0.344 N 
ATOM     23  H52 UNL     1       2.434  24.152   5.581  1.00  0.00     0.176 HD
ATOM     24  H51 UNL     1       1.200  24.830   4.570  1.00  0.00     0.176 HD
ENDBRANCH  20  22
BRANCH  19  25
HETATM   25  C7  UNL     1       4.725  23.714   4.004  1.00  0.00     0.302 C 
BRANCH  25  26
HETATM   26  O3  UNL     1       5.678  24.077   3.057  1.00  0.00    -0.368 OA
ATOM     27  H3  UNL     1       5.435  23.844   2.168  1.00  0.00     0.212 HD
ENDBRANCH  25  26
BRANCH  25  28
HETATM   28  N6  UNL     1       5.372  22.974   5.051  1.00  0.00    -0.299 N 
ATOM     29  H6  UNL     1       6.057  22.250   4.836  1.00  0.00     0.183 HD
BRANCH  28  30
HETATM   30  N7  UNL     1       5.028  23.280   6.390  1.00  0.00    -0.278 N 
HETATM   31  C8  UNL     1       4.490  22.361   7.102  1.00  0.00     0.215 C 
HETATM   32  N8  UNL     1       4.255  21.092   6.548  1.00  0.00    -0.065 NA
HETATM   33  N9  UNL     1       4.142  22.661   8.451  1.00  0.00    -0.065 NA
ATOM     34  H7  UNL     1       5.205  24.207   6.778  1.00  0.00     0.189 HD
ENDBRANCH  28  30
ENDBRANCH  25  28
ENDBRANCH  19  25
ENDBRANCH   1  19
TORSDOF 7
ENDMDL
