MODEL 1
REMARK VINA RESULT: -6.561612215      0.000      0.000
REMARK  7 active torsions:
REMARK  status: ('A' for Active; 'I' for Inactive)
REMARK    1  A    between atoms: C3_9  and  C4_10 
REMARK       I    between atoms: C4_10  and  N3_12 
REMARK    2  A    between atoms: N3_12  and  N4_14 
REMARK    3  A    between atoms: N6_25  and  C9_26 
REMARK    4  A    between atoms: C9_26  and  C10_27 
REMARK    5  A    between atoms: C10_27  and  O5_28 
REMARK    6  A    between atoms: C10_27  and  C11_30 
REMARK    7  A    between atoms: C11_30  and  O6_31 
ROOT
HETATM    1  N1  UNL     1       5.818  22.155   1.633  1.00  0.00    -0.394 N 
ATOM      2  H11 UNL     1       6.708  22.371   1.185  1.00  0.00     0.156 HD
ATOM      3  H12 UNL     1       5.271  22.971   1.909  1.00  0.00     0.156 HD
HETATM    4  C1  UNL     1       5.514  20.942   1.789  1.00  0.00     0.112 C 
HETATM    5  C2  UNL     1       4.210  20.626   2.444  1.00  0.00     0.269 C 
HETATM    6  O1  UNL     1       3.482  21.597   2.802  1.00  0.00    -0.266 OA
HETATM    7  N2  UNL     1       3.857  19.286   2.630  1.00  0.00    -0.337 N 
ATOM      8  H2  UNL     1       3.148  19.067   3.330  1.00  0.00     0.164 HD
HETATM    9  C3  UNL     1       4.439  18.197   1.888  1.00  0.00     0.230 C 
HETATM   10  C5  UNL     1       5.858  18.459   1.589  1.00  0.00     0.066 A 
HETATM   11  C6  UNL     1       6.299  19.771   1.392  1.00  0.00     0.089 A 
HETATM   12  C7  UNL     1       7.590  19.989   0.950  1.00  0.00     0.264 A 
HETATM   13  O3  UNL     1       8.034  21.142   0.752  1.00  0.00    -0.267 OA
HETATM   14  N5  UNL     1       8.419  18.925   0.717  1.00  0.00    -0.275 N 
ATOM     15  H5  UNL     1       9.373  19.079   0.390  1.00  0.00     0.173 HD
HETATM   16  C8  UNL     1       7.973  17.688   0.921  1.00  0.00     0.329 A 
HETATM   17  O4  UNL     1       8.790  16.729   0.690  1.00  0.00    -0.246 OA
HETATM   18  N6  UNL     1       6.727  17.463   1.346  1.00  0.00    -0.297 N 
ENDROOT
BRANCH   9  19
HETATM   19  C4  UNL     1       3.611  18.135   0.619  1.00  0.00     0.264 C 
HETATM   20  O2  UNL     1       4.155  17.773  -0.459  1.00  0.00    -0.269 OA
HETATM   21  N3  UNL     1       2.243  18.459   0.573  1.00  0.00    -0.275 N 
ATOM     22  H3  UNL     1       1.781  18.750   1.435  1.00  0.00     0.189 HD
BRANCH  21  23
HETATM   23  N4  UNL     1       1.486  18.401  -0.607  1.00  0.00    -0.343 N 
ATOM     24  H42 UNL     1       1.958  18.629  -1.482  1.00  0.00     0.176 HD
ATOM     25  H41 UNL     1       0.499  18.143  -0.618  1.00  0.00     0.176 HD
ENDBRANCH  21  23
ENDBRANCH   9  19
BRANCH  18  26
HETATM   26  C9  UNL     1       6.389  16.087   1.601  1.00  0.00     0.167 C 
BRANCH  26  27
HETATM   27  C10 UNL     1       6.918  15.706   2.965  1.00  0.00     0.160 C 
BRANCH  27  28
HETATM   28  O5  UNL     1       6.015  15.879   3.996  1.00  0.00    -0.392 OA
ATOM     29  H5  UNL     1       5.528  15.096   4.227  1.00  0.00     0.210 HD
ENDBRANCH  27  28
BRANCH  27  30
HETATM   30  C11 UNL     1       7.423  14.272   2.918  1.00  0.00     0.197 C 
BRANCH  30  31
HETATM   31  O6  UNL     1       8.041  13.983   1.724  1.00  0.00    -0.398 OA
ATOM     32  H6  UNL     1       7.670  14.476   1.002  1.00  0.00     0.209 HD
ENDBRANCH  30  31
ENDBRANCH  27  30
ENDBRANCH  26  27
ENDBRANCH  18  26
TORSDOF 7
ENDMDL
MODEL 2
REMARK VINA RESULT: -6.452000437      4.244      7.315
REMARK  7 active torsions:
REMARK  status: ('A' for Active; 'I' for Inactive)
REMARK    1  A    between atoms: C3_9  and  C4_10 
REMARK       I    between atoms: C4_10  and  N3_12 
REMARK    2  A    between atoms: N3_12  and  N4_14 
REMARK    3  A    between atoms: N6_25  and  C9_26 
REMARK    4  A    between atoms: C9_26  and  C10_27 
REMARK    5  A    between atoms: C10_27  and  O5_28 
REMARK    6  A    between atoms: C10_27  and  C11_30 
REMARK    7  A    between atoms: C11_30  and  O6_31 
ROOT
HETATM    1  N1  UNL     1       3.528  19.773   2.049  1.00  0.00    -0.394 N 
ATOM      2  H11 UNL     1       2.846  19.076   2.348  1.00  0.00     0.156 HD
ATOM      3  H12 UNL     1       3.848  19.669   1.086  1.00  0.00     0.156 HD
HETATM    4  C1  UNL     1       3.884  20.647   2.883  1.00  0.00     0.112 C 
HETATM    5  C2  UNL     1       4.882  21.668   2.445  1.00  0.00     0.269 C 
HETATM    6  O1  UNL     1       5.312  21.597   1.257  1.00  0.00    -0.266 OA
HETATM    7  N2  UNL     1       5.293  22.644   3.358  1.00  0.00    -0.337 N 
ATOM      8  H2  UNL     1       6.171  23.131   3.179  1.00  0.00     0.164 HD
HETATM    9  C3  UNL     1       4.544  22.999   4.537  1.00  0.00     0.230 C 
HETATM   10  C5  UNL     1       3.864  21.823   5.106  1.00  0.00     0.066 A 
HETATM   11  C6  UNL     1       3.423  20.796   4.266  1.00  0.00     0.089 A 
HETATM   12  C7  UNL     1       2.643  19.783   4.791  1.00  0.00     0.264 A 
HETATM   13  O3  UNL     1       2.218  18.844   4.083  1.00  0.00    -0.267 OA
HETATM   14  N5  UNL     1       2.318  19.794   6.121  1.00  0.00    -0.275 N 
ATOM     15  H5  UNL     1       1.742  19.050   6.514  1.00  0.00     0.173 HD
HETATM   16  C8  UNL     1       2.759  20.781   6.896  1.00  0.00     0.329 A 
HETATM   17  O4  UNL     1       2.428  20.741   8.133  1.00  0.00    -0.246 OA
HETATM   18  N6  UNL     1       3.512  21.767   6.402  1.00  0.00    -0.297 N 
ENDROOT
BRANCH   9  19
HETATM   19  C4  UNL     1       3.545  24.027   4.040  1.00  0.00     0.264 C 
HETATM   20  O2  UNL     1       2.324  23.889   4.321  1.00  0.00    -0.269 OA
HETATM   21  N3  UNL     1       3.908  25.149   3.272  1.00  0.00    -0.275 N 
ATOM     22  H3  UNL     1       4.892  25.282   3.038  1.00  0.00     0.189 HD
BRANCH  21  23
HETATM   23  N4  UNL     1       2.976  26.092   2.816  1.00  0.00    -0.343 N 
ATOM     24  H42 UNL     1       2.511  26.673   3.514  1.00  0.00     0.176 HD
ATOM     25  H41 UNL     1       2.751  26.214   1.828  1.00  0.00     0.176 HD
ENDBRANCH  21  23
ENDBRANCH   9  19
BRANCH  18  26
HETATM   26  C9  UNL     1       3.988  22.733   7.357  1.00  0.00     0.167 C 
BRANCH  26  27
HETATM   27  C10 UNL     1       5.102  22.104   8.163  1.00  0.00     0.160 C 
BRANCH  27  28
HETATM   28  O5  UNL     1       6.346  22.169   7.566  1.00  0.00    -0.392 OA
ATOM     29  H5  UNL     1       7.031  21.711   8.037  1.00  0.00     0.210 HD
ENDBRANCH  27  28
BRANCH  27  30
HETATM   30  C11 UNL     1       5.129  22.735   9.547  1.00  0.00     0.197 C 
BRANCH  30  31
HETATM   31  O6  UNL     1       4.130  22.245  10.356  1.00  0.00    -0.398 OA
ATOM     32  H6  UNL     1       4.040  22.750  11.156  1.00  0.00     0.209 HD
ENDBRANCH  30  31
ENDBRANCH  27  30
ENDBRANCH  26  27
ENDBRANCH  18  26
TORSDOF 7
ENDMDL
MODEL 3
REMARK VINA RESULT: -6.344128475      4.304      7.467
REMARK  7 active torsions:
REMARK  status: ('A' for Active; 'I' for Inactive)
REMARK    1  A    between atoms: C3_9  and  C4_10 
REMARK       I    between atoms: C4_10  and  N3_12 
REMARK    2  A    between atoms: N3_12  and  N4_14 
REMARK    3  A    between atoms: N6_25  and  C9_26 
REMARK    4  A    between atoms: C9_26  and  C10_27 
REMARK    5  A    between atoms: C10_27  and  O5_28 
REMARK    6  A    between atoms: C10_27  and  C11_30 
REMARK    7  A    between atoms: C11_30  and  O6_31 
ROOT
HETATM    1  N1  UNL     1       1.905  19.469   2.689  1.00  0.00    -0.394 N 
ATOM      2  H11 UNL     1       0.994  19.300   3.114  1.00  0.00     0.156 HD
ATOM      3  H12 UNL     1       2.060  18.981   1.806  1.00  0.00     0.156 HD
HETATM    4  C1  UNL     1       2.706  20.233   3.290  1.00  0.00     0.112 C 
HETATM    5  C2  UNL     1       4.040  20.479   2.667  1.00  0.00     0.269 C 
HETATM    6  O1  UNL     1       4.289  19.907   1.566  1.00  0.00    -0.266 OA
HETATM    7  N2  UNL     1       4.945  21.321   3.321  1.00  0.00    -0.337 N 
ATOM      8  H2  UNL     1       5.933  21.249   3.078  1.00  0.00     0.164 HD
HETATM    9  C3  UNL     1       4.559  22.285   4.321  1.00  0.00     0.230 C 
HETATM   10  C5  UNL     1       3.434  21.785   5.130  1.00  0.00     0.066 A 
HETATM   11  C6  UNL     1       2.484  20.935   4.557  1.00  0.00     0.089 A 
HETATM   12  C7  UNL     1       1.349  20.609   5.276  1.00  0.00     0.264 A 
HETATM   13  O3  UNL     1       0.465  19.857   4.808  1.00  0.00    -0.267 OA
HETATM   14  N5  UNL     1       1.172  21.115   6.535  1.00  0.00    -0.275 N 
ATOM     15  H5  UNL     1       0.337  20.879   7.070  1.00  0.00     0.173 HD
HETATM   16  C8  UNL     1       2.097  21.916   7.056  1.00  0.00     0.329 A 
HETATM   17  O4  UNL     1       1.884  22.360   8.239  1.00  0.00    -0.246 OA
HETATM   18  N6  UNL     1       3.198  22.240   6.372  1.00  0.00    -0.297 N 
ENDROOT
BRANCH   9  19
HETATM   19  C4  UNL     1       4.158  23.506   3.515  1.00  0.00     0.264 C 
HETATM   20  O2  UNL     1       5.051  24.205   2.965  1.00  0.00    -0.269 OA
HETATM   21  N3  UNL     1       2.822  23.910   3.338  1.00  0.00    -0.275 N 
ATOM     22  H3  UNL     1       2.083  23.355   3.770  1.00  0.00     0.189 HD
BRANCH  21  23
HETATM   23  N4  UNL     1       2.463  25.043   2.593  1.00  0.00    -0.343 N 
ATOM     24  H42 UNL     1       3.008  25.249   1.755  1.00  0.00     0.176 HD
ATOM     25  H41 UNL     1       1.690  25.655   2.855  1.00  0.00     0.176 HD
ENDBRANCH  21  23
ENDBRANCH   9  19
BRANCH  18  26
HETATM   26  C9  UNL     1       4.158  23.053   7.075  1.00  0.00     0.167 C 
BRANCH  26  27
HETATM   27  C10 UNL     1       5.132  22.140   7.784  1.00  0.00     0.160 C 
BRANCH  27  28
HETATM   28  O5  UNL     1       6.346  21.991   7.142  1.00  0.00    -0.392 OA
ATOM     29  H5  UNL     1       6.512  21.115   6.815  1.00  0.00     0.210 HD
ENDBRANCH  27  28
BRANCH  27  30
HETATM   30  C11 UNL     1       5.326  22.635   9.209  1.00  0.00     0.197 C 
BRANCH  30  31
HETATM   31  O6  UNL     1       4.328  22.198  10.047  1.00  0.00    -0.398 OA
ATOM     32  H6  UNL     1       4.374  21.262  10.200  1.00  0.00     0.209 HD
ENDBRANCH  30  31
ENDBRANCH  27  30
ENDBRANCH  26  27
ENDBRANCH  18  26
TORSDOF 7
ENDMDL
MODEL 4
REMARK VINA RESULT: -6.256820659      4.185      7.726
REMARK  7 active torsions:
REMARK  status: ('A' for Active; 'I' for Inactive)
REMARK    1  A    between atoms: C3_9  and  C4_10 
REMARK       I    between atoms: C4_10  and  N3_12 
REMARK    2  A    between atoms: N3_12  and  N4_14 
REMARK    3  A    between atoms: N6_25  and  C9_26 
REMARK    4  A    between atoms: C9_26  and  C10_27 
REMARK    5  A    between atoms: C10_27  and  O5_28 
REMARK    6  A    between atoms: C10_27  and  C11_30 
REMARK    7  A    between atoms: C11_30  and  O6_31 
ROOT
HETATM    1  N1  UNL     1       2.400  18.467   5.870  1.00  0.00    -0.394 N 
ATOM      2  H11 UNL     1       2.749  17.912   5.089  1.00  0.00     0.156 HD
ATOM      3  H12 UNL     1       1.884  17.937   6.572  1.00  0.00     0.156 HD
HETATM    4  C1  UNL     1       2.639  19.704   5.870  1.00  0.00     0.112 C 
HETATM    5  C2  UNL     1       2.130  20.516   7.014  1.00  0.00     0.269 C 
HETATM    6  O1  UNL     1       1.487  19.913   7.923  1.00  0.00    -0.266 OA
HETATM    7  N2  UNL     1       2.381  21.892   7.030  1.00  0.00    -0.337 N 
ATOM      8  H2  UNL     1       1.792  22.482   7.617  1.00  0.00     0.164 HD
HETATM    9  C3  UNL     1       3.426  22.520   6.263  1.00  0.00     0.230 C 
HETATM   10  C5  UNL     1       3.615  21.840   4.970  1.00  0.00     0.066 A 
HETATM   11  C6  UNL     1       3.382  20.466   4.862  1.00  0.00     0.089 A 
HETATM   12  C7  UNL     1       3.721  19.813   3.692  1.00  0.00     0.264 A 
HETATM   13  O3  UNL     1       3.539  18.584   3.546  1.00  0.00    -0.267 OA
HETATM   14  N5  UNL     1       4.273  20.517   2.656  1.00  0.00    -0.275 N 
ATOM     15  H5  UNL     1       4.527  20.041   1.790  1.00  0.00     0.173 HD
HETATM   16  C8  UNL     1       4.476  21.825   2.785  1.00  0.00     0.329 A 
HETATM   17  O4  UNL     1       4.993  22.436   1.785  1.00  0.00    -0.246 OA
HETATM   18  N6  UNL     1       4.155  22.468   3.911  1.00  0.00    -0.297 N 
ENDROOT
BRANCH   9  19
HETATM   19  C4  UNL     1       4.656  22.386   7.141  1.00  0.00     0.264 C 
HETATM   20  O2  UNL     1       4.551  22.563   8.384  1.00  0.00    -0.269 OA
HETATM   21  N3  UNL     1       5.931  22.064   6.640  1.00  0.00    -0.275 N 
ATOM     22  H3  UNL     1       6.036  21.912   5.637  1.00  0.00     0.189 HD
BRANCH  21  23
HETATM   23  N4  UNL     1       7.062  21.945   7.460  1.00  0.00    -0.343 N 
ATOM     24  H42 UNL     1       7.723  22.722   7.469  1.00  0.00     0.176 HD
ATOM     25  H41 UNL     1       7.242  21.122   8.037  1.00  0.00     0.176 HD
ENDBRANCH  21  23
ENDBRANCH   9  19
BRANCH  18  26
HETATM   26  C9  UNL     1       4.353  23.894   3.899  1.00  0.00     0.167 C 
BRANCH  26  27
HETATM   27  C10 UNL     1       3.022  24.563   3.641  1.00  0.00     0.160 C 
BRANCH  27  28
HETATM   28  O5  UNL     1       2.604  25.411   4.648  1.00  0.00    -0.392 OA
ATOM     29  H5  UNL     1       2.891  26.311   4.547  1.00  0.00     0.210 HD
ENDBRANCH  27  28
BRANCH  27  30
HETATM   30  C11 UNL     1       3.083  25.290   2.306  1.00  0.00     0.197 C 
BRANCH  30  31
HETATM   31  O6  UNL     1       3.055  26.656   2.461  1.00  0.00    -0.398 OA
ATOM     32  H6  UNL     1       3.728  27.086   1.948  1.00  0.00     0.209 HD
ENDBRANCH  30  31
ENDBRANCH  27  30
ENDBRANCH  26  27
ENDBRANCH  18  26
TORSDOF 7
ENDMDL
MODEL 5
REMARK VINA RESULT: -6.222850836      1.984      2.761
REMARK  7 active torsions:
REMARK  status: ('A' for Active; 'I' for Inactive)
REMARK    1  A    between atoms: C3_9  and  C4_10 
REMARK       I    between atoms: C4_10  and  N3_12 
REMARK    2  A    between atoms: N3_12  and  N4_14 
REMARK    3  A    between atoms: N6_25  and  C9_26 
REMARK    4  A    between atoms: C9_26  and  C10_27 
REMARK    5  A    between atoms: C10_27  and  O5_28 
REMARK    6  A    between atoms: C10_27  and  C11_30 
REMARK    7  A    between atoms: C11_30  and  O6_31 
ROOT
HETATM    1  N1  UNL     1       2.640  22.684   3.744  1.00  0.00    -0.394 N 
ATOM      2  H11 UNL     1       3.259  23.360   3.295  1.00  0.00     0.156 HD
ATOM      3  H12 UNL     1       1.883  23.096   4.289  1.00  0.00     0.156 HD
HETATM    4  C1  UNL     1       2.883  21.459   3.577  1.00  0.00     0.112 C 
HETATM    5  C2  UNL     1       1.977  20.470   4.233  1.00  0.00     0.269 C 
HETATM    6  O1  UNL     1       1.013  20.921   4.918  1.00  0.00    -0.266 OA
HETATM    7  N2  UNL     1       2.232  19.106   4.064  1.00  0.00    -0.337 N 
ATOM      8  H2  UNL     1       1.829  18.453   4.735  1.00  0.00     0.164 HD
HETATM    9  C3  UNL     1       3.034  18.571   2.992  1.00  0.00     0.230 C 
HETATM   10  C5  UNL     1       4.137  19.486   2.649  1.00  0.00     0.066 A 
HETATM   11  C6  UNL     1       3.970  20.867   2.793  1.00  0.00     0.089 A 
HETATM   12  C7  UNL     1       4.947  21.718   2.313  1.00  0.00     0.264 A 
HETATM   13  O3  UNL     1       4.845  22.961   2.410  1.00  0.00    -0.267 OA
HETATM   14  N5  UNL     1       6.064  21.203   1.712  1.00  0.00    -0.275 N 
ATOM     15  H5  UNL     1       6.788  21.825   1.355  1.00  0.00     0.173 HD
HETATM   16  C8  UNL     1       6.198  19.884   1.597  1.00  0.00     0.329 A 
HETATM   17  O4  UNL     1       7.263  19.454   1.029  1.00  0.00    -0.246 OA
HETATM   18  N6  UNL     1       5.260  19.050   2.054  1.00  0.00    -0.297 N 
ENDROOT
BRANCH   9  19
HETATM   19  C4  UNL     1       2.058  18.430   1.840  1.00  0.00     0.264 C 
HETATM   20  O2  UNL     1       0.853  18.148   2.081  1.00  0.00    -0.269 OA
HETATM   21  N3  UNL     1       2.423  18.603   0.493  1.00  0.00    -0.275 N 
ATOM     22  H3  UNL     1       3.392  18.837   0.276  1.00  0.00     0.189 HD
BRANCH  21  23
HETATM   23  N4  UNL     1       1.512  18.468  -0.566  1.00  0.00    -0.343 N 
ATOM     24  H42 UNL     1       1.137  17.537  -0.750  1.00  0.00     0.176 HD
ATOM     25  H41 UNL     1       1.219  19.254  -1.146  1.00  0.00     0.176 HD
ENDBRANCH  21  23
ENDBRANCH   9  19
BRANCH  18  26
HETATM   26  C9  UNL     1       5.558  17.646   1.938  1.00  0.00     0.167 C 
BRANCH  26  27
HETATM   27  C10 UNL     1       6.269  17.199   3.196  1.00  0.00     0.160 C 
BRANCH  27  28
HETATM   28  O5  UNL     1       5.502  16.417   4.038  1.00  0.00    -0.392 OA
ATOM     29  H5  UNL     1       5.529  16.680   4.950  1.00  0.00     0.210 HD
ENDBRANCH  27  28
BRANCH  27  30
HETATM   30  C11 UNL     1       7.555  16.486   2.810  1.00  0.00     0.197 C 
BRANCH  30  31
HETATM   31  O6  UNL     1       8.637  17.334   2.818  1.00  0.00    -0.398 OA
ATOM     32  H6  UNL     1       9.307  17.063   2.201  1.00  0.00     0.209 HD
ENDBRANCH  30  31
ENDBRANCH  27  30
ENDBRANCH  26  27
ENDBRANCH  18  26
TORSDOF 7
ENDMDL
