MODEL 1
REMARK VINA RESULT: -6.672452937      0.000      0.000
REMARK  4 active torsions:
REMARK  status: ('A' for Active; 'I' for Inactive)
REMARK    1  A    between atoms: N1_8  and  C7_9 
REMARK    2  A    between atoms: C7_9  and  C8_10 
REMARK    3  A    between atoms: C8_10  and  C9_11 
REMARK    4  A    between atoms: C9_11  and  N2_12 
ROOT
HETATM    1 CL1  UNL     1      16.729   9.163  -8.076  1.00  0.00    -0.125 Cl
HETATM    2  C1  UNL     1      17.567   7.714  -7.412  1.00  0.00     0.084 C 
HETATM    3  C2  UNL     1      16.595   6.672  -6.983  1.00  0.00     0.026 C 
HETATM    4  C3  UNL     1      16.321   6.625  -5.518  1.00  0.00     0.017 C 
HETATM    5  C4  UNL     1      16.769   7.891  -4.818  1.00  0.00     0.042 C 
HETATM    6  C5  UNL     1      18.293   7.731  -4.991  1.00  0.00     0.224 C 
HETATM    7  C6  UNL     1      18.572   8.156  -6.424  1.00  0.00     0.056 C 
HETATM    8  N1  UNL     1      18.525   6.331  -4.931  1.00  0.00     0.093 N 
HETATM    9  C14 UNL     1      17.297   5.615  -4.926  1.00  0.00     0.277 C 
ENDROOT
BRANCH   8  10
HETATM   10  C7  UNL     1      19.512   5.898  -3.964  1.00  0.00     0.274 C 
BRANCH  10  11
HETATM   11  C8  UNL     1      20.517   6.920  -3.645  1.00  0.00     0.060 C 
BRANCH  11  12
HETATM   12  C9  UNL     1      21.963   6.596  -3.661  1.00  0.00     0.274 C 
BRANCH  12  13
HETATM   13  N2  UNL     1      22.874   7.559  -4.184  1.00  0.00     0.092 N 
HETATM   14  C10 UNL     1      24.225   7.355  -3.642  1.00  0.00     0.298 C 
HETATM   15  C11 UNL     1      24.231   7.738  -2.198  1.00  0.00     0.198 C 
HETATM   16  O1  UNL     1      24.178   9.155  -2.194  1.00  0.00    -0.388 OA
HETATM   17  C12 UNL     1      22.918   9.477  -2.603  1.00  0.00     0.198 C 
HETATM   18  C13 UNL     1      22.489   8.942  -3.940  1.00  0.00     0.298 C 
ENDBRANCH  12  13
ENDBRANCH  11  12
ENDBRANCH  10  11
ENDBRANCH   8  10
TORSDOF 4
ENDMDL
MODEL 2
REMARK VINA RESULT: -6.436079019      3.706      5.811
REMARK  4 active torsions:
REMARK  status: ('A' for Active; 'I' for Inactive)
REMARK    1  A    between atoms: N1_8  and  C7_9 
REMARK    2  A    between atoms: C7_9  and  C8_10 
REMARK    3  A    between atoms: C8_10  and  C9_11 
REMARK    4  A    between atoms: C9_11  and  N2_12 
ROOT
HETATM    1 CL1  UNL     1      19.359   7.814  -4.855  1.00  0.00    -0.125 Cl
HETATM    2  C1  UNL     1      20.660   7.639  -3.623  1.00  0.00     0.084 C 
HETATM    3  C2  UNL     1      21.029   8.952  -3.028  1.00  0.00     0.026 C 
HETATM    4  C3  UNL     1      22.263   9.575  -3.583  1.00  0.00     0.017 C 
HETATM    5  C4  UNL     1      22.666   8.954  -4.904  1.00  0.00     0.042 C 
HETATM    6  C5  UNL     1      23.065   7.554  -4.394  1.00  0.00     0.224 C 
HETATM    7  C6  UNL     1      21.749   6.820  -4.193  1.00  0.00     0.056 C 
HETATM    8  N1  UNL     1      23.609   7.774  -3.101  1.00  0.00     0.093 N 
HETATM    9  C14 UNL     1      23.415   9.123  -2.695  1.00  0.00     0.277 C 
ENDROOT
BRANCH   8  10
HETATM   10  C7  UNL     1      24.931   7.229  -2.873  1.00  0.00     0.274 C 
BRANCH  10  11
HETATM   11  C8  UNL     1      25.141   6.738  -1.505  1.00  0.00     0.060 C 
BRANCH  11  12
HETATM   12  C9  UNL     1      25.674   5.377  -1.259  1.00  0.00     0.274 C 
BRANCH  12  13
HETATM   13  N2  UNL     1      25.804   4.484  -2.362  1.00  0.00     0.092 N 
HETATM   14  C10 UNL     1      24.556   3.741  -2.587  1.00  0.00     0.298 C 
HETATM   15  C11 UNL     1      24.365   2.764  -1.474  1.00  0.00     0.198 C 
HETATM   16  O1  UNL     1      25.308   1.736  -1.720  1.00  0.00    -0.388 OA
HETATM   17  C12 UNL     1      26.528   2.285  -1.456  1.00  0.00     0.198 C 
HETATM   18  C13 UNL     1      26.889   3.522  -2.229  1.00  0.00     0.298 C 
ENDBRANCH  12  13
ENDBRANCH  11  12
ENDBRANCH  10  11
ENDBRANCH   8  10
TORSDOF 4
ENDMDL
MODEL 3
REMARK VINA RESULT: -6.414807010      3.287      6.550
REMARK  4 active torsions:
REMARK  status: ('A' for Active; 'I' for Inactive)
REMARK    1  A    between atoms: N1_8  and  C7_9 
REMARK    2  A    between atoms: C7_9  and  C8_10 
REMARK    3  A    between atoms: C8_10  and  C9_11 
REMARK    4  A    between atoms: C9_11  and  N2_12 
ROOT
HETATM    1 CL1  UNL     1      23.705  10.801  -2.544  1.00  0.00    -0.125 Cl
HETATM    2  C1  UNL     1      23.001   9.161  -2.303  1.00  0.00     0.084 C 
HETATM    3  C2  UNL     1      24.008   8.094  -2.547  1.00  0.00     0.026 C 
HETATM    4  C3  UNL     1      23.926   7.437  -3.882  1.00  0.00     0.017 C 
HETATM    5  C4  UNL     1      23.108   8.251  -4.863  1.00  0.00     0.042 C 
HETATM    6  C5  UNL     1      21.723   8.093  -4.204  1.00  0.00     0.224 C 
HETATM    7  C6  UNL     1      21.726   9.076  -3.044  1.00  0.00     0.056 C 
HETATM    8  N1  UNL     1      21.733   6.793  -3.633  1.00  0.00     0.093 N 
HETATM    9  C14 UNL     1      23.031   6.217  -3.712  1.00  0.00     0.277 C 
ENDROOT
BRANCH   8  10
HETATM   10  C7  UNL     1      20.635   5.930  -4.014  1.00  0.00     0.274 C 
BRANCH  10  11
HETATM   11  C8  UNL     1      19.921   6.376  -5.218  1.00  0.00     0.060 C 
BRANCH  11  12
HETATM   12  C9  UNL     1      18.456   6.597  -5.195  1.00  0.00     0.274 C 
BRANCH  12  13
HETATM   13  N2  UNL     1      17.956   7.893  -5.513  1.00  0.00     0.092 N 
HETATM   14  C10 UNL     1      16.491   7.877  -5.634  1.00  0.00     0.298 C 
HETATM   15  C11 UNL     1      16.114   7.133  -6.873  1.00  0.00     0.198 C 
HETATM   16  O1  UNL     1      16.437   8.009  -7.940  1.00  0.00    -0.388 OA
HETATM   17  C12 UNL     1      17.800   8.042  -7.990  1.00  0.00     0.198 C 
HETATM   18  C13 UNL     1      18.507   8.465  -6.734  1.00  0.00     0.298 C 
ENDBRANCH  12  13
ENDBRANCH  11  12
ENDBRANCH  10  11
ENDBRANCH   8  10
TORSDOF 4
ENDMDL
MODEL 4
REMARK VINA RESULT: -6.404717846      5.924      8.638
REMARK  4 active torsions:
REMARK  status: ('A' for Active; 'I' for Inactive)
REMARK    1  A    between atoms: N1_8  and  C7_9 
REMARK    2  A    between atoms: C7_9  and  C8_10 
REMARK    3  A    between atoms: C8_10  and  C9_11 
REMARK    4  A    between atoms: C9_11  and  N2_12 
ROOT
HETATM    1 CL1  UNL     1      28.690   0.113  -2.706  1.00  0.00    -0.125 Cl
HETATM    2  C1  UNL     1      27.657   1.118  -1.627  1.00  0.00     0.084 C 
HETATM    3  C2  UNL     1      26.217   0.780  -1.779  1.00  0.00     0.026 C 
HETATM    4  C3  UNL     1      25.434   1.710  -2.642  1.00  0.00     0.017 C 
HETATM    5  C4  UNL     1      26.332   2.569  -3.507  1.00  0.00     0.042 C 
HETATM    6  C5  UNL     1      26.976   3.427  -2.398  1.00  0.00     0.224 C 
HETATM    7  C6  UNL     1      28.044   2.536  -1.783  1.00  0.00     0.056 C 
HETATM    8  N1  UNL     1      25.963   3.582  -1.416  1.00  0.00     0.093 N 
HETATM    9  C14 UNL     1      24.840   2.764  -1.717  1.00  0.00     0.277 C 
ENDROOT
BRANCH   8  10
HETATM   10  C7  UNL     1      25.665   4.945  -1.029  1.00  0.00     0.274 C 
BRANCH  10  11
HETATM   11  C8  UNL     1      26.346   5.956  -1.848  1.00  0.00     0.060 C 
BRANCH  11  12
HETATM   12  C9  UNL     1      25.575   6.998  -2.566  1.00  0.00     0.274 C 
BRANCH  12  13
HETATM   13  N2  UNL     1      24.174   7.098  -2.328  1.00  0.00     0.092 N 
HETATM   14  C10 UNL     1      23.407   6.635  -3.493  1.00  0.00     0.298 C 
HETATM   15  C11 UNL     1      23.561   7.626  -4.600  1.00  0.00     0.198 C 
HETATM   16  O1  UNL     1      22.769   8.736  -4.213  1.00  0.00    -0.388 OA
HETATM   17  C12 UNL     1      23.432   9.316  -3.172  1.00  0.00     0.198 C 
HETATM   18  C13 UNL     1      23.719   8.439  -1.986  1.00  0.00     0.298 C 
ENDBRANCH  12  13
ENDBRANCH  11  12
ENDBRANCH  10  11
ENDBRANCH   8  10
TORSDOF 4
ENDMDL
MODEL 5
REMARK VINA RESULT: -6.380871267      3.818      5.969
REMARK  4 active torsions:
REMARK  status: ('A' for Active; 'I' for Inactive)
REMARK    1  A    between atoms: N1_8  and  C7_9 
REMARK    2  A    between atoms: C7_9  and  C8_10 
REMARK    3  A    between atoms: C8_10  and  C9_11 
REMARK    4  A    between atoms: C9_11  and  N2_12 
ROOT
HETATM    1 CL1  UNL     1      19.651   7.609  -4.959  1.00  0.00    -0.125 Cl
HETATM    2  C1  UNL     1      20.854   7.550  -3.621  1.00  0.00     0.084 C 
HETATM    3  C2  UNL     1      21.119   8.904  -3.065  1.00  0.00     0.026 C 
HETATM    4  C3  UNL     1      22.367   9.557  -3.552  1.00  0.00     0.017 C 
HETATM    5  C4  UNL     1      22.900   8.894  -4.805  1.00  0.00     0.042 C 
HETATM    6  C5  UNL     1      23.315   7.539  -4.197  1.00  0.00     0.224 C 
HETATM    7  C6  UNL     1      22.019   6.756  -4.063  1.00  0.00     0.056 C 
HETATM    8  N1  UNL     1      23.743   7.843  -2.878  1.00  0.00     0.093 N 
HETATM    9  C14 UNL     1      23.462   9.199  -2.556  1.00  0.00     0.277 C 
ENDROOT
BRANCH   8  10
HETATM   10  C7  UNL     1      25.064   7.370  -2.520  1.00  0.00     0.274 C 
BRANCH  10  11
HETATM   11  C8  UNL     1      25.061   6.080  -1.818  1.00  0.00     0.060 C 
BRANCH  11  12
HETATM   12  C9  UNL     1      26.138   5.088  -2.046  1.00  0.00     0.274 C 
BRANCH  12  13
HETATM   13  N2  UNL     1      26.045   3.818  -1.408  1.00  0.00     0.092 N 
HETATM   14  C10 UNL     1      26.967   2.851  -2.019  1.00  0.00     0.298 C 
HETATM   15  C11 UNL     1      26.471   2.501  -3.383  1.00  0.00     0.198 C 
HETATM   16  O1  UNL     1      25.351   1.661  -3.163  1.00  0.00    -0.388 OA
HETATM   17  C12 UNL     1      24.374   2.474  -2.667  1.00  0.00     0.198 C 
HETATM   18  C13 UNL     1      24.707   3.240  -1.418  1.00  0.00     0.298 C 
ENDBRANCH  12  13
ENDBRANCH  11  12
ENDBRANCH  10  11
ENDBRANCH   8  10
TORSDOF 4
ENDMDL
