MODEL 1
REMARK VINA RESULT: -7.568680164      0.000      0.000
REMARK  4 active torsions:
REMARK  status: ('A' for Active; 'I' for Inactive)
REMARK    1  A    between atoms: S1_2  and  O3_4 
REMARK    2  A    between atoms: S1_2  and  N1_12 
REMARK    3  A    between atoms: O3_4  and  C1_5 
REMARK    4  A    between atoms: C1_5  and  C2_6 
ROOT
HETATM    1  O1  UNL     1      21.517   5.459  -3.556  1.00  0.00    -0.181 OA
HETATM    2  S1  UNL     1      20.524   6.529  -3.992  1.00  0.00     0.339 S 
HETATM    3  O2  UNL     1      19.620   6.757  -2.801  1.00  0.00    -0.181 OA
ENDROOT
BRANCH   2   4
HETATM    4  O3  UNL     1      19.711   5.953  -5.312  1.00  0.00    -0.263 OA
BRANCH   4   5
HETATM    5  C1  UNL     1      19.897   6.736  -6.457  1.00  0.00     0.196 C 
BRANCH   5   6
HETATM    6  C2  UNL     1      18.730   7.710  -6.519  1.00  0.00     0.011 C 
HETATM    7  C3  UNL     1      17.619   7.115  -5.683  1.00  0.00     0.007 C 
HETATM    8  C4  UNL     1      16.359   7.910  -5.722  1.00  0.00     0.000 C 
HETATM    9  C5  UNL     1      15.963   8.391  -7.080  1.00  0.00     0.000 C 
HETATM   10  C6  UNL     1      17.105   8.831  -7.939  1.00  0.00     0.000 C 
HETATM   11  C7  UNL     1      18.214   7.812  -7.936  1.00  0.00     0.007 C 
ENDBRANCH   5   6
ENDBRANCH   4   5
ENDBRANCH   2   4
BRANCH   2  12
HETATM   12  N1  UNL     1      21.469   7.936  -4.338  1.00  0.00    -0.187 NA
HETATM   13  C8  UNL     1      22.847   7.565  -4.181  1.00  0.00     0.112 C 
HETATM   14  C9  UNL     1      23.458   8.113  -2.916  1.00  0.00     0.052 C 
HETATM   15  C10 UNL     1      23.465   9.620  -3.056  1.00  0.00     0.172 C 
HETATM   16  F1  UNL     1      23.979  10.212  -1.915  1.00  0.00    -0.249 F 
HETATM   17  C11 UNL     1      22.034  10.060  -3.243  1.00  0.00     0.052 C 
HETATM   18  C12 UNL     1      21.055   8.950  -3.391  1.00  0.00     0.112 C 
ENDBRANCH   2  12
TORSDOF 4
ENDMDL
MODEL 2
REMARK VINA RESULT: -7.463251673      2.539      3.120
REMARK  4 active torsions:
REMARK  status: ('A' for Active; 'I' for Inactive)
REMARK    1  A    between atoms: S1_2  and  O3_4 
REMARK    2  A    between atoms: S1_2  and  N1_12 
REMARK    3  A    between atoms: O3_4  and  C1_5 
REMARK    4  A    between atoms: C1_5  and  C2_6 
ROOT
HETATM    1  O1  UNL     1      22.975   9.425  -3.779  1.00  0.00    -0.181 OA
HETATM    2  S1  UNL     1      22.532   7.999  -4.082  1.00  0.00     0.339 S 
HETATM    3  O2  UNL     1      23.198   7.636  -5.392  1.00  0.00    -0.181 OA
ENDROOT
BRANCH   2   4
HETATM    4  O3  UNL     1      20.882   7.995  -4.181  1.00  0.00    -0.263 OA
BRANCH   4   5
HETATM    5  C1  UNL     1      20.402   7.357  -5.330  1.00  0.00     0.196 C 
BRANCH   5   6
HETATM    6  C2  UNL     1      19.085   8.028  -5.690  1.00  0.00     0.011 C 
HETATM    7  C3  UNL     1      18.029   7.434  -4.786  1.00  0.00     0.007 C 
HETATM    8  C4  UNL     1      16.653   7.921  -5.084  1.00  0.00     0.000 C 
HETATM    9  C5  UNL     1      16.308   7.976  -6.536  1.00  0.00     0.000 C 
HETATM   10  C6  UNL     1      17.425   8.424  -7.423  1.00  0.00     0.000 C 
HETATM   11  C7  UNL     1      18.699   7.684  -7.110  1.00  0.00     0.007 C 
ENDBRANCH   5   6
ENDBRANCH   4   5
ENDBRANCH   2   4
BRANCH   2  12
HETATM   12  N1  UNL     1      23.138   7.030  -2.784  1.00  0.00    -0.187 NA
HETATM   13  C8  UNL     1      24.148   7.803  -2.119  1.00  0.00     0.112 C 
HETATM   14  C9  UNL     1      25.545   7.324  -2.426  1.00  0.00     0.052 C 
HETATM   15  C10 UNL     1      25.662   5.932  -1.844  1.00  0.00     0.172 C 
HETATM   16  F1  UNL     1      26.910   5.395  -2.113  1.00  0.00    -0.249 F 
HETATM   17  C11 UNL     1      24.603   5.080  -2.500  1.00  0.00     0.052 C 
HETATM   18  C12 UNL     1      23.666   5.824  -3.384  1.00  0.00     0.112 C 
ENDBRANCH   2  12
TORSDOF 4
ENDMDL
MODEL 3
REMARK VINA RESULT: -7.427770700      2.003      2.383
REMARK  4 active torsions:
REMARK  status: ('A' for Active; 'I' for Inactive)
REMARK    1  A    between atoms: S1_2  and  O3_4 
REMARK    2  A    between atoms: S1_2  and  N1_12 
REMARK    3  A    between atoms: O3_4  and  C1_5 
REMARK    4  A    between atoms: C1_5  and  C2_6 
ROOT
HETATM    1  O1  UNL     1      20.711   8.868  -3.228  1.00  0.00    -0.181 OA
HETATM    2  S1  UNL     1      21.490   8.659  -4.521  1.00  0.00     0.339 S 
HETATM    3  O2  UNL     1      21.260   9.909  -5.342  1.00  0.00    -0.181 OA
ENDROOT
BRANCH   2   4
HETATM    4  O3  UNL     1      20.898   7.298  -5.250  1.00  0.00    -0.263 OA
BRANCH   4   5
HETATM    5  C1  UNL     1      19.624   6.941  -4.795  1.00  0.00     0.196 C 
BRANCH   5   6
HETATM    6  C2  UNL     1      18.627   7.812  -5.545  1.00  0.00     0.011 C 
HETATM    7  C3  UNL     1      17.248   7.381  -5.100  1.00  0.00     0.007 C 
HETATM    8  C4  UNL     1      16.148   8.079  -5.825  1.00  0.00     0.000 C 
HETATM    9  C5  UNL     1      16.347   8.199  -7.301  1.00  0.00     0.000 C 
HETATM   10  C6  UNL     1      17.755   8.476  -7.716  1.00  0.00     0.000 C 
HETATM   11  C7  UNL     1      18.720   7.544  -7.030  1.00  0.00     0.007 C 
ENDBRANCH   5   6
ENDBRANCH   4   5
ENDBRANCH   2   4
BRANCH   2  12
HETATM   12  N1  UNL     1      23.149   8.514  -4.056  1.00  0.00    -0.187 NA
HETATM   13  C8  UNL     1      23.611   7.244  -4.540  1.00  0.00     0.112 C 
HETATM   14  C9  UNL     1      23.762   6.221  -3.441  1.00  0.00     0.052 C 
HETATM   15  C10 UNL     1      24.861   6.724  -2.531  1.00  0.00     0.172 C 
HETATM   16  F1  UNL     1      25.044   5.858  -1.465  1.00  0.00    -0.249 F 
HETATM   17  C11 UNL     1      24.431   8.072  -2.008  1.00  0.00     0.052 C 
HETATM   18  C12 UNL     1      23.178   8.602  -2.611  1.00  0.00     0.112 C 
ENDBRANCH   2  12
TORSDOF 4
ENDMDL
MODEL 4
REMARK VINA RESULT: -7.357673533      4.225      5.454
REMARK  4 active torsions:
REMARK  status: ('A' for Active; 'I' for Inactive)
REMARK    1  A    between atoms: S1_2  and  O3_4 
REMARK    2  A    between atoms: S1_2  and  N1_12 
REMARK    3  A    between atoms: O3_4  and  C1_5 
REMARK    4  A    between atoms: C1_5  and  C2_6 
ROOT
HETATM    1  O1  UNL     1      24.228   7.793  -1.071  1.00  0.00    -0.181 OA
HETATM    2  S1  UNL     1      24.766   6.922  -2.200  1.00  0.00     0.339 S 
HETATM    3  O2  UNL     1      26.114   7.507  -2.559  1.00  0.00    -0.181 OA
ENDROOT
BRANCH   2   4
HETATM    4  O3  UNL     1      23.684   6.993  -3.448  1.00  0.00    -0.263 OA
BRANCH   4   5
HETATM    5  C1  UNL     1      22.710   7.983  -3.276  1.00  0.00     0.196 C 
BRANCH   5   6
HETATM    6  C2  UNL     1      21.409   7.422  -3.830  1.00  0.00     0.011 C 
HETATM    7  C3  UNL     1      21.506   7.501  -5.337  1.00  0.00     0.007 C 
HETATM    8  C4  UNL     1      20.258   7.077  -6.032  1.00  0.00     0.000 C 
HETATM    9  C5  UNL     1      18.996   7.606  -5.435  1.00  0.00     0.000 C 
HETATM   10  C6  UNL     1      18.991   7.658  -3.941  1.00  0.00     0.000 C 
HETATM   11  C7  UNL     1      20.249   8.297  -3.413  1.00  0.00     0.007 C 
ENDBRANCH   5   6
ENDBRANCH   4   5
ENDBRANCH   2   4
BRANCH   2  12
HETATM   12  N1  UNL     1      24.931   5.335  -1.533  1.00  0.00    -0.187 NA
HETATM   13  C8  UNL     1      26.294   5.201  -1.101  1.00  0.00     0.112 C 
HETATM   14  C9  UNL     1      27.113   4.327  -2.019  1.00  0.00     0.052 C 
HETATM   15  C10 UNL     1      26.527   2.935  -1.926  1.00  0.00     0.172 C 
HETATM   16  F1  UNL     1      27.200   2.067  -2.770  1.00  0.00    -0.249 F 
HETATM   17  C11 UNL     1      25.083   3.025  -2.353  1.00  0.00     0.052 C 
HETATM   18  C12 UNL     1      24.590   4.408  -2.592  1.00  0.00     0.112 C 
ENDBRANCH   2  12
TORSDOF 4
ENDMDL
MODEL 5
REMARK VINA RESULT: -7.291400101      5.669      7.620
REMARK  4 active torsions:
REMARK  status: ('A' for Active; 'I' for Inactive)
REMARK    1  A    between atoms: S1_2  and  O3_4 
REMARK    2  A    between atoms: S1_2  and  N1_12 
REMARK    3  A    between atoms: O3_4  and  C1_5 
REMARK    4  A    between atoms: C1_5  and  C2_6 
ROOT
HETATM    1  O1  UNL     1      24.071   3.450  -1.330  1.00  0.00    -0.181 OA
HETATM    2  S1  UNL     1      25.338   4.160  -1.791  1.00  0.00     0.339 S 
HETATM    3  O2  UNL     1      26.026   4.629  -0.527  1.00  0.00    -0.181 OA
ENDROOT
BRANCH   2   4
HETATM    4  O3  UNL     1      24.885   5.410  -2.774  1.00  0.00    -0.263 OA
BRANCH   4   5
HETATM    5  C1  UNL     1      25.120   6.668  -2.208  1.00  0.00     0.196 C 
BRANCH   5   6
HETATM    6  C2  UNL     1      24.475   7.693  -3.128  1.00  0.00     0.011 C 
HETATM    7  C3  UNL     1      23.707   8.650  -2.244  1.00  0.00     0.007 C 
HETATM    8  C4  UNL     1      22.930   9.666  -3.009  1.00  0.00     0.000 C 
HETATM    9  C5  UNL     1      22.185   9.130  -4.187  1.00  0.00     0.000 C 
HETATM   10  C6  UNL     1      22.913   8.073  -4.953  1.00  0.00     0.000 C 
HETATM   11  C7  UNL     1      23.469   7.018  -4.032  1.00  0.00     0.007 C 
ENDBRANCH   5   6
ENDBRANCH   4   5
ENDBRANCH   2   4
BRANCH   2  12
HETATM   12  N1  UNL     1      26.280   2.961  -2.606  1.00  0.00    -0.187 NA
HETATM   13  C8  UNL     1      25.643   1.696  -2.374  1.00  0.00     0.112 C 
HETATM   14  C9  UNL     1      26.387   0.843  -1.377  1.00  0.00     0.052 C 
HETATM   15  C10 UNL     1      27.721   0.506  -2.007  1.00  0.00     0.172 C 
HETATM   16  F1  UNL     1      28.492  -0.250  -1.140  1.00  0.00    -0.249 F 
HETATM   17  C11 UNL     1      28.427   1.810  -2.291  1.00  0.00     0.052 C 
HETATM   18  C12 UNL     1      27.610   3.027  -2.037  1.00  0.00     0.112 C 
ENDBRANCH   2  12
TORSDOF 4
ENDMDL
