MODEL 1
REMARK VINA RESULT: -6.654558141      0.000      0.000
REMARK  4 active torsions:
REMARK  status: ('A' for Active; 'I' for Inactive)
REMARK    1  A    between atoms: C4_5  and  C5_6 
REMARK    2  A    between atoms: C5_6  and  N1_7 
REMARK    3  A    between atoms: N2_10  and  C8_11 
REMARK    4  A    between atoms: C8_11  and  C9_12 
ROOT
HETATM    1  N1  UNL     1      18.766   6.599  -4.860  1.00  0.00     0.092 N 
HETATM    2  C6  UNL     1      18.846   7.750  -4.021  1.00  0.00     0.302 C 
HETATM    3  C7  UNL     1      20.321   7.901  -3.619  1.00  0.00     0.302 C 
HETATM    4  N2  UNL     1      21.025   8.380  -4.787  1.00  0.00     0.092 N 
HETATM    5  C14 UNL     1      20.950   7.293  -5.767  1.00  0.00     0.302 C 
HETATM    6  C15 UNL     1      20.055   6.171  -5.327  1.00  0.00     0.302 C 
ENDROOT
BRANCH   4   7
HETATM    7  C8  UNL     1      22.413   8.638  -4.580  1.00  0.00     0.277 C 
BRANCH   7   8
HETATM    8  C9  UNL     1      23.009   8.108  -3.328  1.00  0.00     0.018 C 
HETATM    9  C10 UNL     1      24.080   7.096  -3.718  1.00  0.00     0.032 C 
HETATM   10  C11 UNL     1      25.273   7.190  -2.787  1.00  0.00     0.168 C 
HETATM   11  O1  UNL     1      24.840   7.237  -1.479  1.00  0.00    -0.391 OA
HETATM   12  C12 UNL     1      24.119   8.369  -1.176  1.00  0.00     0.168 C 
HETATM   13  C13 UNL     1      23.648   9.112  -2.433  1.00  0.00     0.032 C 
ENDBRANCH   7   8
ENDBRANCH   4   7
BRANCH   1  14
HETATM   14  C5  UNL     1      17.862   6.677  -5.956  1.00  0.00     0.280 C 
BRANCH  14  15
HETATM   15  C4  UNL     1      17.270   8.005  -6.247  1.00  0.00     0.048 C 
HETATM   16  C1  UNL     1      15.787   8.155  -6.068  1.00  0.00     0.175 C 
HETATM   17  F1  UNL     1      15.190   7.461  -5.068  1.00  0.00    -0.249 F 
HETATM   18  C2  UNL     1      15.635   7.495  -7.443  1.00  0.00     0.038 C 
HETATM   19  C3  UNL     1      17.004   8.109  -7.757  1.00  0.00     0.012 C 
ENDBRANCH  14  15
ENDBRANCH   1  14
TORSDOF 4
ENDMDL
MODEL 2
REMARK VINA RESULT: -6.296444076      5.182      8.754
REMARK  4 active torsions:
REMARK  status: ('A' for Active; 'I' for Inactive)
REMARK    1  A    between atoms: C4_5  and  C5_6 
REMARK    2  A    between atoms: C5_6  and  N1_7 
REMARK    3  A    between atoms: N2_10  and  C8_11 
REMARK    4  A    between atoms: C8_11  and  C9_12 
ROOT
HETATM    1  N1  UNL     1      25.798   3.734  -1.723  1.00  0.00     0.092 N 
HETATM    2  C6  UNL     1      24.922   3.824  -2.846  1.00  0.00     0.302 C 
HETATM    3  C7  UNL     1      24.095   5.105  -2.657  1.00  0.00     0.302 C 
HETATM    4  N2  UNL     1      24.979   6.217  -2.925  1.00  0.00     0.092 N 
HETATM    5  C14 UNL     1      25.986   6.187  -1.859  1.00  0.00     0.302 C 
HETATM    6  C15 UNL     1      25.881   4.967  -0.991  1.00  0.00     0.302 C 
ENDROOT
BRANCH   4   7
HETATM    7  C8  UNL     1      24.359   7.500  -2.855  1.00  0.00     0.277 C 
BRANCH   7   8
HETATM    8  C9  UNL     1      23.007   7.619  -3.455  1.00  0.00     0.018 C 
HETATM    9  C10 UNL     1      22.392   8.920  -2.954  1.00  0.00     0.032 C 
HETATM   10  C11 UNL     1      21.586   9.592  -4.049  1.00  0.00     0.168 C 
HETATM   11  O1  UNL     1      20.777   8.663  -4.667  1.00  0.00    -0.391 OA
HETATM   12  C12 UNL     1      21.472   7.687  -5.344  1.00  0.00     0.168 C 
HETATM   13  C13 UNL     1      22.952   7.643  -4.942  1.00  0.00     0.032 C 
ENDBRANCH   7   8
ENDBRANCH   4   7
BRANCH   1  14
HETATM   14  C5  UNL     1      27.108   3.241  -1.981  1.00  0.00     0.280 C 
BRANCH  14  15
HETATM   15  C4  UNL     1      27.218   1.847  -2.475  1.00  0.00     0.048 C 
HETATM   16  C1  UNL     1      26.851   0.746  -1.521  1.00  0.00     0.175 C 
HETATM   17  F1  UNL     1      25.846   0.972  -0.640  1.00  0.00    -0.249 F 
HETATM   18  C2  UNL     1      28.247   0.918  -0.912  1.00  0.00     0.038 C 
HETATM   19  C3  UNL     1      28.672   1.377  -2.311  1.00  0.00     0.012 C 
ENDBRANCH  14  15
ENDBRANCH   1  14
TORSDOF 4
ENDMDL
MODEL 3
REMARK VINA RESULT: -6.233517530      1.546      1.743
REMARK  4 active torsions:
REMARK  status: ('A' for Active; 'I' for Inactive)
REMARK    1  A    between atoms: C4_5  and  C5_6 
REMARK    2  A    between atoms: C5_6  and  N1_7 
REMARK    3  A    between atoms: N2_10  and  C8_11 
REMARK    4  A    between atoms: C8_11  and  C9_12 
ROOT
HETATM    1  N1  UNL     1      18.481   7.618  -4.634  1.00  0.00     0.092 N 
HETATM    2  C6  UNL     1      19.088   8.087  -5.837  1.00  0.00     0.302 C 
HETATM    3  C7  UNL     1      20.522   8.504  -5.474  1.00  0.00     0.302 C 
HETATM    4  N2  UNL     1      21.270   7.284  -5.262  1.00  0.00     0.092 N 
HETATM    5  C14 UNL     1      20.682   6.662  -4.072  1.00  0.00     0.302 C 
HETATM    6  C15 UNL     1      19.443   7.364  -3.598  1.00  0.00     0.302 C 
ENDROOT
BRANCH   4   7
HETATM    7  C8  UNL     1      22.653   7.479  -4.972  1.00  0.00     0.277 C 
BRANCH   7   8
HETATM    8  C9  UNL     1      23.032   7.522  -3.538  1.00  0.00     0.018 C 
HETATM    9  C10 UNL     1      24.157   6.515  -3.327  1.00  0.00     0.032 C 
HETATM   10  C11 UNL     1      25.177   7.046  -2.340  1.00  0.00     0.168 C 
HETATM   11  O1  UNL     1      24.532   7.570  -1.241  1.00  0.00    -0.391 OA
HETATM   12  C12 UNL     1      23.766   8.678  -1.525  1.00  0.00     0.168 C 
HETATM   13  C13 UNL     1      23.510   8.837  -3.029  1.00  0.00     0.032 C 
ENDBRANCH   7   8
ENDBRANCH   4   7
BRANCH   1  14
HETATM   14  C5  UNL     1      17.608   6.502  -4.760  1.00  0.00     0.280 C 
BRANCH  14  15
HETATM   15  C4  UNL     1      16.171   6.793  -4.981  1.00  0.00     0.048 C 
HETATM   16  C1  UNL     1      15.190   5.692  -4.693  1.00  0.00     0.175 C 
HETATM   17  F1  UNL     1      15.460   4.849  -3.666  1.00  0.00    -0.249 F 
HETATM   18  C2  UNL     1      15.554   5.118  -6.067  1.00  0.00     0.038 C 
HETATM   19  C3  UNL     1      15.842   6.569  -6.466  1.00  0.00     0.012 C 
ENDBRANCH  14  15
ENDBRANCH   1  14
TORSDOF 4
ENDMDL
MODEL 4
REMARK VINA RESULT: -6.199391366      1.382      1.749
REMARK  4 active torsions:
REMARK  status: ('A' for Active; 'I' for Inactive)
REMARK    1  A    between atoms: C4_5  and  C5_6 
REMARK    2  A    between atoms: C5_6  and  N1_7 
REMARK    3  A    between atoms: N2_10  and  C8_11 
REMARK    4  A    between atoms: C8_11  and  C9_12 
ROOT
HETATM    1  N1  UNL     1      18.574   7.237  -4.712  1.00  0.00     0.092 N 
HETATM    2  C6  UNL     1      19.112   7.869  -5.874  1.00  0.00     0.302 C 
HETATM    3  C7  UNL     1      20.448   8.501  -5.452  1.00  0.00     0.302 C 
HETATM    4  N2  UNL     1      21.389   7.417  -5.284  1.00  0.00     0.092 N 
HETATM    5  C14 UNL     1      20.896   6.639  -4.143  1.00  0.00     0.302 C 
HETATM    6  C15 UNL     1      19.547   7.094  -3.666  1.00  0.00     0.302 C 
ENDROOT
BRANCH   4   7
HETATM    7  C8  UNL     1      22.714   7.827  -4.947  1.00  0.00     0.277 C 
BRANCH   7   8
HETATM    8  C9  UNL     1      23.118   7.673  -3.528  1.00  0.00     0.018 C 
HETATM    9  C10 UNL     1      24.313   6.727  -3.488  1.00  0.00     0.032 C 
HETATM   10  C11 UNL     1      25.314   7.169  -2.438  1.00  0.00     0.168 C 
HETATM   11  O1  UNL     1      24.656   7.468  -1.264  1.00  0.00    -0.391 OA
HETATM   12  C12 UNL     1      23.811   8.549  -1.364  1.00  0.00     0.168 C 
HETATM   13  C13 UNL     1      23.514   8.923  -2.822  1.00  0.00     0.032 C 
ENDBRANCH   7   8
ENDBRANCH   4   7
BRANCH   1  14
HETATM   14  C5  UNL     1      17.907   5.998  -4.919  1.00  0.00     0.280 C 
BRANCH  14  15
HETATM   15  C4  UNL     1      16.699   6.019  -5.780  1.00  0.00     0.048 C 
HETATM   16  C1  UNL     1      15.502   6.771  -5.274  1.00  0.00     0.175 C 
HETATM   17  F1  UNL     1      15.714   7.895  -4.545  1.00  0.00    -0.249 F 
HETATM   18  C2  UNL     1      15.190   5.538  -4.418  1.00  0.00     0.038 C 
HETATM   19  C3  UNL     1      15.886   4.740  -5.526  1.00  0.00     0.012 C 
ENDBRANCH  14  15
ENDBRANCH   1  14
TORSDOF 4
ENDMDL
MODEL 5
REMARK VINA RESULT: -6.197344020      1.858      2.836
REMARK  4 active torsions:
REMARK  status: ('A' for Active; 'I' for Inactive)
REMARK    1  A    between atoms: C4_5  and  C5_6 
REMARK    2  A    between atoms: C5_6  and  N1_7 
REMARK    3  A    between atoms: N2_10  and  C8_11 
REMARK    4  A    between atoms: C8_11  and  C9_12 
ROOT
HETATM    1  N1  UNL     1      20.419   8.333  -5.103  1.00  0.00     0.092 N 
HETATM    2  C6  UNL     1      21.232   7.386  -5.795  1.00  0.00     0.302 C 
HETATM    3  C7  UNL     1      22.686   7.673  -5.388  1.00  0.00     0.302 C 
HETATM    4  N2  UNL     1      22.838   7.205  -4.028  1.00  0.00     0.092 N 
HETATM    5  C14 UNL     1      21.979   8.068  -3.213  1.00  0.00     0.302 C 
HETATM    6  C15 UNL     1      21.126   8.988  -4.039  1.00  0.00     0.302 C 
ENDROOT
BRANCH   4   7
HETATM    7  C8  UNL     1      24.157   7.336  -3.499  1.00  0.00     0.277 C 
BRANCH   7   8
HETATM    8  C9  UNL     1      24.544   6.379  -2.433  1.00  0.00     0.018 C 
HETATM    9  C10 UNL     1      24.150   4.983  -2.900  1.00  0.00     0.032 C 
HETATM   10  C11 UNL     1      25.190   3.961  -2.482  1.00  0.00     0.168 C 
HETATM   11  O1  UNL     1      25.527   4.155  -1.160  1.00  0.00    -0.391 OA
HETATM   12  C12 UNL     1      26.154   5.356  -0.919  1.00  0.00     0.168 C 
HETATM   13  C13 UNL     1      25.991   6.341  -2.084  1.00  0.00     0.032 C 
ENDBRANCH   7   8
ENDBRANCH   4   7
BRANCH   1  14
HETATM   14  C5  UNL     1      19.166   7.859  -4.625  1.00  0.00     0.280 C 
BRANCH  14  15
HETATM   15  C4  UNL     1      18.366   7.021  -5.550  1.00  0.00     0.048 C 
HETATM   16  C1  UNL     1      17.556   7.728  -6.599  1.00  0.00     0.175 C 
HETATM   17  F1  UNL     1      18.061   8.866  -7.137  1.00  0.00    -0.249 F 
HETATM   18  C2  UNL     1      16.511   7.981  -5.507  1.00  0.00     0.038 C 
HETATM   19  C3  UNL     1      17.025   6.681  -4.879  1.00  0.00     0.012 C 
ENDBRANCH  14  15
ENDBRANCH   1  14
TORSDOF 4
ENDMDL
