MODEL 1
REMARK VINA RESULT: -6.851587179      0.000      0.000
REMARK  6 active torsions:
REMARK  status: ('A' for Active; 'I' for Inactive)
REMARK    1  A    between atoms: C2_2  and  C5_5 
REMARK    2  A    between atoms: C7_7  and  C8_8 
REMARK       I    between atoms: C8_8  and  N1_10 
REMARK       I    between atoms: N2_15  and  C13_16 
REMARK    3  A    between atoms: C13_16  and  C14_18 
REMARK    4  A    between atoms: C14_18  and  C15_19 
REMARK    5  A    between atoms: C15_19  and  C16_20 
REMARK    6  A    between atoms: C16_20  and  C17_21 
ROOT
HETATM    1  C5  UNL     1      18.550   7.104  -6.247  1.00  0.00     0.079 C 
HETATM    2  C6  UNL     1      18.626   6.090  -5.124  1.00  0.00     0.053 C 
HETATM    3  C7  UNL     1      20.089   5.831  -4.887  1.00  0.00     0.193 C 
HETATM    4  N2  UNL     1      20.814   7.074  -4.834  1.00  0.00    -0.277 N 
HETATM    5  C13 UNL     1      22.121   7.259  -4.388  1.00  0.00     0.230 C 
HETATM    6  O2  UNL     1      22.833   6.301  -3.986  1.00  0.00    -0.273 OA
HETATM    7  S1  UNL     1      19.737   8.307  -5.491  1.00  0.00    -0.044 SA
ENDROOT
BRANCH   3   8
HETATM    8  C8  UNL     1      20.144   5.103  -3.594  1.00  0.00     0.243 C 
HETATM    9  O1  UNL     1      19.643   5.610  -2.579  1.00  0.00    -0.271 OA
HETATM   10  N1  UNL     1      20.764   3.850  -3.530  1.00  0.00    -0.350 N 
HETATM   11  C9  UNL     1      21.390   3.135  -4.613  1.00  0.00     0.126 C 
HETATM   12  C12 UNL     1      20.931   2.979  -2.356  1.00  0.00     0.126 C 
HETATM   13  C10 UNL     1      22.510   2.322  -3.984  1.00  0.00     0.021 C 
HETATM   14  C11 UNL     1      22.421   2.680  -2.524  1.00  0.00     0.021 C 
ENDBRANCH   3   8
BRANCH   1  15
HETATM   15  C2  UNL     1      17.184   7.710  -6.345  1.00  0.00    -0.037 C 
HETATM   16  C1  UNL     1      16.179   6.658  -6.729  1.00  0.00     0.015 C 
HETATM   17  C3  UNL     1      16.810   8.194  -4.953  1.00  0.00     0.015 C 
HETATM   18  C4  UNL     1      17.154   8.827  -7.332  1.00  0.00     0.015 C 
ENDBRANCH   1  15
BRANCH   5  19
HETATM   19  C14 UNL     1      22.707   8.653  -4.381  1.00  0.00     0.104 C 
BRANCH  19  20
HETATM   20  C15 UNL     1      23.638   8.799  -3.198  1.00  0.00     0.012 C 
BRANCH  20  21
HETATM   21  C16 UNL     1      23.468  10.199  -2.663  1.00  0.00     0.032 C 
BRANCH  21  22
HETATM   22  C17 UNL     1      22.023  10.607  -2.589  1.00  0.00     0.222 C 
HETATM   23  F1  UNL     1      21.881  11.982  -2.495  1.00  0.00    -0.255 F 
ENDBRANCH  21  22
ENDBRANCH  20  21
ENDBRANCH  19  20
ENDBRANCH   5  19
TORSDOF 6
ENDMDL
MODEL 2
REMARK VINA RESULT: -6.840773339      5.342      8.987
REMARK  6 active torsions:
REMARK  status: ('A' for Active; 'I' for Inactive)
REMARK    1  A    between atoms: C2_2  and  C5_5 
REMARK    2  A    between atoms: C7_7  and  C8_8 
REMARK       I    between atoms: C8_8  and  N1_10 
REMARK       I    between atoms: N2_15  and  C13_16 
REMARK    3  A    between atoms: C13_16  and  C14_18 
REMARK    4  A    between atoms: C14_18  and  C15_19 
REMARK    5  A    between atoms: C15_19  and  C16_20 
REMARK    6  A    between atoms: C16_20  and  C17_21 
ROOT
HETATM    1  C5  UNL     1      27.591   2.494  -3.361  1.00  0.00     0.079 C 
HETATM    2  C6  UNL     1      27.379   3.881  -2.788  1.00  0.00     0.053 C 
HETATM    3  C7  UNL     1      26.004   4.312  -3.222  1.00  0.00     0.193 C 
HETATM    4  N2  UNL     1      25.055   3.251  -3.006  1.00  0.00    -0.277 N 
HETATM    5  C13 UNL     1      23.667   3.352  -3.045  1.00  0.00     0.230 C 
HETATM    6  O2  UNL     1      23.082   4.437  -3.307  1.00  0.00    -0.273 OA
HETATM    7  S1  UNL     1      26.001   1.787  -2.728  1.00  0.00    -0.044 SA
ENDROOT
BRANCH   3   8
HETATM    8  C8  UNL     1      25.697   5.505  -2.393  1.00  0.00     0.243 C 
HETATM    9  O1  UNL     1      25.768   5.432  -1.157  1.00  0.00    -0.271 OA
HETATM   10  N1  UNL     1      25.329   6.704  -3.013  1.00  0.00    -0.350 N 
HETATM   11  C9  UNL     1      25.200   6.945  -4.427  1.00  0.00     0.126 C 
HETATM   12  C12 UNL     1      24.980   7.985  -2.378  1.00  0.00     0.126 C 
HETATM   13  C10 UNL     1      24.112   7.998  -4.574  1.00  0.00     0.021 C 
HETATM   14  C11 UNL     1      23.691   8.261  -3.153  1.00  0.00     0.021 C 
ENDBRANCH   3   8
BRANCH   1  15
HETATM   15  C2  UNL     1      28.758   1.810  -2.721  1.00  0.00    -0.037 C 
HETATM   16  C1  UNL     1      29.340   0.793  -3.665  1.00  0.00     0.015 C 
HETATM   17  C3  UNL     1      29.827   2.869  -2.496  1.00  0.00     0.015 C 
HETATM   18  C4  UNL     1      28.369   1.155  -1.440  1.00  0.00     0.015 C 
ENDBRANCH   1  15
BRANCH   5  19
HETATM   19  C14 UNL     1      22.830   2.125  -2.763  1.00  0.00     0.104 C 
BRANCH  19  20
HETATM   20  C15 UNL     1      21.727   2.483  -1.792  1.00  0.00     0.012 C 
BRANCH  20  21
HETATM   21  C16 UNL     1      22.240   2.199  -0.403  1.00  0.00     0.032 C 
BRANCH  21  22
HETATM   22  C17 UNL     1      23.024   0.917  -0.339  1.00  0.00     0.222 C 
HETATM   23  F1  UNL     1      23.103   0.427   0.954  1.00  0.00    -0.255 F 
ENDBRANCH  21  22
ENDBRANCH  20  21
ENDBRANCH  19  20
ENDBRANCH   5  19
TORSDOF 6
ENDMDL
MODEL 3
REMARK VINA RESULT: -6.831737495      0.936      1.087
REMARK  6 active torsions:
REMARK  status: ('A' for Active; 'I' for Inactive)
REMARK    1  A    between atoms: C2_2  and  C5_5 
REMARK    2  A    between atoms: C7_7  and  C8_8 
REMARK       I    between atoms: C8_8  and  N1_10 
REMARK       I    between atoms: N2_15  and  C13_16 
REMARK    3  A    between atoms: C13_16  and  C14_18 
REMARK    4  A    between atoms: C14_18  and  C15_19 
REMARK    5  A    between atoms: C15_19  and  C16_20 
REMARK    6  A    between atoms: C16_20  and  C17_21 
ROOT
HETATM    1  C5  UNL     1      17.730   6.410  -5.700  1.00  0.00     0.079 C 
HETATM    2  C6  UNL     1      18.080   5.306  -4.724  1.00  0.00     0.053 C 
HETATM    3  C7  UNL     1      19.580   5.314  -4.597  1.00  0.00     0.193 C 
HETATM    4  N2  UNL     1      20.059   6.660  -4.420  1.00  0.00    -0.277 N 
HETATM    5  C13 UNL     1      21.337   7.045  -4.021  1.00  0.00     0.230 C 
HETATM    6  O2  UNL     1      22.246   6.205  -3.783  1.00  0.00    -0.273 OA
HETATM    7  S1  UNL     1      18.722   7.726  -4.856  1.00  0.00    -0.044 SA
ENDROOT
BRANCH   3   8
HETATM    8  C8  UNL     1      19.868   4.464  -3.414  1.00  0.00     0.243 C 
HETATM    9  O1  UNL     1      19.356   4.738  -2.318  1.00  0.00    -0.271 OA
HETATM   10  N1  UNL     1      20.719   3.361  -3.543  1.00  0.00    -0.350 N 
HETATM   11  C9  UNL     1      21.389   2.918  -4.739  1.00  0.00     0.126 C 
HETATM   12  C12 UNL     1      21.136   2.408  -2.502  1.00  0.00     0.126 C 
HETATM   13  C10 UNL     1      22.687   2.275  -4.277  1.00  0.00     0.021 C 
HETATM   14  C11 UNL     1      22.639   2.434  -2.781  1.00  0.00     0.021 C 
ENDBRANCH   3   8
BRANCH   1  15
HETATM   15  C2  UNL     1      16.272   6.742  -5.650  1.00  0.00    -0.037 C 
HETATM   16  C1  UNL     1      15.633   6.464  -6.984  1.00  0.00     0.015 C 
HETATM   17  C3  UNL     1      15.633   5.795  -4.646  1.00  0.00     0.015 C 
HETATM   18  C4  UNL     1      16.051   8.166  -5.266  1.00  0.00     0.015 C 
ENDBRANCH   1  15
BRANCH   5  19
HETATM   19  C14 UNL     1      21.648   8.517  -3.863  1.00  0.00     0.104 C 
BRANCH  19  20
HETATM   20  C15 UNL     1      23.105   8.684  -3.495  1.00  0.00     0.012 C 
BRANCH  20  21
HETATM   21  C16 UNL     1      23.243  10.010  -2.792  1.00  0.00     0.032 C 
BRANCH  21  22
HETATM   22  C17 UNL     1      21.908  10.606  -2.438  1.00  0.00     0.222 C 
HETATM   23  F1  UNL     1      21.949  11.990  -2.426  1.00  0.00    -0.255 F 
ENDBRANCH  21  22
ENDBRANCH  20  21
ENDBRANCH  19  20
ENDBRANCH   5  19
TORSDOF 6
ENDMDL
MODEL 4
REMARK VINA RESULT: -6.680676553      5.102      8.933
REMARK  6 active torsions:
REMARK  status: ('A' for Active; 'I' for Inactive)
REMARK    1  A    between atoms: C2_2  and  C5_5 
REMARK    2  A    between atoms: C7_7  and  C8_8 
REMARK       I    between atoms: C8_8  and  N1_10 
REMARK       I    between atoms: N2_15  and  C13_16 
REMARK    3  A    between atoms: C13_16  and  C14_18 
REMARK    4  A    between atoms: C14_18  and  C15_19 
REMARK    5  A    between atoms: C15_19  and  C16_20 
REMARK    6  A    between atoms: C16_20  and  C17_21 
ROOT
HETATM    1  C5  UNL     1      27.598   2.564  -3.389  1.00  0.00     0.079 C 
HETATM    2  C6  UNL     1      27.372   3.931  -2.776  1.00  0.00     0.053 C 
HETATM    3  C7  UNL     1      26.016   4.385  -3.243  1.00  0.00     0.193 C 
HETATM    4  N2  UNL     1      25.055   3.323  -3.098  1.00  0.00    -0.277 N 
HETATM    5  C13 UNL     1      23.669   3.434  -3.183  1.00  0.00     0.230 C 
HETATM    6  O2  UNL     1      23.099   4.531  -3.427  1.00  0.00    -0.273 OA
HETATM    7  S1  UNL     1      25.983   1.844  -2.839  1.00  0.00    -0.044 SA
ENDROOT
BRANCH   3   8
HETATM    8  C8  UNL     1      25.686   5.551  -2.384  1.00  0.00     0.243 C 
HETATM    9  O1  UNL     1      25.732   5.439  -1.150  1.00  0.00    -0.271 OA
HETATM   10  N1  UNL     1      25.323   6.766  -2.974  1.00  0.00    -0.350 N 
HETATM   11  C9  UNL     1      25.222   7.050  -4.383  1.00  0.00     0.126 C 
HETATM   12  C12 UNL     1      24.954   8.025  -2.307  1.00  0.00     0.126 C 
HETATM   13  C10 UNL     1      24.131   8.101  -4.519  1.00  0.00     0.021 C 
HETATM   14  C11 UNL     1      23.679   8.319  -3.099  1.00  0.00     0.021 C 
ENDBRANCH   3   8
BRANCH   1  15
HETATM   15  C2  UNL     1      28.738   1.851  -2.733  1.00  0.00    -0.037 C 
HETATM   16  C1  UNL     1      29.314   0.825  -3.671  1.00  0.00     0.015 C 
HETATM   17  C3  UNL     1      29.827   2.884  -2.485  1.00  0.00     0.015 C 
HETATM   18  C4  UNL     1      28.313   1.199  -1.462  1.00  0.00     0.015 C 
ENDBRANCH   1  15
BRANCH   5  19
HETATM   19  C14 UNL     1      22.817   2.202  -2.974  1.00  0.00     0.104 C 
BRANCH  19  20
HETATM   20  C15 UNL     1      21.742   2.151  -4.037  1.00  0.00     0.012 C 
BRANCH  20  21
HETATM   21  C16 UNL     1      22.357   1.540  -5.270  1.00  0.00     0.032 C 
BRANCH  21  22
HETATM   22  C17 UNL     1      21.454   1.648  -6.468  1.00  0.00     0.222 C 
HETATM   23  F1  UNL     1      22.116   2.170  -7.566  1.00  0.00    -0.255 F 
ENDBRANCH  21  22
ENDBRANCH  20  21
ENDBRANCH  19  20
ENDBRANCH   5  19
TORSDOF 6
ENDMDL
MODEL 5
REMARK VINA RESULT: -6.667360709      4.778      8.750
REMARK  6 active torsions:
REMARK  status: ('A' for Active; 'I' for Inactive)
REMARK    1  A    between atoms: C2_2  and  C5_5 
REMARK    2  A    between atoms: C7_7  and  C8_8 
REMARK       I    between atoms: C8_8  and  N1_10 
REMARK       I    between atoms: N2_15  and  C13_16 
REMARK    3  A    between atoms: C13_16  and  C14_18 
REMARK    4  A    between atoms: C14_18  and  C15_19 
REMARK    5  A    between atoms: C15_19  and  C16_20 
REMARK    6  A    between atoms: C16_20  and  C17_21 
ROOT
HETATM    1  C5  UNL     1      27.600   2.498  -3.341  1.00  0.00     0.079 C 
HETATM    2  C6  UNL     1      27.398   3.887  -2.771  1.00  0.00     0.053 C 
HETATM    3  C7  UNL     1      26.025   4.326  -3.206  1.00  0.00     0.193 C 
HETATM    4  N2  UNL     1      25.070   3.272  -2.986  1.00  0.00    -0.277 N 
HETATM    5  C13 UNL     1      23.682   3.382  -3.024  1.00  0.00     0.230 C 
HETATM    6  O2  UNL     1      23.104   4.470  -3.289  1.00  0.00    -0.273 OA
HETATM    7  S1  UNL     1      26.006   1.802  -2.705  1.00  0.00    -0.044 SA
ENDROOT
BRANCH   3   8
HETATM    8  C8  UNL     1      25.727   5.524  -2.380  1.00  0.00     0.243 C 
HETATM    9  O1  UNL     1      25.813   5.457  -1.145  1.00  0.00    -0.271 OA
HETATM   10  N1  UNL     1      25.349   6.719  -3.002  1.00  0.00    -0.350 N 
HETATM   11  C9  UNL     1      25.203   6.951  -4.416  1.00  0.00     0.126 C 
HETATM   12  C12 UNL     1      25.006   8.002  -2.371  1.00  0.00     0.126 C 
HETATM   13  C10 UNL     1      24.112   8.002  -4.556  1.00  0.00     0.021 C 
HETATM   14  C11 UNL     1      23.707   8.273  -3.131  1.00  0.00     0.021 C 
ENDBRANCH   3   8
BRANCH   1  15
HETATM   15  C2  UNL     1      28.763   1.808  -2.700  1.00  0.00    -0.037 C 
HETATM   16  C1  UNL     1      29.333   0.778  -3.637  1.00  0.00     0.015 C 
HETATM   17  C3  UNL     1      29.843   2.858  -2.487  1.00  0.00     0.015 C 
HETATM   18  C4  UNL     1      28.373   1.166  -1.412  1.00  0.00     0.015 C 
ENDBRANCH   1  15
BRANCH   5  19
HETATM   19  C14 UNL     1      22.837   2.161  -2.738  1.00  0.00     0.104 C 
BRANCH  19  20
HETATM   20  C15 UNL     1      22.138   2.336  -1.408  1.00  0.00     0.012 C 
BRANCH  20  21
HETATM   21  C16 UNL     1      20.673   2.055  -1.630  1.00  0.00     0.032 C 
BRANCH  21  22
HETATM   22  C17 UNL     1      19.935   3.261  -2.143  1.00  0.00     0.222 C 
HETATM   23  F1  UNL     1      18.800   3.526  -1.395  1.00  0.00    -0.255 F 
ENDBRANCH  21  22
ENDBRANCH  20  21
ENDBRANCH  19  20
ENDBRANCH   5  19
TORSDOF 6
ENDMDL
