MODEL 1
REMARK VINA RESULT: -7.767022586      0.000      0.000
REMARK  5 active torsions:
REMARK  status: ('A' for Active; 'I' for Inactive)
REMARK    1  A    between atoms: C7_8  and  C8_9 
REMARK    2  A    between atoms: C8_9  and  C9_10 
REMARK    3  A    between atoms: C9_10  and  N1_11 
REMARK    4  A    between atoms: C13_15  and  C14_16 
REMARK    5  A    between atoms: C14_16  and  N2_17 
ROOT
HETATM    1  N1  UNL     1      25.297   4.403  -2.250  1.00  0.00     0.089 N 
HETATM    2  C10 UNL     1      26.199   5.009  -1.289  1.00  0.00     0.272 C 
HETATM    3  C11 UNL     1      27.161   5.903  -2.004  1.00  0.00     0.031 C 
HETATM    4  C12 UNL     1      26.355   7.131  -2.452  1.00  0.00     0.013 C 
HETATM    5  C13 UNL     1      25.079   6.699  -3.094  1.00  0.00     0.053 C 
HETATM    6  C20 UNL     1      25.222   5.202  -3.430  1.00  0.00     0.282 C 
ENDROOT
BRANCH   1   7
HETATM    7  C9  UNL     1      25.814   3.062  -2.526  1.00  0.00     0.273 C 
BRANCH   7   8
HETATM    8  C8  UNL     1      26.868   3.075  -3.579  1.00  0.00     0.036 C 
BRANCH   8   9
HETATM    9  C7  UNL     1      27.542   1.783  -3.852  1.00  0.00    -0.001 C 
HETATM   10  C2  UNL     1      28.670   1.413  -2.956  1.00  0.00    -0.022 C 
HETATM   11  C1  UNL     1      28.294   0.892  -1.612  1.00  0.00     0.017 C 
HETATM   12  C3  UNL     1      29.625   2.584  -2.746  1.00  0.00     0.017 C 
HETATM   13  C4  UNL     1      29.473   0.334  -3.686  1.00  0.00     0.176 C 
HETATM   14  O1  UNL     1      28.674  -0.287  -4.613  1.00  0.00    -0.390 OA
HETATM   15  C5  UNL     1      27.434  -0.633  -4.106  1.00  0.00     0.168 C 
HETATM   16  C6  UNL     1      26.585   0.618  -3.961  1.00  0.00     0.032 C 
ENDBRANCH   8   9
ENDBRANCH   7   8
ENDBRANCH   1   7
BRANCH   5  17
HETATM   17  C14 UNL     1      24.761   7.410  -4.386  1.00  0.00     0.074 C 
BRANCH  17  18
HETATM   18  N2  UNL     1      23.418   7.790  -4.504  1.00  0.00    -0.354 N 
HETATM   19  C15 UNL     1      23.128   8.998  -5.158  1.00  0.00     0.070 C 
HETATM   20  C16 UNL     1      21.767   9.552  -4.977  1.00  0.00     0.082 C 
HETATM   21  C17 UNL     1      20.675   8.575  -4.724  1.00  0.00     0.179 C 
HETATM   22  F1  UNL     1      19.568   8.806  -5.553  1.00  0.00    -0.249 F 
HETATM   23  C18 UNL     1      21.094   7.161  -4.939  1.00  0.00     0.082 C 
HETATM   24  C19 UNL     1      22.375   6.932  -4.152  1.00  0.00     0.070 C 
ENDBRANCH  17  18
ENDBRANCH   5  17
TORSDOF 5
ENDMDL
MODEL 2
REMARK VINA RESULT: -7.697168465      1.446      1.609
REMARK  5 active torsions:
REMARK  status: ('A' for Active; 'I' for Inactive)
REMARK    1  A    between atoms: C7_8  and  C8_9 
REMARK    2  A    between atoms: C8_9  and  C9_10 
REMARK    3  A    between atoms: C9_10  and  N1_11 
REMARK    4  A    between atoms: C13_15  and  C14_16 
REMARK    5  A    between atoms: C14_16  and  N2_17 
ROOT
HETATM    1  N1  UNL     1      25.409   4.137  -2.169  1.00  0.00     0.089 N 
HETATM    2  C10 UNL     1      26.520   4.600  -1.359  1.00  0.00     0.272 C 
HETATM    3  C11 UNL     1      27.398   5.490  -2.179  1.00  0.00     0.031 C 
HETATM    4  C12 UNL     1      26.620   6.799  -2.374  1.00  0.00     0.013 C 
HETATM    5  C13 UNL     1      25.217   6.505  -2.787  1.00  0.00     0.053 C 
HETATM    6  C20 UNL     1      25.178   5.036  -3.252  1.00  0.00     0.282 C 
ENDROOT
BRANCH   1   7
HETATM    7  C9  UNL     1      25.760   2.794  -2.635  1.00  0.00     0.273 C 
BRANCH   7   8
HETATM    8  C8  UNL     1      26.810   2.825  -3.690  1.00  0.00     0.036 C 
BRANCH   8   9
HETATM    9  C7  UNL     1      27.513   1.547  -3.958  1.00  0.00    -0.001 C 
HETATM   10  C2  UNL     1      28.647   1.204  -3.057  1.00  0.00    -0.022 C 
HETATM   11  C1  UNL     1      28.277   0.679  -1.713  1.00  0.00     0.017 C 
HETATM   12  C3  UNL     1      29.575   2.397  -2.847  1.00  0.00     0.017 C 
HETATM   13  C4  UNL     1      29.475   0.142  -3.782  1.00  0.00     0.176 C 
HETATM   14  O1  UNL     1      28.693  -0.499  -4.709  1.00  0.00    -0.390 OA
HETATM   15  C5  UNL     1      27.459  -0.871  -4.207  1.00  0.00     0.168 C 
HETATM   16  C6  UNL     1      26.583   0.361  -4.067  1.00  0.00     0.032 C 
ENDBRANCH   8   9
ENDBRANCH   7   8
ENDBRANCH   1   7
BRANCH   5  17
HETATM   17  C14 UNL     1      24.720   7.342  -3.940  1.00  0.00     0.074 C 
BRANCH  17  18
HETATM   18  N2  UNL     1      23.873   8.387  -3.552  1.00  0.00    -0.354 N 
HETATM   19  C15 UNL     1      24.455   9.541  -3.002  1.00  0.00     0.070 C 
HETATM   20  C16 UNL     1      23.554  10.476  -2.290  1.00  0.00     0.082 C 
HETATM   21  C17 UNL     1      22.138  10.513  -2.738  1.00  0.00     0.179 C 
HETATM   22  F1  UNL     1      21.691  11.827  -2.943  1.00  0.00    -0.249 F 
HETATM   23  C18 UNL     1      21.907   9.771  -4.010  1.00  0.00     0.082 C 
HETATM   24  C19 UNL     1      22.510   8.383  -3.853  1.00  0.00     0.070 C 
ENDBRANCH  17  18
ENDBRANCH   5  17
TORSDOF 5
ENDMDL
MODEL 3
REMARK VINA RESULT: -7.498148870      2.949      4.593
REMARK  5 active torsions:
REMARK  status: ('A' for Active; 'I' for Inactive)
REMARK    1  A    between atoms: C7_8  and  C8_9 
REMARK    2  A    between atoms: C8_9  and  C9_10 
REMARK    3  A    between atoms: C9_10  and  N1_11 
REMARK    4  A    between atoms: C13_15  and  C14_16 
REMARK    5  A    between atoms: C14_16  and  N2_17 
ROOT
HETATM    1  N1  UNL     1      21.956   3.545  -4.037  1.00  0.00     0.089 N 
HETATM    2  C10 UNL     1      20.746   2.746  -4.040  1.00  0.00     0.272 C 
HETATM    3  C11 UNL     1      19.661   3.480  -3.318  1.00  0.00     0.031 C 
HETATM    4  C12 UNL     1      19.242   4.638  -4.234  1.00  0.00     0.013 C 
HETATM    5  C13 UNL     1      20.450   5.350  -4.745  1.00  0.00     0.053 C 
HETATM    6  C20 UNL     1      21.637   4.925  -3.860  1.00  0.00     0.282 C 
ENDROOT
BRANCH   1   7
HETATM    7  C9  UNL     1      22.796   3.032  -2.954  1.00  0.00     0.273 C 
BRANCH   7   8
HETATM    8  C8  UNL     1      24.034   2.383  -3.467  1.00  0.00     0.036 C 
BRANCH   8   9
HETATM    9  C7  UNL     1      25.302   2.755  -2.792  1.00  0.00    -0.001 C 
HETATM   10  C2  UNL     1      26.503   1.943  -3.128  1.00  0.00    -0.022 C 
HETATM   11  C1  UNL     1      27.150   2.245  -4.435  1.00  0.00     0.017 C 
HETATM   12  C3  UNL     1      26.194   0.449  -3.099  1.00  0.00     0.017 C 
HETATM   13  C4  UNL     1      27.522   2.190  -2.013  1.00  0.00     0.176 C 
HETATM   14  O1  UNL     1      27.251   3.386  -1.398  1.00  0.00    -0.390 OA
HETATM   15  C5  UNL     1      27.012   4.411  -2.295  1.00  0.00     0.168 C 
HETATM   16  C6  UNL     1      25.638   4.223  -2.915  1.00  0.00     0.032 C 
ENDBRANCH   8   9
ENDBRANCH   7   8
ENDBRANCH   1   7
BRANCH   5  17
HETATM   17  C14 UNL     1      20.364   6.855  -4.668  1.00  0.00     0.074 C 
BRANCH  17  18
HETATM   18  N2  UNL     1      19.352   7.402  -5.467  1.00  0.00    -0.354 N 
HETATM   19  C15 UNL     1      18.214   7.922  -4.829  1.00  0.00     0.070 C 
HETATM   20  C16 UNL     1      17.025   8.176  -5.673  1.00  0.00     0.082 C 
HETATM   21  C17 UNL     1      17.275   8.499  -7.102  1.00  0.00     0.179 C 
HETATM   22  F1  UNL     1      16.559   9.634  -7.511  1.00  0.00    -0.249 F 
HETATM   23  C18 UNL     1      18.712   8.760  -7.400  1.00  0.00     0.082 C 
HETATM   24  C19 UNL     1      19.519   7.599  -6.839  1.00  0.00     0.070 C 
ENDBRANCH  17  18
ENDBRANCH   5  17
TORSDOF 5
ENDMDL
MODEL 4
REMARK VINA RESULT: -7.485211088      2.530      4.314
REMARK  5 active torsions:
REMARK  status: ('A' for Active; 'I' for Inactive)
REMARK    1  A    between atoms: C7_8  and  C8_9 
REMARK    2  A    between atoms: C8_9  and  C9_10 
REMARK    3  A    between atoms: C9_10  and  N1_11 
REMARK    4  A    between atoms: C13_15  and  C14_16 
REMARK    5  A    between atoms: C14_16  and  N2_17 
ROOT
HETATM    1  N1  UNL     1      21.705   3.961  -3.988  1.00  0.00     0.089 N 
HETATM    2  C10 UNL     1      20.344   3.727  -3.543  1.00  0.00     0.272 C 
HETATM    3  C11 UNL     1      19.759   5.005  -3.035  1.00  0.00     0.031 C 
HETATM    4  C12 UNL     1      19.511   5.885  -4.269  1.00  0.00     0.013 C 
HETATM    5  C13 UNL     1      20.714   5.882  -5.150  1.00  0.00     0.053 C 
HETATM    6  C20 UNL     1      21.889   5.337  -4.315  1.00  0.00     0.282 C 
ENDROOT
BRANCH   1   7
HETATM    7  C9  UNL     1      22.583   3.534  -2.897  1.00  0.00     0.273 C 
BRANCH   7   8
HETATM    8  C8  UNL     1      23.779   2.801  -3.396  1.00  0.00     0.036 C 
BRANCH   8   9
HETATM    9  C7  UNL     1      25.066   3.103  -2.724  1.00  0.00    -0.001 C 
HETATM   10  C2  UNL     1      26.200   2.180  -3.000  1.00  0.00    -0.022 C 
HETATM   11  C1  UNL     1      26.883   2.358  -4.311  1.00  0.00     0.017 C 
HETATM   12  C3  UNL     1      25.769   0.719  -2.898  1.00  0.00     0.017 C 
HETATM   13  C4  UNL     1      27.224   2.401  -1.885  1.00  0.00     0.176 C 
HETATM   14  O1  UNL     1      27.046   3.646  -1.336  1.00  0.00    -0.390 OA
HETATM   15  C5  UNL     1      26.902   4.638  -2.289  1.00  0.00     0.168 C 
HETATM   16  C6  UNL     1      25.524   4.531  -2.918  1.00  0.00     0.032 C 
ENDBRANCH   8   9
ENDBRANCH   7   8
ENDBRANCH   1   7
BRANCH   5  17
HETATM   17  C14 UNL     1      21.125   7.248  -5.645  1.00  0.00     0.074 C 
BRANCH  17  18
HETATM   18  N2  UNL     1      21.913   7.962  -4.734  1.00  0.00    -0.354 N 
HETATM   19  C15 UNL     1      23.294   8.041  -4.973  1.00  0.00     0.070 C 
HETATM   20  C16 UNL     1      24.148   8.491  -3.850  1.00  0.00     0.082 C 
HETATM   21  C17 UNL     1      23.523   9.404  -2.858  1.00  0.00     0.179 C 
HETATM   22  F1  UNL     1      24.332  10.520  -2.598  1.00  0.00    -0.249 F 
HETATM   23  C18 UNL     1      22.195   9.922  -3.295  1.00  0.00     0.082 C 
HETATM   24  C19 UNL     1      21.348   8.729  -3.713  1.00  0.00     0.070 C 
ENDBRANCH  17  18
ENDBRANCH   5  17
TORSDOF 5
ENDMDL
MODEL 5
REMARK VINA RESULT: -7.475502162      4.669      9.282
REMARK  5 active torsions:
REMARK  status: ('A' for Active; 'I' for Inactive)
REMARK    1  A    between atoms: C7_8  and  C8_9 
REMARK    2  A    between atoms: C8_9  and  C9_10 
REMARK    3  A    between atoms: C9_10  and  N1_11 
REMARK    4  A    between atoms: C13_15  and  C14_16 
REMARK    5  A    between atoms: C14_16  and  N2_17 
ROOT
HETATM    1  N1  UNL     1      21.167   6.819  -4.685  1.00  0.00     0.089 N 
HETATM    2  C10 UNL     1      21.263   7.656  -5.865  1.00  0.00     0.272 C 
HETATM    3  C11 UNL     1      21.899   8.960  -5.502  1.00  0.00     0.031 C 
HETATM    4  C12 UNL     1      23.382   8.657  -5.245  1.00  0.00     0.013 C 
HETATM    5  C13 UNL     1      23.516   7.460  -4.365  1.00  0.00     0.053 C 
HETATM    6  C20 UNL     1      22.139   7.215  -3.717  1.00  0.00     0.282 C 
ENDROOT
BRANCH   1   7
HETATM    7  C9  UNL     1      19.801   6.958  -4.180  1.00  0.00     0.273 C 
BRANCH   7   8
HETATM    8  C8  UNL     1      18.878   5.955  -4.781  1.00  0.00     0.036 C 
BRANCH   8   9
HETATM    9  C7  UNL     1      17.750   6.493  -5.580  1.00  0.00    -0.001 C 
HETATM   10  C2  UNL     1      16.507   5.676  -5.618  1.00  0.00    -0.022 C 
HETATM   11  C1  UNL     1      15.640   5.748  -4.409  1.00  0.00     0.017 C 
HETATM   12  C3  UNL     1      16.812   4.204  -5.878  1.00  0.00     0.017 C 
HETATM   13  C4  UNL     1      15.701   6.164  -6.823  1.00  0.00     0.176 C 
HETATM   14  O1  UNL     1      16.078   7.443  -7.143  1.00  0.00    -0.390 OA
HETATM   15  C5  UNL     1      16.157   8.272  -6.038  1.00  0.00     0.168 C 
HETATM   16  C6  UNL     1      17.400   7.922  -5.238  1.00  0.00     0.032 C 
ENDBRANCH   8   9
ENDBRANCH   7   8
ENDBRANCH   1   7
BRANCH   5  17
HETATM   17  C14 UNL     1      24.506   7.624  -3.238  1.00  0.00     0.074 C 
BRANCH  17  18
HETATM   18  N2  UNL     1      25.261   6.473  -2.981  1.00  0.00    -0.354 N 
HETATM   19  C15 UNL     1      26.339   6.576  -2.087  1.00  0.00     0.070 C 
HETATM   20  C16 UNL     1      27.323   5.469  -2.087  1.00  0.00     0.082 C 
HETATM   21  C17 UNL     1      26.818   4.126  -2.474  1.00  0.00     0.179 C 
HETATM   22  F1  UNL     1      27.216   3.138  -1.562  1.00  0.00    -0.249 F 
HETATM   23  C18 UNL     1      25.332   4.063  -2.565  1.00  0.00     0.082 C 
HETATM   24  C19 UNL     1      24.871   5.216  -3.444  1.00  0.00     0.070 C 
ENDBRANCH  17  18
ENDBRANCH   5  17
TORSDOF 5
ENDMDL
