MODEL 1
REMARK VINA RESULT: -7.375997003      0.000      0.000
REMARK  5 active torsions:
REMARK  status: ('A' for Active; 'I' for Inactive)
REMARK    1  A    between atoms: C7_8  and  C8_9 
REMARK    2  A    between atoms: C8_9  and  C9_10 
REMARK    3  A    between atoms: C9_10  and  N1_11 
REMARK    4  A    between atoms: N1_11  and  C10_12 
REMARK    5  A    between atoms: N1_11  and  S1_18 
ROOT
HETATM    1  N1  UNL     1      21.601   7.072  -4.630  1.00  0.00    -0.286 N 
ENDROOT
BRANCH   1   2
HETATM    2  C9  UNL     1      20.596   7.946  -5.085  1.00  0.00     0.076 C 
BRANCH   2   3
HETATM    3  C8  UNL     1      20.020   7.669  -6.428  1.00  0.00     0.050 C 
BRANCH   3   4
HETATM    4  C7  UNL     1      18.516   7.611  -6.339  1.00  0.00    -0.006 C 
HETATM    5  C2  UNL     1      17.782   8.272  -7.457  1.00  0.00    -0.013 C 
HETATM    6  C1  UNL     1      18.399   9.528  -7.977  1.00  0.00     0.010 C 
HETATM    7  C3  UNL     1      16.374   8.593  -7.019  1.00  0.00     0.024 C 
HETATM    8  C4  UNL     1      15.803   7.594  -6.061  1.00  0.00     0.082 C 
HETATM    9 CL1  UNL     1      15.633   6.014  -6.880  1.00  0.00    -0.125 Cl
HETATM   10  C5  UNL     1      16.630   7.428  -4.822  1.00  0.00     0.020 C 
HETATM   11  C6  UNL     1      17.990   8.077  -4.989  1.00  0.00     0.007 C 
ENDBRANCH   3   4
ENDBRANCH   2   3
ENDBRANCH   1   2
BRANCH   1  12
HETATM   12  C10 UNL     1      22.629   7.731  -3.945  1.00  0.00     0.104 C 
HETATM   13  C11 UNL     1      24.044   7.311  -4.365  1.00  0.00     0.053 C 
HETATM   14  C12 UNL     1      24.976   8.054  -3.413  1.00  0.00     0.169 C 
HETATM   15  O1  UNL     1      24.315   8.653  -2.369  1.00  0.00    -0.391 OA
HETATM   16  C13 UNL     1      23.451   9.669  -2.753  1.00  0.00     0.169 C 
HETATM   17  C14 UNL     1      22.621   9.231  -3.974  1.00  0.00     0.053 C 
ENDBRANCH   1  12
BRANCH   1  18
HETATM   18  S1  UNL     1      21.167   5.523  -4.177  1.00  0.00     0.228 S 
HETATM   19  C15 UNL     1      19.711   5.484  -3.133  1.00  0.00     0.186 C 
HETATM   20  O2  UNL     1      20.945   4.580  -5.328  1.00  0.00    -0.206 OA
HETATM   21  O3  UNL     1      22.262   4.913  -3.346  1.00  0.00    -0.206 OA
ENDBRANCH   1  18
TORSDOF 5
ENDMDL
MODEL 2
REMARK VINA RESULT: -7.257481932      1.554      3.428
REMARK  5 active torsions:
REMARK  status: ('A' for Active; 'I' for Inactive)
REMARK    1  A    between atoms: C7_8  and  C8_9 
REMARK    2  A    between atoms: C8_9  and  C9_10 
REMARK    3  A    between atoms: C9_10  and  N1_11 
REMARK    4  A    between atoms: N1_11  and  C10_12 
REMARK    5  A    between atoms: N1_11  and  S1_18 
ROOT
HETATM    1  N1  UNL     1      21.250   6.742  -4.506  1.00  0.00    -0.286 N 
ENDROOT
BRANCH   1   2
HETATM    2  C9  UNL     1      20.733   6.724  -5.815  1.00  0.00     0.076 C 
BRANCH   2   3
HETATM    3  C8  UNL     1      20.001   7.937  -6.267  1.00  0.00     0.050 C 
BRANCH   3   4
HETATM    4  C7  UNL     1      18.516   7.679  -6.243  1.00  0.00    -0.006 C 
HETATM    5  C2  UNL     1      17.758   8.188  -7.422  1.00  0.00    -0.013 C 
HETATM    6  C1  UNL     1      18.227   9.495  -7.973  1.00  0.00     0.010 C 
HETATM    7  C3  UNL     1      16.299   8.333  -7.063  1.00  0.00     0.024 C 
HETATM    8  C4  UNL     1      15.820   7.306  -6.086  1.00  0.00     0.082 C 
HETATM    9 CL1  UNL     1      15.904   5.686  -6.836  1.00  0.00    -0.125 Cl
HETATM   10  C5  UNL     1      16.598   7.304  -4.804  1.00  0.00     0.020 C 
HETATM   11  C6  UNL     1      17.866   8.124  -4.941  1.00  0.00     0.007 C 
ENDBRANCH   3   4
ENDBRANCH   2   3
ENDBRANCH   1   2
BRANCH   1  12
HETATM   12  C10 UNL     1      21.091   5.522  -3.838  1.00  0.00     0.104 C 
HETATM   13  C11 UNL     1      19.686   5.286  -3.270  1.00  0.00     0.053 C 
HETATM   14  C12 UNL     1      19.787   3.977  -2.493  1.00  0.00     0.169 C 
HETATM   15  O1  UNL     1      21.080   3.543  -2.335  1.00  0.00    -0.391 OA
HETATM   16  C13 UNL     1      21.715   3.207  -3.522  1.00  0.00     0.169 C 
HETATM   17  C14 UNL     1      21.442   4.276  -4.596  1.00  0.00     0.053 C 
ENDBRANCH   1  12
BRANCH   1  18
HETATM   18  S1  UNL     1      22.593   7.687  -4.191  1.00  0.00     0.228 S 
HETATM   19  C15 UNL     1      22.174   9.287  -3.502  1.00  0.00     0.186 C 
HETATM   20  O2  UNL     1      23.609   7.038  -3.291  1.00  0.00    -0.206 OA
HETATM   21  O3  UNL     1      23.312   7.989  -5.477  1.00  0.00    -0.206 OA
ENDBRANCH   1  18
TORSDOF 5
ENDMDL
MODEL 3
REMARK VINA RESULT: -6.580707771      2.983      6.405
REMARK  5 active torsions:
REMARK  status: ('A' for Active; 'I' for Inactive)
REMARK    1  A    between atoms: C7_8  and  C8_9 
REMARK    2  A    between atoms: C8_9  and  C9_10 
REMARK    3  A    between atoms: C9_10  and  N1_11 
REMARK    4  A    between atoms: N1_11  and  C10_12 
REMARK    5  A    between atoms: N1_11  and  S1_18 
ROOT
HETATM    1  N1  UNL     1      19.179   7.120  -4.773  1.00  0.00    -0.286 N 
ENDROOT
BRANCH   1   2
HETATM    2  C9  UNL     1      20.338   7.913  -4.858  1.00  0.00     0.076 C 
BRANCH   2   3
HETATM    3  C8  UNL     1      20.739   8.653  -3.632  1.00  0.00     0.050 C 
BRANCH   3   4
HETATM    4  C7  UNL     1      22.239   8.635  -3.488  1.00  0.00    -0.006 C 
HETATM    5  C2  UNL     1      22.815   9.712  -2.631  1.00  0.00    -0.013 C 
HETATM    6  C1  UNL     1      22.143  11.042  -2.734  1.00  0.00     0.010 C 
HETATM    7  C3  UNL     1      24.274   9.902  -2.967  1.00  0.00     0.024 C 
HETATM    8  C4  UNL     1      24.963   8.636  -3.370  1.00  0.00     0.082 C 
HETATM    9 CL1  UNL     1      24.999   7.510  -1.982  1.00  0.00    -0.125 Cl
HETATM   10  C5  UNL     1      24.319   7.962  -4.543  1.00  0.00     0.020 C 
HETATM   11  C6  UNL     1      22.955   8.562  -4.829  1.00  0.00     0.007 C 
ENDBRANCH   3   4
ENDBRANCH   2   3
ENDBRANCH   1   2
BRANCH   1  12
HETATM   12  C10 UNL     1      18.162   7.543  -5.638  1.00  0.00     0.104 C 
HETATM   13  C11 UNL     1      16.853   7.932  -4.938  1.00  0.00     0.053 C 
HETATM   14  C12 UNL     1      15.874   8.232  -6.069  1.00  0.00     0.169 C 
HETATM   15  O1  UNL     1      16.345   7.857  -7.303  1.00  0.00    -0.391 OA
HETATM   16  C13 UNL     1      17.467   8.560  -7.719  1.00  0.00     0.169 C 
HETATM   17  C14 UNL     1      18.482   8.676  -6.567  1.00  0.00     0.053 C 
ENDBRANCH   1  12
BRANCH   1  18
HETATM   18  S1  UNL     1      19.347   5.492  -4.432  1.00  0.00     0.228 S 
HETATM   19  C15 UNL     1      17.857   4.553  -4.758  1.00  0.00     0.186 C 
HETATM   20  O2  UNL     1      20.490   4.825  -5.148  1.00  0.00    -0.206 OA
HETATM   21  O3  UNL     1      19.615   5.307  -2.963  1.00  0.00    -0.206 OA
ENDBRANCH   1  18
TORSDOF 5
ENDMDL
MODEL 4
REMARK VINA RESULT: -6.252509112      1.328      2.126
REMARK  5 active torsions:
REMARK  status: ('A' for Active; 'I' for Inactive)
REMARK    1  A    between atoms: C7_8  and  C8_9 
REMARK    2  A    between atoms: C8_9  and  C9_10 
REMARK    3  A    between atoms: C9_10  and  N1_11 
REMARK    4  A    between atoms: N1_11  and  C10_12 
REMARK    5  A    between atoms: N1_11  and  S1_18 
ROOT
HETATM    1  N1  UNL     1      21.845   7.085  -4.528  1.00  0.00    -0.286 N 
ENDROOT
BRANCH   1   2
HETATM    2  C9  UNL     1      20.879   7.935  -5.097  1.00  0.00     0.076 C 
BRANCH   2   3
HETATM    3  C8  UNL     1      19.549   7.982  -4.432  1.00  0.00     0.050 C 
BRANCH   3   4
HETATM    4  C7  UNL     1      18.460   8.088  -5.470  1.00  0.00    -0.006 C 
HETATM    5  C2  UNL     1      17.337   7.117  -5.322  1.00  0.00    -0.013 C 
HETATM    6  C1  UNL     1      17.725   5.751  -4.858  1.00  0.00     0.010 C 
HETATM    7  C3  UNL     1      16.615   6.972  -6.639  1.00  0.00     0.024 C 
HETATM    8  C4  UNL     1      16.588   8.232  -7.447  1.00  0.00     0.082 C 
HETATM    9 CL1  UNL     1      15.633   9.472  -6.584  1.00  0.00    -0.125 Cl
HETATM   10  C5  UNL     1      17.955   8.771  -7.743  1.00  0.00     0.020 C 
HETATM   11  C6  UNL     1      19.003   8.082  -6.892  1.00  0.00     0.007 C 
ENDBRANCH   3   4
ENDBRANCH   2   3
ENDBRANCH   1   2
BRANCH   1  12
HETATM   12  C10 UNL     1      22.812   7.775  -3.786  1.00  0.00     0.104 C 
HETATM   13  C11 UNL     1      24.231   7.203  -3.903  1.00  0.00     0.053 C 
HETATM   14  C12 UNL     1      25.070   8.025  -2.929  1.00  0.00     0.169 C 
HETATM   15  O1  UNL     1      24.313   8.824  -2.107  1.00  0.00    -0.391 OA
HETATM   16  C13 UNL     1      23.612   9.819  -2.771  1.00  0.00     0.169 C 
HETATM   17  C14 UNL     1      22.942   9.249  -4.035  1.00  0.00     0.053 C 
ENDBRANCH   1  12
BRANCH   1  18
HETATM   18  S1  UNL     1      21.379   5.552  -4.052  1.00  0.00     0.228 S 
HETATM   19  C15 UNL     1      22.767   4.500  -3.632  1.00  0.00     0.186 C 
HETATM   20  O2  UNL     1      20.407   5.529  -2.903  1.00  0.00    -0.206 OA
HETATM   21  O3  UNL     1      20.689   4.855  -5.192  1.00  0.00    -0.206 OA
ENDBRANCH   1  18
TORSDOF 5
ENDMDL
MODEL 5
REMARK VINA RESULT: -6.185316047      3.350      6.145
REMARK  5 active torsions:
REMARK  status: ('A' for Active; 'I' for Inactive)
REMARK    1  A    between atoms: C7_8  and  C8_9 
REMARK    2  A    between atoms: C8_9  and  C9_10 
REMARK    3  A    between atoms: C9_10  and  N1_11 
REMARK    4  A    between atoms: N1_11  and  C10_12 
REMARK    5  A    between atoms: N1_11  and  S1_18 
ROOT
HETATM    1  N1  UNL     1      19.531   6.693  -4.762  1.00  0.00    -0.286 N 
ENDROOT
BRANCH   1   2
HETATM    2  C9  UNL     1      19.977   7.464  -3.672  1.00  0.00     0.076 C 
BRANCH   2   3
HETATM    3  C8  UNL     1      20.635   8.760  -3.989  1.00  0.00     0.050 C 
BRANCH   3   4
HETATM    4  C7  UNL     1      22.123   8.647  -3.772  1.00  0.00    -0.006 C 
HETATM    5  C2  UNL     1      22.699   9.596  -2.776  1.00  0.00    -0.013 C 
HETATM    6  C1  UNL     1      22.098  10.963  -2.768  1.00  0.00     0.010 C 
HETATM    7  C3  UNL     1      24.182   9.742  -3.014  1.00  0.00     0.024 C 
HETATM    8  C4  UNL     1      24.833   8.491  -3.517  1.00  0.00     0.082 C 
HETATM    9 CL1  UNL     1      24.738   7.225  -2.259  1.00  0.00    -0.125 Cl
HETATM   10  C5  UNL     1      24.224   7.980  -4.788  1.00  0.00     0.020 C 
HETATM   11  C6  UNL     1      22.909   8.678  -5.075  1.00  0.00     0.007 C 
ENDBRANCH   3   4
ENDBRANCH   2   3
ENDBRANCH   1   2
BRANCH   1  12
HETATM   12  C10 UNL     1      19.747   5.321  -4.586  1.00  0.00     0.104 C 
HETATM   13  C11 UNL     1      21.206   4.938  -4.306  1.00  0.00     0.053 C 
HETATM   14  C12 UNL     1      21.217   3.413  -4.277  1.00  0.00     0.169 C 
HETATM   15  O1  UNL     1      20.042   2.857  -4.723  1.00  0.00    -0.391 OA
HETATM   16  C13 UNL     1      18.943   3.138  -3.924  1.00  0.00     0.169 C 
HETATM   17  C14 UNL     1      18.932   4.628  -3.535  1.00  0.00     0.053 C 
ENDBRANCH   1  12
BRANCH   1  18
HETATM   18  S1  UNL     1      18.190   7.215  -5.613  1.00  0.00     0.228 S 
HETATM   19  C15 UNL     1      18.613   8.235  -7.024  1.00  0.00     0.186 C 
HETATM   20  O2  UNL     1      17.288   6.108  -6.086  1.00  0.00    -0.206 OA
HETATM   21  O3  UNL     1      17.342   8.093  -4.734  1.00  0.00    -0.206 OA
ENDBRANCH   1  18
TORSDOF 5
ENDMDL
