MODEL 1
REMARK VINA RESULT: -8.035837049      0.000      0.000
REMARK  5 active torsions:
REMARK  status: ('A' for Active; 'I' for Inactive)
REMARK    1  A    between atoms: C1_2  and  C2_3 
REMARK       I    between atoms: C1_2  and  N1_11 
REMARK    2  A    between atoms: C2_3  and  S1_4 
REMARK    3  A    between atoms: S1_4  and  C3_5 
REMARK    4  A    between atoms: N2_14  and  C11_15 
REMARK    5  A    between atoms: C11_15  and  C12_16 
ROOT
HETATM    1  O1  UNL     1      27.258   4.139  -1.054  1.00  0.00    -0.273 OA
HETATM    2  C1  UNL     1      26.431   4.017  -1.973  1.00  0.00     0.229 C 
HETATM    3  N1  UNL     1      25.884   5.175  -2.601  1.00  0.00    -0.345 N 
HETATM    4  C9  UNL     1      24.863   4.974  -3.633  1.00  0.00     0.146 C 
HETATM    5  C10 UNL     1      23.882   6.119  -3.409  1.00  0.00     0.147 C 
HETATM    6  N2  UNL     1      24.599   7.306  -3.746  1.00  0.00    -0.370 N 
HETATM    7  C17 UNL     1      25.760   7.609  -3.048  1.00  0.00     0.083 C 
HETATM    8  C18 UNL     1      26.337   6.484  -2.269  1.00  0.00     0.170 C 
ENDROOT
BRANCH   2   9
HETATM    9  C2  UNL     1      26.007   2.661  -2.426  1.00  0.00     0.177 C 
BRANCH   9  10
HETATM   10  S1  UNL     1      26.656   1.285  -1.524  1.00  0.00    -0.155 SA
BRANCH  10  11
HETATM   11  C3  UNL     1      28.405   1.047  -1.481  1.00  0.00     0.047 C 
HETATM   12  C4  UNL     1      28.738  -0.440  -1.284  1.00  0.00     0.015 C 
HETATM   13  C5  UNL     1      28.393  -1.154  -2.548  1.00  0.00     0.001 C 
HETATM   14  C6  UNL     1      29.217  -0.632  -3.693  1.00  0.00     0.000 C 
HETATM   15  C7  UNL     1      28.826   0.838  -3.898  1.00  0.00     0.001 C 
HETATM   16  C8  UNL     1      29.173   1.585  -2.641  1.00  0.00     0.015 C 
ENDBRANCH  10  11
ENDBRANCH   9  10
ENDBRANCH   2   9
BRANCH   6  17
HETATM   17  C11 UNL     1      24.067   8.120  -4.738  1.00  0.00     0.068 C 
BRANCH  17  18
HETATM   18  C12 UNL     1      23.464   9.433  -4.412  1.00  0.00     0.027 C 
HETATM   19  C13 UNL     1      21.987   9.353  -4.817  1.00  0.00     0.013 C 
HETATM   20  C14 UNL     1      21.274   9.178  -3.517  1.00  0.00     0.038 C 
HETATM   21  C15 UNL     1      22.013  10.199  -2.639  1.00  0.00     0.170 C 
HETATM   22  F1  UNL     1      21.799  11.473  -3.069  1.00  0.00    -0.249 F 
HETATM   23  C16 UNL     1      23.445   9.768  -2.937  1.00  0.00     0.047 C 
ENDBRANCH  17  18
ENDBRANCH   6  17
TORSDOF 5
ENDMDL
MODEL 2
REMARK VINA RESULT: -7.896575807      2.243      3.222
REMARK  5 active torsions:
REMARK  status: ('A' for Active; 'I' for Inactive)
REMARK    1  A    between atoms: C1_2  and  C2_3 
REMARK       I    between atoms: C1_2  and  N1_11 
REMARK    2  A    between atoms: C2_3  and  S1_4 
REMARK    3  A    between atoms: S1_4  and  C3_5 
REMARK    4  A    between atoms: N2_14  and  C11_15 
REMARK    5  A    between atoms: C11_15  and  C12_16 
ROOT
HETATM    1  O1  UNL     1      26.724   7.300  -1.411  1.00  0.00    -0.273 OA
HETATM    2  C1  UNL     1      26.204   6.721  -2.380  1.00  0.00     0.229 C 
HETATM    3  N1  UNL     1      25.050   7.275  -3.009  1.00  0.00    -0.345 N 
HETATM    4  C9  UNL     1      24.439   6.516  -4.104  1.00  0.00     0.146 C 
HETATM    5  C10 UNL     1      22.942   6.729  -3.908  1.00  0.00     0.147 C 
HETATM    6  N2  UNL     1      22.716   8.113  -4.173  1.00  0.00    -0.370 N 
HETATM    7  C17 UNL     1      23.376   9.059  -3.401  1.00  0.00     0.083 C 
HETATM    8  C18 UNL     1      24.526   8.540  -2.618  1.00  0.00     0.170 C 
ENDROOT
BRANCH   2   9
HETATM    9  C2  UNL     1      26.784   5.445  -2.891  1.00  0.00     0.177 C 
BRANCH   9  10
HETATM   10  S1  UNL     1      26.321   3.966  -2.039  1.00  0.00    -0.155 SA
BRANCH  10  11
HETATM   11  C3  UNL     1      26.482   2.419  -2.875  1.00  0.00     0.047 C 
HETATM   12  C4  UNL     1      27.710   2.436  -3.798  1.00  0.00     0.015 C 
HETATM   13  C5  UNL     1      28.927   2.411  -2.935  1.00  0.00     0.001 C 
HETATM   14  C6  UNL     1      28.968   1.151  -2.114  1.00  0.00     0.000 C 
HETATM   15  C7  UNL     1      27.760   1.188  -1.168  1.00  0.00     0.001 C 
HETATM   16  C8  UNL     1      26.517   1.202  -2.013  1.00  0.00     0.015 C 
ENDBRANCH  10  11
ENDBRANCH   9  10
ENDBRANCH   2   9
BRANCH   6  17
HETATM   17  C11 UNL     1      21.809   8.437  -5.173  1.00  0.00     0.068 C 
BRANCH  17  18
HETATM   18  C12 UNL     1      20.386   8.710  -4.861  1.00  0.00     0.027 C 
HETATM   19  C13 UNL     1      19.649   8.793  -6.204  1.00  0.00     0.013 C 
HETATM   20  C14 UNL     1      18.939   7.484  -6.298  1.00  0.00     0.038 C 
HETATM   21  C15 UNL     1      18.395   7.342  -4.869  1.00  0.00     0.170 C 
HETATM   22  F1  UNL     1      17.471   8.303  -4.590  1.00  0.00    -0.249 F 
HETATM   23  C16 UNL     1      19.686   7.604  -4.101  1.00  0.00     0.047 C 
ENDBRANCH  17  18
ENDBRANCH   6  17
TORSDOF 5
ENDMDL
MODEL 3
REMARK VINA RESULT: -7.790211631      4.351      9.119
REMARK  5 active torsions:
REMARK  status: ('A' for Active; 'I' for Inactive)
REMARK    1  A    between atoms: C1_2  and  C2_3 
REMARK       I    between atoms: C1_2  and  N1_11 
REMARK    2  A    between atoms: C2_3  and  S1_4 
REMARK    3  A    between atoms: S1_4  and  C3_5 
REMARK    4  A    between atoms: N2_14  and  C11_15 
REMARK    5  A    between atoms: C11_15  and  C12_16 
ROOT
HETATM    1  O1  UNL     1      22.155  10.633  -3.402  1.00  0.00    -0.273 OA
HETATM    2  C1  UNL     1      22.357   9.520  -3.917  1.00  0.00     0.229 C 
HETATM    3  N1  UNL     1      23.380   8.669  -3.403  1.00  0.00    -0.345 N 
HETATM    4  C9  UNL     1      23.619   7.397  -4.091  1.00  0.00     0.146 C 
HETATM    5  C10 UNL     1      25.133   7.227  -4.035  1.00  0.00     0.147 C 
HETATM    6  N2  UNL     1      25.442   7.029  -2.656  1.00  0.00    -0.370 N 
HETATM    7  C17 UNL     1      25.099   8.016  -1.743  1.00  0.00     0.083 C 
HETATM    8  C18 UNL     1      24.121   9.018  -2.238  1.00  0.00     0.170 C 
ENDROOT
BRANCH   2   9
HETATM    9  C2  UNL     1      21.531   9.068  -5.074  1.00  0.00     0.177 C 
BRANCH   9  10
HETATM   10  S1  UNL     1      19.970   8.329  -4.692  1.00  0.00    -0.155 SA
BRANCH  10  11
HETATM   11  C3  UNL     1      19.193   7.311  -5.909  1.00  0.00     0.047 C 
HETATM   12  C4  UNL     1      17.796   6.883  -5.435  1.00  0.00     0.015 C 
HETATM   13  C5  UNL     1      16.914   8.085  -5.476  1.00  0.00     0.001 C 
HETATM   14  C6  UNL     1      16.797   8.608  -6.882  1.00  0.00     0.000 C 
HETATM   15  C7  UNL     1      18.195   9.075  -7.308  1.00  0.00     0.001 C 
HETATM   16  C8  UNL     1      19.105   7.878  -7.286  1.00  0.00     0.015 C 
ENDBRANCH  10  11
ENDBRANCH   9  10
ENDBRANCH   2   9
BRANCH   6  17
HETATM   17  C11 UNL     1      26.111   5.863  -2.307  1.00  0.00     0.068 C 
BRANCH  17  18
HETATM   18  C12 UNL     1      26.008   4.641  -3.138  1.00  0.00     0.027 C 
HETATM   19  C13 UNL     1      27.279   3.822  -2.877  1.00  0.00     0.013 C 
HETATM   20  C14 UNL     1      26.816   2.733  -1.967  1.00  0.00     0.038 C 
HETATM   21  C15 UNL     1      25.493   2.334  -2.638  1.00  0.00     0.170 C 
HETATM   22  F1  UNL     1      25.702   1.793  -3.870  1.00  0.00    -0.249 F 
HETATM   23  C16 UNL     1      24.868   3.720  -2.762  1.00  0.00     0.047 C 
ENDBRANCH  17  18
ENDBRANCH   6  17
TORSDOF 5
ENDMDL
MODEL 4
REMARK VINA RESULT: -7.673201233      6.746     10.696
REMARK  5 active torsions:
REMARK  status: ('A' for Active; 'I' for Inactive)
REMARK    1  A    between atoms: C1_2  and  C2_3 
REMARK       I    between atoms: C1_2  and  N1_11 
REMARK    2  A    between atoms: C2_3  and  S1_4 
REMARK    3  A    between atoms: S1_4  and  C3_5 
REMARK    4  A    between atoms: N2_14  and  C11_15 
REMARK    5  A    between atoms: C11_15  and  C12_16 
ROOT
HETATM    1  O1  UNL     1      21.542   4.766  -3.747  1.00  0.00    -0.273 OA
HETATM    2  C1  UNL     1      20.500   4.353  -3.211  1.00  0.00     0.229 C 
HETATM    3  N1  UNL     1      20.555   3.286  -2.266  1.00  0.00    -0.345 N 
HETATM    4  C9  UNL     1      19.289   2.795  -1.716  1.00  0.00     0.146 C 
HETATM    5  C10 UNL     1      19.495   1.289  -1.607  1.00  0.00     0.147 C 
HETATM    6  N2  UNL     1      20.492   1.112  -0.601  1.00  0.00    -0.370 N 
HETATM    7  C17 UNL     1      21.740   1.691  -0.785  1.00  0.00     0.083 C 
HETATM    8  C18 UNL     1      21.798   2.738  -1.838  1.00  0.00     0.170 C 
ENDROOT
BRANCH   2   9
HETATM    9  C2  UNL     1      19.186   4.972  -3.551  1.00  0.00     0.177 C 
BRANCH   9  10
HETATM   10  S1  UNL     1      19.144   6.008  -4.984  1.00  0.00    -0.155 SA
BRANCH  10  11
HETATM   11  C3  UNL     1      18.733   7.714  -4.786  1.00  0.00     0.047 C 
HETATM   12  C4  UNL     1      19.677   8.591  -5.622  1.00  0.00     0.015 C 
HETATM   13  C5  UNL     1      19.333   8.389  -7.060  1.00  0.00     0.001 C 
HETATM   14  C6  UNL     1      17.918   8.824  -7.330  1.00  0.00     0.000 C 
HETATM   15  C7  UNL     1      16.998   7.898  -6.524  1.00  0.00     0.001 C 
HETATM   16  C8  UNL     1      17.317   8.089  -5.067  1.00  0.00     0.015 C 
ENDBRANCH  10  11
ENDBRANCH   9  10
ENDBRANCH   2   9
BRANCH   6  17
HETATM   17  C11 UNL     1      20.165   0.330   0.499  1.00  0.00     0.068 C 
BRANCH  17  18
HETATM   18  C12 UNL     1      20.814   0.544   1.814  1.00  0.00     0.027 C 
HETATM   19  C13 UNL     1      19.716   1.014   2.776  1.00  0.00     0.013 C 
HETATM   20  C14 UNL     1      19.420  -0.200   3.594  1.00  0.00     0.038 C 
HETATM   21  C15 UNL     1      20.840  -0.715   3.875  1.00  0.00     0.170 C 
HETATM   22  F1  UNL     1      21.541   0.156   4.652  1.00  0.00    -0.249 F 
HETATM   23  C16 UNL     1      21.377  -0.709   2.448  1.00  0.00     0.047 C 
ENDBRANCH  17  18
ENDBRANCH   6  17
TORSDOF 5
ENDMDL
MODEL 5
REMARK VINA RESULT: -7.630633509      2.767      3.904
REMARK  5 active torsions:
REMARK  status: ('A' for Active; 'I' for Inactive)
REMARK    1  A    between atoms: C1_2  and  C2_3 
REMARK       I    between atoms: C1_2  and  N1_11 
REMARK    2  A    between atoms: C2_3  and  S1_4 
REMARK    3  A    between atoms: S1_4  and  C3_5 
REMARK    4  A    between atoms: N2_14  and  C11_15 
REMARK    5  A    between atoms: C11_15  and  C12_16 
ROOT
HETATM    1  O1  UNL     1      26.178   7.671  -1.723  1.00  0.00    -0.273 OA
HETATM    2  C1  UNL     1      25.607   7.076  -2.652  1.00  0.00     0.229 C 
HETATM    3  N1  UNL     1      24.404   7.603  -3.207  1.00  0.00    -0.345 N 
HETATM    4  C9  UNL     1      23.738   6.825  -4.255  1.00  0.00     0.146 C 
HETATM    5  C10 UNL     1      22.253   7.010  -3.963  1.00  0.00     0.147 C 
HETATM    6  N2  UNL     1      21.982   8.387  -4.220  1.00  0.00    -0.370 N 
HETATM    7  C17 UNL     1      22.673   9.352  -3.499  1.00  0.00     0.083 C 
HETATM    8  C18 UNL     1      23.882   8.861  -2.790  1.00  0.00     0.170 C 
ENDROOT
BRANCH   2   9
HETATM    9  C2  UNL     1      26.178   5.808  -3.193  1.00  0.00     0.177 C 
BRANCH   9  10
HETATM   10  S1  UNL     1      26.080   4.385  -2.148  1.00  0.00    -0.155 SA
BRANCH  10  11
HETATM   11  C3  UNL     1      26.052   2.784  -2.894  1.00  0.00     0.047 C 
HETATM   12  C4  UNL     1      27.203   2.645  -3.902  1.00  0.00     0.015 C 
HETATM   13  C5  UNL     1      28.477   2.568  -3.130  1.00  0.00     0.001 C 
HETATM   14  C6  UNL     1      28.481   1.358  -2.236  1.00  0.00     0.000 C 
HETATM   15  C7  UNL     1      27.357   1.550  -1.209  1.00  0.00     0.001 C 
HETATM   16  C8  UNL     1      26.057   1.621  -1.961  1.00  0.00     0.015 C 
ENDBRANCH  10  11
ENDBRANCH   9  10
ENDBRANCH   2   9
BRANCH   6  17
HETATM   17  C11 UNL     1      21.006   8.687  -5.160  1.00  0.00     0.068 C 
BRANCH  17  18
HETATM   18  C12 UNL     1      20.023   7.668  -5.600  1.00  0.00     0.027 C 
HETATM   19  C13 UNL     1      18.926   7.623  -4.528  1.00  0.00     0.013 C 
HETATM   20  C14 UNL     1      17.794   8.372  -5.151  1.00  0.00     0.038 C 
HETATM   21  C15 UNL     1      17.819   7.804  -6.578  1.00  0.00     0.170 C 
HETATM   22  F1  UNL     1      17.506   6.479  -6.593  1.00  0.00    -0.249 F 
HETATM   23  C16 UNL     1      19.299   8.007  -6.884  1.00  0.00     0.047 C 
ENDBRANCH  17  18
ENDBRANCH   6  17
TORSDOF 5
ENDMDL
