MODEL 1
REMARK VINA RESULT: -6.392305372      0.000      0.000
REMARK  7 active torsions:
REMARK  status: ('A' for Active; 'I' for Inactive)
REMARK    1  A    between atoms: C2_2  and  C3_3 
REMARK    2  A    between atoms: C3_3  and  N1_4 
REMARK    3  A    between atoms: N1_4  and  C4_5 
REMARK    4  A    between atoms: N1_4  and  C12_17 
REMARK    5  A    between atoms: C4_5  and  C5_6 
REMARK    6  A    between atoms: C6_7  and  C7_8 
REMARK    7  A    between atoms: C12_17  and  C13_18 
ROOT
HETATM    1  C5  UNL     1      26.069   6.495  -2.546  1.00  0.00    -0.087 C 
HETATM    2  C6  UNL     1      25.148   7.060  -3.073  1.00  0.00    -0.045 C 
ENDROOT
BRANCH   2   3
HETATM    3  C7  UNL     1      24.009   7.693  -3.718  1.00  0.00     0.345 C 
HETATM    4  O1  UNL     1      23.818   9.005  -3.442  1.00  0.00    -0.329 OA
HETATM    5  C8  UNL     1      22.580   9.503  -3.809  1.00  0.00     0.228 C 
HETATM    6 CL1  UNL     1      21.909  10.474  -2.450  1.00  0.00    -0.095 Cl
HETATM    7  C9  UNL     1      21.586   8.559  -4.362  1.00  0.00     0.065 C 
HETATM    8  C10 UNL     1      21.037   8.983  -5.729  1.00  0.00     0.017 C 
HETATM    9  C11 UNL     1      21.980   7.116  -4.400  1.00  0.00     0.204 C 
HETATM   10 BR1  UNL     1      20.490   5.896  -4.262  1.00  0.00    -0.061 Br
HETATM   11  O2  UNL     1      22.893   6.903  -3.377  1.00  0.00    -0.334 OA
ENDBRANCH   2   3
BRANCH   1  12
HETATM   12  C4  UNL     1      27.154   5.764  -1.903  1.00  0.00     0.188 C 
BRANCH  12  13
HETATM   13  N1  UNL     1      27.087   4.387  -2.489  1.00  0.00    -0.282 NA
BRANCH  13  14
HETATM   14  C3  UNL     1      25.961   3.726  -2.010  1.00  0.00     0.056 C 
BRANCH  14  15
HETATM   15  C2  UNL     1      25.040   2.990  -2.887  1.00  0.00    -0.019 C 
HETATM   16  C1  UNL     1      23.684   3.452  -3.179  1.00  0.00     0.037 C 
ENDBRANCH  14  15
ENDBRANCH  13  14
BRANCH  13  17
HETATM   17  C12 UNL     1      28.390   3.877  -2.533  1.00  0.00     0.095 C 
BRANCH  17  18
HETATM   18  C13 UNL     1      28.672   2.531  -3.061  1.00  0.00     0.010 C 
HETATM   19  C14 UNL     1      29.026   1.420  -2.152  1.00  0.00     0.006 C 
ENDBRANCH  17  18
ENDBRANCH  13  17
ENDBRANCH  12  13
ENDBRANCH   1  12
TORSDOF 7
ENDMDL
MODEL 2
REMARK VINA RESULT: -6.256462019      4.087      7.265
REMARK  7 active torsions:
REMARK  status: ('A' for Active; 'I' for Inactive)
REMARK    1  A    between atoms: C2_2  and  C3_3 
REMARK    2  A    between atoms: C3_3  and  N1_4 
REMARK    3  A    between atoms: N1_4  and  C4_5 
REMARK    4  A    between atoms: N1_4  and  C12_17 
REMARK    5  A    between atoms: C4_5  and  C5_6 
REMARK    6  A    between atoms: C6_7  and  C7_8 
REMARK    7  A    between atoms: C12_17  and  C13_18 
ROOT
HETATM    1  C5  UNL     1      26.132   5.853  -2.465  1.00  0.00    -0.087 C 
HETATM    2  C6  UNL     1      26.160   4.663  -2.300  1.00  0.00    -0.045 C 
ENDROOT
BRANCH   2   3
HETATM    3  C7  UNL     1      26.162   3.230  -2.055  1.00  0.00     0.345 C 
HETATM    4  O1  UNL     1      27.210   2.744  -1.347  1.00  0.00    -0.329 OA
HETATM    5  C8  UNL     1      27.353   1.368  -1.389  1.00  0.00     0.228 C 
HETATM    6 CL1  UNL     1      29.078   0.966  -1.706  1.00  0.00    -0.095 Cl
HETATM    7  C9  UNL     1      26.434   0.599  -2.252  1.00  0.00     0.065 C 
HETATM    8  C10 UNL     1      25.686  -0.514  -1.509  1.00  0.00     0.017 C 
HETATM    9  C11 UNL     1      25.471   1.390  -3.080  1.00  0.00     0.204 C 
HETATM   10 BR1  UNL     1      24.966   0.524  -4.730  1.00  0.00    -0.061 Br
HETATM   11  O2  UNL     1      26.046   2.628  -3.324  1.00  0.00    -0.334 OA
ENDBRANCH   2   3
BRANCH   1  12
HETATM   12  C4  UNL     1      26.055   7.300  -2.629  1.00  0.00     0.188 C 
BRANCH  12  13
HETATM   13  N1  UNL     1      24.589   7.597  -2.712  1.00  0.00    -0.282 NA
BRANCH  13  14
HETATM   14  C3  UNL     1      24.098   7.200  -3.950  1.00  0.00     0.056 C 
BRANCH  14  15
HETATM   15  C2  UNL     1      22.681   6.879  -4.175  1.00  0.00    -0.019 C 
HETATM   16  C1  UNL     1      21.855   7.582  -5.155  1.00  0.00     0.037 C 
ENDBRANCH  14  15
ENDBRANCH  13  14
BRANCH  13  17
HETATM   17  C12 UNL     1      24.368   8.833  -2.092  1.00  0.00     0.095 C 
BRANCH  17  18
HETATM   18  C13 UNL     1      23.865   9.994  -2.846  1.00  0.00     0.010 C 
HETATM   19  C14 UNL     1      22.439  10.380  -2.778  1.00  0.00     0.006 C 
ENDBRANCH  17  18
ENDBRANCH  13  17
ENDBRANCH  12  13
ENDBRANCH   1  12
TORSDOF 7
ENDMDL
MODEL 3
REMARK VINA RESULT: -6.227377427      3.535      5.325
REMARK  7 active torsions:
REMARK  status: ('A' for Active; 'I' for Inactive)
REMARK    1  A    between atoms: C2_2  and  C3_3 
REMARK    2  A    between atoms: C3_3  and  N1_4 
REMARK    3  A    between atoms: N1_4  and  C4_5 
REMARK    4  A    between atoms: N1_4  and  C12_17 
REMARK    5  A    between atoms: C4_5  and  C5_6 
REMARK    6  A    between atoms: C6_7  and  C7_8 
REMARK    7  A    between atoms: C12_17  and  C13_18 
ROOT
HETATM    1  C5  UNL     1      22.380   6.903  -4.129  1.00  0.00    -0.087 C 
HETATM    2  C6  UNL     1      21.195   7.012  -4.300  1.00  0.00    -0.045 C 
ENDROOT
BRANCH   2   3
HETATM    3  C7  UNL     1      19.773   7.167  -4.557  1.00  0.00     0.345 C 
HETATM    4  O1  UNL     1      18.987   6.110  -4.240  1.00  0.00    -0.329 OA
HETATM    5  C8  UNL     1      17.709   6.156  -4.767  1.00  0.00     0.228 C 
HETATM    6 CL1  UNL     1      17.310   4.554  -5.485  1.00  0.00    -0.095 Cl
HETATM    7  C9  UNL     1      17.369   7.272  -5.674  1.00  0.00     0.065 C 
HETATM    8  C10 UNL     1      16.128   8.058  -5.237  1.00  0.00     0.017 C 
HETATM    9  C11 UNL     1      18.475   8.221  -6.013  1.00  0.00     0.204 C 
HETATM   10 BR1  UNL     1      18.292   9.044  -7.750  1.00  0.00    -0.061 Br
HETATM   11  O2  UNL     1      19.670   7.524  -5.917  1.00  0.00    -0.334 OA
ENDBRANCH   2   3
BRANCH   1  12
HETATM   12  C4  UNL     1      23.824   6.783  -3.974  1.00  0.00     0.188 C 
BRANCH  12  13
HETATM   13  N1  UNL     1      24.196   7.866  -3.008  1.00  0.00    -0.282 NA
BRANCH  13  14
HETATM   14  C3  UNL     1      23.924   9.110  -3.567  1.00  0.00     0.056 C 
BRANCH  14  15
HETATM   15  C2  UNL     1      23.403  10.237  -2.780  1.00  0.00    -0.019 C 
HETATM   16  C1  UNL     1      21.976  10.532  -2.667  1.00  0.00     0.037 C 
ENDBRANCH  14  15
ENDBRANCH  13  14
BRANCH  13  17
HETATM   17  C12 UNL     1      25.387   7.486  -2.377  1.00  0.00     0.095 C 
BRANCH  17  18
HETATM   18  C13 UNL     1      25.914   6.115  -2.491  1.00  0.00     0.010 C 
HETATM   19  C14 UNL     1      27.139   5.713  -1.766  1.00  0.00     0.006 C 
ENDBRANCH  17  18
ENDBRANCH  13  17
ENDBRANCH  12  13
ENDBRANCH   1  12
TORSDOF 7
ENDMDL
MODEL 4
REMARK VINA RESULT: -6.158947702      0.401      2.387
REMARK  7 active torsions:
REMARK  status: ('A' for Active; 'I' for Inactive)
REMARK    1  A    between atoms: C2_2  and  C3_3 
REMARK    2  A    between atoms: C3_3  and  N1_4 
REMARK    3  A    between atoms: N1_4  and  C4_5 
REMARK    4  A    between atoms: N1_4  and  C12_17 
REMARK    5  A    between atoms: C4_5  and  C5_6 
REMARK    6  A    between atoms: C6_7  and  C7_8 
REMARK    7  A    between atoms: C12_17  and  C13_18 
ROOT
HETATM    1  C5  UNL     1      26.210   6.503  -2.472  1.00  0.00    -0.087 C 
HETATM    2  C6  UNL     1      25.291   7.015  -3.052  1.00  0.00    -0.045 C 
ENDROOT
BRANCH   2   3
HETATM    3  C7  UNL     1      24.145   7.617  -3.714  1.00  0.00     0.345 C 
HETATM    4  O1  UNL     1      23.945   8.937  -3.486  1.00  0.00    -0.329 OA
HETATM    5  C8  UNL     1      22.702   9.412  -3.866  1.00  0.00     0.228 C 
HETATM    6 CL1  UNL     1      22.032  10.429  -2.541  1.00  0.00    -0.095 Cl
HETATM    7  C9  UNL     1      21.712   8.441  -4.377  1.00  0.00     0.065 C 
HETATM    8  C10 UNL     1      21.153   8.809  -5.756  1.00  0.00     0.017 C 
HETATM    9  C11 UNL     1      22.116   7.000  -4.363  1.00  0.00     0.204 C 
HETATM   10 BR1  UNL     1      20.635   5.777  -4.172  1.00  0.00    -0.061 Br
HETATM   11  O2  UNL     1      23.035   6.832  -3.338  1.00  0.00    -0.334 OA
ENDBRANCH   2   3
BRANCH   1  12
HETATM   12  C4  UNL     1      27.292   5.875  -1.723  1.00  0.00     0.188 C 
BRANCH  12  13
HETATM   13  N1  UNL     1      27.101   4.405  -1.936  1.00  0.00    -0.282 NA
BRANCH  13  14
HETATM   14  C3  UNL     1      28.032   3.937  -2.856  1.00  0.00     0.056 C 
BRANCH  14  15
HETATM   15  C2  UNL     1      29.079   2.967  -2.503  1.00  0.00    -0.019 C 
HETATM   16  C1  UNL     1      29.196   1.659  -3.143  1.00  0.00     0.037 C 
ENDBRANCH  14  15
ENDBRANCH  13  14
BRANCH  13  17
HETATM   17  C12 UNL     1      25.724   4.151  -1.950  1.00  0.00     0.095 C 
BRANCH  17  18
HETATM   18  C13 UNL     1      25.144   3.094  -2.798  1.00  0.00     0.010 C 
HETATM   19  C14 UNL     1      23.708   3.108  -3.147  1.00  0.00     0.006 C 
ENDBRANCH  17  18
ENDBRANCH  13  17
ENDBRANCH  12  13
ENDBRANCH   1  12
TORSDOF 7
ENDMDL
MODEL 5
REMARK VINA RESULT: -5.999880904      3.230      5.150
REMARK  7 active torsions:
REMARK  status: ('A' for Active; 'I' for Inactive)
REMARK    1  A    between atoms: C2_2  and  C3_3 
REMARK    2  A    between atoms: C3_3  and  N1_4 
REMARK    3  A    between atoms: N1_4  and  C4_5 
REMARK    4  A    between atoms: N1_4  and  C12_17 
REMARK    5  A    between atoms: C4_5  and  C5_6 
REMARK    6  A    between atoms: C6_7  and  C7_8 
REMARK    7  A    between atoms: C12_17  and  C13_18 
ROOT
HETATM    1  C5  UNL     1      22.562   7.543  -4.862  1.00  0.00    -0.087 C 
HETATM    2  C6  UNL     1      21.485   7.031  -5.016  1.00  0.00    -0.045 C 
ENDROOT
BRANCH   2   3
HETATM    3  C7  UNL     1      20.183   6.398  -5.149  1.00  0.00     0.345 C 
HETATM    4  O1  UNL     1      19.188   7.171  -5.644  1.00  0.00    -0.329 OA
HETATM    5  C8  UNL     1      17.914   6.657  -5.477  1.00  0.00     0.228 C 
HETATM    6 CL1  UNL     1      16.832   7.958  -4.863  1.00  0.00    -0.095 Cl
HETATM    7  C9  UNL     1      17.764   5.402  -4.713  1.00  0.00     0.065 C 
HETATM    8  C10 UNL     1      17.010   4.308  -5.478  1.00  0.00     0.017 C 
HETATM    9  C11 UNL     1      19.008   4.831  -4.108  1.00  0.00     0.204 C 
HETATM   10 BR1  UNL     1      18.697   3.814  -2.497  1.00  0.00    -0.061 Br
HETATM   11  O2  UNL     1      19.880   5.884  -3.871  1.00  0.00    -0.334 OA
ENDBRANCH   2   3
BRANCH   1  12
HETATM   12  C4  UNL     1      23.860   8.161  -4.620  1.00  0.00     0.188 C 
BRANCH  12  13
HETATM   13  N1  UNL     1      24.169   7.849  -3.187  1.00  0.00    -0.282 NA
BRANCH  13  14
HETATM   14  C3  UNL     1      24.237   9.028  -2.453  1.00  0.00     0.056 C 
BRANCH  14  15
HETATM   15  C2  UNL     1      23.585  10.272  -2.888  1.00  0.00    -0.019 C 
HETATM   16  C1  UNL     1      22.158  10.525  -2.702  1.00  0.00     0.037 C 
ENDBRANCH  14  15
ENDBRANCH  13  14
BRANCH  13  17
HETATM   17  C12 UNL     1      25.105   6.808  -3.169  1.00  0.00     0.095 C 
BRANCH  17  18
HETATM   18  C13 UNL     1      26.359   6.913  -2.402  1.00  0.00     0.010 C 
HETATM   19  C14 UNL     1      26.985   5.712  -1.808  1.00  0.00     0.006 C 
ENDBRANCH  17  18
ENDBRANCH  13  17
ENDBRANCH  12  13
ENDBRANCH   1  12
TORSDOF 7
ENDMDL
