MODEL 1
REMARK VINA RESULT: -5.987960247      0.000      0.000
REMARK  7 active torsions:
REMARK  status: ('A' for Active; 'I' for Inactive)
REMARK    1  A    between atoms: C2_2  and  N1_3 
REMARK    2  A    between atoms: C5_6  and  C6_7 
REMARK    3  A    between atoms: C6_7  and  O1_8 
REMARK    4  A    between atoms: C6_7  and  N2_10 
REMARK    5  A    between atoms: N2_10  and  C8_12 
REMARK    6  A    between atoms: C8_12  and  C9_13 
REMARK    7  A    between atoms: C8_12  and  C14_19 
ROOT
HETATM    1  C6  UNL     1      20.119   6.959  -3.479  1.00  0.00     0.120 C 
ENDROOT
BRANCH   1   2
HETATM    2  C5  UNL     1      19.510   5.659  -3.331  1.00  0.00     0.097 C 
HETATM    3  C4  UNL     1      20.273   4.441  -3.672  1.00  0.00     0.035 C 
HETATM    4  C3  UNL     1      19.498   3.506  -4.616  1.00  0.00     0.118 C 
HETATM    5  N1  UNL     1      18.167   3.274  -4.208  1.00  0.00    -0.410 N 
HETATM    6  C18 UNL     1      17.415   4.363  -3.703  1.00  0.00     0.154 C 
HETATM    7  C17 UNL     1      18.140   5.671  -3.970  1.00  0.00     0.199 C 
HETATM    8  F1  UNL     1      18.197   5.940  -5.293  1.00  0.00    -0.247 F 
BRANCH   5   9
HETATM    9  C2  UNL     1      17.946   2.099  -3.429  1.00  0.00     0.112 C 
HETATM   10  C1  UNL     1      18.096   2.376  -1.940  1.00  0.00     0.026 C 
ENDBRANCH   5   9
ENDBRANCH   1   2
BRANCH   1  11
HETATM   11  O1  UNL     1      19.433   7.901  -2.868  1.00  0.00    -0.349 OA
ATOM     12  H1  UNL     1      19.533   8.747  -3.289  1.00  0.00     0.219 HD
ENDBRANCH   1  11
BRANCH   1  13
HETATM   13  N2  UNL     1      21.265   7.409  -4.126  1.00  0.00    -0.364 N 
HETATM   14  C7  UNL     1      21.393   7.592  -5.513  1.00  0.00     0.152 C 
BRANCH  13  15
HETATM   15  C8  UNL     1      22.458   7.739  -3.265  1.00  0.00     0.093 C 
BRANCH  15  16
HETATM   16  C9  UNL     1      23.549   6.801  -3.586  1.00  0.00     0.010 C 
HETATM   17  C10 UNL     1      23.276   5.420  -2.972  1.00  0.00     0.017 C 
HETATM   18  C11 UNL     1      24.541   4.616  -2.881  1.00  0.00     0.074 C 
HETATM   19  S1  UNL     1      25.542   5.384  -1.545  1.00  0.00    -0.169 SA
HETATM   20  C12 UNL     1      25.283   7.190  -1.809  1.00  0.00     0.074 C 
HETATM   21  C13 UNL     1      24.912   7.271  -3.293  1.00  0.00     0.017 C 
ENDBRANCH  15  16
BRANCH  15  22
HETATM   22  C14 UNL     1      22.761   9.182  -3.436  1.00  0.00     0.009 A 
HETATM   23  C15 UNL     1      23.265  10.133  -2.453  1.00  0.00     0.007 A 
HETATM   24  C16 UNL     1      21.887  10.290  -3.030  1.00  0.00     0.007 A 
ENDBRANCH  15  22
ENDBRANCH  13  15
ENDBRANCH   1  13
TORSDOF 7
ENDMDL
MODEL 2
REMARK VINA RESULT: -5.677655568      4.246      7.280
REMARK  7 active torsions:
REMARK  status: ('A' for Active; 'I' for Inactive)
REMARK    1  A    between atoms: C2_2  and  N1_3 
REMARK    2  A    between atoms: C5_6  and  C6_7 
REMARK    3  A    between atoms: C6_7  and  O1_8 
REMARK    4  A    between atoms: C6_7  and  N2_10 
REMARK    5  A    between atoms: N2_10  and  C8_12 
REMARK    6  A    between atoms: C8_12  and  C9_13 
REMARK    7  A    between atoms: C8_12  and  C14_19 
ROOT
HETATM    1  C6  UNL     1      25.427   4.400  -1.792  1.00  0.00     0.120 C 
ENDROOT
BRANCH   1   2
HETATM    2  C5  UNL     1      24.473   5.459  -2.022  1.00  0.00     0.097 C 
HETATM    3  C4  UNL     1      23.659   5.464  -3.254  1.00  0.00     0.035 C 
HETATM    4  C3  UNL     1      23.711   6.816  -3.988  1.00  0.00     0.118 C 
HETATM    5  N1  UNL     1      23.507   7.924  -3.139  1.00  0.00    -0.410 N 
HETATM    6  C18 UNL     1      24.118   7.919  -1.861  1.00  0.00     0.154 C 
HETATM    7  C17 UNL     1      25.135   6.793  -1.769  1.00  0.00     0.199 C 
HETATM    8  F1  UNL     1      26.181   7.009  -2.596  1.00  0.00    -0.247 F 
BRANCH   5   9
HETATM    9  C2  UNL     1      22.170   8.415  -3.060  1.00  0.00     0.112 C 
HETATM   10  C1  UNL     1      22.134   9.931  -2.936  1.00  0.00     0.026 C 
ENDBRANCH   5   9
ENDBRANCH   1   2
BRANCH   1  11
HETATM   11  O1  UNL     1      26.293   4.709  -0.851  1.00  0.00    -0.349 OA
ATOM     12  H1  UNL     1      25.890   5.194  -0.139  1.00  0.00     0.219 HD
ENDBRANCH   1  11
BRANCH   1  13
HETATM   13  N2  UNL     1      25.612   3.142  -2.354  1.00  0.00    -0.364 N 
HETATM   14  C7  UNL     1      26.024   2.898  -3.674  1.00  0.00     0.152 C 
BRANCH  13  15
HETATM   15  C8  UNL     1      25.364   1.948  -1.468  1.00  0.00     0.093 C 
BRANCH  15  16
HETATM   16  C9  UNL     1      24.078   1.333  -1.846  1.00  0.00     0.010 C 
HETATM   17  C10 UNL     1      22.902   2.151  -1.292  1.00  0.00     0.017 C 
HETATM   18  C11 UNL     1      21.649   1.326  -1.257  1.00  0.00     0.074 C 
HETATM   19  S1  UNL     1      21.876   0.106   0.099  1.00  0.00    -0.169 SA
HETATM   20  C12 UNL     1      23.640  -0.398  -0.078  1.00  0.00     0.074 C 
HETATM   21  C13 UNL     1      23.936  -0.101  -1.552  1.00  0.00     0.017 C 
ENDBRANCH  15  16
BRANCH  15  22
HETATM   22  C14 UNL     1      26.558   1.067  -1.539  1.00  0.00     0.009 A 
HETATM   23  C15 UNL     1      27.350   0.512  -0.449  1.00  0.00     0.007 A 
HETATM   24  C16 UNL     1      27.952   1.510  -1.398  1.00  0.00     0.007 A 
ENDBRANCH  15  22
ENDBRANCH  13  15
ENDBRANCH   1  13
TORSDOF 7
ENDMDL
MODEL 3
REMARK VINA RESULT: -5.676237361      1.117      1.665
REMARK  7 active torsions:
REMARK  status: ('A' for Active; 'I' for Inactive)
REMARK    1  A    between atoms: C2_2  and  N1_3 
REMARK    2  A    between atoms: C5_6  and  C6_7 
REMARK    3  A    between atoms: C6_7  and  O1_8 
REMARK    4  A    between atoms: C6_7  and  N2_10 
REMARK    5  A    between atoms: N2_10  and  C8_12 
REMARK    6  A    between atoms: C8_12  and  C9_13 
REMARK    7  A    between atoms: C8_12  and  C14_19 
ROOT
HETATM    1  C6  UNL     1      20.037   6.940  -4.077  1.00  0.00     0.120 C 
ENDROOT
BRANCH   1   2
HETATM    2  C5  UNL     1      19.222   5.831  -4.513  1.00  0.00     0.097 C 
HETATM    3  C4  UNL     1      17.749   5.943  -4.488  1.00  0.00     0.035 C 
HETATM    4  C3  UNL     1      17.082   4.755  -3.772  1.00  0.00     0.118 C 
HETATM    5  N1  UNL     1      17.573   3.500  -4.190  1.00  0.00    -0.410 N 
HETATM    6  C18 UNL     1      18.966   3.356  -4.405  1.00  0.00     0.154 C 
HETATM    7  C17 UNL     1      19.710   4.562  -3.854  1.00  0.00     0.199 C 
HETATM    8  F1  UNL     1      19.623   4.619  -2.508  1.00  0.00    -0.247 F 
BRANCH   5   9
HETATM    9  C2  UNL     1      16.830   2.847  -5.218  1.00  0.00     0.112 C 
HETATM   10  C1  UNL     1      15.375   3.292  -5.229  1.00  0.00     0.026 C 
ENDBRANCH   5   9
ENDBRANCH   1   2
BRANCH   1  11
HETATM   11  O1  UNL     1      19.490   7.593  -3.074  1.00  0.00    -0.349 OA
ATOM     12  H1  UNL     1      19.827   8.479  -2.998  1.00  0.00     0.219 HD
ENDBRANCH   1  11
BRANCH   1  13
HETATM   13  N2  UNL     1      21.262   7.448  -4.496  1.00  0.00    -0.364 N 
HETATM   14  C7  UNL     1      21.597   7.762  -5.823  1.00  0.00     0.152 C 
BRANCH  13  15
HETATM   15  C8  UNL     1      22.306   7.693  -3.436  1.00  0.00     0.093 C 
BRANCH  15  16
HETATM   16  C9  UNL     1      23.436   6.773  -3.661  1.00  0.00     0.010 C 
HETATM   17  C10 UNL     1      23.142   5.394  -3.051  1.00  0.00     0.017 C 
HETATM   18  C11 UNL     1      24.412   4.617  -2.854  1.00  0.00     0.074 C 
HETATM   19  S1  UNL     1      25.293   5.420  -1.456  1.00  0.00    -0.169 SA
HETATM   20  C12 UNL     1      25.021   7.217  -1.762  1.00  0.00     0.074 C 
HETATM   21  C13 UNL     1      24.764   7.273  -3.271  1.00  0.00     0.017 C 
ENDBRANCH  15  16
BRANCH  15  22
HETATM   22  C14 UNL     1      22.629   9.142  -3.437  1.00  0.00     0.009 A 
HETATM   23  C15 UNL     1      23.143   9.964  -2.348  1.00  0.00     0.007 A 
HETATM   24  C16 UNL     1      21.768  10.207  -2.905  1.00  0.00     0.007 A 
ENDBRANCH  15  22
ENDBRANCH  13  15
ENDBRANCH   1  13
TORSDOF 7
ENDMDL
MODEL 4
REMARK VINA RESULT: -5.646141970      5.409      8.514
REMARK  7 active torsions:
REMARK  status: ('A' for Active; 'I' for Inactive)
REMARK    1  A    between atoms: C2_2  and  N1_3 
REMARK    2  A    between atoms: C5_6  and  C6_7 
REMARK    3  A    between atoms: C6_7  and  O1_8 
REMARK    4  A    between atoms: C6_7  and  N2_10 
REMARK    5  A    between atoms: N2_10  and  C8_12 
REMARK    6  A    between atoms: C8_12  and  C9_13 
REMARK    7  A    between atoms: C8_12  and  C14_19 
ROOT
HETATM    1  C6  UNL     1      26.223   2.305  -2.019  1.00  0.00     0.120 C 
ENDROOT
BRANCH   1   2
HETATM    2  C5  UNL     1      25.893   3.645  -2.443  1.00  0.00     0.097 C 
HETATM    3  C4  UNL     1      26.623   4.799  -1.878  1.00  0.00     0.035 C 
HETATM    4  C3  UNL     1      25.676   5.890  -1.347  1.00  0.00     0.118 C 
HETATM    5  N1  UNL     1      24.645   6.226  -2.250  1.00  0.00    -0.410 N 
HETATM    6  C18 UNL     1      24.006   5.184  -2.965  1.00  0.00     0.154 C 
HETATM    7  C17 UNL     1      24.395   3.834  -2.387  1.00  0.00     0.199 C 
HETATM    8  F1  UNL     1      23.907   3.676  -1.137  1.00  0.00    -0.247 F 
BRANCH   5   9
HETATM    9  C2  UNL     1      24.895   7.346  -3.098  1.00  0.00     0.112 C 
HETATM   10  C1  UNL     1      23.786   7.532  -4.123  1.00  0.00     0.026 C 
ENDBRANCH   5   9
ENDBRANCH   1   2
BRANCH   1  11
HETATM   11  O1  UNL     1      26.998   2.298  -0.955  1.00  0.00    -0.349 OA
ATOM     12  H1  UNL     1      26.523   2.055  -0.168  1.00  0.00     0.219 HD
ENDBRANCH   1  11
BRANCH   1  13
HETATM   13  N2  UNL     1      25.894   1.042  -2.499  1.00  0.00    -0.364 N 
HETATM   14  C7  UNL     1      25.756   0.703  -3.855  1.00  0.00     0.152 C 
BRANCH  13  15
HETATM   15  C8  UNL     1      25.682  -0.049  -1.481  1.00  0.00     0.093 C 
BRANCH  15  16
HETATM   16  C9  UNL     1      24.268  -0.466  -1.518  1.00  0.00     0.010 C 
HETATM   17  C10 UNL     1      23.414   0.434  -0.611  1.00  0.00     0.017 C 
HETATM   18  C11 UNL     1      22.112  -0.234  -0.272  1.00  0.00     0.074 C 
HETATM   19  S1  UNL     1      22.522  -1.592   0.897  1.00  0.00    -0.169 SA
HETATM   20  C12 UNL     1      24.083  -2.287   0.204  1.00  0.00     0.074 C 
HETATM   21  C13 UNL     1      24.008  -1.893  -1.275  1.00  0.00     0.017 C 
ENDBRANCH  15  16
BRANCH  15  22
HETATM   22  C14 UNL     1      26.686  -1.113  -1.734  1.00  0.00     0.009 A 
HETATM   23  C15 UNL     1      27.652  -1.695  -0.811  1.00  0.00     0.007 A 
HETATM   24  C16 UNL     1      28.115  -0.892  -1.994  1.00  0.00     0.007 A 
ENDBRANCH  15  22
ENDBRANCH  13  15
ENDBRANCH   1  13
TORSDOF 7
ENDMDL
MODEL 5
REMARK VINA RESULT: -5.597159146      3.264      5.846
REMARK  7 active torsions:
REMARK  status: ('A' for Active; 'I' for Inactive)
REMARK    1  A    between atoms: C2_2  and  N1_3 
REMARK    2  A    between atoms: C5_6  and  C6_7 
REMARK    3  A    between atoms: C6_7  and  O1_8 
REMARK    4  A    between atoms: C6_7  and  N2_10 
REMARK    5  A    between atoms: N2_10  and  C8_12 
REMARK    6  A    between atoms: C8_12  and  C9_13 
REMARK    7  A    between atoms: C8_12  and  C14_19 
ROOT
HETATM    1  C6  UNL     1      18.397   2.987  -2.296  1.00  0.00     0.120 C 
ENDROOT
BRANCH   1   2
HETATM    2  C5  UNL     1      19.158   1.966  -1.616  1.00  0.00     0.097 C 
HETATM    3  C4  UNL     1      19.258   1.977  -0.143  1.00  0.00     0.035 C 
HETATM    4  C3  UNL     1      20.712   1.872   0.349  1.00  0.00     0.118 C 
HETATM    5  N1  UNL     1      21.447   0.848  -0.285  1.00  0.00    -0.410 N 
HETATM    6  C18 UNL     1      21.277   0.658  -1.679  1.00  0.00     0.154 C 
HETATM    7  C17 UNL     1      20.510   1.824  -2.279  1.00  0.00     0.199 C 
HETATM    8  F1  UNL     1      21.228   2.967  -2.221  1.00  0.00    -0.247 F 
BRANCH   5   9
HETATM    9  C2  UNL     1      21.494  -0.404   0.396  1.00  0.00     0.112 C 
HETATM   10  C1  UNL     1      21.599  -0.221   1.903  1.00  0.00     0.026 C 
ENDBRANCH   5   9
ENDBRANCH   1   2
BRANCH   1  11
HETATM   11  O1  UNL     1      17.676   3.706  -1.462  1.00  0.00    -0.349 OA
ATOM     12  H1  UNL     1      17.904   4.628  -1.495  1.00  0.00     0.219 HD
ENDBRANCH   1  11
BRANCH   1  13
HETATM   13  N2  UNL     1      18.273   3.357  -3.630  1.00  0.00    -0.364 N 
HETATM   14  C7  UNL     1      18.442   2.498  -4.728  1.00  0.00     0.152 C 
BRANCH  13  15
HETATM   15  C8  UNL     1      17.914   4.793  -3.917  1.00  0.00     0.093 C 
BRANCH  15  16
HETATM   16  C9  UNL     1      19.079   5.461  -4.526  1.00  0.00     0.010 C 
HETATM   17  C10 UNL     1      20.214   5.613  -3.503  1.00  0.00     0.017 C 
HETATM   18  C11 UNL     1      21.188   6.670  -3.940  1.00  0.00     0.074 C 
HETATM   19  S1  UNL     1      20.328   8.279  -3.726  1.00  0.00    -0.169 SA
HETATM   20  C12 UNL     1      18.612   7.920  -4.295  1.00  0.00     0.074 C 
HETATM   21  C13 UNL     1      18.805   6.723  -5.232  1.00  0.00     0.017 C 
ENDBRANCH  15  16
BRANCH  15  22
HETATM   22  C14 UNL     1      16.661   4.803  -4.713  1.00  0.00     0.009 A 
HETATM   23  C15 UNL     1      15.518   5.701  -4.606  1.00  0.00     0.007 A 
HETATM   24  C16 UNL     1      15.375   4.240  -4.283  1.00  0.00     0.007 A 
ENDBRANCH  15  22
ENDBRANCH  13  15
ENDBRANCH   1  13
TORSDOF 7
ENDMDL
