MODEL 1
REMARK VINA RESULT: -7.830973204      0.000      0.000
REMARK  7 active torsions:
REMARK  status: ('A' for Active; 'I' for Inactive)
REMARK    1  A    between atoms: C2_2  and  C3_4 
REMARK    2  A    between atoms: C3_4  and  N1_7 
REMARK    3  A    between atoms: N1_7  and  C6_8 
REMARK    4  A    between atoms: C6_8  and  C7_9 
REMARK    5  A    between atoms: C6_8  and  C13_15 
REMARK    6  A    between atoms: C7_9  and  C8_10 
REMARK    7  A    between atoms: C13_15  and  C14_17 
ROOT
HETATM    1  C6  UNL     1      18.450   6.933  -4.306  1.00  0.00     0.125 C 
ENDROOT
BRANCH   1   2
HETATM    2  N1  UNL     1      18.299   5.739  -4.191  1.00  0.00    -0.436 NA
BRANCH   2   3
HETATM    3  C3  UNL     1      18.224   4.437  -3.965  1.00  0.00     0.102 C 
HETATM    4  C4  UNL     1      19.325   3.538  -4.527  1.00  0.00     0.055 C 
HETATM    5  C5  UNL     1      18.212   4.098  -2.469  1.00  0.00     0.055 C 
BRANCH   3   6
HETATM    6  C2  UNL     1      16.933   3.861  -4.592  1.00  0.00     0.119 C 
HETATM    7  C1  UNL     1      16.818   2.391  -4.291  1.00  0.00     0.030 C 
HETATM    8 CL1  UNL     1      15.506   4.771  -4.125  1.00  0.00    -0.122 Cl
ENDBRANCH   3   6
ENDBRANCH   2   3
ENDBRANCH   1   2
BRANCH   1   9
HETATM    9  C7  UNL     1      17.287   7.722  -4.761  1.00  0.00     0.081 C 
BRANCH   9  10
HETATM   10  C8  UNL     1      16.928   7.644  -6.191  1.00  0.00    -0.008 C 
HETATM   11  C9  UNL     1      15.715   8.478  -6.551  1.00  0.00     0.005 C 
HETATM   12  C10 UNL     1      15.938   8.717  -8.025  1.00  0.00     0.000 C 
HETATM   13  C11 UNL     1      17.407   9.009  -8.114  1.00  0.00     0.000 C 
HETATM   14  C12 UNL     1      18.075   8.362  -6.946  1.00  0.00     0.005 C 
ENDBRANCH   9  10
ENDBRANCH   1   9
BRANCH   1  15
HETATM   15  C13 UNL     1      19.707   7.573  -4.022  1.00  0.00     0.198 C 
HETATM   16  O1  UNL     1      19.723   8.339  -2.980  1.00  0.00    -0.289 OA
BRANCH  15  17
HETATM   17  C14 UNL     1      20.985   7.493  -4.733  1.00  0.00     0.156 C 
HETATM   18  C15 UNL     1      21.546   8.886  -4.899  1.00  0.00     0.042 C 
HETATM   19  C16 UNL     1      23.038   8.824  -4.679  1.00  0.00     0.126 C 
HETATM   20  N2  UNL     1      23.193   7.682  -3.804  1.00  0.00    -0.356 N 
HETATM   21  C17 UNL     1      24.375   7.441  -2.979  1.00  0.00     0.152 C 
HETATM   22  C18 UNL     1      22.049   6.854  -3.869  1.00  0.00     0.231 C 
HETATM   23  O2  UNL     1      21.925   5.754  -3.301  1.00  0.00    -0.273 OA
ENDBRANCH  15  17
ENDBRANCH   1  15
TORSDOF 7
ENDMDL
MODEL 2
REMARK VINA RESULT: -7.829884144      1.365      1.944
REMARK  7 active torsions:
REMARK  status: ('A' for Active; 'I' for Inactive)
REMARK    1  A    between atoms: C2_2  and  C3_4 
REMARK    2  A    between atoms: C3_4  and  N1_7 
REMARK    3  A    between atoms: N1_7  and  C6_8 
REMARK    4  A    between atoms: C6_8  and  C7_9 
REMARK    5  A    between atoms: C6_8  and  C13_15 
REMARK    6  A    between atoms: C7_9  and  C8_10 
REMARK    7  A    between atoms: C13_15  and  C14_17 
ROOT
HETATM    1  C6  UNL     1      18.613   6.413  -4.378  1.00  0.00     0.125 C 
ENDROOT
BRANCH   1   2
HETATM    2  N1  UNL     1      18.722   5.219  -4.217  1.00  0.00    -0.436 NA
BRANCH   2   3
HETATM    3  C3  UNL     1      18.795   3.932  -3.915  1.00  0.00     0.102 C 
HETATM    4  C4  UNL     1      17.514   3.101  -3.964  1.00  0.00     0.055 C 
HETATM    5  C5  UNL     1      19.757   3.166  -4.832  1.00  0.00     0.055 C 
BRANCH   3   6
HETATM    6  C2  UNL     1      19.284   3.754  -2.458  1.00  0.00     0.119 C 
HETATM    7  C1  UNL     1      18.157   3.275  -1.585  1.00  0.00     0.030 C 
HETATM    8 CL1  UNL     1      20.711   2.735  -2.358  1.00  0.00    -0.122 Cl
ENDBRANCH   3   6
ENDBRANCH   2   3
ENDBRANCH   1   2
BRANCH   1   9
HETATM    9  C7  UNL     1      17.344   6.905  -4.952  1.00  0.00     0.081 C 
BRANCH   9  10
HETATM   10  C8  UNL     1      17.405   8.098  -5.818  1.00  0.00    -0.008 C 
HETATM   11  C9  UNL     1      18.212   7.882  -7.082  1.00  0.00     0.005 C 
HETATM   12  C10 UNL     1      17.628   8.929  -7.999  1.00  0.00     0.000 C 
HETATM   13  C11 UNL     1      16.153   8.842  -7.734  1.00  0.00     0.000 C 
HETATM   14  C12 UNL     1      15.967   8.292  -6.359  1.00  0.00     0.005 C 
ENDBRANCH   9  10
ENDBRANCH   1   9
BRANCH   1  15
HETATM   15  C13 UNL     1      19.669   7.327  -4.038  1.00  0.00     0.198 C 
HETATM   16  O1  UNL     1      19.430   8.114  -3.040  1.00  0.00    -0.289 OA
BRANCH  15  17
HETATM   17  C14 UNL     1      20.989   7.509  -4.648  1.00  0.00     0.156 C 
HETATM   18  C15 UNL     1      21.343   8.978  -4.630  1.00  0.00     0.042 C 
HETATM   19  C16 UNL     1      22.809   9.108  -4.297  1.00  0.00     0.126 C 
HETATM   20  N2  UNL     1      23.077   7.912  -3.529  1.00  0.00    -0.356 N 
HETATM   21  C17 UNL     1      24.225   7.756  -2.639  1.00  0.00     0.152 C 
HETATM   22  C18 UNL     1      22.079   6.940  -3.767  1.00  0.00     0.231 C 
HETATM   23  O2  UNL     1      22.085   5.778  -3.320  1.00  0.00    -0.273 OA
ENDBRANCH  15  17
ENDBRANCH   1  15
TORSDOF 7
ENDMDL
MODEL 3
REMARK VINA RESULT: -7.736769858      2.630      5.261
REMARK  7 active torsions:
REMARK  status: ('A' for Active; 'I' for Inactive)
REMARK    1  A    between atoms: C2_2  and  C3_4 
REMARK    2  A    between atoms: C3_4  and  N1_7 
REMARK    3  A    between atoms: N1_7  and  C6_8 
REMARK    4  A    between atoms: C6_8  and  C7_9 
REMARK    5  A    between atoms: C6_8  and  C13_15 
REMARK    6  A    between atoms: C7_9  and  C8_10 
REMARK    7  A    between atoms: C13_15  and  C14_17 
ROOT
HETATM    1  C6  UNL     1      19.616   6.923  -3.881  1.00  0.00     0.125 C 
ENDROOT
BRANCH   1   2
HETATM    2  N1  UNL     1      20.571   7.656  -3.768  1.00  0.00    -0.436 NA
BRANCH   2   3
HETATM    3  C3  UNL     1      21.622   8.460  -3.779  1.00  0.00     0.102 C 
HETATM    4  C4  UNL     1      22.136   8.966  -5.126  1.00  0.00     0.055 C 
HETATM    5  C5  UNL     1      21.388   9.747  -2.977  1.00  0.00     0.055 C 
BRANCH   3   6
HETATM    6  C2  UNL     1      22.850   7.740  -3.172  1.00  0.00     0.119 C 
HETATM    7  C1  UNL     1      23.782   7.289  -4.264  1.00  0.00     0.030 C 
HETATM    8 CL1  UNL     1      23.648   8.710  -1.946  1.00  0.00    -0.122 Cl
ENDBRANCH   3   6
ENDBRANCH   2   3
ENDBRANCH   1   2
BRANCH   1   9
HETATM    9  C7  UNL     1      18.311   7.550  -4.167  1.00  0.00     0.081 C 
BRANCH   9  10
HETATM   10  C8  UNL     1      17.754   7.378  -5.523  1.00  0.00    -0.008 C 
HETATM   11  C9  UNL     1      16.403   8.039  -5.706  1.00  0.00     0.005 C 
HETATM   12  C10 UNL     1      16.368   8.253  -7.200  1.00  0.00     0.000 C 
HETATM   13  C11 UNL     1      17.757   8.724  -7.518  1.00  0.00     0.000 C 
HETATM   14  C12 UNL     1      18.671   8.208  -6.456  1.00  0.00     0.005 C 
ENDBRANCH   9  10
ENDBRANCH   1   9
BRANCH   1  15
HETATM   15  C13 UNL     1      19.730   5.496  -3.737  1.00  0.00     0.198 C 
HETATM   16  O1  UNL     1      20.846   5.070  -3.241  1.00  0.00    -0.289 OA
BRANCH  15  17
HETATM   17  C14 UNL     1      18.772   4.437  -4.065  1.00  0.00     0.156 C 
HETATM   18  C15 UNL     1      19.477   3.362  -4.858  1.00  0.00     0.042 C 
HETATM   19  C16 UNL     1      18.968   2.020  -4.392  1.00  0.00     0.126 C 
HETATM   20  N2  UNL     1      18.560   2.280  -3.029  1.00  0.00    -0.356 N 
HETATM   21  C17 UNL     1      18.379   1.239  -2.020  1.00  0.00     0.152 C 
HETATM   22  C18 UNL     1      18.369   3.666  -2.828  1.00  0.00     0.231 C 
HETATM   23  O2  UNL     1      17.930   4.188  -1.787  1.00  0.00    -0.273 OA
ENDBRANCH  15  17
ENDBRANCH   1  15
TORSDOF 7
ENDMDL
MODEL 4
REMARK VINA RESULT: -7.733186437      0.945      1.302
REMARK  7 active torsions:
REMARK  status: ('A' for Active; 'I' for Inactive)
REMARK    1  A    between atoms: C2_2  and  C3_4 
REMARK    2  A    between atoms: C3_4  and  N1_7 
REMARK    3  A    between atoms: N1_7  and  C6_8 
REMARK    4  A    between atoms: C6_8  and  C7_9 
REMARK    5  A    between atoms: C6_8  and  C13_15 
REMARK    6  A    between atoms: C7_9  and  C8_10 
REMARK    7  A    between atoms: C13_15  and  C14_17 
ROOT
HETATM    1  C6  UNL     1      19.337   6.847  -4.937  1.00  0.00     0.125 C 
ENDROOT
BRANCH   1   2
HETATM    2  N1  UNL     1      19.006   5.758  -4.529  1.00  0.00    -0.436 NA
BRANCH   2   3
HETATM    3  C3  UNL     1      18.774   4.530  -4.093  1.00  0.00     0.102 C 
HETATM    4  C4  UNL     1      19.762   3.427  -4.468  1.00  0.00     0.055 C 
HETATM    5  C5  UNL     1      18.710   4.450  -2.563  1.00  0.00     0.055 C 
BRANCH   3   6
HETATM    6  C2  UNL     1      17.427   4.013  -4.652  1.00  0.00     0.119 C 
HETATM    7  C1  UNL     1      17.322   2.524  -4.462  1.00  0.00     0.030 C 
HETATM    8 CL1  UNL     1      16.056   4.888  -3.992  1.00  0.00    -0.122 Cl
ENDBRANCH   3   6
ENDBRANCH   2   3
ENDBRANCH   1   2
BRANCH   1   9
HETATM    9  C7  UNL     1      18.971   7.189  -6.326  1.00  0.00     0.081 C 
BRANCH   9  10
HETATM   10  C8  UNL     1      18.017   8.298  -6.527  1.00  0.00    -0.008 C 
HETATM   11  C9  UNL     1      17.805   8.650  -7.986  1.00  0.00     0.005 C 
HETATM   12  C10 UNL     1      16.440   9.295  -7.947  1.00  0.00     0.000 C 
HETATM   13  C11 UNL     1      15.663   8.414  -7.013  1.00  0.00     0.000 C 
HETATM   14  C12 UNL     1      16.636   7.738  -6.105  1.00  0.00     0.005 C 
ENDBRANCH   9  10
ENDBRANCH   1   9
BRANCH   1  15
HETATM   15  C13 UNL     1      20.065   7.779  -4.118  1.00  0.00     0.198 C 
HETATM   16  O1  UNL     1      19.431   8.233  -3.087  1.00  0.00    -0.289 OA
BRANCH  15  17
HETATM   17  C14 UNL     1      21.426   8.301  -4.269  1.00  0.00     0.156 C 
HETATM   18  C15 UNL     1      21.513   9.654  -3.603  1.00  0.00     0.042 C 
HETATM   19  C16 UNL     1      22.843   9.751  -2.898  1.00  0.00     0.126 C 
HETATM   20  N2  UNL     1      23.161   8.369  -2.608  1.00  0.00    -0.356 N 
HETATM   21  C17 UNL     1      24.127   7.951  -1.594  1.00  0.00     0.152 C 
HETATM   22  C18 UNL     1      22.408   7.507  -3.436  1.00  0.00     0.231 C 
HETATM   23  O2  UNL     1      22.528   6.269  -3.483  1.00  0.00    -0.273 OA
ENDBRANCH  15  17
ENDBRANCH   1  15
TORSDOF 7
ENDMDL
MODEL 5
REMARK VINA RESULT: -7.722426412      1.322      1.964
REMARK  7 active torsions:
REMARK  status: ('A' for Active; 'I' for Inactive)
REMARK    1  A    between atoms: C2_2  and  C3_4 
REMARK    2  A    between atoms: C3_4  and  N1_7 
REMARK    3  A    between atoms: N1_7  and  C6_8 
REMARK    4  A    between atoms: C6_8  and  C7_9 
REMARK    5  A    between atoms: C6_8  and  C13_15 
REMARK    6  A    between atoms: C7_9  and  C8_10 
REMARK    7  A    between atoms: C13_15  and  C14_17 
ROOT
HETATM    1  C6  UNL     1      19.352   6.919  -4.810  1.00  0.00     0.125 C 
ENDROOT
BRANCH   1   2
HETATM    2  N1  UNL     1      18.948   5.870  -4.364  1.00  0.00    -0.436 NA
BRANCH   2   3
HETATM    3  C3  UNL     1      18.537   4.668  -3.995  1.00  0.00     0.102 C 
HETATM    4  C4  UNL     1      18.492   4.341  -2.503  1.00  0.00     0.055 C 
HETATM    5  C5  UNL     1      17.113   4.358  -4.474  1.00  0.00     0.055 C 
BRANCH   3   6
HETATM    6  C2  UNL     1      19.478   3.584  -4.573  1.00  0.00     0.119 C 
HETATM    7  C1  UNL     1      20.625   3.334  -3.631  1.00  0.00     0.030 C 
HETATM    8 CL1  UNL     1      18.614   2.118  -5.006  1.00  0.00    -0.122 Cl
ENDBRANCH   3   6
ENDBRANCH   2   3
ENDBRANCH   1   2
BRANCH   1   9
HETATM    9  C7  UNL     1      19.055   7.212  -6.227  1.00  0.00     0.081 C 
BRANCH   9  10
HETATM   10  C8  UNL     1      18.127   8.323  -6.513  1.00  0.00    -0.008 C 
HETATM   11  C9  UNL     1      17.863   8.519  -7.993  1.00  0.00     0.005 C 
HETATM   12  C10 UNL     1      16.522   9.211  -7.974  1.00  0.00     0.000 C 
HETATM   13  C11 UNL     1      15.759   8.465  -6.918  1.00  0.00     0.000 C 
HETATM   14  C12 UNL     1      16.749   7.861  -5.978  1.00  0.00     0.005 C 
ENDBRANCH   9  10
ENDBRANCH   1   9
BRANCH   1  15
HETATM   15  C13 UNL     1      20.100   7.850  -4.008  1.00  0.00     0.198 C 
HETATM   16  O1  UNL     1      19.491   8.306  -2.963  1.00  0.00    -0.289 OA
BRANCH  15  17
HETATM   17  C14 UNL     1      21.459   8.369  -4.190  1.00  0.00     0.156 C 
HETATM   18  C15 UNL     1      21.576   9.702  -3.488  1.00  0.00     0.042 C 
HETATM   19  C16 UNL     1      22.930   9.771  -2.826  1.00  0.00     0.126 C 
HETATM   20  N2  UNL     1      23.248   8.380  -2.587  1.00  0.00    -0.356 N 
HETATM   21  C17 UNL     1      24.245   7.927  -1.619  1.00  0.00     0.152 C 
HETATM   22  C18 UNL     1      22.463   7.546  -3.414  1.00  0.00     0.231 C 
HETATM   23  O2  UNL     1      22.574   6.309  -3.501  1.00  0.00    -0.273 OA
ENDBRANCH  15  17
ENDBRANCH   1  15
TORSDOF 7
ENDMDL
