MODEL 1
REMARK VINA RESULT: -6.774412572      0.000      0.000
REMARK  6 active torsions:
REMARK  status: ('A' for Active; 'I' for Inactive)
REMARK    1  A    between atoms: C2_2  and  C3_3 
REMARK       I    between atoms: N1_9  and  C9_10 
REMARK    2  A    between atoms: C9_10  and  C10_12 
REMARK       I    between atoms: C10_12  and  N2_14 
REMARK    3  A    between atoms: N2_14  and  C12_16 
REMARK    4  A    between atoms: C12_16  and  C13_17 
REMARK    5  A    between atoms: C13_17  and  S1_18 
REMARK    6  A    between atoms: S1_18  and  C14_19 
ROOT
HETATM    1  C3  UNL     1      26.016  -0.029  -3.404  1.00  0.00     0.087 C 
HETATM    2  C4  UNL     1      26.806  -1.170  -2.817  1.00  0.00     0.025 C 
HETATM    3  C5  UNL     1      28.005  -0.756  -2.035  1.00  0.00     0.002 C 
HETATM    4  C6  UNL     1      27.767  -0.589  -0.552  1.00  0.00     0.002 C 
HETATM    5  C7  UNL     1      27.212   0.813  -0.320  1.00  0.00     0.020 C 
HETATM    6  C8  UNL     1      25.898   0.988  -1.049  1.00  0.00     0.127 C 
HETATM    7  N1  UNL     1      26.037   1.119  -2.449  1.00  0.00    -0.339 N 
HETATM    8  C9  UNL     1      26.212   2.339  -3.104  1.00  0.00     0.312 C 
HETATM    9  O1  UNL     1      26.298   2.288  -4.395  1.00  0.00    -0.262 OA
ENDROOT
BRANCH   8  10
HETATM   10  C10 UNL     1      26.298   3.616  -2.457  1.00  0.00     0.311 C 
HETATM   11  O2  UNL     1      27.457   4.024  -2.085  1.00  0.00    -0.262 OA
HETATM   12  N2  UNL     1      25.166   4.465  -2.202  1.00  0.00    -0.348 N 
HETATM   13  C11 UNL     1      23.866   4.044  -2.600  1.00  0.00     0.153 C 
BRANCH  12  14
HETATM   14  C12 UNL     1      25.492   5.691  -1.548  1.00  0.00     0.136 C 
BRANCH  14  15
HETATM   15  C13 UNL     1      25.450   6.941  -2.296  1.00  0.00     0.097 C 
BRANCH  15  16
HETATM   16  S1  UNL     1      23.931   7.867  -2.305  1.00  0.00    -0.125 SA
BRANCH  16  17
HETATM   17  C14 UNL     1      23.158   7.689  -3.945  1.00  0.00     0.144 C 
HETATM   18  C15 UNL     1      21.875   6.886  -3.709  1.00  0.00     0.064 C 
HETATM   19  C16 UNL     1      22.757   9.029  -4.521  1.00  0.00     0.064 C 
HETATM   20  F1  UNL     1      24.013   7.004  -4.788  1.00  0.00    -0.232 F 
ENDBRANCH  16  17
ENDBRANCH  15  16
ENDBRANCH  14  15
ENDBRANCH  12  14
ENDBRANCH   8  10
BRANCH   1  21
HETATM   21  C2  UNL     1      24.587  -0.421  -3.686  1.00  0.00     0.021 C 
HETATM   22  C1  UNL     1      24.275  -0.395  -5.166  1.00  0.00     0.007 C 
ENDBRANCH   1  21
TORSDOF 6
ENDMDL
MODEL 2
REMARK VINA RESULT: -6.369252885      1.272      2.557
REMARK  6 active torsions:
REMARK  status: ('A' for Active; 'I' for Inactive)
REMARK    1  A    between atoms: C2_2  and  C3_3 
REMARK       I    between atoms: N1_9  and  C9_10 
REMARK    2  A    between atoms: C9_10  and  C10_12 
REMARK       I    between atoms: C10_12  and  N2_14 
REMARK    3  A    between atoms: N2_14  and  C12_16 
REMARK    4  A    between atoms: C12_16  and  C13_17 
REMARK    5  A    between atoms: C13_17  and  S1_18 
REMARK    6  A    between atoms: S1_18  and  C14_19 
ROOT
HETATM    1  C3  UNL     1      26.719  -0.438  -1.877  1.00  0.00     0.087 C 
HETATM    2  C4  UNL     1      25.725  -1.381  -2.506  1.00  0.00     0.025 C 
HETATM    3  C5  UNL     1      24.408  -0.765  -2.834  1.00  0.00     0.002 C 
HETATM    4  C6  UNL     1      24.294  -0.227  -4.242  1.00  0.00     0.002 C 
HETATM    5  C7  UNL     1      24.882   1.180  -4.256  1.00  0.00     0.020 C 
HETATM    6  C8  UNL     1      26.342   1.146  -3.863  1.00  0.00     0.127 C 
HETATM    7  N1  UNL     1      26.555   0.917  -2.485  1.00  0.00    -0.339 N 
HETATM    8  C9  UNL     1      26.638   1.930  -1.529  1.00  0.00     0.312 C 
HETATM    9  O1  UNL     1      26.861   1.552  -0.311  1.00  0.00    -0.262 OA
ENDROOT
BRANCH   8  10
HETATM   10  C10 UNL     1      26.495   3.332  -1.800  1.00  0.00     0.311 C 
HETATM   11  O2  UNL     1      27.562   4.015  -2.006  1.00  0.00    -0.262 OA
HETATM   12  N2  UNL     1      25.230   4.013  -1.855  1.00  0.00    -0.348 N 
HETATM   13  C11 UNL     1      24.028   3.286  -1.631  1.00  0.00     0.153 C 
BRANCH  12  14
HETATM   14  C12 UNL     1      25.332   5.407  -2.144  1.00  0.00     0.136 C 
BRANCH  14  15
HETATM   15  C13 UNL     1      24.269   6.070  -2.889  1.00  0.00     0.097 C 
BRANCH  15  16
HETATM   16  S1  UNL     1      24.014   7.810  -2.625  1.00  0.00    -0.125 SA
BRANCH  16  17
HETATM   17  C14 UNL     1      22.708   8.379  -3.762  1.00  0.00     0.144 C 
HETATM   18  C15 UNL     1      21.729   7.207  -3.881  1.00  0.00     0.064 C 
HETATM   19  C16 UNL     1      21.945   9.554  -3.191  1.00  0.00     0.064 C 
HETATM   20  F1  UNL     1      23.263   8.677  -4.992  1.00  0.00    -0.232 F 
ENDBRANCH  16  17
ENDBRANCH  15  16
ENDBRANCH  14  15
ENDBRANCH  12  14
ENDBRANCH   8  10
BRANCH   1  21
HETATM   21  C2  UNL     1      28.138  -0.907  -2.069  1.00  0.00     0.021 C 
HETATM   22  C1  UNL     1      28.245  -1.961  -3.148  1.00  0.00     0.007 C 
ENDBRANCH   1  21
TORSDOF 6
ENDMDL
MODEL 3
REMARK VINA RESULT: -6.231921116      1.494      2.671
REMARK  6 active torsions:
REMARK  status: ('A' for Active; 'I' for Inactive)
REMARK    1  A    between atoms: C2_2  and  C3_3 
REMARK       I    between atoms: N1_9  and  C9_10 
REMARK    2  A    between atoms: C9_10  and  C10_12 
REMARK       I    between atoms: C10_12  and  N2_14 
REMARK    3  A    between atoms: N2_14  and  C12_16 
REMARK    4  A    between atoms: C12_16  and  C13_17 
REMARK    5  A    between atoms: C13_17  and  S1_18 
REMARK    6  A    between atoms: S1_18  and  C14_19 
ROOT
HETATM    1  C3  UNL     1      26.798  -0.098  -2.291  1.00  0.00     0.087 C 
HETATM    2  C4  UNL     1      26.167  -1.334  -2.879  1.00  0.00     0.025 C 
HETATM    3  C5  UNL     1      24.677  -1.316  -2.908  1.00  0.00     0.002 C 
HETATM    4  C6  UNL     1      24.075  -0.794  -4.192  1.00  0.00     0.002 C 
HETATM    5  C7  UNL     1      24.027   0.727  -4.105  1.00  0.00     0.020 C 
HETATM    6  C8  UNL     1      25.422   1.292  -3.955  1.00  0.00     0.127 C 
HETATM    7  N1  UNL     1      25.982   1.093  -2.673  1.00  0.00    -0.339 N 
HETATM    8  C9  UNL     1      25.837   1.987  -1.611  1.00  0.00     0.312 C 
HETATM    9  O1  UNL     1      26.434   1.667  -0.507  1.00  0.00    -0.262 OA
ENDROOT
BRANCH   8  10
HETATM   10  C10 UNL     1      25.088   3.210  -1.660  1.00  0.00     0.311 C 
HETATM   11  O2  UNL     1      23.814   3.140  -1.521  1.00  0.00    -0.262 OA
HETATM   12  N2  UNL     1      25.681   4.506  -1.856  1.00  0.00    -0.348 N 
HETATM   13  C11 UNL     1      27.090   4.619  -2.015  1.00  0.00     0.153 C 
BRANCH  12  14
HETATM   14  C12 UNL     1      24.741   5.580  -1.868  1.00  0.00     0.136 C 
BRANCH  14  15
HETATM   15  C13 UNL     1      25.143   6.886  -2.373  1.00  0.00     0.097 C 
BRANCH  15  16
HETATM   16  S1  UNL     1      23.889   8.126  -2.597  1.00  0.00    -0.125 SA
BRANCH  16  17
HETATM   17  C14 UNL     1      23.011   7.783  -4.156  1.00  0.00     0.144 C 
HETATM   18  C15 UNL     1      21.792   6.941  -3.764  1.00  0.00     0.064 C 
HETATM   19  C16 UNL     1      22.500   9.053  -4.799  1.00  0.00     0.064 C 
HETATM   20  F1  UNL     1      23.839   7.074  -5.007  1.00  0.00    -0.232 F 
ENDBRANCH  16  17
ENDBRANCH  15  16
ENDBRANCH  14  15
ENDBRANCH  12  14
ENDBRANCH   8  10
BRANCH   1  21
HETATM   21  C2  UNL     1      28.216   0.090  -2.767  1.00  0.00     0.021 C 
HETATM   22  C1  UNL     1      28.594  -0.917  -3.829  1.00  0.00     0.007 C 
ENDBRANCH   1  21
TORSDOF 6
ENDMDL
MODEL 4
REMARK VINA RESULT: -6.110210832      1.004      1.257
REMARK  6 active torsions:
REMARK  status: ('A' for Active; 'I' for Inactive)
REMARK    1  A    between atoms: C2_2  and  C3_3 
REMARK       I    between atoms: N1_9  and  C9_10 
REMARK    2  A    between atoms: C9_10  and  C10_12 
REMARK       I    between atoms: C10_12  and  N2_14 
REMARK    3  A    between atoms: N2_14  and  C12_16 
REMARK    4  A    between atoms: C12_16  and  C13_17 
REMARK    5  A    between atoms: C13_17  and  S1_18 
REMARK    6  A    between atoms: S1_18  and  C14_19 
ROOT
HETATM    1  C3  UNL     1      26.483  -0.047  -3.728  1.00  0.00     0.087 C 
HETATM    2  C4  UNL     1      27.478  -0.892  -2.975  1.00  0.00     0.025 C 
HETATM    3  C5  UNL     1      28.256  -0.158  -1.937  1.00  0.00     0.002 C 
HETATM    4  C6  UNL     1      27.661  -0.202  -0.549  1.00  0.00     0.002 C 
HETATM    5  C7  UNL     1      26.613   0.902  -0.452  1.00  0.00     0.020 C 
HETATM    6  C8  UNL     1      25.511   0.675  -1.463  1.00  0.00     0.127 C 
HETATM    7  N1  UNL     1      25.894   0.959  -2.794  1.00  0.00    -0.339 N 
HETATM    8  C9  UNL     1      25.765   2.213  -3.392  1.00  0.00     0.312 C 
HETATM    9  O1  UNL     1      26.141   2.299  -4.629  1.00  0.00    -0.262 OA
ENDROOT
BRANCH   8  10
HETATM   10  C10 UNL     1      25.256   3.387  -2.743  1.00  0.00     0.311 C 
HETATM   11  O2  UNL     1      23.987   3.578  -2.757  1.00  0.00    -0.262 OA
HETATM   12  N2  UNL     1      26.083   4.358  -2.079  1.00  0.00    -0.348 N 
HETATM   13  C11 UNL     1      27.494   4.178  -2.045  1.00  0.00     0.153 C 
BRANCH  12  14
HETATM   14  C12 UNL     1      25.357   5.443  -1.501  1.00  0.00     0.136 C 
BRANCH  14  15
HETATM   15  C13 UNL     1      25.402   6.757  -2.130  1.00  0.00     0.097 C 
BRANCH  15  16
HETATM   16  S1  UNL     1      23.931   7.757  -2.100  1.00  0.00    -0.125 SA
BRANCH  16  17
HETATM   17  C14 UNL     1      23.188   7.737  -3.763  1.00  0.00     0.144 C 
HETATM   18  C15 UNL     1      21.961   6.827  -3.653  1.00  0.00     0.064 C 
HETATM   19  C16 UNL     1      22.702   9.110  -4.172  1.00  0.00     0.064 C 
HETATM   20  F1  UNL     1      24.096   7.223  -4.670  1.00  0.00    -0.232 F 
ENDBRANCH  16  17
ENDBRANCH  15  16
ENDBRANCH  14  15
ENDBRANCH  12  14
ENDBRANCH   8  10
BRANCH   1  21
HETATM   21  C2  UNL     1      25.381  -0.879  -4.331  1.00  0.00     0.021 C 
HETATM   22  C1  UNL     1      25.421  -0.863  -5.843  1.00  0.00     0.007 C 
ENDBRANCH   1  21
TORSDOF 6
ENDMDL
MODEL 5
REMARK VINA RESULT: -5.874491528      1.986      3.105
REMARK  6 active torsions:
REMARK  status: ('A' for Active; 'I' for Inactive)
REMARK    1  A    between atoms: C2_2  and  C3_3 
REMARK       I    between atoms: N1_9  and  C9_10 
REMARK    2  A    between atoms: C9_10  and  C10_12 
REMARK       I    between atoms: C10_12  and  N2_14 
REMARK    3  A    between atoms: N2_14  and  C12_16 
REMARK    4  A    between atoms: C12_16  and  C13_17 
REMARK    5  A    between atoms: C13_17  and  S1_18 
REMARK    6  A    between atoms: S1_18  and  C14_19 
ROOT
HETATM    1  C3  UNL     1      26.888   1.591  -1.407  1.00  0.00     0.087 C 
HETATM    2  C4  UNL     1      26.491   0.181  -1.049  1.00  0.00     0.025 C 
HETATM    3  C5  UNL     1      25.043   0.004  -0.743  1.00  0.00     0.002 C 
HETATM    4  C6  UNL     1      24.191  -0.403  -1.922  1.00  0.00     0.002 C 
HETATM    5  C7  UNL     1      23.808   0.861  -2.685  1.00  0.00     0.020 C 
HETATM    6  C8  UNL     1      25.046   1.564  -3.196  1.00  0.00     0.127 C 
HETATM    7  N1  UNL     1      25.783   2.224  -2.187  1.00  0.00    -0.339 N 
HETATM    8  C9  UNL     1      25.564   3.547  -1.800  1.00  0.00     0.312 C 
HETATM    9  O1  UNL     1      26.344   4.010  -0.876  1.00  0.00    -0.262 OA
ENDROOT
BRANCH   8  10
HETATM   10  C10 UNL     1      24.556   4.409  -2.347  1.00  0.00     0.311 C 
HETATM   11  O2  UNL     1      23.467   3.872  -2.762  1.00  0.00    -0.262 OA
HETATM   12  N2  UNL     1      24.694   5.836  -2.456  1.00  0.00    -0.348 N 
HETATM   13  C11 UNL     1      25.889   6.465  -2.007  1.00  0.00     0.153 C 
BRANCH  12  14
HETATM   14  C12 UNL     1      23.561   6.489  -3.030  1.00  0.00     0.136 C 
BRANCH  14  15
HETATM   15  C13 UNL     1      23.757   7.627  -3.918  1.00  0.00     0.097 C 
BRANCH  15  16
HETATM   16  S1  UNL     1      22.519   7.956  -5.152  1.00  0.00    -0.125 SA
BRANCH  16  17
HETATM   17  C14 UNL     1      21.217   8.986  -4.400  1.00  0.00     0.144 C 
HETATM   18  C15 UNL     1      20.181   8.000  -3.850  1.00  0.00     0.064 C 
HETATM   19  C16 UNL     1      21.747   9.789  -3.233  1.00  0.00     0.064 C 
HETATM   20  F1  UNL     1      20.653   9.797  -5.367  1.00  0.00    -0.232 F 
ENDBRANCH  16  17
ENDBRANCH  15  16
ENDBRANCH  14  15
ENDBRANCH  12  14
ENDBRANCH   8  10
BRANCH   1  21
HETATM   21  C2  UNL     1      28.159   1.628  -2.217  1.00  0.00     0.021 C 
HETATM   22  C1  UNL     1      28.506   0.271  -2.789  1.00  0.00     0.007 C 
ENDBRANCH   1  21
TORSDOF 6
ENDMDL
