MODEL 1
REMARK VINA RESULT: -5.492081955      0.000      0.000
REMARK  5 active torsions:
REMARK  status: ('A' for Active; 'I' for Inactive)
REMARK    1  A    between atoms: C2_2  and  C3_3 
REMARK    2  A    between atoms: C2_2  and  C4_5 
REMARK    3  A    between atoms: N1_9  and  N2_10 
REMARK    4  A    between atoms: C10_15  and  C11_16 
REMARK    5  A    between atoms: C11_16  and  C12_17 
ROOT
HETATM    1  C4  UNL     1      19.504   6.888  -5.195  1.00  0.00     0.169 C 
HETATM    2  O1  UNL     1      20.221   5.618  -5.208  1.00  0.00    -0.292 OA
HETATM    3  C5  UNL     1      19.663   4.651  -4.386  1.00  0.00     0.382 C 
HETATM    4  O2  UNL     1      20.385   3.782  -3.823  1.00  0.00    -0.236 OA
HETATM    5  N1  UNL     1      18.264   4.624  -4.165  1.00  0.00    -0.234 N 
HETATM    6  C8  UNL     1      17.430   5.437  -5.022  1.00  0.00     0.116 C 
HETATM    7  C9  UNL     1      16.086   5.613  -4.384  1.00  0.00     0.035 C 
HETATM    8  C10 UNL     1      18.082   6.675  -5.517  1.00  0.00     0.044 C 
ENDROOT
BRANCH   1   9
HETATM    9  C2  UNL     1      19.899   7.509  -3.926  1.00  0.00    -0.050 C 
HETATM   10  C1  UNL     1      19.089   7.917  -2.974  1.00  0.00     0.017 C 
BRANCH   9  11
HETATM   11  C3  UNL     1      21.391   7.680  -3.636  1.00  0.00     0.121 C 
HETATM   12 BR1  UNL     1      22.289   8.612  -5.057  1.00  0.00    -0.092 Br
ENDBRANCH   9  11
ENDBRANCH   1   9
BRANCH   8  13
HETATM   13  C11 UNL     1      17.209   7.890  -5.553  1.00  0.00     0.013 C 
BRANCH  13  14
HETATM   14  C12 UNL     1      16.564   8.110  -6.901  1.00  0.00    -0.022 C 
HETATM   15  C13 UNL     1      15.232   8.750  -6.892  1.00  0.00     0.009 C 
HETATM   16  C14 UNL     1      17.490   8.888  -7.805  1.00  0.00     0.009 C 
ENDBRANCH  13  14
ENDBRANCH   8  13
BRANCH   5  17
HETATM   17  N2  UNL     1      17.624   3.863  -3.203  1.00  0.00    -0.330 N 
HETATM   18  C6  UNL     1      17.287   2.532  -3.612  1.00  0.00     0.170 C 
HETATM   19  C7  UNL     1      18.059   3.995  -1.868  1.00  0.00     0.170 C 
ENDBRANCH   5  17
TORSDOF 5
ENDMDL
MODEL 2
REMARK VINA RESULT: -5.308410959      2.343      4.378
REMARK  5 active torsions:
REMARK  status: ('A' for Active; 'I' for Inactive)
REMARK    1  A    between atoms: C2_2  and  C3_3 
REMARK    2  A    between atoms: C2_2  and  C4_5 
REMARK    3  A    between atoms: N1_9  and  N2_10 
REMARK    4  A    between atoms: C10_15  and  C11_16 
REMARK    5  A    between atoms: C11_16  and  C12_17 
ROOT
HETATM    1  C4  UNL     1      18.825   8.060  -4.698  1.00  0.00     0.169 C 
HETATM    2  O1  UNL     1      17.816   7.241  -4.035  1.00  0.00    -0.292 OA
HETATM    3  C5  UNL     1      18.168   5.906  -3.916  1.00  0.00     0.382 C 
HETATM    4  O2  UNL     1      17.292   4.998  -3.937  1.00  0.00    -0.236 OA
HETATM    5  N1  UNL     1      19.528   5.537  -3.767  1.00  0.00    -0.234 N 
HETATM    6  C8  UNL     1      20.481   6.583  -3.468  1.00  0.00     0.116 C 
HETATM    7  C9  UNL     1      21.865   6.094  -3.768  1.00  0.00     0.035 C 
HETATM    8  C10 UNL     1      20.126   7.914  -4.022  1.00  0.00     0.044 C 
ENDROOT
BRANCH   1   9
HETATM    9  C2  UNL     1      18.679   7.728  -6.119  1.00  0.00    -0.050 C 
HETATM   10  C1  UNL     1      19.628   7.295  -6.919  1.00  0.00     0.017 C 
BRANCH   9  11
HETATM   11  C3  UNL     1      17.293   7.854  -6.754  1.00  0.00     0.121 C 
HETATM   12 BR1  UNL     1      17.313   9.029  -8.276  1.00  0.00    -0.092 Br
ENDBRANCH   9  11
ENDBRANCH   1   9
BRANCH   8  13
HETATM   13  C11 UNL     1      21.270   8.702  -4.580  1.00  0.00     0.013 C 
BRANCH  13  14
HETATM   14  C12 UNL     1      21.789   9.745  -3.618  1.00  0.00    -0.022 C 
HETATM   15  C13 UNL     1      20.910  10.076  -2.477  1.00  0.00     0.009 C 
HETATM   16  C14 UNL     1      23.153   9.353  -3.104  1.00  0.00     0.009 C 
ENDBRANCH  13  14
ENDBRANCH   8  13
BRANCH   5  17
HETATM   17  N2  UNL     1      20.020   4.248  -3.865  1.00  0.00    -0.330 N 
HETATM   18  C6  UNL     1      19.993   3.498  -2.645  1.00  0.00     0.170 C 
HETATM   19  C7  UNL     1      19.714   3.518  -5.032  1.00  0.00     0.170 C 
ENDBRANCH   5  17
TORSDOF 5
ENDMDL
MODEL 3
REMARK VINA RESULT: -5.026614923      9.329     11.765
REMARK  5 active torsions:
REMARK  status: ('A' for Active; 'I' for Inactive)
REMARK    1  A    between atoms: C2_2  and  C3_3 
REMARK    2  A    between atoms: C2_2  and  C4_5 
REMARK    3  A    between atoms: N1_9  and  N2_10 
REMARK    4  A    between atoms: C10_15  and  C11_16 
REMARK    5  A    between atoms: C11_16  and  C12_17 
ROOT
HETATM    1  C4  UNL     1      27.750   0.010  -0.852  1.00  0.00     0.169 C 
HETATM    2  O1  UNL     1      27.379   1.351  -0.418  1.00  0.00    -0.292 OA
HETATM    3  C5  UNL     1      26.194   1.812  -0.971  1.00  0.00     0.382 C 
HETATM    4  O2  UNL     1      26.019   3.040  -1.202  1.00  0.00    -0.236 OA
HETATM    5  N1  UNL     1      25.154   0.903  -1.288  1.00  0.00    -0.234 N 
HETATM    6  C8  UNL     1      25.255  -0.444  -0.770  1.00  0.00     0.116 C 
HETATM    7  C9  UNL     1      24.333  -1.341  -1.538  1.00  0.00     0.035 C 
HETATM    8  C10 UNL     1      26.646  -0.933  -0.599  1.00  0.00     0.044 C 
ENDROOT
BRANCH   1   9
HETATM    9  C2  UNL     1      28.272   0.204  -2.209  1.00  0.00    -0.050 C 
HETATM   10  C1  UNL     1      28.754   1.321  -2.705  1.00  0.00     0.017 C 
BRANCH   9  11
HETATM   11  C3  UNL     1      28.304  -1.000  -3.152  1.00  0.00     0.121 C 
HETATM   12 BR1  UNL     1      26.936  -0.886  -4.498  1.00  0.00    -0.092 Br
ENDBRANCH   9  11
ENDBRANCH   1   9
BRANCH   8  13
HETATM   13  C11 UNL     1      26.876  -2.361  -0.983  1.00  0.00     0.013 C 
BRANCH  13  14
HETATM   14  C12 UNL     1      27.430  -3.192   0.150  1.00  0.00    -0.022 C 
HETATM   15  C13 UNL     1      26.452  -3.672   1.148  1.00  0.00     0.009 C 
HETATM   16  C14 UNL     1      28.211  -4.365  -0.393  1.00  0.00     0.009 C 
ENDBRANCH  13  14
ENDBRANCH   8  13
BRANCH   5  17
HETATM   17  N2  UNL     1      24.034   1.205  -2.041  1.00  0.00    -0.330 N 
HETATM   18  C6  UNL     1      23.012   1.923  -1.340  1.00  0.00     0.170 C 
HETATM   19  C7  UNL     1      24.231   1.588  -3.384  1.00  0.00     0.170 C 
ENDBRANCH   5  17
TORSDOF 5
ENDMDL
MODEL 4
REMARK VINA RESULT: -4.812112001      7.557      9.093
REMARK  5 active torsions:
REMARK  status: ('A' for Active; 'I' for Inactive)
REMARK    1  A    between atoms: C2_2  and  C3_3 
REMARK    2  A    between atoms: C2_2  and  C4_5 
REMARK    3  A    between atoms: N1_9  and  N2_10 
REMARK    4  A    between atoms: C10_15  and  C11_16 
REMARK    5  A    between atoms: C11_16  and  C12_17 
ROOT
HETATM    1  C4  UNL     1      23.721   2.100  -2.728  1.00  0.00     0.169 C 
HETATM    2  O1  UNL     1      24.469   3.267  -2.273  1.00  0.00    -0.292 OA
HETATM    3  C5  UNL     1      25.762   2.980  -1.864  1.00  0.00     0.382 C 
HETATM    4  O2  UNL     1      26.319   3.650  -0.951  1.00  0.00    -0.236 OA
HETATM    5  N1  UNL     1      26.483   1.921  -2.469  1.00  0.00    -0.234 N 
HETATM    6  C8  UNL     1      25.947   1.349  -3.685  1.00  0.00     0.116 C 
HETATM    7  C9  UNL     1      26.581   0.013  -3.925  1.00  0.00     0.035 C 
HETATM    8  C10 UNL     1      24.467   1.395  -3.785  1.00  0.00     0.044 C 
ENDROOT
BRANCH   1   9
HETATM    9  C2  UNL     1      23.347   1.409  -1.488  1.00  0.00    -0.050 C 
HETATM   10  C1  UNL     1      23.942   0.356  -0.974  1.00  0.00     0.017 C 
BRANCH   9  11
HETATM   11  C3  UNL     1      22.178   1.965  -0.673  1.00  0.00     0.121 C 
HETATM   12 BR1  UNL     1      20.659   2.356  -1.785  1.00  0.00    -0.092 Br
ENDBRANCH   9  11
ENDBRANCH   1   9
BRANCH   8  13
HETATM   13  C11 UNL     1      23.825   0.173  -4.365  1.00  0.00     0.013 C 
BRANCH  13  14
HETATM   14  C12 UNL     1      22.450   0.444  -4.927  1.00  0.00    -0.022 C 
HETATM   15  C13 UNL     1      22.326   0.406  -6.400  1.00  0.00     0.009 C 
HETATM   16  C14 UNL     1      21.437  -0.493  -4.314  1.00  0.00     0.009 C 
ENDBRANCH  13  14
ENDBRANCH   8  13
BRANCH   5  17
HETATM   17  N2  UNL     1      27.675   1.398  -2.001  1.00  0.00    -0.330 N 
HETATM   18  C6  UNL     1      28.825   2.220  -2.230  1.00  0.00     0.170 C 
HETATM   19  C7  UNL     1      27.651   0.721  -0.764  1.00  0.00     0.170 C 
ENDBRANCH   5  17
TORSDOF 5
ENDMDL
MODEL 5
REMARK VINA RESULT: -4.758191059      7.935     10.036
REMARK  5 active torsions:
REMARK  status: ('A' for Active; 'I' for Inactive)
REMARK    1  A    between atoms: C2_2  and  C3_3 
REMARK    2  A    between atoms: C2_2  and  C4_5 
REMARK    3  A    between atoms: N1_9  and  N2_10 
REMARK    4  A    between atoms: C10_15  and  C11_16 
REMARK    5  A    between atoms: C11_16  and  C12_17 
ROOT
HETATM    1  C4  UNL     1      24.466   1.248  -2.155  1.00  0.00     0.169 C 
HETATM    2  O1  UNL     1      23.986   0.059  -1.460  1.00  0.00    -0.292 OA
HETATM    3  C5  UNL     1      24.950  -0.924  -1.299  1.00  0.00     0.382 C 
HETATM    4  O2  UNL     1      24.636  -2.146  -1.285  1.00  0.00    -0.236 OA
HETATM    5  N1  UNL     1      26.313  -0.567  -1.145  1.00  0.00    -0.234 N 
HETATM    6  C8  UNL     1      26.621   0.822  -0.886  1.00  0.00     0.116 C 
HETATM    7  C9  UNL     1      28.069   1.071  -1.178  1.00  0.00     0.035 C 
HETATM    8  C10 UNL     1      25.662   1.785  -1.482  1.00  0.00     0.044 C 
ENDROOT
BRANCH   1   9
HETATM    9  C2  UNL     1      24.519   0.843  -3.564  1.00  0.00    -0.050 C 
HETATM   10  C1  UNL     1      25.592   0.805  -4.323  1.00  0.00     0.017 C 
BRANCH   9  11
HETATM   11  C3  UNL     1      23.225   0.380  -4.234  1.00  0.00     0.121 C 
HETATM   12 BR1  UNL     1      21.754   1.547  -3.820  1.00  0.00    -0.092 Br
ENDBRANCH   9  11
ENDBRANCH   1   9
BRANCH   8  13
HETATM   13  C11 UNL     1      26.273   3.018  -2.072  1.00  0.00     0.013 C 
BRANCH  13  14
HETATM   14  C12 UNL     1      25.544   4.281  -1.679  1.00  0.00    -0.022 C 
HETATM   15  C13 UNL     1      26.382   5.477  -1.457  1.00  0.00     0.009 C 
HETATM   16  C14 UNL     1      24.467   4.601  -2.688  1.00  0.00     0.009 C 
ENDBRANCH  13  14
ENDBRANCH   8  13
BRANCH   5  17
HETATM   17  N2  UNL     1      27.378  -1.447  -1.203  1.00  0.00    -0.330 N 
HETATM   18  C6  UNL     1      27.514  -2.306  -0.065  1.00  0.00     0.170 C 
HETATM   19  C7  UNL     1      27.669  -2.041  -2.449  1.00  0.00     0.170 C 
ENDBRANCH   5  17
TORSDOF 5
ENDMDL
