MODEL 1
REMARK VINA RESULT: -7.453599628      0.000      0.000
REMARK  6 active torsions:
REMARK  status: ('A' for Active; 'I' for Inactive)
REMARK    1  A    between atoms: N1_1  and  C1_4 
REMARK    2  A    between atoms: N5_15  and  C5_16 
REMARK    3  A    between atoms: C5_16  and  C6_17 
REMARK       I    between atoms: C6_17  and  N6_19 
REMARK       I    between atoms: N6_19  and  C7_21 
REMARK    4  A    between atoms: C7_21  and  C8_23 
REMARK    5  A    between atoms: C8_23  and  N7_24 
REMARK    6  A    between atoms: C8_23  and  C9_28 
ROOT
HETATM    1  C1  UNL     1       3.197  25.319   2.617  1.00  0.00     0.680 A 
HETATM    2  N2  UNL     1       2.151  24.632   3.115  1.00  0.00    -0.154 N 
ATOM      3  H2  UNL     1       1.220  24.852   2.762  1.00  0.00     0.187 HD
HETATM    4  C2  UNL     1       2.261  23.673   4.050  1.00  0.00     0.291 A 
HETATM    5  O1  UNL     1       1.282  23.047   4.499  1.00  0.00    -0.265 OA
HETATM    6  C3  UNL     1       3.526  23.376   4.526  1.00  0.00     0.167 A 
HETATM    7  C4  UNL     1       4.591  24.110   3.985  1.00  0.00     0.171 A 
HETATM    8  N3  UNL     1       5.691  23.609   4.617  1.00  0.00    -0.268 N 
ATOM      9  H3  UNL     1       6.651  23.917   4.462  1.00  0.00     0.190 HD
HETATM   10  N4  UNL     1       5.323  22.667   5.457  1.00  0.00    -0.238 N 
ATOM     11  H4  UNL     1       5.960  22.136   6.052  1.00  0.00     0.208 HD
HETATM   12  N5  UNL     1       4.001  22.504   5.423  1.00  0.00    -0.260 N 
HETATM   13  N8  UNL     1       4.432  25.058   3.053  1.00  0.00    -0.173 N 
ATOM     14  H8  UNL     1       5.235  25.569   2.686  1.00  0.00     0.186 HD
ENDROOT
BRANCH  12  15
HETATM   15  C5  UNL     1       3.238  21.582   6.228  1.00  0.00     0.254 C 
BRANCH  15  16
HETATM   16  C6  UNL     1       3.031  22.140   7.615  1.00  0.00     0.244 C 
HETATM   17  O2  UNL     1       3.990  22.614   8.246  1.00  0.00    -0.271 OA
HETATM   18  N6  UNL     1       1.745  22.110   8.164  1.00  0.00    -0.294 N 
HETATM   19  C7  UNL     1       1.296  22.553   9.416  1.00  0.00     0.265 C 
ATOM     20  H6  UNL     1       1.027  21.704   7.564  1.00  0.00     0.171 HD
HETATM   21  O3  UNL     1       0.063  22.355   9.755  1.00  0.00    -0.270 OA
BRANCH  19  22
HETATM   22  C8  UNL     1       2.100  23.238  10.420  1.00  0.00     0.374 C 
BRANCH  22  23
HETATM   23  N7  UNL     1       2.682  22.306  11.391  1.00  0.00    -0.056 N 
ATOM     24  H73 UNL     1       2.124  22.264  12.244  1.00  0.00     0.275 HD
ATOM     25  H72 UNL     1       2.579  21.339  11.084  1.00  0.00     0.275 HD
ATOM     26  H71 UNL     1       3.657  22.526  11.598  1.00  0.00     0.275 HD
ENDBRANCH  22  23
BRANCH  22  27
HETATM   27  C9  UNL     1       1.185  24.142  11.211  1.00  0.00     0.214 C 
HETATM   28  O4  UNL     1       1.078  23.974  12.472  1.00  0.00    -0.646 OA
HETATM   29  O5  UNL     1       0.443  25.146  10.670  1.00  0.00    -0.646 OA
ENDBRANCH  22  27
ENDBRANCH  19  22
ENDBRANCH  15  16
ENDBRANCH  12  15
BRANCH   1  30
HETATM   30  N1  UNL     1       2.993  26.218   1.722  1.00  0.00    -0.234 N 
ATOM     31  H12 UNL     1       3.054  25.988   0.730  1.00  0.00     0.174 HD
ATOM     32  H11 UNL     1       2.766  27.170   2.011  1.00  0.00     0.174 HD
ENDBRANCH   1  30
TORSDOF 6
ENDMDL
MODEL 2
REMARK VINA RESULT: -7.231269494      1.443      1.915
REMARK  6 active torsions:
REMARK  status: ('A' for Active; 'I' for Inactive)
REMARK    1  A    between atoms: N1_1  and  C1_4 
REMARK    2  A    between atoms: N5_15  and  C5_16 
REMARK    3  A    between atoms: C5_16  and  C6_17 
REMARK       I    between atoms: C6_17  and  N6_19 
REMARK       I    between atoms: N6_19  and  C7_21 
REMARK    4  A    between atoms: C7_21  and  C8_23 
REMARK    5  A    between atoms: C8_23  and  N7_24 
REMARK    6  A    between atoms: C8_23  and  C9_28 
ROOT
HETATM    1  C1  UNL     1       3.150  25.452   2.812  1.00  0.00     0.680 A 
HETATM    2  N2  UNL     1       2.116  24.654   3.143  1.00  0.00    -0.154 N 
ATOM      3  H2  UNL     1       1.195  24.881   2.767  1.00  0.00     0.187 HD
HETATM    4  C2  UNL     1       2.226  23.577   3.939  1.00  0.00     0.291 A 
HETATM    5  O1  UNL     1       1.258  22.850   4.234  1.00  0.00    -0.265 OA
HETATM    6  C3  UNL     1       3.477  23.274   4.447  1.00  0.00     0.167 A 
HETATM    7  C4  UNL     1       4.529  24.125   4.081  1.00  0.00     0.171 A 
HETATM    8  N3  UNL     1       5.617  23.589   4.704  1.00  0.00    -0.268 N 
ATOM      9  H3  UNL     1       6.566  23.959   4.654  1.00  0.00     0.190 HD
HETATM   10  N4  UNL     1       5.255  22.521   5.379  1.00  0.00    -0.238 N 
ATOM     11  H4  UNL     1       5.885  21.940   5.932  1.00  0.00     0.208 HD
HETATM   12  N5  UNL     1       3.947  22.305   5.240  1.00  0.00    -0.260 N 
HETATM   13  N8  UNL     1       4.371  25.188   3.283  1.00  0.00    -0.173 N 
ATOM     14  H8  UNL     1       5.165  25.782   3.042  1.00  0.00     0.186 HD
ENDROOT
BRANCH  12  15
HETATM   15  C5  UNL     1       3.192  21.243   5.858  1.00  0.00     0.254 C 
BRANCH  15  16
HETATM   16  C6  UNL     1       2.743  21.652   7.240  1.00  0.00     0.244 C 
HETATM   17  O2  UNL     1       1.535  21.657   7.527  1.00  0.00    -0.271 OA
HETATM   18  N6  UNL     1       3.712  22.022   8.178  1.00  0.00    -0.294 N 
HETATM   19  C7  UNL     1       3.559  22.441   9.507  1.00  0.00     0.265 C 
ATOM     20  H6  UNL     1       4.676  21.980   7.845  1.00  0.00     0.171 HD
HETATM   21  O3  UNL     1       4.599  22.813  10.180  1.00  0.00    -0.270 OA
BRANCH  19  22
HETATM   22  C8  UNL     1       2.303  22.507  10.243  1.00  0.00     0.374 C 
BRANCH  22  23
HETATM   23  N7  UNL     1       1.819  23.885  10.386  1.00  0.00    -0.056 N 
ATOM     24  H73 UNL     1       2.171  24.479   9.635  1.00  0.00     0.275 HD
ATOM     25  H72 UNL     1       0.821  23.949  10.188  1.00  0.00     0.275 HD
ATOM     26  H71 UNL     1       2.040  24.276  11.302  1.00  0.00     0.275 HD
ENDBRANCH  22  23
BRANCH  22  27
HETATM   27  C9  UNL     1       2.558  22.011  11.646  1.00  0.00     0.214 C 
HETATM   28  O4  UNL     1       2.288  22.770  12.636  1.00  0.00    -0.646 OA
HETATM   29  O5  UNL     1       3.072  20.788  11.945  1.00  0.00    -0.646 OA
ENDBRANCH  22  27
ENDBRANCH  19  22
ENDBRANCH  15  16
ENDBRANCH  12  15
BRANCH   1  30
HETATM   30  N1  UNL     1       2.948  26.460   2.041  1.00  0.00    -0.234 N 
ATOM     31  H12 UNL     1       3.476  26.568   1.176  1.00  0.00     0.174 HD
ATOM     32  H11 UNL     1       2.248  27.157   2.300  1.00  0.00     0.174 HD
ENDBRANCH   1  30
TORSDOF 6
ENDMDL
MODEL 3
REMARK VINA RESULT: -7.064833302      0.918      1.038
REMARK  6 active torsions:
REMARK  status: ('A' for Active; 'I' for Inactive)
REMARK    1  A    between atoms: N1_1  and  C1_4 
REMARK    2  A    between atoms: N5_15  and  C5_16 
REMARK    3  A    between atoms: C5_16  and  C6_17 
REMARK       I    between atoms: C6_17  and  N6_19 
REMARK       I    between atoms: N6_19  and  C7_21 
REMARK    4  A    between atoms: C7_21  and  C8_23 
REMARK    5  A    between atoms: C8_23  and  N7_24 
REMARK    6  A    between atoms: C8_23  and  C9_28 
ROOT
HETATM    1  C1  UNL     1       3.117  25.373   2.749  1.00  0.00     0.680 A 
HETATM    2  N2  UNL     1       2.090  24.622   3.191  1.00  0.00    -0.154 N 
ATOM      3  H2  UNL     1       1.155  24.837   2.844  1.00  0.00     0.187 HD
HETATM    4  C2  UNL     1       2.223  23.608   4.062  1.00  0.00     0.291 A 
HETATM    5  O1  UNL     1       1.260  22.924   4.459  1.00  0.00    -0.265 OA
HETATM    6  C3  UNL     1       3.493  23.320   4.530  1.00  0.00     0.167 A 
HETATM    7  C4  UNL     1       4.538  24.120   4.048  1.00  0.00     0.171 A 
HETATM    8  N3  UNL     1       5.648  23.612   4.656  1.00  0.00    -0.268 N 
ATOM      9  H3  UNL     1       6.599  23.960   4.531  1.00  0.00     0.190 HD
HETATM   10  N4  UNL     1       5.304  22.606   5.429  1.00  0.00    -0.238 N 
ATOM     11  H4  UNL     1       5.952  22.057   5.993  1.00  0.00     0.208 HD
HETATM   12  N5  UNL     1       3.988  22.405   5.371  1.00  0.00    -0.260 N 
HETATM   13  N8  UNL     1       4.357  25.122   3.179  1.00  0.00    -0.173 N 
ATOM     14  H8  UNL     1       5.146  25.680   2.854  1.00  0.00     0.186 HD
ENDROOT
BRANCH  12  15
HETATM   15  C5  UNL     1       3.248  21.409   6.106  1.00  0.00     0.254 C 
BRANCH  15  16
HETATM   16  C6  UNL     1       3.151  21.793   7.563  1.00  0.00     0.244 C 
HETATM   17  O2  UNL     1       3.664  22.851   7.964  1.00  0.00    -0.271 OA
HETATM   18  N6  UNL     1       2.478  20.936   8.439  1.00  0.00    -0.294 N 
HETATM   19  C7  UNL     1       2.256  21.058   9.818  1.00  0.00     0.265 C 
ATOM     20  H6  UNL     1       2.090  20.095   8.010  1.00  0.00     0.171 HD
HETATM   21  O3  UNL     1       1.667  20.098  10.454  1.00  0.00    -0.270 OA
BRANCH  19  22
HETATM   22  C8  UNL     1       2.634  22.196  10.647  1.00  0.00     0.374 C 
BRANCH  22  23
HETATM   23  N7  UNL     1       2.817  21.817  12.053  1.00  0.00    -0.056 N 
ATOM     24  H73 UNL     1       2.625  20.826  12.196  1.00  0.00     0.275 HD
ATOM     25  H72 UNL     1       3.803  21.830  12.313  1.00  0.00     0.275 HD
ATOM     26  H71 UNL     1       2.261  22.396  12.682  1.00  0.00     0.275 HD
ENDBRANCH  22  23
BRANCH  22  27
HETATM   27  C9  UNL     1       1.492  23.184  10.631  1.00  0.00     0.214 C 
HETATM   28  O4  UNL     1       1.499  24.160  11.454  1.00  0.00    -0.646 OA
HETATM   29  O5  UNL     1       0.428  23.111   9.787  1.00  0.00    -0.646 OA
ENDBRANCH  22  27
ENDBRANCH  19  22
ENDBRANCH  15  16
ENDBRANCH  12  15
BRANCH   1  30
HETATM   30  N1  UNL     1       2.892  26.322   1.914  1.00  0.00    -0.234 N 
ATOM     31  H12 UNL     1       2.174  26.225   1.196  1.00  0.00     0.174 HD
ATOM     32  H11 UNL     1       3.437  27.183   1.974  1.00  0.00     0.174 HD
ENDBRANCH   1  30
TORSDOF 6
ENDMDL
MODEL 4
REMARK VINA RESULT: -7.062506383      2.149      2.871
REMARK  6 active torsions:
REMARK  status: ('A' for Active; 'I' for Inactive)
REMARK    1  A    between atoms: N1_1  and  C1_4 
REMARK    2  A    between atoms: N5_15  and  C5_16 
REMARK    3  A    between atoms: C5_16  and  C6_17 
REMARK       I    between atoms: C6_17  and  N6_19 
REMARK       I    between atoms: N6_19  and  C7_21 
REMARK    4  A    between atoms: C7_21  and  C8_23 
REMARK    5  A    between atoms: C8_23  and  N7_24 
REMARK    6  A    between atoms: C8_23  and  C9_28 
ROOT
HETATM    1  C1  UNL     1       3.157  25.283   2.750  1.00  0.00     0.680 A 
HETATM    2  N2  UNL     1       2.109  24.667   3.330  1.00  0.00    -0.154 N 
ATOM      3  H2  UNL     1       1.254  25.205   3.470  1.00  0.00     0.187 HD
HETATM    4  C2  UNL     1       2.123  23.386   3.735  1.00  0.00     0.291 A 
HETATM    5  O1  UNL     1       1.143  22.833   4.269  1.00  0.00    -0.265 OA
HETATM    6  C3  UNL     1       3.285  22.660   3.544  1.00  0.00     0.167 A 
HETATM    7  C4  UNL     1       4.355  23.332   2.936  1.00  0.00     0.171 A 
HETATM    8  N3  UNL     1       5.339  22.390   2.867  1.00  0.00    -0.268 N 
ATOM      9  H3  UNL     1       6.269  22.537   2.475  1.00  0.00     0.190 HD
HETATM   10  N4  UNL     1       4.903  21.262   3.383  1.00  0.00    -0.238 N 
ATOM     11  H4  UNL     1       5.449  20.403   3.450  1.00  0.00     0.208 HD
HETATM   12  N5  UNL     1       3.647  21.400   3.807  1.00  0.00    -0.260 N 
HETATM   13  N8  UNL     1       4.295  24.612   2.549  1.00  0.00    -0.173 N 
ATOM     14  H8  UNL     1       5.097  25.063   2.110  1.00  0.00     0.186 HD
ENDROOT
BRANCH  12  15
HETATM   15  C5  UNL     1       2.853  20.383   4.452  1.00  0.00     0.254 C 
BRANCH  15  16
HETATM   16  C6  UNL     1       3.082  20.405   5.944  1.00  0.00     0.244 C 
HETATM   17  O2  UNL     1       3.540  19.403   6.519  1.00  0.00    -0.271 OA
HETATM   18  N6  UNL     1       2.768  21.568   6.654  1.00  0.00    -0.294 N 
HETATM   19  C7  UNL     1       2.881  21.838   8.025  1.00  0.00     0.265 C 
ATOM     20  H6  UNL     1       2.402  22.334   6.089  1.00  0.00     0.171 HD
HETATM   21  O3  UNL     1       2.455  22.969   8.486  1.00  0.00    -0.270 OA
BRANCH  19  22
HETATM   22  C8  UNL     1       3.446  20.946   9.029  1.00  0.00     0.374 C 
BRANCH  22  23
HETATM   23  N7  UNL     1       2.912  21.214  10.369  1.00  0.00    -0.056 N 
ATOM     24  H73 UNL     1       2.749  20.347  10.881  1.00  0.00     0.275 HD
ATOM     25  H72 UNL     1       3.620  21.628  10.973  1.00  0.00     0.275 HD
ATOM     26  H71 UNL     1       2.070  21.789  10.338  1.00  0.00     0.275 HD
ENDBRANCH  22  23
BRANCH  22  27
HETATM   27  C9  UNL     1       4.929  21.220   9.113  1.00  0.00     0.214 C 
HETATM   28  O4  UNL     1       5.753  20.292   8.814  1.00  0.00    -0.646 OA
HETATM   29  O5  UNL     1       5.469  22.408   9.496  1.00  0.00    -0.646 OA
ENDBRANCH  22  27
ENDBRANCH  19  22
ENDBRANCH  15  16
ENDBRANCH  12  15
BRANCH   1  30
HETATM   30  N1  UNL     1       3.049  26.513   2.394  1.00  0.00    -0.234 N 
ATOM     31  H12 UNL     1       2.572  27.188   2.991  1.00  0.00     0.174 HD
ATOM     32  H11 UNL     1       3.448  26.814   1.504  1.00  0.00     0.174 HD
ENDBRANCH   1  30
TORSDOF 6
ENDMDL
MODEL 5
REMARK VINA RESULT: -7.038922798      5.373      7.755
REMARK  6 active torsions:
REMARK  status: ('A' for Active; 'I' for Inactive)
REMARK    1  A    between atoms: N1_1  and  C1_4 
REMARK    2  A    between atoms: N5_15  and  C5_16 
REMARK    3  A    between atoms: C5_16  and  C6_17 
REMARK       I    between atoms: C6_17  and  N6_19 
REMARK       I    between atoms: N6_19  and  C7_21 
REMARK    4  A    between atoms: C7_21  and  C8_23 
REMARK    5  A    between atoms: C8_23  and  N7_24 
REMARK    6  A    between atoms: C8_23  and  C9_28 
ROOT
HETATM    1  C1  UNL     1       3.252  24.959   3.260  1.00  0.00     0.680 A 
HETATM    2  N2  UNL     1       2.344  24.043   3.649  1.00  0.00    -0.154 N 
ATOM      3  H2  UNL     1       1.438  24.375   3.980  1.00  0.00     0.187 HD
HETATM    4  C2  UNL     1       2.561  22.716   3.627  1.00  0.00     0.291 A 
HETATM    5  O1  UNL     1       1.709  21.883   3.991  1.00  0.00    -0.265 OA
HETATM    6  C3  UNL     1       3.791  22.270   3.177  1.00  0.00     0.167 A 
HETATM    7  C4  UNL     1       4.710  23.251   2.779  1.00  0.00     0.171 A 
HETATM    8  N3  UNL     1       5.802  22.536   2.383  1.00  0.00    -0.268 N 
ATOM      9  H3  UNL     1       6.671  22.937   2.028  1.00  0.00     0.190 HD
HETATM   10  N4  UNL     1       5.564  21.252   2.529  1.00  0.00    -0.238 N 
ATOM     11  H4  UNL     1       6.223  20.508   2.303  1.00  0.00     0.208 HD
HETATM   12  N5  UNL     1       4.337  21.060   3.016  1.00  0.00    -0.260 N 
HETATM   13  N8  UNL     1       4.449  24.563   2.819  1.00  0.00    -0.173 N 
ATOM     14  H8  UNL     1       5.147  25.244   2.520  1.00  0.00     0.186 HD
ENDROOT
BRANCH  12  15
HETATM   15  C5  UNL     1       3.740  19.786   3.332  1.00  0.00     0.254 C 
BRANCH  15  16
HETATM   16  C6  UNL     1       4.534  18.663   2.710  1.00  0.00     0.244 C 
HETATM   17  O2  UNL     1       4.802  18.687   1.497  1.00  0.00    -0.271 OA
HETATM   18  N6  UNL     1       4.954  17.607   3.525  1.00  0.00    -0.294 N 
HETATM   19  C7  UNL     1       5.688  16.459   3.195  1.00  0.00     0.265 C 
ATOM     20  H6  UNL     1       4.686  17.684   4.506  1.00  0.00     0.171 HD
HETATM   21  O3  UNL     1       5.903  15.561   4.101  1.00  0.00    -0.270 OA
BRANCH  19  22
HETATM   22  C8  UNL     1       6.256  16.153   1.889  1.00  0.00     0.374 C 
BRANCH  22  23
HETATM   23  N7  UNL     1       6.392  14.708   1.671  1.00  0.00    -0.056 N 
ATOM     24  H73 UNL     1       7.315  14.475   1.304  1.00  0.00     0.275 HD
ATOM     25  H72 UNL     1       6.438  14.204   2.556  1.00  0.00     0.275 HD
ATOM     26  H71 UNL     1       5.653  14.339   1.073  1.00  0.00     0.275 HD
ENDBRANCH  22  23
BRANCH  22  27
HETATM   27  C9  UNL     1       7.659  16.711   1.849  1.00  0.00     0.214 C 
HETATM   28  O4  UNL     1       8.561  16.088   1.194  1.00  0.00    -0.646 OA
HETATM   29  O5  UNL     1       8.047  17.854   2.475  1.00  0.00    -0.646 OA
ENDBRANCH  22  27
ENDBRANCH  19  22
ENDBRANCH  15  16
ENDBRANCH  12  15
BRANCH   1  30
HETATM   30  N1  UNL     1       2.952  26.207   3.315  1.00  0.00    -0.234 N 
ATOM     31  H12 UNL     1       3.330  26.863   2.632  1.00  0.00     0.174 HD
ATOM     32  H11 UNL     1       2.327  26.541   4.049  1.00  0.00     0.174 HD
ENDBRANCH   1  30
TORSDOF 6
ENDMDL
