MODEL 1
REMARK VINA RESULT: -7.400259430      0.000      0.000
REMARK  6 active torsions:
REMARK  status: ('A' for Active; 'I' for Inactive)
REMARK    1  A    between atoms: N1_2  and  C2_4 
REMARK    2  A    between atoms: C3_7  and  N3_8 
REMARK    3  A    between atoms: N3_8  and  N4_10 
REMARK    4  A    between atoms: N4_10  and  S1_12 
REMARK    5  A    between atoms: S1_12  and  C4_15 
REMARK    6  A    between atoms: C6_22  and  O3_23 
ROOT
HETATM    1  C2  UNL     1       3.684  24.669   3.636  1.00  0.00     0.681 A 
HETATM    2  N2  UNL     1       4.038  23.772   2.676  1.00  0.00    -0.172 N 
ATOM      3  H2  UNL     1       3.991  24.038   1.693  1.00  0.00     0.186 HD
HETATM    4  C3  UNL     1       4.445  22.550   3.010  1.00  0.00     0.173 A 
HETATM    5  C6  UNL     1       4.489  22.234   4.387  1.00  0.00     0.157 A 
HETATM    6  C7  UNL     1       4.140  23.120   5.365  1.00  0.00     0.154 A 
HETATM    7  N8  UNL     1       4.138  23.013   6.604  1.00  0.00    -0.378 N 
ATOM      8  H8  UNL     1       3.812  23.868   7.057  1.00  0.00     0.160 HD
HETATM    9  C8  UNL     1       4.464  22.033   7.526  1.00  0.00     0.147 C 
HETATM   10  N9  UNL     1       3.728  24.371   4.921  1.00  0.00    -0.174 N 
ATOM     11  H9  UNL     1       3.452  25.077   5.605  1.00  0.00     0.186 HD
ENDROOT
BRANCH   4  12
HETATM   12  N3  UNL     1       4.830  21.595   2.007  1.00  0.00    -0.273 N 
ATOM     13  H3  UNL     1       4.172  21.368   1.262  1.00  0.00     0.189 HD
BRANCH  12  14
HETATM   14  N4  UNL     1       6.069  20.975   2.021  1.00  0.00    -0.219 N 
ATOM     15  H4  UNL     1       6.926  21.516   2.134  1.00  0.00     0.200 HD
BRANCH  14  16
HETATM   16  S1  UNL     1       6.117  19.307   1.844  1.00  0.00     0.309 S 
HETATM   17  O1  UNL     1       6.165  18.667   3.223  1.00  0.00    -0.196 OA
HETATM   18  O2  UNL     1       4.860  18.836   1.159  1.00  0.00    -0.196 OA
BRANCH  16  19
HETATM   19  C4  UNL     1       7.497  18.763   0.919  1.00  0.00     0.234 C 
HETATM   20  N5  UNL     1       8.068  19.420  -0.066  1.00  0.00    -0.349 N 
HETATM   21  C5  UNL     1       9.177  18.616  -0.559  1.00  0.00     0.258 C 
ATOM     22  H5  UNL     1       7.783  20.332  -0.423  1.00  0.00     0.163 HD
HETATM   23  N6  UNL     1       9.436  17.671   0.504  1.00  0.00    -0.120 NA
HETATM   24  N7  UNL     1       8.182  17.537   1.110  1.00  0.00    -0.277 N 
ATOM     25  H7  UNL     1       7.829  16.714   1.598  1.00  0.00     0.184 HD
ENDBRANCH  16  19
ENDBRANCH  14  16
ENDBRANCH  12  14
ENDBRANCH   4  12
BRANCH   5  26
HETATM   26  O3  UNL     1       4.905  20.981   4.663  1.00  0.00    -0.354 OA
ATOM     27  H3  UNL     1       5.588  20.926   5.322  1.00  0.00     0.218 HD
ENDBRANCH   5  26
BRANCH   1  28
HETATM   28  N1  UNL     1       3.298  25.844   3.245  1.00  0.00    -0.230 N 
HETATM   29  C1  UNL     1       2.792  26.037   1.897  1.00  0.00     0.165 C 
ATOM     30  H1  UNL     1       3.350  26.635   3.887  1.00  0.00     0.177 HD
ENDBRANCH   1  28
TORSDOF 6
ENDMDL
MODEL 2
REMARK VINA RESULT: -6.995970286      2.246      6.844
REMARK  6 active torsions:
REMARK  status: ('A' for Active; 'I' for Inactive)
REMARK    1  A    between atoms: N1_2  and  C2_4 
REMARK    2  A    between atoms: C3_7  and  N3_8 
REMARK    3  A    between atoms: N3_8  and  N4_10 
REMARK    4  A    between atoms: N4_10  and  S1_12 
REMARK    5  A    between atoms: S1_12  and  C4_15 
REMARK    6  A    between atoms: C6_22  and  O3_23 
ROOT
HETATM    1  C2  UNL     1       7.800  19.816   0.612  1.00  0.00     0.681 A 
HETATM    2  N2  UNL     1       6.966  20.777   1.092  1.00  0.00    -0.172 N 
ATOM      3  H2  UNL     1       7.024  21.727   0.726  1.00  0.00     0.186 HD
HETATM    4  C3  UNL     1       6.073  20.487   2.037  1.00  0.00     0.173 A 
HETATM    5  C6  UNL     1       6.038  19.156   2.509  1.00  0.00     0.157 A 
HETATM    6  C7  UNL     1       6.865  18.178   2.040  1.00  0.00     0.154 A 
HETATM    7  N8  UNL     1       6.953  16.971   2.328  1.00  0.00    -0.378 N 
ATOM      8  H8  UNL     1       7.687  16.507   1.793  1.00  0.00     0.160 HD
HETATM    9  C8  UNL     1       6.309  16.097   3.187  1.00  0.00     0.147 C 
HETATM   10  N9  UNL     1       7.764  18.573   1.055  1.00  0.00    -0.174 N 
ATOM     11  H9  UNL     1       8.410  17.887   0.666  1.00  0.00     0.186 HD
ENDROOT
BRANCH   4  12
HETATM   12  N3  UNL     1       5.180  21.491   2.546  1.00  0.00    -0.273 N 
ATOM     13  H3  UNL     1       4.227  21.225   2.795  1.00  0.00     0.189 HD
BRANCH  12  14
HETATM   14  N4  UNL     1       5.573  22.810   2.710  1.00  0.00    -0.219 N 
ATOM     15  H4  UNL     1       6.441  23.154   2.299  1.00  0.00     0.200 HD
BRANCH  14  16
HETATM   16  S1  UNL     1       4.579  23.823   3.604  1.00  0.00     0.309 S 
HETATM   17  O1  UNL     1       5.198  25.211   3.647  1.00  0.00    -0.196 OA
HETATM   18  O2  UNL     1       3.236  23.937   2.929  1.00  0.00    -0.196 OA
BRANCH  16  19
HETATM   19  C4  UNL     1       4.336  23.261   5.242  1.00  0.00     0.234 C 
HETATM   20  N5  UNL     1       3.220  23.362   5.930  1.00  0.00    -0.349 N 
HETATM   21  C5  UNL     1       3.446  22.772   7.241  1.00  0.00     0.258 C 
ATOM     22  H5  UNL     1       2.350  23.780   5.603  1.00  0.00     0.163 HD
HETATM   23  N6  UNL     1       4.631  21.962   7.072  1.00  0.00    -0.120 NA
HETATM   24  N7  UNL     1       5.314  22.624   6.045  1.00  0.00    -0.277 N 
ATOM     25  H7  UNL     1       6.323  22.643   5.902  1.00  0.00     0.184 HD
ENDBRANCH  16  19
ENDBRANCH  14  16
ENDBRANCH  12  14
ENDBRANCH   4  12
BRANCH   5  26
HETATM   26  O3  UNL     1       5.117  18.925   3.468  1.00  0.00    -0.354 OA
ATOM     27  H3  UNL     1       5.244  19.423   4.266  1.00  0.00     0.218 HD
ENDBRANCH   5  26
BRANCH   1  28
HETATM   28  N1  UNL     1       8.646  20.162  -0.309  1.00  0.00    -0.230 N 
HETATM   29  C1  UNL     1       9.381  19.147  -1.044  1.00  0.00     0.165 C 
ATOM     30  H1  UNL     1       8.796  21.149  -0.517  1.00  0.00     0.177 HD
ENDBRANCH   1  28
TORSDOF 6
ENDMDL
MODEL 3
REMARK VINA RESULT: -6.962677219      4.749      6.987
REMARK  6 active torsions:
REMARK  status: ('A' for Active; 'I' for Inactive)
REMARK    1  A    between atoms: N1_2  and  C2_4 
REMARK    2  A    between atoms: C3_7  and  N3_8 
REMARK    3  A    between atoms: N3_8  and  N4_10 
REMARK    4  A    between atoms: N4_10  and  S1_12 
REMARK    5  A    between atoms: S1_12  and  C4_15 
REMARK    6  A    between atoms: C6_22  and  O3_23 
ROOT
HETATM    1  C2  UNL     1       2.885  24.643   3.925  1.00  0.00     0.681 A 
HETATM    2  N2  UNL     1       3.984  24.200   4.593  1.00  0.00    -0.172 N 
ATOM      3  H2  UNL     1       4.824  24.776   4.624  1.00  0.00     0.186 HD
HETATM    4  C3  UNL     1       3.971  23.018   5.207  1.00  0.00     0.173 A 
HETATM    5  C6  UNL     1       2.780  22.260   5.130  1.00  0.00     0.157 A 
HETATM    6  C7  UNL     1       1.668  22.688   4.466  1.00  0.00     0.154 A 
HETATM    7  N8  UNL     1       0.550  22.163   4.318  1.00  0.00    -0.378 N 
ATOM      8  H8  UNL     1      -0.071  22.746   3.756  1.00  0.00     0.160 HD
HETATM    9  C8  UNL     1      -0.068  20.991   4.720  1.00  0.00     0.147 C 
HETATM   10  N9  UNL     1       1.774  23.933   3.856  1.00  0.00    -0.174 N 
ATOM     11  H9  UNL     1       0.975  24.306   3.343  1.00  0.00     0.186 HD
ENDROOT
BRANCH   4  12
HETATM   12  N3  UNL     1       5.122  22.542   5.923  1.00  0.00    -0.273 N 
ATOM     13  H3  UNL     1       5.767  21.906   5.456  1.00  0.00     0.189 HD
BRANCH  12  14
HETATM   14  N4  UNL     1       5.382  22.922   7.231  1.00  0.00    -0.219 N 
ATOM     15  H4  UNL     1       5.825  23.815   7.440  1.00  0.00     0.200 HD
BRANCH  14  16
HETATM   16  S1  UNL     1       4.944  21.865   8.459  1.00  0.00     0.309 S 
HETATM   17  O1  UNL     1       4.748  20.477   7.869  1.00  0.00    -0.196 OA
HETATM   18  O2  UNL     1       6.055  21.784   9.474  1.00  0.00    -0.196 OA
BRANCH  16  19
HETATM   19  C4  UNL     1       3.474  22.345   9.274  1.00  0.00     0.234 C 
HETATM   20  N5  UNL     1       3.324  22.470  10.575  1.00  0.00    -0.349 N 
HETATM   21  C5  UNL     1       1.953  22.887  10.830  1.00  0.00     0.258 C 
ATOM     22  H5  UNL     1       4.041  22.303  11.280  1.00  0.00     0.163 HD
HETATM   23  N6  UNL     1       1.488  23.393   9.559  1.00  0.00    -0.120 NA
HETATM   24  N7  UNL     1       2.248  22.663   8.639  1.00  0.00    -0.277 N 
ATOM     25  H7  UNL     1       1.972  22.408   7.691  1.00  0.00     0.184 HD
ENDBRANCH  16  19
ENDBRANCH  14  16
ENDBRANCH  12  14
ENDBRANCH   4  12
BRANCH   5  26
HETATM   26  O3  UNL     1       2.830  21.072   5.767  1.00  0.00    -0.354 OA
ATOM     27  H3  UNL     1       2.697  20.317   5.205  1.00  0.00     0.218 HD
ENDBRANCH   5  26
BRANCH   1  28
HETATM   28  N1  UNL     1       2.960  25.803   3.350  1.00  0.00    -0.230 N 
HETATM   29  C1  UNL     1       2.890  25.907   1.902  1.00  0.00     0.165 C 
ATOM     30  H1  UNL     1       3.069  26.645   3.915  1.00  0.00     0.177 HD
ENDBRANCH   1  28
TORSDOF 6
ENDMDL
MODEL 4
REMARK VINA RESULT: -6.919057962      1.648      2.093
REMARK  6 active torsions:
REMARK  status: ('A' for Active; 'I' for Inactive)
REMARK    1  A    between atoms: N1_2  and  C2_4 
REMARK    2  A    between atoms: C3_7  and  N3_8 
REMARK    3  A    between atoms: N3_8  and  N4_10 
REMARK    4  A    between atoms: N4_10  and  S1_12 
REMARK    5  A    between atoms: S1_12  and  C4_15 
REMARK    6  A    between atoms: C6_22  and  O3_23 
ROOT
HETATM    1  C2  UNL     1       2.898  24.181   3.481  1.00  0.00     0.681 A 
HETATM    2  N2  UNL     1       3.805  23.405   2.828  1.00  0.00    -0.172 N 
ATOM      3  H2  UNL     1       3.948  23.527   1.826  1.00  0.00     0.186 HD
HETATM    4  C3  UNL     1       4.509  22.488   3.488  1.00  0.00     0.173 A 
HETATM    5  C6  UNL     1       4.269  22.360   4.876  1.00  0.00     0.157 A 
HETATM    6  C7  UNL     1       3.365  23.129   5.548  1.00  0.00     0.154 A 
HETATM    7  N8  UNL     1       3.049  23.160   6.750  1.00  0.00    -0.378 N 
ATOM      8  H8  UNL     1       2.326  23.856   6.934  1.00  0.00     0.160 HD
HETATM    9  C8  UNL     1       3.426  22.492   7.903  1.00  0.00     0.147 C 
HETATM   10  N9  UNL     1       2.678  24.060   4.776  1.00  0.00    -0.174 N 
ATOM     11  H9  UNL     1       1.986  24.664   5.222  1.00  0.00     0.186 HD
ENDROOT
BRANCH   4  12
HETATM   12  N3  UNL     1       5.477  21.668   2.813  1.00  0.00    -0.273 N 
ATOM     13  H3  UNL     1       6.168  22.113   2.210  1.00  0.00     0.189 HD
BRANCH  12  14
HETATM   14  N4  UNL     1       5.500  20.290   2.957  1.00  0.00    -0.219 N 
ATOM     15  H4  UNL     1       5.023  19.835   3.735  1.00  0.00     0.200 HD
BRANCH  14  16
HETATM   16  S1  UNL     1       6.338  19.392   1.814  1.00  0.00     0.309 S 
HETATM   17  O1  UNL     1       5.474  19.249   0.570  1.00  0.00    -0.196 OA
HETATM   18  O2  UNL     1       7.596  20.123   1.421  1.00  0.00    -0.196 OA
BRANCH  16  19
HETATM   19  C4  UNL     1       6.771  17.799   2.387  1.00  0.00     0.234 C 
HETATM   20  N5  UNL     1       5.935  16.896   2.849  1.00  0.00    -0.349 N 
HETATM   21  C5  UNL     1       6.704  15.716   3.216  1.00  0.00     0.258 C 
ATOM     22  H5  UNL     1       4.924  17.003   2.936  1.00  0.00     0.163 HD
HETATM   23  N6  UNL     1       7.964  15.880   2.525  1.00  0.00    -0.120 NA
HETATM   24  N7  UNL     1       8.085  17.270   2.430  1.00  0.00    -0.277 N 
ATOM     25  H7  UNL     1       8.954  17.802   2.397  1.00  0.00     0.184 HD
ENDBRANCH  16  19
ENDBRANCH  14  16
ENDBRANCH  12  14
ENDBRANCH   4  12
BRANCH   5  26
HETATM   26  O3  UNL     1       5.008  21.412   5.488  1.00  0.00    -0.354 OA
ATOM     27  H3  UNL     1       4.756  21.234   6.387  1.00  0.00     0.218 HD
ENDBRANCH   5  26
BRANCH   1  28
HETATM   28  N1  UNL     1       2.246  25.058   2.781  1.00  0.00    -0.230 N 
HETATM   29  C1  UNL     1       2.944  25.883   1.810  1.00  0.00     0.165 C 
ATOM     30  H1  UNL     1       1.241  25.169   2.915  1.00  0.00     0.177 HD
ENDBRANCH   1  28
TORSDOF 6
ENDMDL
MODEL 5
REMARK VINA RESULT: -6.899038103      2.065      2.756
REMARK  6 active torsions:
REMARK  status: ('A' for Active; 'I' for Inactive)
REMARK    1  A    between atoms: N1_2  and  C2_4 
REMARK    2  A    between atoms: C3_7  and  N3_8 
REMARK    3  A    between atoms: N3_8  and  N4_10 
REMARK    4  A    between atoms: N4_10  and  S1_12 
REMARK    5  A    between atoms: S1_12  and  C4_15 
REMARK    6  A    between atoms: C6_22  and  O3_23 
ROOT
HETATM    1  C2  UNL     1       3.689  24.609   3.522  1.00  0.00     0.681 A 
HETATM    2  N2  UNL     1       4.136  23.832   2.499  1.00  0.00    -0.172 N 
ATOM      3  H2  UNL     1       4.123  24.195   1.546  1.00  0.00     0.186 HD
HETATM    4  C3  UNL     1       4.591  22.603   2.732  1.00  0.00     0.173 A 
HETATM    5  C6  UNL     1       4.584  22.152   4.072  1.00  0.00     0.157 A 
HETATM    6  C7  UNL     1       4.140  22.915   5.112  1.00  0.00     0.154 A 
HETATM    7  N8  UNL     1       4.082  22.683   6.332  1.00  0.00    -0.378 N 
ATOM      8  H8  UNL     1       3.690  23.470   6.849  1.00  0.00     0.160 HD
HETATM    9  C8  UNL     1       4.414  21.631   7.169  1.00  0.00     0.147 C 
HETATM   10  N9  UNL     1       3.684  24.184   4.772  1.00  0.00    -0.174 N 
ATOM     11  H9  UNL     1       3.338  24.802   5.507  1.00  0.00     0.186 HD
ENDROOT
BRANCH   4  12
HETATM   12  N3  UNL     1       5.075  21.776   1.662  1.00  0.00    -0.273 N 
ATOM     13  H3  UNL     1       4.476  21.612   0.853  1.00  0.00     0.189 HD
BRANCH  12  14
HETATM   14  N4  UNL     1       6.332  21.194   1.694  1.00  0.00    -0.219 N 
ATOM     15  H4  UNL     1       7.171  21.761   1.815  1.00  0.00     0.200 HD
BRANCH  14  16
HETATM   16  S1  UNL     1       6.433  19.527   1.529  1.00  0.00     0.309 S 
HETATM   17  O1  UNL     1       7.183  19.203   0.246  1.00  0.00    -0.196 OA
HETATM   18  O2  UNL     1       7.217  18.952   2.681  1.00  0.00    -0.196 OA
BRANCH  16  19
HETATM   19  C4  UNL     1       4.865  18.755   1.478  1.00  0.00     0.234 C 
HETATM   20  N5  UNL     1       4.220  18.260   2.511  1.00  0.00    -0.349 N 
HETATM   21  C5  UNL     1       2.958  17.713   2.033  1.00  0.00     0.258 C 
ATOM     22  H5  UNL     1       4.546  18.258   3.477  1.00  0.00     0.163 HD
HETATM   23  N6  UNL     1       2.770  18.325   0.736  1.00  0.00    -0.120 NA
HETATM   24  N7  UNL     1       4.082  18.561   0.313  1.00  0.00    -0.277 N 
ATOM     25  H7  UNL     1       4.413  18.589  -0.652  1.00  0.00     0.184 HD
ENDBRANCH  16  19
ENDBRANCH  14  16
ENDBRANCH  12  14
ENDBRANCH   4  12
BRANCH   5  26
HETATM   26  O3  UNL     1       5.051  20.898   4.244  1.00  0.00    -0.354 OA
ATOM     27  H3  UNL     1       5.560  20.562   3.516  1.00  0.00     0.218 HD
ENDBRANCH   5  26
BRANCH   1  28
HETATM   28  N1  UNL     1       3.260  25.798   3.230  1.00  0.00    -0.230 N 
HETATM   29  C1  UNL     1       2.785  26.095   1.889  1.00  0.00     0.165 C 
ATOM     30  H1  UNL     1       3.258  26.527   3.943  1.00  0.00     0.177 HD
ENDBRANCH   1  28
TORSDOF 6
ENDMDL
