MODEL 1
REMARK VINA RESULT: -6.815820847      0.000      0.000
REMARK  6 active torsions:
REMARK  status: ('A' for Active; 'I' for Inactive)
REMARK    1  A    between atoms: N1_1  and  N2_4 
REMARK    2  A    between atoms: N2_4  and  C1_6 
REMARK    3  A    between atoms: C2_9  and  N4_10 
REMARK       I    between atoms: N4_10  and  C3_12 
REMARK       I    between atoms: C3_12  and  N5_13 
REMARK       I    between atoms: C3_12  and  N6_17 
REMARK    4  A    between atoms: N8_26  and  N9_27 
REMARK       I    between atoms: N9_27  and  C7_29 
REMARK    5  A    between atoms: C7_29  and  C8_31 
REMARK    6  A    between atoms: C8_31  and  C9_32 
ROOT
HETATM    1  C1  UNL     1       3.939  24.165   3.134  1.00  0.00     0.699 A 
HETATM    2  N3  UNL     1       4.906  23.240   2.860  1.00  0.00    -0.173 N 
ATOM      3  H3  UNL     1       5.819  23.567   2.544  1.00  0.00     0.186 HD
HETATM    4  C2  UNL     1       4.709  21.925   2.988  1.00  0.00     0.152 A 
HETATM    5  C4  UNL     1       3.481  21.470   3.414  1.00  0.00     0.146 A 
HETATM    6  C5  UNL     1       2.524  22.425   3.682  1.00  0.00     0.154 A 
HETATM    7  N7  UNL     1       1.400  21.787   4.082  1.00  0.00    -0.335 N 
ATOM      8  H7  UNL     1       0.522  22.233   4.349  1.00  0.00     0.168 HD
HETATM    9  C6  UNL     1       1.642  20.461   4.065  1.00  0.00     0.209 A 
HETATM   10  N8  UNL     1       2.910  20.255   3.658  1.00  0.00    -0.242 N 
HETATM   11  N10 UNL     1       2.736  23.765   3.548  1.00  0.00    -0.173 N 
ATOM     12  H10 UNL     1       2.000  24.439   3.758  1.00  0.00     0.186 HD
ENDROOT
BRANCH   4  13
HETATM   13  N4  UNL     1       5.636  21.123   2.730  1.00  0.00    -0.325 N 
HETATM   14  C3  UNL     1       6.268  20.739   1.532  1.00  0.00     0.481 C 
HETATM   15  N5  UNL     1       6.813  21.818   0.730  1.00  0.00    -0.033 N 
HETATM   16  N6  UNL     1       7.416  19.887   1.914  1.00  0.00    -0.033 N 
ATOM     17  H53 UNL     1       6.085  22.505   0.533  1.00  0.00     0.278 HD
ATOM     18  H52 UNL     1       7.449  22.382   1.293  1.00  0.00     0.278 HD
ATOM     19  H51 UNL     1       7.271  21.540  -0.138  1.00  0.00     0.278 HD
ATOM     20  H63 UNL     1       8.047  20.335   2.578  1.00  0.00     0.278 HD
ATOM     21  H62 UNL     1       7.152  19.096   2.502  1.00  0.00     0.278 HD
ATOM     22  H61 UNL     1       7.873  19.608   1.046  1.00  0.00     0.278 HD
ATOM     23  H4  UNL     1       6.008  20.652   3.555  1.00  0.00     0.165 HD
ENDBRANCH   4  13
BRANCH   1  24
HETATM   24  N2  UNL     1       4.161  25.421   3.002  1.00  0.00    -0.138 N 
ATOM     25  H2  UNL     1       5.096  25.796   3.165  1.00  0.00     0.205 HD
BRANCH  24  26
HETATM   26  N1  UNL     1       3.122  26.269   2.636  1.00  0.00    -0.331 N 
ATOM     27  H12 UNL     1       2.832  26.308   1.659  1.00  0.00     0.177 HD
ATOM     28  H11 UNL     1       2.664  26.841   3.345  1.00  0.00     0.177 HD
ENDBRANCH  24  26
ENDBRANCH   1  24
BRANCH  10  29
HETATM   29  N9  UNL     1       3.572  19.054   3.489  1.00  0.00    -0.262 N 
HETATM   30  C7  UNL     1       3.606  18.343   2.267  1.00  0.00     0.246 C 
HETATM   31  O1  UNL     1       3.032  18.751   1.248  1.00  0.00    -0.271 OA
ATOM     32  H9  UNL     1       4.064  18.659   4.290  1.00  0.00     0.190 HD
BRANCH  30  33
HETATM   33  C8  UNL     1       4.354  17.042   2.168  1.00  0.00     0.217 C 
BRANCH  33  34
HETATM   34  C9  UNL     1       5.396  16.946   3.204  1.00  0.00     0.181 C 
HETATM   35  O2  UNL     1       6.594  17.243   2.970  1.00  0.00    -0.648 OA
HETATM   36  O3  UNL     1       5.061  16.510   4.501  1.00  0.00    -0.648 OA
ENDBRANCH  33  34
ENDBRANCH  30  33
ENDBRANCH  10  29
TORSDOF 6
ENDMDL
MODEL 2
REMARK VINA RESULT: -6.655714379      1.585      2.093
REMARK  6 active torsions:
REMARK  status: ('A' for Active; 'I' for Inactive)
REMARK    1  A    between atoms: N1_1  and  N2_4 
REMARK    2  A    between atoms: N2_4  and  C1_6 
REMARK    3  A    between atoms: C2_9  and  N4_10 
REMARK       I    between atoms: N4_10  and  C3_12 
REMARK       I    between atoms: C3_12  and  N5_13 
REMARK       I    between atoms: C3_12  and  N6_17 
REMARK    4  A    between atoms: N8_26  and  N9_27 
REMARK       I    between atoms: N9_27  and  C7_29 
REMARK    5  A    between atoms: C7_29  and  C8_31 
REMARK    6  A    between atoms: C8_31  and  C9_32 
ROOT
HETATM    1  C1  UNL     1       4.655  22.894   2.992  1.00  0.00     0.699 A 
HETATM    2  N3  UNL     1       5.615  22.050   2.511  1.00  0.00    -0.173 N 
ATOM      3  H3  UNL     1       6.501  22.447   2.197  1.00  0.00     0.186 HD
HETATM    4  C2  UNL     1       5.446  20.727   2.433  1.00  0.00     0.152 A 
HETATM    5  C4  UNL     1       4.256  20.179   2.853  1.00  0.00     0.146 A 
HETATM    6  C5  UNL     1       3.304  21.052   3.334  1.00  0.00     0.154 A 
HETATM    7  N7  UNL     1       2.218  20.330   3.691  1.00  0.00    -0.335 N 
ATOM      8  H7  UNL     1       1.353  20.704   4.082  1.00  0.00     0.168 HD
HETATM    9  C6  UNL     1       2.477  19.031   3.442  1.00  0.00     0.209 A 
HETATM   10  N8  UNL     1       3.719  18.926   2.929  1.00  0.00    -0.242 N 
HETATM   11  N10 UNL     1       3.488  22.401   3.408  1.00  0.00    -0.173 N 
ATOM     12  H10 UNL     1       2.757  23.013   3.771  1.00  0.00     0.186 HD
ENDROOT
BRANCH   4  13
HETATM   13  N4  UNL     1       6.366  20.001   1.991  1.00  0.00    -0.325 N 
HETATM   14  C3  UNL     1       7.169  20.065   0.835  1.00  0.00     0.481 C 
HETATM   15  N5  UNL     1       7.885  21.310   0.630  1.00  0.00    -0.033 N 
HETATM   16  N6  UNL     1       8.199  19.013   0.976  1.00  0.00    -0.033 N 
ATOM     17  H53 UNL     1       7.230  22.093   0.641  1.00  0.00     0.278 HD
ATOM     18  H52 UNL     1       8.445  21.528   1.454  1.00  0.00     0.278 HD
ATOM     19  H51 UNL     1       8.466  21.357  -0.207  1.00  0.00     0.278 HD
ATOM     20  H63 UNL     1       8.733  19.086   1.843  1.00  0.00     0.278 HD
ATOM     21  H62 UNL     1       7.807  18.086   1.145  1.00  0.00     0.278 HD
ATOM     22  H61 UNL     1       8.779  19.060   0.139  1.00  0.00     0.278 HD
ATOM     23  H4  UNL     1       6.577  19.202   2.588  1.00  0.00     0.165 HD
ENDBRANCH   4  13
BRANCH   1  24
HETATM   24  N2  UNL     1       4.850  24.159   3.055  1.00  0.00    -0.138 N 
ATOM     25  H2  UNL     1       4.187  24.802   2.623  1.00  0.00     0.205 HD
BRANCH  24  26
HETATM   26  N1  UNL     1       5.970  24.651   3.717  1.00  0.00    -0.331 N 
ATOM     27  H12 UNL     1       6.882  24.589   3.265  1.00  0.00     0.177 HD
ATOM     28  H11 UNL     1       5.867  25.068   4.642  1.00  0.00     0.177 HD
ENDBRANCH  24  26
ENDBRANCH   1  24
BRANCH  10  29
HETATM   29  N9  UNL     1       4.386  17.786   2.525  1.00  0.00    -0.262 N 
HETATM   30  C7  UNL     1       4.865  16.799   3.419  1.00  0.00     0.246 C 
HETATM   31  O1  UNL     1       4.720  16.892   4.645  1.00  0.00    -0.271 OA
ATOM     32  H9  UNL     1       4.542  17.648   1.526  1.00  0.00     0.190 HD
BRANCH  30  33
HETATM   33  C8  UNL     1       5.579  15.583   2.894  1.00  0.00     0.217 C 
BRANCH  33  34
HETATM   34  C9  UNL     1       7.040  15.767   2.926  1.00  0.00     0.181 C 
HETATM   35  O2  UNL     1       7.830  14.792   2.983  1.00  0.00    -0.648 OA
HETATM   36  O3  UNL     1       7.586  17.066   2.893  1.00  0.00    -0.648 OA
ENDBRANCH  33  34
ENDBRANCH  30  33
ENDBRANCH  10  29
TORSDOF 6
ENDMDL
MODEL 3
REMARK VINA RESULT: -6.648665832      2.375      5.288
REMARK  6 active torsions:
REMARK  status: ('A' for Active; 'I' for Inactive)
REMARK    1  A    between atoms: N1_1  and  N2_4 
REMARK    2  A    between atoms: N2_4  and  C1_6 
REMARK    3  A    between atoms: C2_9  and  N4_10 
REMARK       I    between atoms: N4_10  and  C3_12 
REMARK       I    between atoms: C3_12  and  N5_13 
REMARK       I    between atoms: C3_12  and  N6_17 
REMARK    4  A    between atoms: N8_26  and  N9_27 
REMARK       I    between atoms: N9_27  and  C7_29 
REMARK    5  A    between atoms: C7_29  and  C8_31 
REMARK    6  A    between atoms: C8_31  and  C9_32 
ROOT
HETATM    1  C1  UNL     1       7.340  20.311   0.973  1.00  0.00     0.699 A 
HETATM    2  N3  UNL     1       6.553  21.395   1.240  1.00  0.00    -0.173 N 
ATOM      3  H3  UNL     1       6.809  22.295   0.834  1.00  0.00     0.186 HD
HETATM    4  C2  UNL     1       5.463  21.330   2.009  1.00  0.00     0.152 A 
HETATM    5  C4  UNL     1       5.107  20.122   2.563  1.00  0.00     0.146 A 
HETATM    6  C5  UNL     1       5.917  19.044   2.278  1.00  0.00     0.154 A 
HETATM    7  N7  UNL     1       5.407  17.961   2.908  1.00  0.00    -0.335 N 
ATOM      8  H7  UNL     1       5.793  17.017   2.882  1.00  0.00     0.168 HD
HETATM    9  C6  UNL     1       4.301  18.346   3.574  1.00  0.00     0.209 A 
HETATM   10  N8  UNL     1       4.107  19.664   3.372  1.00  0.00    -0.242 N 
HETATM   11  N10 UNL     1       7.028  19.123   1.492  1.00  0.00    -0.173 N 
ATOM     12  H10 UNL     1       7.602  18.300   1.306  1.00  0.00     0.186 HD
ENDROOT
BRANCH   4  13
HETATM   13  N4  UNL     1       4.775  22.357   2.212  1.00  0.00    -0.325 N 
HETATM   14  C3  UNL     1       4.787  23.337   3.222  1.00  0.00     0.481 C 
HETATM   15  N5  UNL     1       6.060  23.995   3.451  1.00  0.00    -0.033 N 
HETATM   16  N6  UNL     1       3.845  24.395   2.798  1.00  0.00    -0.033 N 
ATOM     17  H53 UNL     1       6.783  23.299   3.634  1.00  0.00     0.278 HD
ATOM     18  H52 UNL     1       6.407  24.392   2.578  1.00  0.00     0.278 HD
ATOM     19  H51 UNL     1       6.069  24.705   4.183  1.00  0.00     0.278 HD
ATOM     20  H63 UNL     1       4.050  24.769   1.871  1.00  0.00     0.278 HD
ATOM     21  H62 UNL     1       2.910  24.042   2.590  1.00  0.00     0.278 HD
ATOM     22  H61 UNL     1       3.853  25.105   3.530  1.00  0.00     0.278 HD
ATOM     23  H4  UNL     1       4.061  22.515   1.501  1.00  0.00     0.165 HD
ENDBRANCH   4  13
BRANCH   1  24
HETATM   24  N2  UNL     1       8.379  20.407   0.229  1.00  0.00    -0.138 N 
ATOM     25  H2  UNL     1       8.873  21.297   0.150  1.00  0.00     0.205 HD
BRANCH  24  26
HETATM   26  N1  UNL     1       8.831  19.294  -0.470  1.00  0.00    -0.331 N 
ATOM     27  H12 UNL     1       8.684  19.246  -1.478  1.00  0.00     0.177 HD
ATOM     28  H11 UNL     1       9.302  18.540   0.031  1.00  0.00     0.177 HD
ENDBRANCH  24  26
ENDBRANCH   1  24
BRANCH  10  29
HETATM   29  N9  UNL     1       3.101  20.470   3.870  1.00  0.00    -0.262 N 
HETATM   30  C7  UNL     1       3.057  20.931   5.207  1.00  0.00     0.246 C 
HETATM   31  O1  UNL     1       3.928  20.638   6.037  1.00  0.00    -0.271 OA
ATOM     32  H9  UNL     1       2.350  20.747   3.240  1.00  0.00     0.190 HD
BRANCH  30  33
HETATM   33  C8  UNL     1       1.926  21.810   5.668  1.00  0.00     0.217 C 
BRANCH  33  34
HETATM   34  C9  UNL     1       1.126  22.291   4.530  1.00  0.00     0.181 C 
HETATM   35  O2  UNL     1       1.385  23.374   3.948  1.00  0.00    -0.648 OA
HETATM   36  O3  UNL     1       0.035  21.530   4.064  1.00  0.00    -0.648 OA
ENDBRANCH  33  34
ENDBRANCH  30  33
ENDBRANCH  10  29
TORSDOF 6
ENDMDL
MODEL 4
REMARK VINA RESULT: -6.582214286      2.236      5.089
REMARK  6 active torsions:
REMARK  status: ('A' for Active; 'I' for Inactive)
REMARK    1  A    between atoms: N1_1  and  N2_4 
REMARK    2  A    between atoms: N2_4  and  C1_6 
REMARK    3  A    between atoms: C2_9  and  N4_10 
REMARK       I    between atoms: N4_10  and  C3_12 
REMARK       I    between atoms: C3_12  and  N5_13 
REMARK       I    between atoms: C3_12  and  N6_17 
REMARK    4  A    between atoms: N8_26  and  N9_27 
REMARK       I    between atoms: N9_27  and  C7_29 
REMARK    5  A    between atoms: C7_29  and  C8_31 
REMARK    6  A    between atoms: C8_31  and  C9_32 
ROOT
HETATM    1  C1  UNL     1       7.538  20.252   0.882  1.00  0.00     0.699 A 
HETATM    2  N3  UNL     1       6.644  21.256   1.124  1.00  0.00    -0.173 N 
ATOM      3  H3  UNL     1       6.809  22.169   0.701  1.00  0.00     0.186 HD
HETATM    4  C2  UNL     1       5.562  21.095   1.890  1.00  0.00     0.152 A 
HETATM    5  C4  UNL     1       5.327  19.868   2.467  1.00  0.00     0.146 A 
HETATM    6  C5  UNL     1       6.244  18.873   2.208  1.00  0.00     0.154 A 
HETATM    7  N7  UNL     1       5.843  17.756   2.857  1.00  0.00    -0.335 N 
ATOM      8  H7  UNL     1       6.323  16.856   2.852  1.00  0.00     0.168 HD
HETATM    9  C6  UNL     1       4.700  18.040   3.512  1.00  0.00     0.209 A 
HETATM   10  N8  UNL     1       4.374  19.327   3.282  1.00  0.00    -0.242 N 
HETATM   11  N10 UNL     1       7.345  19.049   1.424  1.00  0.00    -0.173 N 
ATOM     12  H10 UNL     1       8.001  18.285   1.257  1.00  0.00     0.186 HD
ENDROOT
BRANCH   4  13
HETATM   13  N4  UNL     1       4.771  22.050   2.070  1.00  0.00    -0.325 N 
HETATM   14  C3  UNL     1       4.683  23.051   3.056  1.00  0.00     0.481 C 
HETATM   15  N5  UNL     1       5.882  23.842   3.266  1.00  0.00    -0.033 N 
HETATM   16  N6  UNL     1       3.637  23.996   2.609  1.00  0.00    -0.033 N 
ATOM     17  H53 UNL     1       6.672  23.228   3.464  1.00  0.00     0.278 HD
ATOM     18  H52 UNL     1       6.185  24.251   2.382  1.00  0.00     0.278 HD
ATOM     19  H51 UNL     1       5.818  24.567   3.980  1.00  0.00     0.278 HD
ATOM     20  H63 UNL     1       3.802  24.366   1.673  1.00  0.00     0.278 HD
ATOM     21  H62 UNL     1       2.744  23.544   2.412  1.00  0.00     0.278 HD
ATOM     22  H61 UNL     1       3.573  24.720   3.324  1.00  0.00     0.278 HD
ATOM     23  H4  UNL     1       4.045  22.117   1.357  1.00  0.00     0.165 HD
ENDBRANCH   4  13
BRANCH   1  24
HETATM   24  N2  UNL     1       8.566  20.439   0.140  1.00  0.00    -0.138 N 
ATOM     25  H2  UNL     1       9.040  21.342   0.138  1.00  0.00     0.205 HD
BRANCH  24  26
HETATM   26  N1  UNL     1       9.034  19.403  -0.662  1.00  0.00    -0.331 N 
ATOM     27  H12 UNL     1       8.852  19.431  -1.665  1.00  0.00     0.177 HD
ATOM     28  H11 UNL     1       9.551  18.632  -0.240  1.00  0.00     0.177 HD
ENDBRANCH  24  26
ENDBRANCH   1  24
BRANCH  10  29
HETATM   29  N9  UNL     1       3.289  20.036   3.761  1.00  0.00    -0.262 N 
HETATM   30  C7  UNL     1       2.015  20.030   3.145  1.00  0.00     0.246 C 
HETATM   31  O1  UNL     1       1.781  19.381   2.116  1.00  0.00    -0.271 OA
ATOM     32  H9  UNL     1       3.414  20.595   4.605  1.00  0.00     0.190 HD
BRANCH  30  33
HETATM   33  C8  UNL     1       0.885  20.828   3.735  1.00  0.00     0.217 C 
BRANCH  33  34
HETATM   34  C9  UNL     1       1.389  21.937   4.562  1.00  0.00     0.181 C 
HETATM   35  O2  UNL     1       1.322  23.132   4.180  1.00  0.00    -0.648 OA
HETATM   36  O3  UNL     1       1.967  21.672   5.819  1.00  0.00    -0.648 OA
ENDBRANCH  33  34
ENDBRANCH  30  33
ENDBRANCH  10  29
TORSDOF 6
ENDMDL
MODEL 5
REMARK VINA RESULT: -6.455577582      1.501      2.379
REMARK  6 active torsions:
REMARK  status: ('A' for Active; 'I' for Inactive)
REMARK    1  A    between atoms: N1_1  and  N2_4 
REMARK    2  A    between atoms: N2_4  and  C1_6 
REMARK    3  A    between atoms: C2_9  and  N4_10 
REMARK       I    between atoms: N4_10  and  C3_12 
REMARK       I    between atoms: C3_12  and  N5_13 
REMARK       I    between atoms: C3_12  and  N6_17 
REMARK    4  A    between atoms: N8_26  and  N9_27 
REMARK       I    between atoms: N9_27  and  C7_29 
REMARK    5  A    between atoms: C7_29  and  C8_31 
REMARK    6  A    between atoms: C8_31  and  C9_32 
ROOT
HETATM    1  C1  UNL     1       5.193  23.344   3.451  1.00  0.00     0.699 A 
HETATM    2  N3  UNL     1       5.582  22.382   2.563  1.00  0.00    -0.173 N 
ATOM      3  H3  UNL     1       6.465  22.504   2.067  1.00  0.00     0.186 HD
HETATM    4  C2  UNL     1       4.856  21.289   2.314  1.00  0.00     0.152 A 
HETATM    5  C4  UNL     1       3.663  21.112   2.975  1.00  0.00     0.146 A 
HETATM    6  C5  UNL     1       3.294  22.098   3.865  1.00  0.00     0.154 A 
HETATM    7  N7  UNL     1       2.105  21.747   4.407  1.00  0.00    -0.335 N 
ATOM      8  H7  UNL     1       1.582  22.282   5.100  1.00  0.00     0.168 HD
HETATM    9  C6  UNL     1       1.732  20.568   3.871  1.00  0.00     0.209 A 
HETATM   10  N8  UNL     1       2.675  20.170   2.994  1.00  0.00    -0.242 N 
HETATM   11  N10 UNL     1       4.042  23.210   4.111  1.00  0.00    -0.173 N 
ATOM     12  H10 UNL     1       3.733  23.917   4.779  1.00  0.00     0.186 HD
ENDROOT
BRANCH   4  13
HETATM   13  N4  UNL     1       5.268  20.435   1.494  1.00  0.00    -0.325 N 
HETATM   14  C3  UNL     1       6.530  19.855   1.263  1.00  0.00     0.481 C 
HETATM   15  N5  UNL     1       7.161  19.235   2.413  1.00  0.00    -0.033 N 
HETATM   16  N6  UNL     1       6.325  18.776   0.272  1.00  0.00    -0.033 N 
ATOM     17  H53 UNL     1       7.223  19.906   3.179  1.00  0.00     0.278 HD
ATOM     18  H52 UNL     1       6.532  18.546   2.825  1.00  0.00     0.278 HD
ATOM     19  H51 UNL     1       8.075  18.815   2.246  1.00  0.00     0.278 HD
ATOM     20  H63 UNL     1       5.615  18.100   0.554  1.00  0.00     0.278 HD
ATOM     21  H62 UNL     1       5.866  19.096  -0.581  1.00  0.00     0.278 HD
ATOM     22  H61 UNL     1       7.239  18.356   0.105  1.00  0.00     0.278 HD
ATOM     23  H4  UNL     1       4.541  20.091   0.866  1.00  0.00     0.165 HD
ENDBRANCH   4  13
BRANCH   1  24
HETATM   24  N2  UNL     1       5.914  24.382   3.668  1.00  0.00    -0.138 N 
ATOM     25  H2  UNL     1       6.894  24.393   3.387  1.00  0.00     0.205 HD
BRANCH  24  26
HETATM   26  N1  UNL     1       5.352  25.493   4.289  1.00  0.00    -0.331 N 
ATOM     27  H12 UNL     1       4.898  26.205   3.718  1.00  0.00     0.177 HD
ATOM     28  H11 UNL     1       5.400  25.582   5.304  1.00  0.00     0.177 HD
ENDBRANCH  24  26
ENDBRANCH   1  24
BRANCH  10  29
HETATM   29  N9  UNL     1       2.696  19.029   2.216  1.00  0.00    -0.262 N 
HETATM   30  C7  UNL     1       3.559  17.933   2.455  1.00  0.00     0.246 C 
HETATM   31  O1  UNL     1       4.371  17.923   3.390  1.00  0.00    -0.271 OA
ATOM     32  H9  UNL     1       2.053  18.973   1.427  1.00  0.00     0.190 HD
BRANCH  30  33
HETATM   33  C8  UNL     1       3.514  16.725   1.560  1.00  0.00     0.217 C 
BRANCH  33  34
HETATM   34  C9  UNL     1       3.126  17.091   0.188  1.00  0.00     0.181 C 
HETATM   35  O2  UNL     1       2.423  16.333  -0.527  1.00  0.00    -0.648 OA
HETATM   36  O3  UNL     1       3.543  18.321  -0.357  1.00  0.00    -0.648 OA
ENDBRANCH  33  34
ENDBRANCH  30  33
ENDBRANCH  10  29
TORSDOF 6
ENDMDL
