MODEL 1
REMARK VINA RESULT: -6.556777718      0.000      0.000
REMARK  7 active torsions:
REMARK  status: ('A' for Active; 'I' for Inactive)
REMARK    1  A    between atoms: N1_2  and  N2_3 
REMARK       I    between atoms: N1_2  and  C9_29 
REMARK    2  A    between atoms: N2_3  and  C2_5 
REMARK    3  A    between atoms: C4_9  and  N4_10 
REMARK    4  A    between atoms: N7_19  and  C7_20 
REMARK    5  A    between atoms: C7_20  and  C8_21 
REMARK       I    between atoms: C8_21  and  N8_23 
REMARK    6  A    between atoms: N8_23  and  N9_25 
REMARK    7  A    between atoms: N9_25  and  N10_26 
ROOT
HETATM    1  C2  UNL     1       4.828  21.006   2.368  1.00  0.00     0.702 A 
HETATM    2  N3  UNL     1       5.888  21.610   1.801  1.00  0.00    -0.183 N 
ATOM      3  H3  UNL     1       6.053  22.616   1.800  1.00  0.00     0.184 HD
HETATM    4  C3  UNL     1       6.695  20.701   1.237  1.00  0.00     0.137 A 
HETATM    5  C4  UNL     1       7.876  20.741   0.542  1.00  0.00     0.131 A 
HETATM    6  N5  UNL     1       8.421  19.615   0.114  1.00  0.00    -0.337 N 
ATOM      7  H5  UNL     1       9.301  19.645  -0.402  1.00  0.00     0.168 HD
HETATM    8  C5  UNL     1       7.829  18.433   0.350  1.00  0.00     0.183 A 
HETATM    9  N6  UNL     1       6.665  18.353   1.029  1.00  0.00    -0.336 N 
ATOM     10  H6  UNL     1       6.234  17.445   1.196  1.00  0.00     0.168 HD
HETATM   11  C6  UNL     1       6.077  19.469   1.484  1.00  0.00     0.156 A 
HETATM   12  N7  UNL     1       4.945  19.684   2.172  1.00  0.00    -0.155 N 
ENDROOT
BRANCH  12  13
HETATM   13  C7  UNL     1       4.049  18.649   2.617  1.00  0.00     0.253 C 
BRANCH  13  14
HETATM   14  C8  UNL     1       2.864  18.510   1.774  1.00  0.00     0.253 C 
HETATM   15  O1  UNL     1       1.869  19.286   1.969  1.00  0.00    -0.270 OA
HETATM   16  N8  UNL     1       2.764  17.546   0.738  1.00  0.00    -0.253 N 
ATOM     17  H8  UNL     1       3.550  16.919   0.567  1.00  0.00     0.187 HD
BRANCH  16  18
HETATM   18  N9  UNL     1       1.611  17.432  -0.059  1.00  0.00    -0.027 NA
BRANCH  18  19
HETATM   19  N10 UNL     1       1.513  18.446  -0.993  1.00  0.00    -0.329 N 
ATOM     20 2H10 UNL     1       1.248  19.400  -0.749  1.00  0.00     0.174 HD
ATOM     21 1H10 UNL     1       1.734  18.128  -1.937  1.00  0.00     0.174 HD
ENDBRANCH  18  19
ENDBRANCH  16  18
ENDBRANCH  13  14
ENDBRANCH  12  13
BRANCH   1  22
HETATM   22  N2  UNL     1       3.827  21.743   3.043  1.00  0.00    -0.126 N 
ATOM     23  H2  UNL     1       2.852  21.455   2.946  1.00  0.00     0.206 HD
BRANCH  22  24
HETATM   24  N1  UNL     1       4.128  22.853   3.839  1.00  0.00    -0.235 N 
HETATM   25  C1  UNL     1       4.469  22.678   5.254  1.00  0.00     0.183 C 
HETATM   26  C9  UNL     1       4.079  24.144   3.247  1.00  0.00     0.349 C 
HETATM   27  N11 UNL     1       4.345  25.319   3.996  1.00  0.00    -0.038 NA
HETATM   28  O2  UNL     1       3.798  24.295   2.033  1.00  0.00    -0.249 OA
ENDBRANCH  22  24
ENDBRANCH   1  22
BRANCH   5  29
HETATM   29  N4  UNL     1       8.403  21.909   0.347  1.00  0.00    -0.383 N 
ATOM     30  H42 UNL     1       8.121  22.746   0.859  1.00  0.00     0.157 HD
ATOM     31  H41 UNL     1       9.134  21.974  -0.362  1.00  0.00     0.157 HD
ENDBRANCH   5  29
TORSDOF 7
ENDMDL
MODEL 2
REMARK VINA RESULT: -6.532999998      1.664      4.856
REMARK  7 active torsions:
REMARK  status: ('A' for Active; 'I' for Inactive)
REMARK    1  A    between atoms: N1_2  and  N2_3 
REMARK       I    between atoms: N1_2  and  C9_29 
REMARK    2  A    between atoms: N2_3  and  C2_5 
REMARK    3  A    between atoms: C4_9  and  N4_10 
REMARK    4  A    between atoms: N7_19  and  C7_20 
REMARK    5  A    between atoms: C7_20  and  C8_21 
REMARK       I    between atoms: C8_21  and  N8_23 
REMARK    6  A    between atoms: N8_23  and  N9_25 
REMARK    7  A    between atoms: N9_25  and  N10_26 
ROOT
HETATM    1  C2  UNL     1       5.148  21.191   2.254  1.00  0.00     0.702 A 
HETATM    2  N3  UNL     1       5.465  22.480   2.471  1.00  0.00    -0.183 N 
ATOM      3  H3  UNL     1       6.005  23.063   1.831  1.00  0.00     0.184 HD
HETATM    4  C3  UNL     1       4.970  22.890   3.646  1.00  0.00     0.137 A 
HETATM    5  C4  UNL     1       4.983  24.062   4.357  1.00  0.00     0.131 A 
HETATM    6  N5  UNL     1       4.372  24.124   5.528  1.00  0.00    -0.337 N 
ATOM      7  H5  UNL     1       4.382  24.996   6.056  1.00  0.00     0.168 HD
HETATM    8  C5  UNL     1       3.740  23.050   6.030  1.00  0.00     0.183 A 
HETATM    9  N6  UNL     1       3.706  21.879   5.360  1.00  0.00    -0.336 N 
ATOM     10  H6  UNL     1       3.221  21.076   5.761  1.00  0.00     0.168 HD
HETATM   11  C6  UNL     1       4.311  21.770   4.168  1.00  0.00     0.156 A 
HETATM   12  N7  UNL     1       4.436  20.752   3.302  1.00  0.00    -0.155 N 
ENDROOT
BRANCH  12  13
HETATM   13  C7  UNL     1       3.874  19.441   3.493  1.00  0.00     0.253 C 
BRANCH  13  14
HETATM   14  C8  UNL     1       2.823  19.118   2.531  1.00  0.00     0.253 C 
HETATM   15  O1  UNL     1       1.755  19.818   2.521  1.00  0.00    -0.270 OA
HETATM   16  N8  UNL     1       2.933  18.055   1.598  1.00  0.00    -0.253 N 
ATOM     17  H8  UNL     1       3.779  17.487   1.590  1.00  0.00     0.187 HD
BRANCH  16  18
HETATM   18  N9  UNL     1       1.906  17.764   0.682  1.00  0.00    -0.027 NA
BRANCH  18  19
HETATM   19  N10 UNL     1       1.821  18.700  -0.331  1.00  0.00    -0.329 N 
ATOM     20 2H10 UNL     1       1.957  19.699  -0.175  1.00  0.00     0.174 HD
ATOM     21 1H10 UNL     1       1.609  18.278  -1.234  1.00  0.00     0.174 HD
ENDBRANCH  18  19
ENDBRANCH  16  18
ENDBRANCH  13  14
ENDBRANCH  12  13
BRANCH   1  22
HETATM   22  N2  UNL     1       5.543  20.518   1.073  1.00  0.00    -0.126 N 
ATOM     23  H2  UNL     1       4.871  20.423   0.312  1.00  0.00     0.206 HD
BRANCH  22  24
HETATM   24  N1  UNL     1       6.824  19.978   0.917  1.00  0.00    -0.235 N 
HETATM   25  C1  UNL     1       7.950  20.840   0.546  1.00  0.00     0.183 C 
HETATM   26  C9  UNL     1       6.998  18.581   1.109  1.00  0.00     0.349 C 
HETATM   27  N11 UNL     1       8.261  17.955   0.941  1.00  0.00    -0.038 NA
HETATM   28  O2  UNL     1       6.038  17.842   1.437  1.00  0.00    -0.249 OA
ENDBRANCH  22  24
ENDBRANCH   1  22
BRANCH   5  29
HETATM   29  N4  UNL     1       5.605  25.065   3.822  1.00  0.00    -0.383 N 
ATOM     30  H42 UNL     1       6.584  25.032   3.534  1.00  0.00     0.157 HD
ATOM     31  H41 UNL     1       5.072  25.926   3.696  1.00  0.00     0.157 HD
ENDBRANCH   5  29
TORSDOF 7
ENDMDL
MODEL 3
REMARK VINA RESULT: -6.527380127      2.515      6.639
REMARK  7 active torsions:
REMARK  status: ('A' for Active; 'I' for Inactive)
REMARK    1  A    between atoms: N1_2  and  N2_3 
REMARK       I    between atoms: N1_2  and  C9_29 
REMARK    2  A    between atoms: N2_3  and  C2_5 
REMARK    3  A    between atoms: C4_9  and  N4_10 
REMARK    4  A    between atoms: N7_19  and  C7_20 
REMARK    5  A    between atoms: C7_20  and  C8_21 
REMARK       I    between atoms: C8_21  and  N8_23 
REMARK    6  A    between atoms: N8_23  and  N9_25 
REMARK    7  A    between atoms: N9_25  and  N10_26 
ROOT
HETATM    1  C2  UNL     1       3.713  21.077   3.615  1.00  0.00     0.702 A 
HETATM    2  N3  UNL     1       2.727  20.467   4.297  1.00  0.00    -0.183 N 
ATOM      3  H3  UNL     1       2.219  19.643   3.975  1.00  0.00     0.184 HD
HETATM    4  C3  UNL     1       2.507  21.096   5.459  1.00  0.00     0.137 A 
HETATM    5  C4  UNL     1       1.652  20.923   6.517  1.00  0.00     0.131 A 
HETATM    6  N5  UNL     1       1.703  21.757   7.542  1.00  0.00    -0.337 N 
ATOM      7  H5  UNL     1       1.068  21.628   8.330  1.00  0.00     0.168 HD
HETATM    8  C5  UNL     1       2.582  22.772   7.558  1.00  0.00     0.183 A 
HETATM    9  N6  UNL     1       3.439  22.976   6.535  1.00  0.00    -0.336 N 
ATOM     10  H6  UNL     1       4.097  23.753   6.568  1.00  0.00     0.168 HD
HETATM   11  C6  UNL     1       3.424  22.155   5.474  1.00  0.00     0.156 A 
HETATM   12  N7  UNL     1       4.143  22.119   4.342  1.00  0.00    -0.155 N 
ENDROOT
BRANCH  12  13
HETATM   13  C7  UNL     1       5.195  23.045   4.011  1.00  0.00     0.253 C 
BRANCH  13  14
HETATM   14  C8  UNL     1       4.707  24.270   3.381  1.00  0.00     0.253 C 
HETATM   15  O1  UNL     1       5.220  25.389   3.720  1.00  0.00    -0.270 OA
HETATM   16  N8  UNL     1       3.682  24.276   2.401  1.00  0.00    -0.253 N 
ATOM     17  H8  UNL     1       3.262  23.391   2.116  1.00  0.00     0.187 HD
BRANCH  16  18
HETATM   18  N9  UNL     1       3.229  25.469   1.810  1.00  0.00    -0.027 NA
BRANCH  18  19
HETATM   19  N10 UNL     1       2.789  26.387   2.744  1.00  0.00    -0.329 N 
ATOM     20 2H10 UNL     1       3.052  27.372   2.719  1.00  0.00     0.174 HD
ATOM     21 1H10 UNL     1       2.183  25.966   3.448  1.00  0.00     0.174 HD
ENDBRANCH  18  19
ENDBRANCH  16  18
ENDBRANCH  13  14
ENDBRANCH  12  13
BRANCH   1  22
HETATM   22  N2  UNL     1       4.149  20.602   2.356  1.00  0.00    -0.126 N 
ATOM     23  H2  UNL     1       3.568  20.774   1.535  1.00  0.00     0.206 HD
BRANCH  22  24
HETATM   24  N1  UNL     1       5.351  19.903   2.199  1.00  0.00    -0.235 N 
HETATM   25  C1  UNL     1       5.522  18.579   2.805  1.00  0.00     0.183 C 
HETATM   26  C9  UNL     1       6.398  20.515   1.457  1.00  0.00     0.349 C 
HETATM   27  N11 UNL     1       7.655  19.881   1.279  1.00  0.00    -0.038 NA
HETATM   28  O2  UNL     1       6.251  21.644   0.929  1.00  0.00    -0.249 OA
ENDBRANCH  22  24
ENDBRANCH   1  22
BRANCH   5  29
HETATM   29  N4  UNL     1       0.828  19.925   6.449  1.00  0.00    -0.383 N 
ATOM     30  H42 UNL     1       0.032  19.896   5.811  1.00  0.00     0.157 HD
ATOM     31  H41 UNL     1       1.000  19.140   7.078  1.00  0.00     0.157 HD
ENDBRANCH   5  29
TORSDOF 7
ENDMDL
MODEL 4
REMARK VINA RESULT: -6.524825415      2.438      3.807
REMARK  7 active torsions:
REMARK  status: ('A' for Active; 'I' for Inactive)
REMARK    1  A    between atoms: N1_2  and  N2_3 
REMARK       I    between atoms: N1_2  and  C9_29 
REMARK    2  A    between atoms: N2_3  and  C2_5 
REMARK    3  A    between atoms: C4_9  and  N4_10 
REMARK    4  A    between atoms: N7_19  and  C7_20 
REMARK    5  A    between atoms: C7_20  and  C8_21 
REMARK       I    between atoms: C8_21  and  N8_23 
REMARK    6  A    between atoms: N8_23  and  N9_25 
REMARK    7  A    between atoms: N9_25  and  N10_26 
ROOT
HETATM    1  C2  UNL     1       4.876  21.969   2.185  1.00  0.00     0.702 A 
HETATM    2  N3  UNL     1       5.984  21.731   1.460  1.00  0.00    -0.183 N 
ATOM      3  H3  UNL     1       6.447  22.415   0.862  1.00  0.00     0.184 HD
HETATM    4  C3  UNL     1       6.392  20.467   1.634  1.00  0.00     0.137 A 
HETATM    5  C4  UNL     1       7.423  19.699   1.161  1.00  0.00     0.131 A 
HETATM    6  N5  UNL     1       7.535  18.441   1.552  1.00  0.00    -0.337 N 
ATOM      7  H5  UNL     1       8.304  17.869   1.201  1.00  0.00     0.168 HD
HETATM    8  C5  UNL     1       6.648  17.906   2.407  1.00  0.00     0.183 A 
HETATM    9  N6  UNL     1       5.618  18.630   2.894  1.00  0.00    -0.336 N 
ATOM     10  H6  UNL     1       4.956  18.203   3.542  1.00  0.00     0.168 HD
HETATM   11  C6  UNL     1       5.465  19.910   2.526  1.00  0.00     0.156 A 
HETATM   12  N7  UNL     1       4.556  20.845   2.844  1.00  0.00    -0.155 N 
ENDROOT
BRANCH  12  13
HETATM   13  C7  UNL     1       3.456  20.643   3.749  1.00  0.00     0.253 C 
BRANCH  13  14
HETATM   14  C8  UNL     1       3.854  20.666   5.155  1.00  0.00     0.253 C 
HETATM   15  O1  UNL     1       3.433  19.747   5.935  1.00  0.00    -0.270 OA
HETATM   16  N8  UNL     1       4.695  21.670   5.700  1.00  0.00    -0.253 N 
ATOM     17  H8  UNL     1       5.042  22.411   5.092  1.00  0.00     0.187 HD
BRANCH  16  18
HETATM   18  N9  UNL     1       5.063  21.670   7.057  1.00  0.00    -0.027 NA
BRANCH  18  19
HETATM   19  N10 UNL     1       6.359  22.107   7.252  1.00  0.00    -0.329 N 
ATOM     20 2H10 UNL     1       7.144  21.469   7.384  1.00  0.00     0.174 HD
ATOM     21 1H10 UNL     1       6.432  23.124   7.249  1.00  0.00     0.174 HD
ENDBRANCH  18  19
ENDBRANCH  16  18
ENDBRANCH  13  14
ENDBRANCH  12  13
BRANCH   1  22
HETATM   22  N2  UNL     1       4.248  23.237   2.187  1.00  0.00    -0.126 N 
ATOM     23  H2  UNL     1       3.774  23.554   1.340  1.00  0.00     0.206 HD
BRANCH  22  24
HETATM   24  N1  UNL     1       4.257  24.071   3.310  1.00  0.00    -0.235 N 
HETATM   25  C1  UNL     1       5.515  24.638   3.801  1.00  0.00     0.183 C 
HETATM   26  C9  UNL     1       3.023  24.337   3.965  1.00  0.00     0.349 C 
HETATM   27  N11 UNL     1       2.954  25.149   5.126  1.00  0.00    -0.038 NA
HETATM   28  O2  UNL     1       1.942  23.860   3.540  1.00  0.00    -0.249 OA
ENDBRANCH  22  24
ENDBRANCH   1  22
BRANCH   5  29
HETATM   29  N4  UNL     1       8.251  20.268   0.342  1.00  0.00    -0.383 N 
ATOM     30  H42 UNL     1       8.474  21.263   0.369  1.00  0.00     0.157 HD
ATOM     31  H41 UNL     1       8.687  19.672  -0.363  1.00  0.00     0.157 HD
ENDBRANCH   5  29
TORSDOF 7
ENDMDL
MODEL 5
REMARK VINA RESULT: -6.521260461      2.492      6.391
REMARK  7 active torsions:
REMARK  status: ('A' for Active; 'I' for Inactive)
REMARK    1  A    between atoms: N1_2  and  N2_3 
REMARK       I    between atoms: N1_2  and  C9_29 
REMARK    2  A    between atoms: N2_3  and  C2_5 
REMARK    3  A    between atoms: C4_9  and  N4_10 
REMARK    4  A    between atoms: N7_19  and  C7_20 
REMARK    5  A    between atoms: C7_20  and  C8_21 
REMARK       I    between atoms: C8_21  and  N8_23 
REMARK    6  A    between atoms: N8_23  and  N9_25 
REMARK    7  A    between atoms: N9_25  and  N10_26 
ROOT
HETATM    1  C2  UNL     1       4.433  20.011   3.431  1.00  0.00     0.702 A 
HETATM    2  N3  UNL     1       3.507  19.354   2.708  1.00  0.00    -0.183 N 
ATOM      3  H3  UNL     1       3.714  18.677   1.974  1.00  0.00     0.184 HD
HETATM    4  C3  UNL     1       2.275  19.717   3.089  1.00  0.00     0.137 A 
HETATM    5  C4  UNL     1       0.999  19.386   2.713  1.00  0.00     0.131 A 
HETATM    6  N5  UNL     1      -0.029  19.953   3.321  1.00  0.00    -0.337 N 
ATOM      7  H5  UNL     1      -0.979  19.706   3.042  1.00  0.00     0.168 HD
HETATM    8  C5  UNL     1       0.162  20.851   4.301  1.00  0.00     0.183 A 
HETATM    9  N6  UNL     1       1.403  21.204   4.698  1.00  0.00    -0.336 N 
ATOM     10  H6  UNL     1       1.525  21.888   5.444  1.00  0.00     0.168 HD
HETATM   11  C6  UNL     1       2.476  20.654   4.111  1.00  0.00     0.156 A 
HETATM   12  N7  UNL     1       3.796  20.813   4.298  1.00  0.00    -0.155 N 
ENDROOT
BRANCH  12  13
HETATM   13  C7  UNL     1       4.384  21.688   5.277  1.00  0.00     0.253 C 
BRANCH  13  14
HETATM   14  C8  UNL     1       4.381  23.092   4.872  1.00  0.00     0.253 C 
HETATM   15  O1  UNL     1       3.372  23.819   5.161  1.00  0.00    -0.270 OA
HETATM   16  N8  UNL     1       5.455  23.693   4.168  1.00  0.00    -0.253 N 
ATOM     17  H8  UNL     1       6.271  23.128   3.930  1.00  0.00     0.187 HD
BRANCH  16  18
HETATM   18  N9  UNL     1       5.427  25.046   3.788  1.00  0.00    -0.027 NA
BRANCH  18  19
HETATM   19  N10 UNL     1       4.322  25.356   3.019  1.00  0.00    -0.329 N 
ATOM     20 2H10 UNL     1       3.400  24.955   3.188  1.00  0.00     0.174 HD
ATOM     21 1H10 UNL     1       4.539  26.020   2.276  1.00  0.00     0.174 HD
ENDBRANCH  18  19
ENDBRANCH  16  18
ENDBRANCH  13  14
ENDBRANCH  12  13
BRANCH   1  22
HETATM   22  N2  UNL     1       5.817  19.799   3.233  1.00  0.00    -0.126 N 
ATOM     23  H2  UNL     1       6.373  19.419   4.000  1.00  0.00     0.206 HD
BRANCH  22  24
HETATM   24  N1  UNL     1       6.450  20.093   2.020  1.00  0.00    -0.235 N 
HETATM   25  C1  UNL     1       6.020  21.244   1.222  1.00  0.00     0.183 C 
HETATM   26  C9  UNL     1       7.499  19.241   1.581  1.00  0.00     0.349 C 
HETATM   27  N11 UNL     1       8.169  19.457   0.348  1.00  0.00    -0.038 NA
HETATM   28  O2  UNL     1       7.875  18.260   2.267  1.00  0.00    -0.249 OA
ENDBRANCH  22  24
ENDBRANCH   1  22
BRANCH   5  29
HETATM   29  N4  UNL     1       0.875  18.511   1.765  1.00  0.00    -0.383 N 
ATOM     30  H42 UNL     1       1.145  18.689   0.797  1.00  0.00     0.157 HD
ATOM     31  H41 UNL     1       0.480  17.606   2.020  1.00  0.00     0.157 HD
ENDBRANCH   5  29
TORSDOF 7
ENDMDL
