MODEL 1
REMARK VINA RESULT: -8.005178897      0.000      0.000
REMARK  6 active torsions:
REMARK  status: ('A' for Active; 'I' for Inactive)
REMARK       I    between atoms: C1_4  and  N2_5 
REMARK       I    between atoms: C1_4  and  N4_10 
REMARK    1  A    between atoms: N2_5  and  N3_7 
REMARK    2  A    between atoms: N4_10  and  C2_12 
REMARK    3  A    between atoms: C2_12  and  C3_13 
REMARK       I    between atoms: C3_13  and  N5_15 
REMARK    4  A    between atoms: N5_15  and  N6_17 
REMARK    5  A    between atoms: C4_19  and  C5_20 
REMARK    6  A    between atoms: C7_29  and  N10_30 
ROOT
HETATM    1  C3  UNL     1      75.287  14.706  13.947  1.00  0.00     0.254 C 
HETATM    2  O1  UNL     1      75.803  15.871  14.082  1.00  0.00    -0.270 OA
HETATM    3  N5  UNL     1      76.019  13.610  14.408  1.00  0.00    -0.269 N 
ATOM      4  H5  UNL     1      75.623  12.676  14.309  1.00  0.00     0.190 HD
ENDROOT
BRANCH   3   5
HETATM    5  N6  UNL     1      77.277  13.752  15.002  1.00  0.00    -0.307 N 
HETATM    6  C4  UNL     1      77.461  13.792  16.266  1.00  0.00     0.141 C 
ATOM      7  H6  UNL     1      78.092  13.828  14.393  1.00  0.00     0.186 HD
BRANCH   6   8
HETATM    8  C5  UNL     1      78.719  13.935  16.953  1.00  0.00     0.105 A 
HETATM    9  N7  UNL     1      79.898  13.903  16.270  1.00  0.00    -0.282 N 
HETATM   10  N8  UNL     1      81.077  14.007  16.823  1.00  0.00    -0.239 N 
ATOM     11  H7  UNL     1      79.858  13.790  15.257  1.00  0.00     0.188 HD
HETATM   12  N9  UNL     1      81.212  14.154  18.112  1.00  0.00    -0.250 N 
ATOM     13  H8  UNL     1      81.910  13.972  16.236  1.00  0.00     0.208 HD
HETATM   14  C6  UNL     1      80.127  14.199  18.880  1.00  0.00     0.296 A 
ATOM     15  H9  UNL     1      82.140  14.235  18.526  1.00  0.00     0.192 HD
HETATM   16  O2  UNL     1      80.284  14.342  20.127  1.00  0.00    -0.264 OA
HETATM   17  C7  UNL     1      78.839  14.093  18.332  1.00  0.00     0.201 A 
BRANCH  17  18
HETATM   18  N10 UNL     1      77.715  14.144  19.161  1.00  0.00    -0.107 N 
HETATM   19  O3  UNL     1      77.139  15.217  19.373  1.00  0.00    -0.531 OA
HETATM   20  O4  UNL     1      77.254  13.008  19.760  1.00  0.00    -0.531 OA
ENDBRANCH  17  18
ENDBRANCH   6   8
ENDBRANCH   3   5
BRANCH   1  21
HETATM   21  C2  UNL     1      73.970  14.678  13.316  1.00  0.00     0.242 C 
BRANCH  21  22
HETATM   22  N4  UNL     1      73.062  13.685  13.794  1.00  0.00    -0.216 N 
HETATM   23  C1  UNL     1      72.812  12.527  13.018  1.00  0.00     0.686 C 
HETATM   24  N1  UNL     1      72.609  12.641  11.749  1.00  0.00    -0.234 N 
HETATM   25  N2  UNL     1      72.767  11.226  13.545  1.00  0.00    -0.139 N 
ATOM     26  H12 UNL     1      72.429  11.807  11.190  1.00  0.00     0.174 HD
ATOM     27  H11 UNL     1      72.642  13.586  11.367  1.00  0.00     0.174 HD
ATOM     28  H2  UNL     1      72.002  10.955  14.164  1.00  0.00     0.205 HD
ATOM     29  H4  UNL     1      72.595  13.809  14.692  1.00  0.00     0.178 HD
BRANCH  25  30
HETATM   30  N3  UNL     1      73.755  10.308  13.229  1.00  0.00    -0.331 N 
ATOM     31  H32 UNL     1      74.278   9.867  13.986  1.00  0.00     0.177 HD
ATOM     32  H31 UNL     1      73.953  10.081  12.254  1.00  0.00     0.177 HD
ENDBRANCH  25  30
ENDBRANCH  21  22
ENDBRANCH   1  21
TORSDOF 6
ENDMDL
MODEL 2
REMARK VINA RESULT: -7.901357148      1.493      2.066
REMARK  6 active torsions:
REMARK  status: ('A' for Active; 'I' for Inactive)
REMARK       I    between atoms: C1_4  and  N2_5 
REMARK       I    between atoms: C1_4  and  N4_10 
REMARK    1  A    between atoms: N2_5  and  N3_7 
REMARK    2  A    between atoms: N4_10  and  C2_12 
REMARK    3  A    between atoms: C2_12  and  C3_13 
REMARK       I    between atoms: C3_13  and  N5_15 
REMARK    4  A    between atoms: N5_15  and  N6_17 
REMARK    5  A    between atoms: C4_19  and  C5_20 
REMARK    6  A    between atoms: C7_29  and  N10_30 
ROOT
HETATM    1  C3  UNL     1      75.093  12.700  14.163  1.00  0.00     0.254 C 
HETATM    2  O1  UNL     1      76.095  13.014  13.430  1.00  0.00    -0.270 OA
HETATM    3  N5  UNL     1      75.325  12.460  15.520  1.00  0.00    -0.269 N 
ATOM      4  H5  UNL     1      74.538  12.209  16.117  1.00  0.00     0.190 HD
ENDROOT
BRANCH   3   5
HETATM    5  N6  UNL     1      76.600  12.554  16.084  1.00  0.00    -0.307 N 
HETATM    6  C4  UNL     1      77.174  13.664  16.353  1.00  0.00     0.141 C 
ATOM      7  H6  UNL     1      77.100  11.689  16.292  1.00  0.00     0.186 HD
BRANCH   6   8
HETATM    8  C5  UNL     1      78.480  13.845  16.932  1.00  0.00     0.105 A 
HETATM    9  N7  UNL     1      79.602  13.799  16.158  1.00  0.00    -0.282 N 
HETATM   10  N8  UNL     1      80.820  13.934  16.612  1.00  0.00    -0.239 N 
ATOM     11  H7  UNL     1      79.482  13.648  15.156  1.00  0.00     0.188 HD
HETATM   12  N9  UNL     1      81.055  14.131  17.879  1.00  0.00    -0.250 N 
ATOM     13  H8  UNL     1      81.604  13.885  15.961  1.00  0.00     0.208 HD
HETATM   14  C6  UNL     1      80.035  14.195  18.729  1.00  0.00     0.296 A 
ATOM     15  H9  UNL     1      82.012  14.236  18.214  1.00  0.00     0.192 HD
HETATM   16  O2  UNL     1      80.288  14.386  19.953  1.00  0.00    -0.264 OA
HETATM   17  C7  UNL     1      78.708  14.056  18.290  1.00  0.00     0.201 A 
BRANCH  17  18
HETATM   18  N10 UNL     1      77.653  14.127  19.203  1.00  0.00    -0.107 N 
HETATM   19  O3  UNL     1      77.093  15.204  19.434  1.00  0.00    -0.531 OA
HETATM   20  O4  UNL     1      77.243  13.006  19.866  1.00  0.00    -0.531 OA
ENDBRANCH  17  18
ENDBRANCH   6   8
ENDBRANCH   3   5
BRANCH   1  21
HETATM   21  C2  UNL     1      73.810  12.634  13.468  1.00  0.00     0.242 C 
BRANCH  21  22
HETATM   22  N4  UNL     1      73.138  13.877  13.265  1.00  0.00    -0.216 N 
HETATM   23  C1  UNL     1      73.288  14.567  12.037  1.00  0.00     0.686 C 
HETATM   24  N1  UNL     1      74.460  14.684  11.510  1.00  0.00    -0.234 N 
HETATM   25  N2  UNL     1      72.223  15.151  11.331  1.00  0.00    -0.139 N 
ATOM     26  H12 UNL     1      74.568  15.180  10.626  1.00  0.00     0.174 HD
ATOM     27  H11 UNL     1      75.233  14.260  12.023  1.00  0.00     0.174 HD
ATOM     28  H2  UNL     1      71.749  15.970  11.714  1.00  0.00     0.205 HD
ATOM     29  H4  UNL     1      72.551  14.268  14.002  1.00  0.00     0.178 HD
BRANCH  25  30
HETATM   30  N3  UNL     1      71.813  14.621  10.119  1.00  0.00    -0.331 N 
ATOM     31  H32 UNL     1      71.398  13.689  10.105  1.00  0.00     0.177 HD
ATOM     32  H31 UNL     1      71.925  15.157   9.258  1.00  0.00     0.177 HD
ENDBRANCH  25  30
ENDBRANCH  21  22
ENDBRANCH   1  21
TORSDOF 6
ENDMDL
MODEL 3
REMARK VINA RESULT: -7.885329601      2.155      7.808
REMARK  6 active torsions:
REMARK  status: ('A' for Active; 'I' for Inactive)
REMARK       I    between atoms: C1_4  and  N2_5 
REMARK       I    between atoms: C1_4  and  N4_10 
REMARK    1  A    between atoms: N2_5  and  N3_7 
REMARK    2  A    between atoms: N4_10  and  C2_12 
REMARK    3  A    between atoms: C2_12  and  C3_13 
REMARK       I    between atoms: C3_13  and  N5_15 
REMARK    4  A    between atoms: N5_15  and  N6_17 
REMARK    5  A    between atoms: C4_19  and  C5_20 
REMARK    6  A    between atoms: C7_29  and  N10_30 
ROOT
HETATM    1  C3  UNL     1      76.636  13.927  17.447  1.00  0.00     0.254 C 
HETATM    2  O1  UNL     1      77.281  14.501  16.501  1.00  0.00    -0.270 OA
HETATM    3  N5  UNL     1      75.489  13.204  17.112  1.00  0.00    -0.269 N 
ATOM      4  H5  UNL     1      74.964  12.740  17.853  1.00  0.00     0.190 HD
ENDROOT
BRANCH   3   5
HETATM    5  N6  UNL     1      75.038  13.094  15.793  1.00  0.00    -0.307 N 
HETATM    6  C4  UNL     1      74.020  13.720  15.341  1.00  0.00     0.141 C 
ATOM      7  H6  UNL     1      75.549  12.480  15.158  1.00  0.00     0.186 HD
BRANCH   6   8
HETATM    8  C5  UNL     1      73.493  13.662  14.001  1.00  0.00     0.105 A 
HETATM    9  N7  UNL     1      73.231  12.464  13.404  1.00  0.00    -0.282 N 
HETATM   10  N8  UNL     1      72.771  12.329  12.188  1.00  0.00    -0.239 N 
ATOM     11  H7  UNL     1      73.406  11.615  13.942  1.00  0.00     0.188 HD
HETATM   12  N9  UNL     1      72.521  13.365  11.437  1.00  0.00    -0.250 N 
ATOM     13  H8  UNL     1      72.604  11.394  11.818  1.00  0.00     0.208 HD
HETATM   14  C6  UNL     1      72.740  14.586  11.917  1.00  0.00     0.296 A 
ATOM     15  H9  UNL     1      72.162  13.241  10.491  1.00  0.00     0.192 HD
HETATM   16  O2  UNL     1      72.491  15.575  11.170  1.00  0.00    -0.264 OA
HETATM   17  C7  UNL     1      73.232  14.783  13.217  1.00  0.00     0.201 A 
BRANCH  17  18
HETATM   18  N10 UNL     1      73.453  16.076  13.698  1.00  0.00    -0.107 N 
HETATM   19  O3  UNL     1      74.572  16.594  13.619  1.00  0.00    -0.531 OA
HETATM   20  O4  UNL     1      72.433  16.774  14.281  1.00  0.00    -0.531 OA
ENDBRANCH  17  18
ENDBRANCH   6   8
ENDBRANCH   3   5
BRANCH   1  21
HETATM   21  C2  UNL     1      77.200  14.107  18.782  1.00  0.00     0.242 C 
BRANCH  21  22
HETATM   22  N4  UNL     1      77.899  12.988  19.329  1.00  0.00    -0.216 N 
HETATM   23  C1  UNL     1      79.215  12.698  18.893  1.00  0.00     0.686 C 
HETATM   24  N1  UNL     1      79.493  12.735  17.634  1.00  0.00    -0.234 N 
HETATM   25  N2  UNL     1      80.270  12.362  19.758  1.00  0.00    -0.139 N 
ATOM     26  H12 UNL     1      80.440  12.526  17.320  1.00  0.00     0.174 HD
ATOM     27  H11 UNL     1      78.726  12.979  17.006  1.00  0.00     0.174 HD
ATOM     28  H2  UNL     1      80.256  11.470  20.253  1.00  0.00     0.205 HD
ATOM     29  H4  UNL     1      77.451  12.399  20.031  1.00  0.00     0.178 HD
BRANCH  25  30
HETATM   30  N3  UNL     1      81.329  13.235  19.941  1.00  0.00    -0.331 N 
ATOM     31  H32 UNL     1      81.851  13.555  19.124  1.00  0.00     0.177 HD
ATOM     32  H31 UNL     1      81.579  13.552  20.878  1.00  0.00     0.177 HD
ENDBRANCH  25  30
ENDBRANCH  21  22
ENDBRANCH   1  21
TORSDOF 6
ENDMDL
MODEL 4
REMARK VINA RESULT: -7.806733277      2.281      3.246
REMARK  6 active torsions:
REMARK  status: ('A' for Active; 'I' for Inactive)
REMARK       I    between atoms: C1_4  and  N2_5 
REMARK       I    between atoms: C1_4  and  N4_10 
REMARK    1  A    between atoms: N2_5  and  N3_7 
REMARK    2  A    between atoms: N4_10  and  C2_12 
REMARK    3  A    between atoms: C2_12  and  C3_13 
REMARK       I    between atoms: C3_13  and  N5_15 
REMARK    4  A    between atoms: N5_15  and  N6_17 
REMARK    5  A    between atoms: C4_19  and  C5_20 
REMARK    6  A    between atoms: C7_29  and  N10_30 
ROOT
HETATM    1  C3  UNL     1      74.528  11.850  13.854  1.00  0.00     0.254 C 
HETATM    2  O1  UNL     1      74.645  10.727  14.459  1.00  0.00    -0.270 OA
HETATM    3  N5  UNL     1      75.319  12.915  14.294  1.00  0.00    -0.269 N 
ATOM      4  H5  UNL     1      75.238  13.816  13.824  1.00  0.00     0.190 HD
ENDROOT
BRANCH   3   5
HETATM    5  N6  UNL     1      76.218  12.784  15.356  1.00  0.00    -0.307 N 
HETATM    6  C4  UNL     1      76.341  13.651  16.287  1.00  0.00     0.141 C 
ATOM      7  H6  UNL     1      76.807  11.952  15.390  1.00  0.00     0.186 HD
BRANCH   6   8
HETATM    8  C5  UNL     1      77.239  13.591  17.412  1.00  0.00     0.105 A 
HETATM    9  N7  UNL     1      76.794  13.214  18.645  1.00  0.00    -0.282 N 
HETATM   10  N8  UNL     1      77.541  13.155  19.715  1.00  0.00    -0.239 N 
ATOM     11  H7  UNL     1      75.810  12.962  18.738  1.00  0.00     0.188 HD
HETATM   12  N9  UNL     1      78.808  13.461  19.677  1.00  0.00    -0.250 N 
ATOM     13  H8  UNL     1      77.125  12.863  20.599  1.00  0.00     0.208 HD
HETATM   14  C6  UNL     1      79.352  13.843  18.525  1.00  0.00     0.296 A 
ATOM     15  H9  UNL     1      79.376  13.407  20.522  1.00  0.00     0.192 HD
HETATM   16  O2  UNL     1      80.582  14.135  18.513  1.00  0.00    -0.264 OA
HETATM   17  C7  UNL     1      78.591  13.922  17.348  1.00  0.00     0.201 A 
BRANCH  17  18
HETATM   18  N10 UNL     1      79.186  14.325  16.150  1.00  0.00    -0.107 N 
HETATM   19  O3  UNL     1      79.420  15.520  15.936  1.00  0.00    -0.531 OA
HETATM   20  O4  UNL     1      79.498  13.401  15.194  1.00  0.00    -0.531 OA
ENDBRANCH  17  18
ENDBRANCH   6   8
ENDBRANCH   3   5
BRANCH   1  21
HETATM   21  C2  UNL     1      73.562  11.870  12.759  1.00  0.00     0.242 C 
BRANCH  21  22
HETATM   22  N4  UNL     1      72.706  13.011  12.693  1.00  0.00    -0.216 N 
HETATM   23  C1  UNL     1      72.983  14.047  11.768  1.00  0.00     0.686 C 
HETATM   24  N1  UNL     1      74.192  14.477  11.635  1.00  0.00    -0.234 N 
HETATM   25  N2  UNL     1      72.009  14.659  10.962  1.00  0.00    -0.139 N 
ATOM     26  H12 UNL     1      74.392  15.223  10.969  1.00  0.00     0.174 HD
ATOM     27  H11 UNL     1      74.900  14.033  12.220  1.00  0.00     0.174 HD
ATOM     28  H2  UNL     1      71.297  15.254  11.388  1.00  0.00     0.205 HD
ATOM     29  H4  UNL     1      71.897  13.080  13.310  1.00  0.00     0.178 HD
BRANCH  25  30
HETATM   30  N3  UNL     1      72.009  14.459   9.591  1.00  0.00    -0.331 N 
ATOM     31  H32 UNL     1      72.112  13.510   9.232  1.00  0.00     0.177 HD
ATOM     32  H31 UNL     1      71.907  15.250   8.956  1.00  0.00     0.177 HD
ENDBRANCH  25  30
ENDBRANCH  21  22
ENDBRANCH   1  21
TORSDOF 6
ENDMDL
MODEL 5
REMARK VINA RESULT: -7.760699797      2.563      7.854
REMARK  6 active torsions:
REMARK  status: ('A' for Active; 'I' for Inactive)
REMARK       I    between atoms: C1_4  and  N2_5 
REMARK       I    between atoms: C1_4  and  N4_10 
REMARK    1  A    between atoms: N2_5  and  N3_7 
REMARK    2  A    between atoms: N4_10  and  C2_12 
REMARK    3  A    between atoms: C2_12  and  C3_13 
REMARK       I    between atoms: C3_13  and  N5_15 
REMARK    4  A    between atoms: N5_15  and  N6_17 
REMARK    5  A    between atoms: C4_19  and  C5_20 
REMARK    6  A    between atoms: C7_29  and  N10_30 
ROOT
HETATM    1  C3  UNL     1      76.477  13.891  17.205  1.00  0.00     0.254 C 
HETATM    2  O1  UNL     1      76.884  13.038  16.341  1.00  0.00    -0.270 OA
HETATM    3  N5  UNL     1      75.593  14.885  16.777  1.00  0.00    -0.269 N 
ATOM      4  H5  UNL     1      75.259  15.572  17.452  1.00  0.00     0.190 HD
ENDROOT
BRANCH   3   5
HETATM    5  N6  UNL     1      75.153  14.968  15.453  1.00  0.00    -0.307 N 
HETATM    6  C4  UNL     1      73.928  15.124  15.125  1.00  0.00     0.141 C 
ATOM      7  H6  UNL     1      75.847  14.901  14.708  1.00  0.00     0.186 HD
BRANCH   6   8
HETATM    8  C5  UNL     1      73.394  15.219  13.790  1.00  0.00     0.105 A 
HETATM    9  N7  UNL     1      72.888  16.395  13.320  1.00  0.00    -0.282 N 
HETATM   10  N8  UNL     1      72.371  16.555  12.131  1.00  0.00    -0.239 N 
ATOM     11  H7  UNL     1      72.916  17.206  13.939  1.00  0.00     0.188 HD
HETATM   12  N9  UNL     1      72.300  15.568  11.282  1.00  0.00    -0.250 N 
ATOM     13  H8  UNL     1      72.014  17.471  11.860  1.00  0.00     0.208 HD
HETATM   14  C6  UNL     1      72.763  14.372  11.633  1.00  0.00     0.296 A 
ATOM     15  H9  UNL     1      71.894  15.711  10.358  1.00  0.00     0.192 HD
HETATM   16  O2  UNL     1      72.683  13.429  10.794  1.00  0.00    -0.264 OA
HETATM   17  C7  UNL     1      73.329  14.150  12.899  1.00  0.00     0.201 A 
BRANCH  17  18
HETATM   18  N10 UNL     1      73.810  12.884  13.244  1.00  0.00    -0.107 N 
HETATM   19  O3  UNL     1      75.001  12.598  13.079  1.00  0.00    -0.531 OA
HETATM   20  O4  UNL     1      72.960  11.943  13.750  1.00  0.00    -0.531 OA
ENDBRANCH  17  18
ENDBRANCH   6   8
ENDBRANCH   3   5
BRANCH   1  21
HETATM   21  C2  UNL     1      77.000  13.706  18.556  1.00  0.00     0.242 C 
BRANCH  21  22
HETATM   22  N4  UNL     1      78.264  14.310  18.832  1.00  0.00    -0.216 N 
HETATM   23  C1  UNL     1      79.457  13.583  18.601  1.00  0.00     0.686 C 
HETATM   24  N1  UNL     1      79.539  12.353  18.981  1.00  0.00    -0.234 N 
HETATM   25  N2  UNL     1      80.592  14.120  17.971  1.00  0.00    -0.139 N 
ATOM     26  H12 UNL     1      80.398  11.829  18.815  1.00  0.00     0.174 HD
ATOM     27  H11 UNL     1      78.714  11.962  19.438  1.00  0.00     0.174 HD
ATOM     28  H2  UNL     1      81.142  14.839  18.442  1.00  0.00     0.205 HD
ATOM     29  H4  UNL     1      78.307  15.262  19.194  1.00  0.00     0.178 HD
BRANCH  25  30
HETATM   30  N3  UNL     1      80.969  13.678  16.714  1.00  0.00    -0.331 N 
ATOM     31  H32 UNL     1      80.702  14.230  15.898  1.00  0.00     0.177 HD
ATOM     32  H31 UNL     1      81.503  12.816  16.609  1.00  0.00     0.177 HD
ENDBRANCH  25  30
ENDBRANCH  21  22
ENDBRANCH   1  21
TORSDOF 6
ENDMDL
