MODEL 1
REMARK VINA RESULT: -8.361473519      0.000      0.000
REMARK  14 active torsions:
REMARK  status: ('A' for Active; 'I' for Inactive)
REMARK    1  A    between atoms: N1_1  and  C1_5 
REMARK    2  A    between atoms: C1_5  and  O1_6 
REMARK    3  A    between atoms: C1_5  and  N2_8 
REMARK    4  A    between atoms: N2_8  and  C2_11 
REMARK    5  A    between atoms: C4_16  and  N4_17 
REMARK    6  A    between atoms: C5_22  and  O3_23 
REMARK    7  A    between atoms: C7_27  and  O5_28 
REMARK    8  A    between atoms: C7_27  and  O6_30 
REMARK    9  A    between atoms: C8_32  and  C9_33 
REMARK   10  A    between atoms: C11_40  and  C12_41 
REMARK   11  A    between atoms: C12_41  and  O10_42 
REMARK   12  A    between atoms: O10_42  and  C13_43 
REMARK   13  A    between atoms: C16_46  and  O11_47 
REMARK   14  A    between atoms: C19_51  and  O12_52 
ROOT
HETATM    1  C2  UNL     1       5.851  12.474  38.027  1.00  0.00     0.417 C 
HETATM    2  N3  UNL     1       6.500  13.733  38.450  1.00  0.00    -0.034 N 
ATOM      3  H31 UNL     1       6.626  13.855  39.455  1.00  0.00     0.280 HD
ATOM      4  H32 UNL     1       5.944  14.581  38.335  1.00  0.00     0.280 HD
HETATM    5  C3  UNL     1       7.712  13.663  37.666  1.00  0.00     0.263 C 
HETATM    6  C4  UNL     1       8.646  14.780  37.760  1.00  0.00     0.353 C 
HETATM    7  O2  UNL     1       9.380  14.858  36.578  1.00  0.00    -0.324 OA
HETATM    8  C5  UNL     1      10.444  13.937  36.559  1.00  0.00     0.294 C 
HETATM    9  C6  UNL     1       9.984  12.587  36.162  1.00  0.00     0.231 C 
HETATM   10  O4  UNL     1      10.791  11.795  35.448  1.00  0.00    -0.314 OA
HETATM   11  C7  UNL     1      12.067  11.536  35.814  1.00  0.00     0.319 C 
HETATM   12  C8  UNL     1      12.255  10.822  37.104  1.00  0.00     0.344 C 
HETATM   13  O9  UNL     1      11.047  10.219  37.576  1.00  0.00    -0.256 OA
HETATM   14  N5  UNL     1       9.900  10.898  37.930  1.00  0.00    -0.270 N 
ATOM     15  H5  UNL     1       9.404  10.534  38.743  1.00  0.00     0.194 HD
HETATM   16  C10 UNL     1       9.382  11.915  37.379  1.00  0.00     0.059 C 
HETATM   17  C11 UNL     1       8.179  12.296  38.077  1.00  0.00     0.087 C 
HETATM   18  C19 UNL     1       6.905  11.547  37.537  1.00  0.00     0.195 C 
ENDROOT
BRANCH   1  19
HETATM   19  N2  UNL     1       4.778  12.778  37.135  1.00  0.00     0.008 N 
ATOM     20  H22 UNL     1       5.049  12.747  36.153  1.00  0.00     0.285 HD
ATOM     21  H21 UNL     1       4.500  13.759  37.158  1.00  0.00     0.285 HD
BRANCH  19  22
HETATM   22  C1  UNL     1       3.689  11.857  37.466  1.00  0.00     0.521 C 
BRANCH  22  23
HETATM   23  N1  UNL     1       3.838  10.568  36.853  1.00  0.00    -0.027 N 
ATOM     24  H13 UNL     1       3.185   9.881  37.231  1.00  0.00     0.279 HD
ATOM     25  H12 UNL     1       3.513  10.559  35.886  1.00  0.00     0.279 HD
ATOM     26  H11 UNL     1       4.808  10.268  36.938  1.00  0.00     0.279 HD
ENDBRANCH  22  23
BRANCH  22  27
HETATM   27  O1  UNL     1       2.465  12.425  37.057  1.00  0.00    -0.349 OA
ATOM     28  H1  UNL     1       2.465  12.517  36.111  1.00  0.00     0.213 HD
ENDBRANCH  22  27
ENDBRANCH  19  22
ENDBRANCH   1  19
BRANCH  18  29
HETATM   29  O12 UNL     1       6.886  10.278  38.071  1.00  0.00    -0.390 OA
ATOM     30  H12 UNL     1       7.109  10.212  38.992  1.00  0.00     0.210 HD
ENDBRANCH  18  29
BRANCH  17  31
HETATM   31  C12 UNL     1       8.107  12.059  39.553  1.00  0.00     0.196 C 
BRANCH  31  32
HETATM   32  O10 UNL     1       9.063  12.767  40.267  1.00  0.00    -0.350 OA
BRANCH  32  33
HETATM   33  C13 UNL     1       9.038  13.052  41.606  1.00  0.00     0.069 A 
HETATM   34  C14 UNL     1       8.173  12.370  42.422  1.00  0.00     0.039 A 
HETATM   35  C15 UNL     1       8.154  12.664  43.784  1.00  0.00     0.039 A 
HETATM   36  C16 UNL     1       8.993  13.624  44.290  1.00  0.00     0.065 A 
HETATM   37  C17 UNL     1       9.885  14.334  43.477  1.00  0.00     0.039 A 
HETATM   38  C18 UNL     1       9.882  14.023  42.135  1.00  0.00     0.039 A 
BRANCH  36  39
HETATM   39  O11 UNL     1       8.939  13.880  45.660  1.00  0.00    -0.361 OA
ATOM     40  H11 UNL     1       9.737  14.164  46.090  1.00  0.00     0.217 HD
ENDBRANCH  36  39
ENDBRANCH  32  33
ENDBRANCH  31  32
ENDBRANCH  17  31
BRANCH   6  41
HETATM   41  N4  UNL     1       7.835  16.027  37.755  1.00  0.00    -0.051 N 
ATOM     42  H43 UNL     1       8.379  16.858  37.527  1.00  0.00     0.277 HD
ATOM     43  H42 UNL     1       7.185  16.079  36.970  1.00  0.00     0.277 HD
ATOM     44  H41 UNL     1       7.373  16.086  38.662  1.00  0.00     0.277 HD
ENDBRANCH   6  41
BRANCH   8  45
HETATM   45  O3  UNL     1      11.014  13.989  37.850  1.00  0.00    -0.368 OA
ATOM     46  H3  UNL     1      11.701  14.642  37.799  1.00  0.00     0.212 HD
ENDBRANCH   8  45
BRANCH  11  47
HETATM   47  O5  UNL     1      12.897  12.681  35.784  1.00  0.00    -0.341 OA
ATOM     48  H5  UNL     1      13.022  13.073  36.640  1.00  0.00     0.215 HD
ENDBRANCH  11  47
BRANCH  11  49
HETATM   49  O6  UNL     1      12.589  10.726  34.800  1.00  0.00    -0.341 OA
ATOM     50  H6  UNL     1      12.491  11.227  34.000  1.00  0.00     0.215 HD
ENDBRANCH  11  49
BRANCH  12  51
HETATM   51  C9  UNL     1      13.301   9.791  37.143  1.00  0.00     0.214 C 
HETATM   52  O7  UNL     1      13.121   8.675  37.651  1.00  0.00    -0.646 OA
HETATM   53  O8  UNL     1      14.530  10.102  36.585  1.00  0.00    -0.646 OA
ENDBRANCH  12  51
TORSDOF 14
ENDMDL
MODEL 2
REMARK VINA RESULT: -8.159252622      7.665     10.905
REMARK  14 active torsions:
REMARK  status: ('A' for Active; 'I' for Inactive)
REMARK    1  A    between atoms: N1_1  and  C1_5 
REMARK    2  A    between atoms: C1_5  and  O1_6 
REMARK    3  A    between atoms: C1_5  and  N2_8 
REMARK    4  A    between atoms: N2_8  and  C2_11 
REMARK    5  A    between atoms: C4_16  and  N4_17 
REMARK    6  A    between atoms: C5_22  and  O3_23 
REMARK    7  A    between atoms: C7_27  and  O5_28 
REMARK    8  A    between atoms: C7_27  and  O6_30 
REMARK    9  A    between atoms: C8_32  and  C9_33 
REMARK   10  A    between atoms: C11_40  and  C12_41 
REMARK   11  A    between atoms: C12_41  and  O10_42 
REMARK   12  A    between atoms: O10_42  and  C13_43 
REMARK   13  A    between atoms: C16_46  and  O11_47 
REMARK   14  A    between atoms: C19_51  and  O12_52 
ROOT
HETATM    1  C2  UNL     1      20.005  17.994  37.690  1.00  0.00     0.417 C 
HETATM    2  N3  UNL     1      19.537  17.639  39.046  1.00  0.00    -0.034 N 
ATOM      3  H31 UNL     1      18.699  18.123  39.370  1.00  0.00     0.280 HD
ATOM      4  H32 UNL     1      20.120  17.963  39.818  1.00  0.00     0.280 HD
HETATM    5  C3  UNL     1      19.422  16.206  38.901  1.00  0.00     0.263 C 
HETATM    6  C4  UNL     1      19.015  15.436  40.072  1.00  0.00     0.353 C 
HETATM    7  O2  UNL     1      19.523  14.143  39.964  1.00  0.00    -0.324 OA
HETATM    8  C5  UNL     1      18.730  13.336  39.126  1.00  0.00     0.294 C 
HETATM    9  C6  UNL     1      19.049  13.561  37.698  1.00  0.00     0.231 C 
HETATM   10  O4  UNL     1      18.977  12.542  36.835  1.00  0.00    -0.314 OA
HETATM   11  C7  UNL     1      17.888  11.748  36.734  1.00  0.00     0.319 C 
HETATM   12  C8  UNL     1      16.627  12.405  36.300  1.00  0.00     0.344 C 
HETATM   13  O9  UNL     1      16.853  13.695  35.726  1.00  0.00    -0.256 OA
HETATM   14  N5  UNL     1      17.385  14.782  36.387  1.00  0.00    -0.270 N 
ATOM     15  H5  UNL     1      16.970  15.685  36.158  1.00  0.00     0.194 HD
HETATM   16  C10 UNL     1      18.320  14.807  37.240  1.00  0.00     0.059 C 
HETATM   17  C11 UNL     1      18.559  16.162  37.674  1.00  0.00     0.087 C 
HETATM   18  C19 UNL     1      19.587  16.918  36.753  1.00  0.00     0.195 C 
ENDROOT
BRANCH   1  19
HETATM   19  N2  UNL     1      21.397  18.312  37.744  1.00  0.00     0.008 N 
ATOM     20  H22 UNL     1      21.659  19.084  37.132  1.00  0.00     0.285 HD
ATOM     21  H21 UNL     1      21.990  17.602  37.314  1.00  0.00     0.285 HD
BRANCH  19  22
HETATM   22  C1  UNL     1      21.713  18.555  39.153  1.00  0.00     0.521 C 
BRANCH  22  23
HETATM   23  N1  UNL     1      22.612  19.658  39.344  1.00  0.00    -0.027 N 
ATOM     24  H13 UNL     1      23.525  19.358  39.684  1.00  0.00     0.279 HD
ATOM     25  H12 UNL     1      22.915  20.068  38.460  1.00  0.00     0.279 HD
ATOM     26  H11 UNL     1      22.174  20.343  39.959  1.00  0.00     0.279 HD
ENDBRANCH  22  23
BRANCH  22  27
HETATM   27  O1  UNL     1      22.285  17.391  39.705  1.00  0.00    -0.349 OA
ATOM     28  H1  UNL     1      21.660  16.986  40.294  1.00  0.00     0.213 HD
ENDBRANCH  22  27
ENDBRANCH  19  22
ENDBRANCH   1  19
BRANCH  18  29
HETATM   29  O12 UNL     1      18.932  17.332  35.615  1.00  0.00    -0.390 OA
ATOM     30  H12 UNL     1      17.984  17.271  35.636  1.00  0.00     0.210 HD
ENDBRANCH  18  29
BRANCH  17  31
HETATM   31  C12 UNL     1      17.398  17.107  37.726  1.00  0.00     0.196 C 
BRANCH  31  32
HETATM   32  O10 UNL     1      16.401  16.698  38.599  1.00  0.00    -0.350 OA
BRANCH  32  33
HETATM   33  C13 UNL     1      15.054  16.691  38.356  1.00  0.00     0.069 A 
HETATM   34  C14 UNL     1      14.375  17.881  38.299  1.00  0.00     0.039 A 
HETATM   35  C15 UNL     1      13.004  17.868  38.050  1.00  0.00     0.039 A 
HETATM   36  C16 UNL     1      12.353  16.674  37.866  1.00  0.00     0.065 A 
HETATM   37  C17 UNL     1      13.023  15.447  37.921  1.00  0.00     0.039 A 
HETATM   38  C18 UNL     1      14.378  15.490  38.169  1.00  0.00     0.039 A 
BRANCH  36  39
HETATM   39  O11 UNL     1      10.980  16.713  37.617  1.00  0.00    -0.361 OA
ATOM     40  H11 UNL     1      10.684  16.505  36.739  1.00  0.00     0.217 HD
ENDBRANCH  36  39
ENDBRANCH  32  33
ENDBRANCH  31  32
ENDBRANCH  17  31
BRANCH   6  41
HETATM   41  N4  UNL     1      19.741  16.004  41.239  1.00  0.00    -0.051 N 
ATOM     42  H43 UNL     1      20.602  15.503  41.458  1.00  0.00     0.277 HD
ATOM     43  H42 UNL     1      20.165  16.911  41.045  1.00  0.00     0.277 HD
ATOM     44  H41 UNL     1      19.083  16.027  42.018  1.00  0.00     0.277 HD
ENDBRANCH   6  41
BRANCH   8  45
HETATM   45  O3  UNL     1      17.393  13.635  39.466  1.00  0.00    -0.368 OA
ATOM     46  H3  UNL     1      17.099  12.913  40.008  1.00  0.00     0.212 HD
ENDBRANCH   8  45
BRANCH  11  47
HETATM   47  O5  UNL     1      17.644  10.987  37.902  1.00  0.00    -0.341 OA
ATOM     48  H5  UNL     1      17.419  10.084  37.717  1.00  0.00     0.215 HD
ENDBRANCH  11  47
BRANCH  11  49
HETATM   49  O6  UNL     1      18.216  10.784  35.776  1.00  0.00    -0.341 OA
ATOM     50  H6  UNL     1      18.757  10.149  36.229  1.00  0.00     0.215 HD
ENDBRANCH  11  49
BRANCH  12  51
HETATM   51  C9  UNL     1      15.777  11.654  35.365  1.00  0.00     0.214 C 
HETATM   52  O7  UNL     1      15.832  10.420  35.259  1.00  0.00    -0.646 OA
HETATM   53  O8  UNL     1      14.889  12.374  34.584  1.00  0.00    -0.646 OA
ENDBRANCH  12  51
TORSDOF 14
ENDMDL
MODEL 3
REMARK VINA RESULT: -7.950044252      2.282      6.627
REMARK  14 active torsions:
REMARK  status: ('A' for Active; 'I' for Inactive)
REMARK    1  A    between atoms: N1_1  and  C1_5 
REMARK    2  A    between atoms: C1_5  and  O1_6 
REMARK    3  A    between atoms: C1_5  and  N2_8 
REMARK    4  A    between atoms: N2_8  and  C2_11 
REMARK    5  A    between atoms: C4_16  and  N4_17 
REMARK    6  A    between atoms: C5_22  and  O3_23 
REMARK    7  A    between atoms: C7_27  and  O5_28 
REMARK    8  A    between atoms: C7_27  and  O6_30 
REMARK    9  A    between atoms: C8_32  and  C9_33 
REMARK   10  A    between atoms: C11_40  and  C12_41 
REMARK   11  A    between atoms: C12_41  and  O10_42 
REMARK   12  A    between atoms: O10_42  and  C13_43 
REMARK   13  A    between atoms: C16_46  and  O11_47 
REMARK   14  A    between atoms: C19_51  and  O12_52 
ROOT
HETATM    1  C2  UNL     1      11.160  11.696  36.388  1.00  0.00     0.417 C 
HETATM    2  N3  UNL     1      10.460  12.934  35.986  1.00  0.00    -0.034 N 
ATOM      3  H31 UNL     1       9.563  12.808  35.516  1.00  0.00     0.280 HD
ATOM      4  H32 UNL     1      10.881  13.455  35.217  1.00  0.00     0.280 HD
HETATM    5  C3  UNL     1      10.414  13.617  37.259  1.00  0.00     0.263 C 
HETATM    6  C4  UNL     1       9.820  14.950  37.293  1.00  0.00     0.353 C 
HETATM    7  O2  UNL     1      10.376  15.667  38.351  1.00  0.00    -0.324 OA
HETATM    8  C5  UNL     1       9.773  15.339  39.581  1.00  0.00     0.294 C 
HETATM    9  C6  UNL     1      10.344  14.097  40.149  1.00  0.00     0.231 C 
HETATM   10  O4  UNL     1      10.462  13.967  41.474  1.00  0.00    -0.314 OA
HETATM   11  C7  UNL     1       9.432  14.190  42.322  1.00  0.00     0.319 C 
HETATM   12  C8  UNL     1       8.255  13.292  42.185  1.00  0.00     0.344 C 
HETATM   13  O9  UNL     1       8.547  12.123  41.415  1.00  0.00    -0.256 OA
HETATM   14  N5  UNL     1       8.916  12.112  40.086  1.00  0.00    -0.270 N 
ATOM     15  H5  UNL     1       8.525  11.356  39.525  1.00  0.00     0.194 HD
HETATM   16  C10 UNL     1       9.677  12.917  39.472  1.00  0.00     0.059 C 
HETATM   17  C11 UNL     1       9.793  12.529  38.087  1.00  0.00     0.087 C 
HETATM   18  C19 UNL     1      10.952  11.493  37.846  1.00  0.00     0.195 C 
ENDROOT
BRANCH   1  19
HETATM   19  N2  UNL     1      12.508  11.749  35.919  1.00  0.00     0.008 N 
ATOM     20  H22 UNL     1      13.194  11.811  36.670  1.00  0.00     0.285 HD
ATOM     21  H21 UNL     1      12.741  12.629  35.460  1.00  0.00     0.285 HD
BRANCH  19  22
HETATM   22  C1  UNL     1      12.694  10.579  35.058  1.00  0.00     0.521 C 
BRANCH  22  23
HETATM   23  N1  UNL     1      13.005  10.926  33.701  1.00  0.00    -0.027 N 
ATOM     24  H13 UNL     1      13.843  10.452  33.362  1.00  0.00     0.279 HD
ATOM     25  H12 UNL     1      12.339  10.530  33.037  1.00  0.00     0.279 HD
ATOM     26  H11 UNL     1      13.075  11.940  33.622  1.00  0.00     0.279 HD
ENDBRANCH  22  23
BRANCH  22  27
HETATM   27  O1  UNL     1      11.520   9.800  35.078  1.00  0.00    -0.349 OA
ATOM     28  H1  UNL     1      10.899  10.155  34.454  1.00  0.00     0.213 HD
ENDBRANCH  22  27
ENDBRANCH  19  22
ENDBRANCH   1  19
BRANCH  18  29
HETATM   29  O12 UNL     1      10.507  10.245  38.222  1.00  0.00    -0.390 OA
ATOM     30  H12 UNL     1       9.792  10.231  38.847  1.00  0.00     0.210 HD
ENDBRANCH  18  29
BRANCH  17  31
HETATM   31  C12 UNL     1       8.617  11.876  37.431  1.00  0.00     0.196 C 
BRANCH  31  32
HETATM   32  O10 UNL     1       7.408  12.475  37.756  1.00  0.00    -0.350 OA
BRANCH  32  33
HETATM   33  C13 UNL     1       6.162  11.920  37.635  1.00  0.00     0.069 A 
HETATM   34  C14 UNL     1       6.023  10.558  37.708  1.00  0.00     0.039 A 
HETATM   35  C15 UNL     1       4.752  10.000  37.584  1.00  0.00     0.039 A 
HETATM   36  C16 UNL     1       3.663  10.812  37.393  1.00  0.00     0.065 A 
HETATM   37  C17 UNL     1       3.780  12.204  37.314  1.00  0.00     0.039 A 
HETATM   38  C18 UNL     1       5.048  12.729  37.439  1.00  0.00     0.039 A 
BRANCH  36  39
HETATM   39  O11 UNL     1       2.411  10.206  37.278  1.00  0.00    -0.361 OA
ATOM     40  H11 UNL     1       1.861  10.462  36.547  1.00  0.00     0.217 HD
ENDBRANCH  36  39
ENDBRANCH  32  33
ENDBRANCH  31  32
ENDBRANCH  17  31
BRANCH   6  41
HETATM   41  N4  UNL     1      10.302  15.671  36.086  1.00  0.00    -0.051 N 
ATOM     42  H43 UNL     1      11.208  15.341  35.756  1.00  0.00     0.277 HD
ATOM     43  H42 UNL     1       9.769  15.446  35.245  1.00  0.00     0.277 HD
ATOM     44  H41 UNL     1      10.295  16.666  36.310  1.00  0.00     0.277 HD
ENDBRANCH   6  41
BRANCH   8  45
HETATM   45  O3  UNL     1       8.389  15.263  39.317  1.00  0.00    -0.368 OA
ATOM     46  H3  UNL     1       7.961  15.465  40.140  1.00  0.00     0.212 HD
ENDBRANCH   8  45
BRANCH  11  47
HETATM   47  O5  UNL     1       8.999  15.536  42.329  1.00  0.00    -0.341 OA
ATOM     48  H5  UNL     1       8.654  15.812  43.170  1.00  0.00     0.215 HD
ENDBRANCH  11  47
BRANCH  11  49
HETATM   49  O6  UNL     1       9.959  14.006  43.605  1.00  0.00    -0.341 OA
ATOM     50  H6  UNL     1      10.506  13.233  43.546  1.00  0.00     0.215 HD
ENDBRANCH  11  49
BRANCH  12  51
HETATM   51  C9  UNL     1       7.614  12.847  43.430  1.00  0.00     0.214 C 
HETATM   52  O7  UNL     1       7.426  11.650  43.693  1.00  0.00    -0.646 OA
HETATM   53  O8  UNL     1       7.214  13.820  44.329  1.00  0.00    -0.646 OA
ENDBRANCH  12  51
TORSDOF 14
ENDMDL
MODEL 4
REMARK VINA RESULT: -7.925477117      8.609     12.329
REMARK  14 active torsions:
REMARK  status: ('A' for Active; 'I' for Inactive)
REMARK    1  A    between atoms: N1_1  and  C1_5 
REMARK    2  A    between atoms: C1_5  and  O1_6 
REMARK    3  A    between atoms: C1_5  and  N2_8 
REMARK    4  A    between atoms: N2_8  and  C2_11 
REMARK    5  A    between atoms: C4_16  and  N4_17 
REMARK    6  A    between atoms: C5_22  and  O3_23 
REMARK    7  A    between atoms: C7_27  and  O5_28 
REMARK    8  A    between atoms: C7_27  and  O6_30 
REMARK    9  A    between atoms: C8_32  and  C9_33 
REMARK   10  A    between atoms: C11_40  and  C12_41 
REMARK   11  A    between atoms: C12_41  and  O10_42 
REMARK   12  A    between atoms: O10_42  and  C13_43 
REMARK   13  A    between atoms: C16_46  and  O11_47 
REMARK   14  A    between atoms: C19_51  and  O12_52 
ROOT
HETATM    1  C2  UNL     1      21.031  14.857  41.473  1.00  0.00     0.417 C 
HETATM    2  N3  UNL     1      21.663  15.702  40.437  1.00  0.00    -0.034 N 
ATOM      3  H31 UNL     1      22.080  15.205  39.650  1.00  0.00     0.280 HD
ATOM      4  H32 UNL     1      22.530  16.165  40.708  1.00  0.00     0.280 HD
HETATM    5  C3  UNL     1      20.555  16.573  40.118  1.00  0.00     0.263 C 
HETATM    6  C4  UNL     1      20.782  17.625  39.132  1.00  0.00     0.353 C 
HETATM    7  O2  UNL     1      19.904  18.678  39.382  1.00  0.00    -0.324 OA
HETATM    8  C5  UNL     1      18.622  18.427  38.857  1.00  0.00     0.294 C 
HETATM    9  C6  UNL     1      17.824  17.571  39.763  1.00  0.00     0.231 C 
HETATM   10  O4  UNL     1      16.502  17.752  39.853  1.00  0.00    -0.314 OA
HETATM   11  C7  UNL     1      15.698  17.799  38.767  1.00  0.00     0.319 C 
HETATM   12  C8  UNL     1      15.627  16.564  37.942  1.00  0.00     0.344 C 
HETATM   13  O9  UNL     1      16.148  15.420  38.624  1.00  0.00    -0.256 OA
HETATM   14  N5  UNL     1      17.453  15.264  39.041  1.00  0.00    -0.270 N 
ATOM     15  H5  UNL     1      17.841  14.326  38.935  1.00  0.00     0.194 HD
HETATM   16  C10 UNL     1      18.233  16.130  39.536  1.00  0.00     0.059 C 
HETATM   17  C11 UNL     1      19.511  15.532  39.834  1.00  0.00     0.087 C 
HETATM   18  C19 UNL     1      19.559  14.893  41.271  1.00  0.00     0.195 C 
ENDROOT
BRANCH   1  19
HETATM   19  N2  UNL     1      21.527  15.242  42.756  1.00  0.00     0.008 N 
ATOM     20  H22 UNL     1      20.789  15.453  43.427  1.00  0.00     0.285 HD
ATOM     21  H21 UNL     1      21.967  16.162  42.759  1.00  0.00     0.285 HD
BRANCH  19  22
HETATM   22  C1  UNL     1      22.421  14.170  43.195  1.00  0.00     0.521 C 
BRANCH  22  23
HETATM   23  N1  UNL     1      23.130  14.490  44.401  1.00  0.00    -0.027 N 
ATOM     24  H13 UNL     1      22.577  14.303  45.238  1.00  0.00     0.279 HD
ATOM     25  H12 UNL     1      23.894  13.839  44.586  1.00  0.00     0.279 HD
ATOM     26  H11 UNL     1      23.449  15.457  44.355  1.00  0.00     0.279 HD
ENDBRANCH  22  23
BRANCH  22  27
HETATM   27  O1  UNL     1      23.351  13.897  42.171  1.00  0.00    -0.349 OA
ATOM     28  H1  UNL     1      24.202  13.731  42.559  1.00  0.00     0.213 HD
ENDBRANCH  22  27
ENDBRANCH  19  22
ENDBRANCH   1  19
BRANCH  18  29
HETATM   29  O12 UNL     1      18.928  13.670  41.226  1.00  0.00    -0.390 OA
ATOM     30  H12 UNL     1      18.466  13.412  42.015  1.00  0.00     0.210 HD
ENDBRANCH  18  29
BRANCH  17  31
HETATM   31  C12 UNL     1      19.999  14.421  38.957  1.00  0.00     0.196 C 
BRANCH  31  32
HETATM   32  O10 UNL     1      19.421  14.429  37.695  1.00  0.00    -0.350 OA
BRANCH  32  33
HETATM   33  C13 UNL     1      18.791  13.382  37.078  1.00  0.00     0.069 A 
HETATM   34  C14 UNL     1      18.657  12.192  37.745  1.00  0.00     0.039 A 
HETATM   35  C15 UNL     1      18.013  11.130  37.112  1.00  0.00     0.039 A 
HETATM   36  C16 UNL     1      17.525  11.285  35.839  1.00  0.00     0.065 A 
HETATM   37  C17 UNL     1      17.650  12.490  35.138  1.00  0.00     0.039 A 
HETATM   38  C18 UNL     1      18.291  13.522  35.788  1.00  0.00     0.039 A 
BRANCH  36  39
HETATM   39  O11 UNL     1      16.886  10.194  35.249  1.00  0.00    -0.361 OA
ATOM     40  H11 UNL     1      17.222   9.327  35.443  1.00  0.00     0.217 HD
ENDBRANCH  36  39
ENDBRANCH  32  33
ENDBRANCH  31  32
ENDBRANCH  17  31
BRANCH   6  41
HETATM   41  N4  UNL     1      22.121  18.207  39.418  1.00  0.00    -0.051 N 
ATOM     42  H43 UNL     1      22.833  17.502  39.603  1.00  0.00     0.277 HD
ATOM     43  H42 UNL     1      22.560  18.623  38.597  1.00  0.00     0.277 HD
ATOM     44  H41 UNL     1      22.001  18.867  40.186  1.00  0.00     0.277 HD
ENDBRANCH   6  41
BRANCH   8  45
HETATM   45  O3  UNL     1      18.838  17.862  37.582  1.00  0.00    -0.368 OA
ATOM     46  H3  UNL     1      18.809  16.922  37.711  1.00  0.00     0.212 HD
ENDBRANCH   8  45
BRANCH  11  47
HETATM   47  O5  UNL     1      15.957  18.910  37.931  1.00  0.00    -0.341 OA
ATOM     48  H5  UNL     1      16.091  18.669  37.023  1.00  0.00     0.215 HD
ENDBRANCH  11  47
BRANCH  11  49
HETATM   49  O6  UNL     1      14.415  18.052  39.263  1.00  0.00    -0.341 OA
ATOM     50  H6  UNL     1      14.131  17.237  39.659  1.00  0.00     0.215 HD
ENDBRANCH  11  49
BRANCH  12  51
HETATM   51  C9  UNL     1      14.305  16.195  37.416  1.00  0.00     0.214 C 
HETATM   52  O7  UNL     1      13.585  16.994  36.800  1.00  0.00    -0.646 OA
HETATM   53  O8  UNL     1      13.868  14.898  37.631  1.00  0.00    -0.646 OA
ENDBRANCH  12  51
TORSDOF 14
ENDMDL
MODEL 5
REMARK VINA RESULT: -7.923990472      2.426      6.579
REMARK  14 active torsions:
REMARK  status: ('A' for Active; 'I' for Inactive)
REMARK    1  A    between atoms: N1_1  and  C1_5 
REMARK    2  A    between atoms: C1_5  and  O1_6 
REMARK    3  A    between atoms: C1_5  and  N2_8 
REMARK    4  A    between atoms: N2_8  and  C2_11 
REMARK    5  A    between atoms: C4_16  and  N4_17 
REMARK    6  A    between atoms: C5_22  and  O3_23 
REMARK    7  A    between atoms: C7_27  and  O5_28 
REMARK    8  A    between atoms: C7_27  and  O6_30 
REMARK    9  A    between atoms: C8_32  and  C9_33 
REMARK   10  A    between atoms: C11_40  and  C12_41 
REMARK   11  A    between atoms: C12_41  and  O10_42 
REMARK   12  A    between atoms: O10_42  and  C13_43 
REMARK   13  A    between atoms: C16_46  and  O11_47 
REMARK   14  A    between atoms: C19_51  and  O12_52 
ROOT
HETATM    1  C2  UNL     1       9.738  11.866  37.088  1.00  0.00     0.417 C 
HETATM    2  N3  UNL     1       9.020  10.734  37.711  1.00  0.00    -0.034 N 
ATOM      3  H31 UNL     1       9.329  10.469  38.646  1.00  0.00     0.280 HD
ATOM      4  H32 UNL     1       9.197   9.815  37.304  1.00  0.00     0.280 HD
HETATM    5  C3  UNL     1       7.661  11.217  37.609  1.00  0.00     0.263 C 
HETATM    6  C4  UNL     1       6.593  10.345  38.087  1.00  0.00     0.353 C 
HETATM    7  O2  UNL     1       5.420  10.646  37.400  1.00  0.00    -0.324 OA
HETATM    8  C5  UNL     1       4.773  11.776  37.938  1.00  0.00     0.294 C 
HETATM    9  C6  UNL     1       5.369  13.033  37.432  1.00  0.00     0.231 C 
HETATM   10  O4  UNL     1       4.591  14.101  37.230  1.00  0.00    -0.314 OA
HETATM   11  C7  UNL     1       3.748  14.577  38.174  1.00  0.00     0.319 C 
HETATM   12  C8  UNL     1       4.372  15.077  39.428  1.00  0.00     0.344 C 
HETATM   13  O9  UNL     1       5.779  15.293  39.289  1.00  0.00    -0.256 OA
HETATM   14  N5  UNL     1       6.715  14.318  39.018  1.00  0.00    -0.270 N 
ATOM     15  H5  UNL     1       7.604  14.410  39.509  1.00  0.00     0.194 HD
HETATM   16  C10 UNL     1       6.617  13.324  38.240  1.00  0.00     0.059 C 
HETATM   17  C11 UNL     1       7.840  12.560  38.256  1.00  0.00     0.087 C 
HETATM   18  C19 UNL     1       8.891  13.081  37.207  1.00  0.00     0.195 C 
ENDROOT
BRANCH   1  19
HETATM   19  N2  UNL     1      10.160  11.486  35.777  1.00  0.00     0.008 N 
ATOM     20  H22 UNL     1      10.653  12.228  35.281  1.00  0.00     0.285 HD
ATOM     21  H21 UNL     1       9.389  11.383  35.119  1.00  0.00     0.285 HD
BRANCH  19  22
HETATM   22  C1  UNL     1      10.955  10.266  35.934  1.00  0.00     0.521 C 
BRANCH  22  23
HETATM   23  N1  UNL     1      12.087  10.217  35.052  1.00  0.00    -0.027 N 
ATOM     24  H13 UNL     1      12.695  11.030  35.156  1.00  0.00     0.279 HD
ATOM     25  H12 UNL     1      12.759   9.500  35.324  1.00  0.00     0.279 HD
ATOM     26  H11 UNL     1      11.759  10.098  34.094  1.00  0.00     0.279 HD
ENDBRANCH  22  23
BRANCH  22  27
HETATM   27  O1  UNL     1      10.133   9.146  35.693  1.00  0.00    -0.349 OA
ATOM     28  H1  UNL     1      10.309   8.483  36.350  1.00  0.00     0.213 HD
ENDBRANCH  22  27
ENDBRANCH  19  22
ENDBRANCH   1  19
BRANCH  18  29
HETATM   29  O12 UNL     1       9.508  14.197  37.724  1.00  0.00    -0.390 OA
ATOM     30  H12 UNL     1       9.327  15.016  37.279  1.00  0.00     0.210 HD
ENDBRANCH  18  29
BRANCH  17  31
HETATM   31  C12 UNL     1       8.632  12.511  39.526  1.00  0.00     0.196 C 
BRANCH  31  32
HETATM   32  O10 UNL     1       7.839  12.392  40.658  1.00  0.00    -0.350 OA
BRANCH  32  33
HETATM   33  C13 UNL     1       8.173  12.765  41.933  1.00  0.00     0.069 A 
HETATM   34  C14 UNL     1       7.596  12.116  42.994  1.00  0.00     0.039 A 
HETATM   35  C15 UNL     1       7.940  12.499  44.290  1.00  0.00     0.039 A 
HETATM   36  C16 UNL     1       8.846  13.511  44.487  1.00  0.00     0.065 A 
HETATM   37  C17 UNL     1       9.447  14.187  43.420  1.00  0.00     0.039 A 
HETATM   38  C18 UNL     1       9.087  13.789  42.151  1.00  0.00     0.039 A 
BRANCH  36  39
HETATM   39  O11 UNL     1       9.160  13.856  45.802  1.00  0.00    -0.361 OA
ATOM     40  H11 UNL     1       8.442  13.972  46.413  1.00  0.00     0.217 HD
ENDBRANCH  36  39
ENDBRANCH  32  33
ENDBRANCH  31  32
ENDBRANCH  17  31
BRANCH   6  41
HETATM   41  N4  UNL     1       6.923   8.967  37.636  1.00  0.00    -0.051 N 
ATOM     42  H43 UNL     1       6.246   8.270  37.947  1.00  0.00     0.277 HD
ATOM     43  H42 UNL     1       6.794   8.832  36.633  1.00  0.00     0.277 HD
ATOM     44  H41 UNL     1       7.873   8.769  37.948  1.00  0.00     0.277 HD
ENDBRANCH   6  41
BRANCH   8  45
HETATM   45  O3  UNL     1       4.854  11.629  39.339  1.00  0.00    -0.368 OA
ATOM     46  H3  UNL     1       4.654  12.485  39.697  1.00  0.00     0.212 HD
ENDBRANCH   8  45
BRANCH  11  47
HETATM   47  O5  UNL     1       2.706  13.676  38.494  1.00  0.00    -0.341 OA
ATOM     48  H5  UNL     1       1.974  14.093  38.933  1.00  0.00     0.215 HD
ENDBRANCH  11  47
BRANCH  11  49
HETATM   49  O6  UNL     1       3.083  15.651  37.574  1.00  0.00    -0.341 OA
ATOM     50  H6  UNL     1       2.158  15.482  37.706  1.00  0.00     0.215 HD
ENDBRANCH  11  49
BRANCH  12  51
HETATM   51  C9  UNL     1       3.797  16.296  40.012  1.00  0.00     0.214 C 
HETATM   52  O7  UNL     1       4.411  17.372  40.049  1.00  0.00    -0.646 OA
HETATM   53  O8  UNL     1       2.518  16.215  40.536  1.00  0.00    -0.646 OA
ENDBRANCH  12  51
TORSDOF 14
ENDMDL
