MODEL 1
REMARK VINA RESULT: -8.450397133      0.000      0.000
REMARK  15 active torsions:
REMARK  status: ('A' for Active; 'I' for Inactive)
REMARK    1  A    between atoms: C4_8  and  O1_9 
REMARK    2  A    between atoms: C5_12  and  C6_13 
REMARK    3  A    between atoms: C6_13  and  N3_14 
REMARK    4  A    between atoms: C8_22  and  C9_23 
REMARK    5  A    between atoms: C9_23  and  O4_24 
REMARK    6  A    between atoms: C9_23  and  N5_26 
REMARK    7  A    between atoms: N5_26  and  C10_28 
REMARK    8  A    between atoms: C10_28  and  C11_29 
REMARK    9  A    between atoms: C10_28  and  C12_32 
REMARK   10  A    between atoms: C11_29  and  O5_30 
REMARK       I    between atoms: C12_32  and  N6_34 
REMARK   11  A    between atoms: N6_34  and  C13_36 
REMARK   12  A    between atoms: C16_39  and  O7_40 
REMARK   13  A    between atoms: C17_42  and  N7_43 
REMARK   14  A    between atoms: C18_47  and  O8_48 
REMARK   15  A    between atoms: C19_50  and  O9_51 
ROOT
HETATM    1  N1  UNL     1      10.918  11.345  39.973  1.00  0.00    -0.195 NA
HETATM    2  C1  UNL     1      10.872  12.120  39.128  1.00  0.00     0.099 C 
HETATM    3  C2  UNL     1      10.813  13.113  38.087  1.00  0.00     0.341 C 
HETATM    4  N2  UNL     1      11.835  14.115  38.325  1.00  0.00    -0.040 N 
ATOM      5  H21 UNL     1      12.678  13.698  38.721  1.00  0.00     0.280 HD
ATOM      6  H22 UNL     1      11.579  14.728  39.099  1.00  0.00     0.280 HD
HETATM    7  C3  UNL     1      12.131  14.862  37.150  1.00  0.00     0.290 C 
HETATM    8  C4  UNL     1      12.589  16.277  37.415  1.00  0.00     0.295 C 
HETATM    9  O2  UNL     1      12.442  17.096  36.317  1.00  0.00    -0.328 OA
HETATM   10  C5  UNL     1      11.199  16.984  35.747  1.00  0.00     0.291 C 
HETATM   11  O3  UNL     1      11.068  15.715  35.169  1.00  0.00    -0.333 OA
HETATM   12  C7  UNL     1      10.931  14.824  36.230  1.00  0.00     0.260 C 
HETATM   13  N4  UNL     1      10.867  13.449  35.759  1.00  0.00    -0.362 N 
ATOM     14  H4  UNL     1      10.870  13.195  34.771  1.00  0.00     0.162 HD
HETATM   15  C8  UNL     1      10.808  12.583  36.708  1.00  0.00     0.077 C 
ENDROOT
BRANCH  15  16
HETATM   16  C9  UNL     1      10.739  11.118  36.448  1.00  0.00     0.264 C 
BRANCH  16  17
HETATM   17  O4  UNL     1       9.437  10.839  36.041  1.00  0.00    -0.372 OA
ATOM     18  H4  UNL     1       9.393   9.905  35.875  1.00  0.00     0.212 HD
ENDBRANCH  16  17
BRANCH  16  19
HETATM   19  N5  UNL     1      11.742  10.764  35.542  1.00  0.00    -0.378 N 
ATOM     20  H5  UNL     1      11.747  11.189  34.615  1.00  0.00     0.157 HD
BRANCH  19  21
HETATM   21  C10 UNL     1      12.748   9.837  35.876  1.00  0.00     0.195 C 
BRANCH  21  22
HETATM   22  C11 UNL     1      12.773   9.440  37.336  1.00  0.00     0.198 C 
BRANCH  22  23
HETATM   23  O5  UNL     1      13.410   8.213  37.541  1.00  0.00    -0.398 OA
ATOM     24  H5  UNL     1      13.006   7.708  38.237  1.00  0.00     0.209 HD
ENDBRANCH  22  23
ENDBRANCH  21  22
BRANCH  21  25
HETATM   25  C12 UNL     1      14.111  10.216  35.462  1.00  0.00     0.242 C 
HETATM   26  O6  UNL     1      14.507  10.022  34.309  1.00  0.00    -0.271 OA
HETATM   27  N6  UNL     1      14.990  10.809  36.382  1.00  0.00    -0.352 N 
ATOM     28  H6  UNL     1      14.651  10.961  37.332  1.00  0.00     0.163 HD
BRANCH  27  29
HETATM   29  C13 UNL     1      16.344  11.221  36.079  1.00  0.00     0.116 C 
HETATM   30  C14 UNL     1      16.345  12.534  35.341  1.00  0.00     0.030 C 
HETATM   31  C15 UNL     1      16.023  13.725  36.163  1.00  0.00     0.036 C 
HETATM   32  C16 UNL     1      16.712  13.862  37.463  1.00  0.00     0.151 C 
HETATM   33  C17 UNL     1      18.168  13.497  37.452  1.00  0.00     0.243 C 
HETATM   34  C18 UNL     1      18.427  12.090  36.999  1.00  0.00     0.181 C 
HETATM   35  C19 UNL     1      17.267  11.166  37.239  1.00  0.00     0.171 C 
BRANCH  32  36
HETATM   36  O7  UNL     1      16.636  15.213  37.854  1.00  0.00    -0.393 OA
ATOM     37  H7  UNL     1      17.510  15.581  37.809  1.00  0.00     0.210 HD
ENDBRANCH  32  36
BRANCH  33  38
HETATM   38  N7  UNL     1      18.986  14.412  36.697  1.00  0.00    -0.070 N 
ATOM     39  H73 UNL     1      18.761  14.361  35.703  1.00  0.00     0.274 HD
ATOM     40  H72 UNL     1      18.714  15.377  36.884  1.00  0.00     0.274 HD
ATOM     41  H71 UNL     1      19.988  14.284  36.847  1.00  0.00     0.274 HD
ENDBRANCH  33  38
BRANCH  34  42
HETATM   42  O8  UNL     1      19.543  11.568  37.695  1.00  0.00    -0.391 OA
ATOM     43  H8  UNL     1      20.199  11.281  37.071  1.00  0.00     0.210 HD
ENDBRANCH  34  42
BRANCH  35  44
HETATM   44  O9  UNL     1      17.828   9.867  37.327  1.00  0.00    -0.391 OA
ATOM     45  H9  UNL     1      17.861   9.601  38.239  1.00  0.00     0.210 HD
ENDBRANCH  35  44
ENDBRANCH  27  29
ENDBRANCH  21  25
ENDBRANCH  19  21
ENDBRANCH  16  19
ENDBRANCH  15  16
BRANCH   8  46
HETATM   46  O1  UNL     1      13.963  16.208  37.715  1.00  0.00    -0.369 OA
ATOM     47  H1  UNL     1      14.283  17.102  37.732  1.00  0.00     0.212 HD
ENDBRANCH   8  46
BRANCH  10  48
HETATM   48  C6  UNL     1      10.895  18.091  34.778  1.00  0.00     0.290 C 
BRANCH  48  49
HETATM   49  N3  UNL     1       9.975  17.715  33.738  1.00  0.00    -0.075 N 
ATOM     50  H33 UNL     1      10.394  17.021  33.121  1.00  0.00     0.274 HD
ATOM     51  H32 UNL     1       9.207  17.163  34.121  1.00  0.00     0.274 HD
ATOM     52  H31 UNL     1       9.617  18.504  33.201  1.00  0.00     0.274 HD
ENDBRANCH  48  49
ENDBRANCH  10  48
TORSDOF 15
ENDMDL
MODEL 2
REMARK VINA RESULT: -7.941232971      1.960      2.798
REMARK  15 active torsions:
REMARK  status: ('A' for Active; 'I' for Inactive)
REMARK    1  A    between atoms: C4_8  and  O1_9 
REMARK    2  A    between atoms: C5_12  and  C6_13 
REMARK    3  A    between atoms: C6_13  and  N3_14 
REMARK    4  A    between atoms: C8_22  and  C9_23 
REMARK    5  A    between atoms: C9_23  and  O4_24 
REMARK    6  A    between atoms: C9_23  and  N5_26 
REMARK    7  A    between atoms: N5_26  and  C10_28 
REMARK    8  A    between atoms: C10_28  and  C11_29 
REMARK    9  A    between atoms: C10_28  and  C12_32 
REMARK   10  A    between atoms: C11_29  and  O5_30 
REMARK       I    between atoms: C12_32  and  N6_34 
REMARK   11  A    between atoms: N6_34  and  C13_36 
REMARK   12  A    between atoms: C16_39  and  O7_40 
REMARK   13  A    between atoms: C17_42  and  N7_43 
REMARK   14  A    between atoms: C18_47  and  O8_48 
REMARK   15  A    between atoms: C19_50  and  O9_51 
ROOT
HETATM    1  N1  UNL     1      12.165  10.231  37.593  1.00  0.00    -0.195 NA
HETATM    2  C1  UNL     1      12.169  11.179  36.946  1.00  0.00     0.099 C 
HETATM    3  C2  UNL     1      12.156  12.380  36.152  1.00  0.00     0.341 C 
HETATM    4  N2  UNL     1      12.361  13.526  37.018  1.00  0.00    -0.040 N 
ATOM      5  H21 UNL     1      13.006  13.306  37.777  1.00  0.00     0.280 HD
ATOM      6  H22 UNL     1      11.527  13.729  37.568  1.00  0.00     0.280 HD
HETATM    7  C3  UNL     1      12.792  14.672  36.290  1.00  0.00     0.290 C 
HETATM    8  C4  UNL     1      12.368  15.988  36.901  1.00  0.00     0.295 C 
HETATM    9  O2  UNL     1      12.394  17.025  35.994  1.00  0.00    -0.328 OA
HETATM   10  C5  UNL     1      11.768  16.702  34.816  1.00  0.00     0.291 C 
HETATM   11  O3  UNL     1      12.519  15.727  34.146  1.00  0.00    -0.333 OA
HETATM   12  C7  UNL     1      12.328  14.544  34.856  1.00  0.00     0.260 C 
HETATM   13  N4  UNL     1      13.128  13.462  34.303  1.00  0.00    -0.362 N 
ATOM     14  H4  UNL     1      13.706  13.564  33.468  1.00  0.00     0.162 HD
HETATM   15  C8  UNL     1      13.037  12.364  34.966  1.00  0.00     0.077 C 
ENDROOT
BRANCH  15  16
HETATM   16  C9  UNL     1      13.775  11.132  34.574  1.00  0.00     0.264 C 
BRANCH  16  17
HETATM   17  O4  UNL     1      13.153  10.631  33.433  1.00  0.00    -0.372 OA
ATOM     18  H4  UNL     1      12.923   9.728  33.617  1.00  0.00     0.212 HD
ENDBRANCH  16  17
BRANCH  16  19
HETATM   19  N5  UNL     1      15.133  11.433  34.438  1.00  0.00    -0.378 N 
ATOM     20  H5  UNL     1      15.419  12.142  33.762  1.00  0.00     0.157 HD
BRANCH  19  21
HETATM   21  C10 UNL     1      16.117  10.784  35.208  1.00  0.00     0.195 C 
BRANCH  21  22
HETATM   22  C11 UNL     1      15.593  10.128  36.467  1.00  0.00     0.198 C 
BRANCH  22  23
HETATM   23  O5  UNL     1      16.557  10.075  37.478  1.00  0.00    -0.398 OA
ATOM     24  H5  UNL     1      16.324   9.463  38.167  1.00  0.00     0.209 HD
ENDBRANCH  22  23
ENDBRANCH  21  22
BRANCH  21  25
HETATM   25  C12 UNL     1      17.288  11.610  35.552  1.00  0.00     0.242 C 
HETATM   26  O6  UNL     1      18.437  11.208  35.348  1.00  0.00    -0.271 OA
HETATM   27  N6  UNL     1      17.113  12.880  36.125  1.00  0.00    -0.352 N 
ATOM     28  H6  UNL     1      16.158  13.198  36.291  1.00  0.00     0.163 HD
BRANCH  27  29
HETATM   29  C13 UNL     1      18.192  13.771  36.495  1.00  0.00     0.116 C 
HETATM   30  C14 UNL     1      17.866  15.188  36.104  1.00  0.00     0.030 C 
HETATM   31  C15 UNL     1      16.844  15.859  36.941  1.00  0.00     0.036 C 
HETATM   32  C16 UNL     1      16.983  15.748  38.408  1.00  0.00     0.151 C 
HETATM   33  C17 UNL     1      18.387  15.881  38.925  1.00  0.00     0.243 C 
HETATM   34  C18 UNL     1      19.334  14.871  38.346  1.00  0.00     0.181 C 
HETATM   35  C19 UNL     1      18.655  13.609  37.896  1.00  0.00     0.171 C 
BRANCH  32  36
HETATM   36  O7  UNL     1      16.235  16.786  38.996  1.00  0.00    -0.393 OA
ATOM     37  H7  UNL     1      15.333  16.496  39.061  1.00  0.00     0.210 HD
ENDBRANCH  32  36
BRANCH  33  38
HETATM   38  N7  UNL     1      18.933  17.206  38.775  1.00  0.00    -0.070 N 
ATOM     39  H73 UNL     1      18.429  17.724  38.055  1.00  0.00     0.274 HD
ATOM     40  H72 UNL     1      18.708  17.782  39.586  1.00  0.00     0.274 HD
ATOM     41  H71 UNL     1      19.936  17.216  38.592  1.00  0.00     0.274 HD
ENDBRANCH  33  38
BRANCH  34  42
HETATM   42  O8  UNL     1      20.298  14.517  39.320  1.00  0.00    -0.391 OA
ATOM     43  H8  UNL     1      20.527  13.600  39.220  1.00  0.00     0.210 HD
ENDBRANCH  34  42
BRANCH  35  44
HETATM   44  O9  UNL     1      19.653  12.603  37.944  1.00  0.00    -0.391 OA
ATOM     45  H9  UNL     1      19.252  11.758  37.778  1.00  0.00     0.210 HD
ENDBRANCH  35  44
ENDBRANCH  27  29
ENDBRANCH  21  25
ENDBRANCH  19  21
ENDBRANCH  16  19
ENDBRANCH  15  16
BRANCH   8  46
HETATM   46  O1  UNL     1      13.301  16.283  37.913  1.00  0.00    -0.369 OA
ATOM     47  H1  UNL     1      13.177  17.197  38.139  1.00  0.00     0.212 HD
ENDBRANCH   8  46
BRANCH  10  48
HETATM   48  C6  UNL     1      11.484  17.899  33.954  1.00  0.00     0.290 C 
BRANCH  48  49
HETATM   49  N3  UNL     1      12.197  17.897  32.705  1.00  0.00    -0.075 N 
ATOM     50  H33 UNL     1      12.016  17.036  32.190  1.00  0.00     0.274 HD
ATOM     51  H32 UNL     1      11.789  18.573  32.059  1.00  0.00     0.274 HD
ATOM     52  H31 UNL     1      13.200  18.053  32.804  1.00  0.00     0.274 HD
ENDBRANCH  48  49
ENDBRANCH  10  48
TORSDOF 15
ENDMDL
MODEL 3
REMARK VINA RESULT: -7.876983336      2.865      8.433
REMARK  15 active torsions:
REMARK  status: ('A' for Active; 'I' for Inactive)
REMARK    1  A    between atoms: C4_8  and  O1_9 
REMARK    2  A    between atoms: C5_12  and  C6_13 
REMARK    3  A    between atoms: C6_13  and  N3_14 
REMARK    4  A    between atoms: C8_22  and  C9_23 
REMARK    5  A    between atoms: C9_23  and  O4_24 
REMARK    6  A    between atoms: C9_23  and  N5_26 
REMARK    7  A    between atoms: N5_26  and  C10_28 
REMARK    8  A    between atoms: C10_28  and  C11_29 
REMARK    9  A    between atoms: C10_28  and  C12_32 
REMARK   10  A    between atoms: C11_29  and  O5_30 
REMARK       I    between atoms: C12_32  and  N6_34 
REMARK   11  A    between atoms: N6_34  and  C13_36 
REMARK   12  A    between atoms: C16_39  and  O7_40 
REMARK   13  A    between atoms: C17_42  and  N7_43 
REMARK   14  A    between atoms: C18_47  and  O8_48 
REMARK   15  A    between atoms: C19_50  and  O9_51 
ROOT
HETATM    1  N1  UNL     1      18.781  16.305  37.581  1.00  0.00    -0.195 NA
HETATM    2  C1  UNL     1      18.042  15.557  37.122  1.00  0.00     0.099 C 
HETATM    3  C2  UNL     1      17.135  14.605  36.534  1.00  0.00     0.341 C 
HETATM    4  N2  UNL     1      17.626  13.262  36.783  1.00  0.00    -0.040 N 
ATOM      5  H21 UNL     1      18.070  13.194  37.700  1.00  0.00     0.280 HD
ATOM      6  H22 UNL     1      18.432  13.048  36.197  1.00  0.00     0.280 HD
HETATM    7  C3  UNL     1      16.601  12.285  36.631  1.00  0.00     0.290 C 
HETATM    8  C4  UNL     1      17.100  10.931  36.181  1.00  0.00     0.295 C 
HETATM    9  O2  UNL     1      16.104  10.159  35.623  1.00  0.00    -0.328 OA
HETATM   10  C5  UNL     1      15.372  10.850  34.690  1.00  0.00     0.291 C 
HETATM   11  O3  UNL     1      14.626  11.846  35.333  1.00  0.00    -0.333 OA
HETATM   12  C7  UNL     1      15.540  12.829  35.702  1.00  0.00     0.260 C 
HETATM   13  N4  UNL     1      14.895  13.892  36.457  1.00  0.00    -0.362 N 
ATOM     14  H4  UNL     1      13.891  13.921  36.636  1.00  0.00     0.162 HD
HETATM   15  C8  UNL     1      15.711  14.792  36.879  1.00  0.00     0.077 C 
ENDROOT
BRANCH  15  16
HETATM   16  C9  UNL     1      15.261  15.967  37.674  1.00  0.00     0.264 C 
BRANCH  16  17
HETATM   17  O4  UNL     1      15.641  17.106  36.968  1.00  0.00    -0.372 OA
ATOM     18  H4  UNL     1      15.586  17.837  37.572  1.00  0.00     0.212 HD
ENDBRANCH  16  17
BRANCH  16  19
HETATM   19  N5  UNL     1      13.894  15.849  37.936  1.00  0.00    -0.378 N 
ATOM     20  H5  UNL     1      13.544  14.999  38.377  1.00  0.00     0.157 HD
BRANCH  19  21
HETATM   21  C10 UNL     1      12.985  16.873  37.607  1.00  0.00     0.195 C 
BRANCH  21  22
HETATM   22  C11 UNL     1      11.976  17.186  38.690  1.00  0.00     0.198 C 
BRANCH  22  23
HETATM   23  O5  UNL     1      10.676  16.826  38.324  1.00  0.00    -0.398 OA
ATOM     24  H5  UNL     1      10.126  16.645  39.077  1.00  0.00     0.209 HD
ENDBRANCH  22  23
ENDBRANCH  21  22
BRANCH  21  25
HETATM   25  C12 UNL     1      12.273  16.692  36.329  1.00  0.00     0.242 C 
HETATM   26  O6  UNL     1      12.188  15.582  35.795  1.00  0.00    -0.271 OA
HETATM   27  N6  UNL     1      11.675  17.791  35.691  1.00  0.00    -0.352 N 
ATOM     28  H6  UNL     1      11.756  18.702  36.142  1.00  0.00     0.163 HD
BRANCH  27  29
HETATM   29  C13 UNL     1      10.952  17.722  34.440  1.00  0.00     0.116 C 
HETATM   30  C14 UNL     1       9.490  18.013  34.657  1.00  0.00     0.030 C 
HETATM   31  C15 UNL     1       9.158  19.432  34.926  1.00  0.00     0.036 C 
HETATM   32  C16 UNL     1       9.763  20.453  34.045  1.00  0.00     0.151 C 
HETATM   33  C17 UNL     1       9.797  20.094  32.587  1.00  0.00     0.243 C 
HETATM   34  C18 UNL     1      10.536  18.819  32.304  1.00  0.00     0.181 C 
HETATM   35  C19 UNL     1      11.577  18.493  33.337  1.00  0.00     0.171 C 
BRANCH  32  36
HETATM   36  O7  UNL     1       8.997  21.630  34.155  1.00  0.00    -0.393 OA
ATOM     37  H7  UNL     1       8.474  21.713  33.367  1.00  0.00     0.210 HD
ENDBRANCH  32  36
BRANCH  33  38
HETATM   38  N7  UNL     1       8.494  20.051  31.974  1.00  0.00    -0.070 N 
ATOM     39  H73 UNL     1       7.777  19.830  32.666  1.00  0.00     0.274 HD
ATOM     40  H72 UNL     1       8.189  20.987  31.707  1.00  0.00     0.274 HD
ATOM     41  H71 UNL     1       8.437  19.412  31.180  1.00  0.00     0.274 HD
ENDBRANCH  33  38
BRANCH  34  42
HETATM   42  O8  UNL     1      11.190  18.921  31.053  1.00  0.00    -0.391 OA
ATOM     43  H8  UNL     1      10.615  18.601  30.368  1.00  0.00     0.210 HD
ENDBRANCH  34  42
BRANCH  35  44
HETATM   44  O9  UNL     1      12.526  17.675  32.675  1.00  0.00    -0.391 OA
ATOM     45  H9  UNL     1      13.277  18.203  32.429  1.00  0.00     0.210 HD
ENDBRANCH  35  44
ENDBRANCH  27  29
ENDBRANCH  21  25
ENDBRANCH  19  21
ENDBRANCH  16  19
ENDBRANCH  15  16
BRANCH   8  46
HETATM   46  O1  UNL     1      17.560  10.266  37.333  1.00  0.00    -0.369 OA
ATOM     47  H1  UNL     1      18.271   9.701  37.055  1.00  0.00     0.212 HD
ENDBRANCH   8  46
BRANCH  10  48
HETATM   48  C6  UNL     1      14.520   9.957  33.834  1.00  0.00     0.290 C 
BRANCH  48  49
HETATM   49  N3  UNL     1      13.278  10.557  33.426  1.00  0.00    -0.075 N 
ATOM     50  H33 UNL     1      12.557  10.403  34.130  1.00  0.00     0.274 HD
ATOM     51  H32 UNL     1      13.341  11.574  33.464  1.00  0.00     0.274 HD
ATOM     52  H31 UNL     1      12.955  10.250  32.509  1.00  0.00     0.274 HD
ENDBRANCH  48  49
ENDBRANCH  10  48
TORSDOF 15
ENDMDL
MODEL 4
REMARK VINA RESULT: -7.861452734      2.908      4.740
REMARK  15 active torsions:
REMARK  status: ('A' for Active; 'I' for Inactive)
REMARK    1  A    between atoms: C4_8  and  O1_9 
REMARK    2  A    between atoms: C5_12  and  C6_13 
REMARK    3  A    between atoms: C6_13  and  N3_14 
REMARK    4  A    between atoms: C8_22  and  C9_23 
REMARK    5  A    between atoms: C9_23  and  O4_24 
REMARK    6  A    between atoms: C9_23  and  N5_26 
REMARK    7  A    between atoms: N5_26  and  C10_28 
REMARK    8  A    between atoms: C10_28  and  C11_29 
REMARK    9  A    between atoms: C10_28  and  C12_32 
REMARK   10  A    between atoms: C11_29  and  O5_30 
REMARK       I    between atoms: C12_32  and  N6_34 
REMARK   11  A    between atoms: N6_34  and  C13_36 
REMARK   12  A    between atoms: C16_39  and  O7_40 
REMARK   13  A    between atoms: C17_42  and  N7_43 
REMARK   14  A    between atoms: C18_47  and  O8_48 
REMARK   15  A    between atoms: C19_50  and  O9_51 
ROOT
HETATM    1  N1  UNL     1      12.865   9.473  37.391  1.00  0.00    -0.195 NA
HETATM    2  C1  UNL     1      12.932  10.455  36.801  1.00  0.00     0.099 C 
HETATM    3  C2  UNL     1      12.989  11.690  36.063  1.00  0.00     0.341 C 
HETATM    4  N2  UNL     1      12.276  12.718  36.798  1.00  0.00    -0.040 N 
ATOM      5  H21 UNL     1      12.396  12.604  37.805  1.00  0.00     0.280 HD
ATOM      6  H22 UNL     1      11.267  12.581  36.739  1.00  0.00     0.280 HD
HETATM    7  C3  UNL     1      12.646  14.026  36.377  1.00  0.00     0.290 C 
HETATM    8  C4  UNL     1      11.551  15.057  36.526  1.00  0.00     0.295 C 
HETATM    9  O2  UNL     1      11.755  16.165  35.732  1.00  0.00    -0.328 OA
HETATM   10  C5  UNL     1      12.065  15.828  34.438  1.00  0.00     0.291 C 
HETATM   11  O3  UNL     1      13.330  15.225  34.408  1.00  0.00    -0.333 OA
HETATM   12  C7  UNL     1      13.161  13.957  34.957  1.00  0.00     0.260 C 
HETATM   13  N4  UNL     1      14.431  13.253  35.058  1.00  0.00    -0.362 N 
ATOM     14  H4  UNL     1      15.312  13.637  34.714  1.00  0.00     0.162 HD
HETATM   15  C8  UNL     1      14.338  12.102  35.621  1.00  0.00     0.077 C 
ENDROOT
BRANCH  15  16
HETATM   16  C9  UNL     1      15.517  11.216  35.827  1.00  0.00     0.264 C 
BRANCH  16  17
HETATM   17  O4  UNL     1      16.096  11.013  34.577  1.00  0.00    -0.372 OA
ATOM     18  H4  UNL     1      17.037  11.058  34.697  1.00  0.00     0.212 HD
ENDBRANCH  16  17
BRANCH  16  19
HETATM   19  N5  UNL     1      16.352  11.780  36.794  1.00  0.00    -0.378 N 
ATOM     20  H5  UNL     1      16.082  11.725  37.777  1.00  0.00     0.157 HD
BRANCH  19  21
HETATM   21  C10 UNL     1      17.557  12.423  36.450  1.00  0.00     0.195 C 
BRANCH  21  22
HETATM   22  C11 UNL     1      18.771  11.918  37.198  1.00  0.00     0.198 C 
BRANCH  22  23
HETATM   23  O5  UNL     1      18.489  11.636  38.537  1.00  0.00    -0.398 OA
ATOM     24  H5  UNL     1      17.956  10.856  38.638  1.00  0.00     0.209 HD
ENDBRANCH  22  23
ENDBRANCH  21  22
BRANCH  21  25
HETATM   25  C12 UNL     1      17.526  13.894  36.527  1.00  0.00     0.242 C 
HETATM   26  O6  UNL     1      16.827  14.561  35.759  1.00  0.00    -0.271 OA
HETATM   27  N6  UNL     1      18.300  14.568  37.485  1.00  0.00    -0.352 N 
ATOM     28  H6  UNL     1      18.876  14.004  38.111  1.00  0.00     0.163 HD
BRANCH  27  29
HETATM   29  C13 UNL     1      18.340  16.005  37.647  1.00  0.00     0.116 C 
HETATM   30  C14 UNL     1      18.342  16.373  39.108  1.00  0.00     0.030 C 
HETATM   31  C15 UNL     1      19.614  16.120  39.826  1.00  0.00     0.036 C 
HETATM   32  C16 UNL     1      20.863  16.573  39.179  1.00  0.00     0.151 C 
HETATM   33  C17 UNL     1      20.785  17.919  38.518  1.00  0.00     0.243 C 
HETATM   34  C18 UNL     1      19.722  18.004  37.461  1.00  0.00     0.181 C 
HETATM   35  C19 UNL     1      19.392  16.676  36.842  1.00  0.00     0.171 C 
BRANCH  32  36
HETATM   36  O7  UNL     1      21.857  16.666  40.172  1.00  0.00    -0.393 OA
ATOM     37  H7  UNL     1      22.696  16.763  39.738  1.00  0.00     0.210 HD
ENDBRANCH  32  36
BRANCH  33  38
HETATM   38  N7  UNL     1      20.638  19.010  39.448  1.00  0.00    -0.070 N 
ATOM     39  H73 UNL     1      19.658  19.283  39.531  1.00  0.00     0.274 HD
ATOM     40  H72 UNL     1      20.807  18.695  40.403  1.00  0.00     0.274 HD
ATOM     41  H71 UNL     1      21.220  19.818  39.225  1.00  0.00     0.274 HD
ENDBRANCH  33  38
BRANCH  34  42
HETATM   42  O8  UNL     1      20.156  18.864  36.424  1.00  0.00    -0.391 OA
ATOM     43  H8  UNL     1      19.777  18.583  35.600  1.00  0.00     0.210 HD
ENDBRANCH  34  42
BRANCH  35  44
HETATM   44  O9  UNL     1      18.875  16.974  35.557  1.00  0.00    -0.391 OA
ATOM     45  H9  UNL     1      19.247  16.370  34.923  1.00  0.00     0.210 HD
ENDBRANCH  35  44
ENDBRANCH  27  29
ENDBRANCH  21  25
ENDBRANCH  19  21
ENDBRANCH  16  19
ENDBRANCH  15  16
BRANCH   8  46
HETATM   46  O1  UNL     1      11.576  15.483  37.867  1.00  0.00    -0.369 OA
ATOM     47  H1  UNL     1      11.232  16.369  37.878  1.00  0.00     0.212 HD
ENDBRANCH   8  46
BRANCH  10  48
HETATM   48  C6  UNL     1      11.958  16.986  33.488  1.00  0.00     0.290 C 
BRANCH  48  49
HETATM   49  N3  UNL     1      10.615  17.255  33.050  1.00  0.00    -0.075 N 
ATOM     50  H33 UNL     1       9.951  17.087  33.806  1.00  0.00     0.274 HD
ATOM     51  H32 UNL     1      10.474  18.256  32.917  1.00  0.00     0.274 HD
ATOM     52  H31 UNL     1      10.344  16.739  32.213  1.00  0.00     0.274 HD
ENDBRANCH  48  49
ENDBRANCH  10  48
TORSDOF 15
ENDMDL
MODEL 5
REMARK VINA RESULT: -7.861253782      4.433      8.169
REMARK  15 active torsions:
REMARK  status: ('A' for Active; 'I' for Inactive)
REMARK    1  A    between atoms: C4_8  and  O1_9 
REMARK    2  A    between atoms: C5_12  and  C6_13 
REMARK    3  A    between atoms: C6_13  and  N3_14 
REMARK    4  A    between atoms: C8_22  and  C9_23 
REMARK    5  A    between atoms: C9_23  and  O4_24 
REMARK    6  A    between atoms: C9_23  and  N5_26 
REMARK    7  A    between atoms: N5_26  and  C10_28 
REMARK    8  A    between atoms: C10_28  and  C11_29 
REMARK    9  A    between atoms: C10_28  and  C12_32 
REMARK   10  A    between atoms: C11_29  and  O5_30 
REMARK       I    between atoms: C12_32  and  N6_34 
REMARK   11  A    between atoms: N6_34  and  C13_36 
REMARK   12  A    between atoms: C16_39  and  O7_40 
REMARK   13  A    between atoms: C17_42  and  N7_43 
REMARK   14  A    between atoms: C18_47  and  O8_48 
REMARK   15  A    between atoms: C19_50  and  O9_51 
ROOT
HETATM    1  N1  UNL     1       9.453  14.070  40.590  1.00  0.00    -0.195 NA
HETATM    2  C1  UNL     1       8.721  13.404  40.009  1.00  0.00     0.099 C 
HETATM    3  C2  UNL     1       7.783  12.576  39.297  1.00  0.00     0.341 C 
HETATM    4  N2  UNL     1       6.616  13.365  38.952  1.00  0.00    -0.040 N 
ATOM      5  H21 UNL     1       6.872  14.327  38.726  1.00  0.00     0.280 HD
ATOM      6  H22 UNL     1       6.033  13.542  39.770  1.00  0.00     0.280 HD
HETATM    7  C3  UNL     1       5.863  12.771  37.900  1.00  0.00     0.290 C 
HETATM    8  C4  UNL     1       4.383  13.074  37.950  1.00  0.00     0.295 C 
HETATM    9  O2  UNL     1       3.633  12.169  37.231  1.00  0.00    -0.328 OA
HETATM   10  C5  UNL     1       3.970  10.870  37.518  1.00  0.00     0.291 C 
HETATM   11  O3  UNL     1       5.259  10.610  37.034  1.00  0.00    -0.333 OA
HETATM   12  C7  UNL     1       6.129  11.282  37.888  1.00  0.00     0.260 C 
HETATM   13  N4  UNL     1       7.509  11.156  37.441  1.00  0.00    -0.362 N 
ATOM     14  H4  UNL     1       7.786  10.597  36.634  1.00  0.00     0.162 HD
HETATM   15  C8  UNL     1       8.344  11.816  38.160  1.00  0.00     0.077 C 
ENDROOT
BRANCH  15  16
HETATM   16  C9  UNL     1       9.806  11.827  37.878  1.00  0.00     0.264 C 
BRANCH  16  17
HETATM   17  O4  UNL     1      10.239  10.504  37.923  1.00  0.00    -0.372 OA
ATOM     18  H4  UNL     1      11.188  10.523  37.949  1.00  0.00     0.212 HD
ENDBRANCH  16  17
BRANCH  16  19
HETATM   19  N5  UNL     1      10.036  12.495  36.673  1.00  0.00    -0.378 N 
ATOM     20  H5  UNL     1       9.670  12.099  35.807  1.00  0.00     0.157 HD
BRANCH  19  21
HETATM   21  C10 UNL     1      10.760  13.702  36.621  1.00  0.00     0.195 C 
BRANCH  21  22
HETATM   22  C11 UNL     1      11.788  13.862  37.720  1.00  0.00     0.198 C 
BRANCH  22  23
HETATM   23  O5  UNL     1      11.497  14.936  38.566  1.00  0.00    -0.398 OA
ATOM     24  H5  UNL     1      12.151  15.047  39.247  1.00  0.00     0.209 HD
ENDBRANCH  22  23
ENDBRANCH  21  22
BRANCH  21  25
HETATM   25  C12 UNL     1       9.938  14.923  36.555  1.00  0.00     0.242 C 
HETATM   26  O6  UNL     1       8.749  14.914  36.890  1.00  0.00    -0.271 OA
HETATM   27  N6  UNL     1      10.498  16.129  36.104  1.00  0.00    -0.352 N 
ATOM     28  H6  UNL     1      11.480  16.121  35.827  1.00  0.00     0.163 HD
BRANCH  27  29
HETATM   29  C13 UNL     1       9.782  17.382  36.003  1.00  0.00     0.116 C 
HETATM   30  C14 UNL     1      10.675  18.534  36.381  1.00  0.00     0.030 C 
HETATM   31  C15 UNL     1      11.710  18.890  35.381  1.00  0.00     0.036 C 
HETATM   32  C16 UNL     1      11.284  19.008  33.971  1.00  0.00     0.151 C 
HETATM   33  C17 UNL     1       9.964  19.692  33.761  1.00  0.00     0.243 C 
HETATM   34  C18 UNL     1       8.826  19.026  34.479  1.00  0.00     0.181 C 
HETATM   35  C19 UNL     1       9.053  17.562  34.723  1.00  0.00     0.171 C 
BRANCH  32  36
HETATM   36  O7  UNL     1      12.249  19.773  33.288  1.00  0.00    -0.393 OA
ATOM     37  H7  UNL     1      11.936  19.917  32.404  1.00  0.00     0.210 HD
ENDBRANCH  32  36
BRANCH  33  38
HETATM   38  N7  UNL     1       9.986  21.098  34.079  1.00  0.00    -0.070 N 
ATOM     39  H73 UNL     1      10.130  21.239  35.080  1.00  0.00     0.274 HD
ATOM     40  H72 UNL     1      10.836  21.534  33.723  1.00  0.00     0.274 HD
ATOM     41  H71 UNL     1       9.159  21.602  33.759  1.00  0.00     0.274 HD
ENDBRANCH  33  38
BRANCH  34  42
HETATM   42  O8  UNL     1       7.644  19.155  33.711  1.00  0.00    -0.391 OA
ATOM     43  H8  UNL     1       7.260  18.297  33.574  1.00  0.00     0.210 HD
ENDBRANCH  34  42
BRANCH  35  44
HETATM   44  O9  UNL     1       7.761  16.990  34.837  1.00  0.00    -0.391 OA
ATOM     45  H9  UNL     1       7.592  16.444  34.078  1.00  0.00     0.210 HD
ENDBRANCH  35  44
ENDBRANCH  27  29
ENDBRANCH  21  25
ENDBRANCH  19  21
ENDBRANCH  16  19
ENDBRANCH  15  16
BRANCH   8  46
HETATM   46  O1  UNL     1       4.210  14.339  37.356  1.00  0.00    -0.369 OA
ATOM     47  H1  UNL     1       3.308  14.592  37.513  1.00  0.00     0.212 HD
ENDBRANCH   8  46
BRANCH  10  48
HETATM   48  C6  UNL     1       2.959   9.877  37.019  1.00  0.00     0.290 C 
BRANCH  48  49
HETATM   49  N3  UNL     1       3.538   8.757  36.327  1.00  0.00    -0.075 N 
ATOM     50  H33 UNL     1       3.931   9.051  35.434  1.00  0.00     0.274 HD
ATOM     51  H32 UNL     1       4.389   8.447  36.796  1.00  0.00     0.274 HD
ATOM     52  H31 UNL     1       2.894   7.977  36.198  1.00  0.00     0.274 HD
ENDBRANCH  48  49
ENDBRANCH  10  48
TORSDOF 15
ENDMDL
