MODEL 1
REMARK VINA RESULT: -8.260776854      0.000      0.000
REMARK  16 active torsions:
REMARK  status: ('A' for Active; 'I' for Inactive)
REMARK    1  A    between atoms: N1_1  and  C1_4 
REMARK    2  A    between atoms: C2_9  and  C3_10 
REMARK    3  A    between atoms: C3_10  and  O1_11 
REMARK    4  A    between atoms: C3_10  and  C4_13 
REMARK    5  A    between atoms: C4_13  and  O2_14 
REMARK    6  A    between atoms: C4_13  and  C5_16 
REMARK    7  A    between atoms: C5_16  and  N4_17 
REMARK    8  A    between atoms: C5_16  and  C6_21 
REMARK       I    between atoms: C6_21  and  N5_23 
REMARK    9  A    between atoms: N5_23  and  C7_25 
REMARK   10  A    between atoms: C8_26  and  O4_27 
REMARK   11  A    between atoms: C9_29  and  O5_30 
REMARK   12  A    between atoms: C10_32  and  O6_33 
REMARK   13  A    between atoms: C11_35  and  N6_36 
REMARK   14  A    between atoms: N9_44  and  C15_45 
REMARK   15  A    between atoms: C15_45  and  N10_46 
REMARK   16  A    between atoms: C17_51  and  O7_52 
ROOT
HETATM    1  C7  UNL     1       8.761  14.362  38.744  1.00  0.00     0.146 C 
HETATM    2  C8  UNL     1       9.261  14.063  40.134  1.00  0.00     0.174 C 
HETATM    3  C9  UNL     1       9.163  12.602  40.500  1.00  0.00     0.179 C 
HETATM    4  C10 UNL     1       9.940  11.724  39.578  1.00  0.00     0.175 C 
HETATM    5  C11 UNL     1      10.279  12.430  38.268  1.00  0.00     0.154 C 
HETATM    6  C17 UNL     1       9.135  13.281  37.799  1.00  0.00     0.169 C 
ENDROOT
BRANCH   1   7
HETATM    7  N5  UNL     1       7.326  14.516  38.836  1.00  0.00    -0.349 N 
HETATM    8  C6  UNL     1       6.495  15.120  37.887  1.00  0.00     0.251 C 
HETATM    9  O3  UNL     1       7.014  15.586  36.839  1.00  0.00    -0.271 OA
ATOM     10  H5  UNL     1       6.876  14.149  39.674  1.00  0.00     0.163 HD
BRANCH   8  11
HETATM   11  C5  UNL     1       5.047  15.237  38.053  1.00  0.00     0.305 C 
BRANCH  11  12
HETATM   12  C4  UNL     1       4.287  13.985  37.715  1.00  0.00     0.192 C 
BRANCH  12  13
HETATM   13  C3  UNL     1       4.598  12.830  38.624  1.00  0.00     0.202 C 
BRANCH  13  14
HETATM   14  C2  UNL     1       4.301  11.577  37.871  1.00  0.00     0.073 A 
HETATM   15  N3  UNL     1       3.104  11.389  37.289  1.00  0.00    -0.287 N 
HETATM   16  N2  UNL     1       2.835  10.263  36.614  1.00  0.00    -0.132 N 
ATOM     17  H3  UNL     1       2.390  12.114  37.362  1.00  0.00     0.187 HD
HETATM   18  C1  UNL     1       3.731   9.279  36.484  1.00  0.00     0.690 A 
ATOM     19  H2  UNL     1       1.917  10.154  36.184  1.00  0.00     0.205 HD
HETATM   20  N11 UNL     1       4.940   9.438  37.056  1.00  0.00    -0.199 N 
HETATM   21  C18 UNL     1       5.239  10.574  37.748  1.00  0.00     0.135 A 
ATOM     22  H11 UNL     1       5.640   8.702  36.970  1.00  0.00     0.183 HD
BRANCH  18  23
HETATM   23  N1  UNL     1       3.394   8.235  35.822  1.00  0.00    -0.233 N 
ATOM     24  H12 UNL     1       3.866   7.933  34.970  1.00  0.00     0.174 HD
ATOM     25  H11 UNL     1       2.613   7.676  36.165  1.00  0.00     0.174 HD
ENDBRANCH  18  23
ENDBRANCH  13  14
BRANCH  13  26
HETATM   26  O1  UNL     1       3.754  12.909  39.728  1.00  0.00    -0.387 OA
ATOM     27  H1  UNL     1       3.865  13.755  40.144  1.00  0.00     0.210 HD
ENDBRANCH  13  26
ENDBRANCH  12  13
BRANCH  12  28
HETATM   28  O2  UNL     1       4.505  13.608  36.402  1.00  0.00    -0.390 OA
ATOM     29  H2  UNL     1       5.259  14.074  36.060  1.00  0.00     0.210 HD
ENDBRANCH  12  28
ENDBRANCH  11  12
BRANCH  11  30
HETATM   30  N4  UNL     1       4.468  16.344  37.338  1.00  0.00    -0.064 N 
ATOM     31  H43 UNL     1       3.978  16.047  36.494  1.00  0.00     0.275 HD
ATOM     32  H42 UNL     1       3.672  16.750  37.830  1.00  0.00     0.275 HD
ATOM     33  H41 UNL     1       5.197  17.031  37.143  1.00  0.00     0.275 HD
ENDBRANCH  11  30
ENDBRANCH   8  11
ENDBRANCH   1   7
BRANCH   2  34
HETATM   34  O4  UNL     1      10.574  14.504  40.313  1.00  0.00    -0.391 OA
ATOM     35  H4  UNL     1      11.118  13.831  40.703  1.00  0.00     0.210 HD
ENDBRANCH   2  34
BRANCH   6  36
HETATM   36  O7  UNL     1       9.484  13.773  36.536  1.00  0.00    -0.391 OA
ATOM     37  H7  UNL     1      10.181  13.271  36.131  1.00  0.00     0.210 HD
ENDBRANCH   6  36
BRANCH   3  38
HETATM   38  O5  UNL     1       9.699  12.443  41.786  1.00  0.00    -0.390 OA
ATOM     39  H5  UNL     1      10.624  12.250  41.695  1.00  0.00     0.210 HD
ENDBRANCH   3  38
BRANCH   5  40
HETATM   40  N6  UNL     1      10.516  11.444  37.215  1.00  0.00    -0.316 N 
HETATM   41  C12 UNL     1       9.762  10.332  36.996  1.00  0.00     0.187 A 
HETATM   42  N7  UNL     1      10.261   9.650  35.956  1.00  0.00    -0.335 N 
HETATM   43  C13 UNL     1      11.341  10.312  35.495  1.00  0.00     0.152 A 
ATOM     44  H7  UNL     1       9.888   8.780  35.579  1.00  0.00     0.168 HD
HETATM   45  N8  UNL     1      12.330  10.326  34.579  1.00  0.00    -0.335 N 
HETATM   46  C16 UNL     1      11.495  11.448  36.298  1.00  0.00     0.158 A 
HETATM   47  C14 UNL     1      13.066  11.406  34.789  1.00  0.00     0.188 A 
ATOM     48  H8  UNL     1      12.484   9.627  33.852  1.00  0.00     0.168 HD
HETATM   49  N9  UNL     1      12.566  12.105  35.843  1.00  0.00    -0.301 N 
BRANCH  49  50
HETATM   50  C15 UNL     1      13.097  13.326  36.353  1.00  0.00     0.361 C 
BRANCH  50  51
HETATM   51  N10 UNL     1      12.266  14.430  35.896  1.00  0.00    -0.063 N 
ATOM     52 3H10 UNL     1      11.337  14.124  35.609  1.00  0.00     0.276 HD
ATOM     53 2H10 UNL     1      11.984  15.047  36.659  1.00  0.00     0.276 HD
ATOM     54 1H10 UNL     1      12.758  14.930  35.155  1.00  0.00     0.276 HD
ENDBRANCH  50  51
ENDBRANCH  49  50
ENDBRANCH   5  40
BRANCH   4  55
HETATM   55  O6  UNL     1      11.157  11.303  40.117  1.00  0.00    -0.391 OA
ATOM     56  H6  UNL     1      11.885  11.393  39.512  1.00  0.00     0.210 HD
ENDBRANCH   4  55
TORSDOF 16
ENDMDL
MODEL 2
REMARK VINA RESULT: -8.247667224      4.811      6.234
REMARK  16 active torsions:
REMARK  status: ('A' for Active; 'I' for Inactive)
REMARK    1  A    between atoms: N1_1  and  C1_4 
REMARK    2  A    between atoms: C2_9  and  C3_10 
REMARK    3  A    between atoms: C3_10  and  O1_11 
REMARK    4  A    between atoms: C3_10  and  C4_13 
REMARK    5  A    between atoms: C4_13  and  O2_14 
REMARK    6  A    between atoms: C4_13  and  C5_16 
REMARK    7  A    between atoms: C5_16  and  N4_17 
REMARK    8  A    between atoms: C5_16  and  C6_21 
REMARK       I    between atoms: C6_21  and  N5_23 
REMARK    9  A    between atoms: N5_23  and  C7_25 
REMARK   10  A    between atoms: C8_26  and  O4_27 
REMARK   11  A    between atoms: C9_29  and  O5_30 
REMARK   12  A    between atoms: C10_32  and  O6_33 
REMARK   13  A    between atoms: C11_35  and  N6_36 
REMARK   14  A    between atoms: N9_44  and  C15_45 
REMARK   15  A    between atoms: C15_45  and  N10_46 
REMARK   16  A    between atoms: C17_51  and  O7_52 
ROOT
HETATM    1  C7  UNL     1       7.930  17.818  36.670  1.00  0.00     0.146 C 
HETATM    2  C8  UNL     1       8.782  18.355  37.790  1.00  0.00     0.174 C 
HETATM    3  C9  UNL     1      10.257  18.104  37.590  1.00  0.00     0.179 C 
HETATM    4  C10 UNL     1      10.780  18.718  36.335  1.00  0.00     0.175 C 
HETATM    5  C11 UNL     1       9.660  19.065  35.359  1.00  0.00     0.154 C 
HETATM    6  C17 UNL     1       8.595  18.007  35.357  1.00  0.00     0.169 C 
ENDROOT
BRANCH   1   7
HETATM    7  N5  UNL     1       7.695  16.419  36.952  1.00  0.00    -0.349 N 
HETATM    8  C6  UNL     1       6.452  15.814  37.164  1.00  0.00     0.251 C 
HETATM    9  O3  UNL     1       5.417  16.528  37.113  1.00  0.00    -0.271 OA
ATOM     10  H5  UNL     1       8.515  15.815  37.000  1.00  0.00     0.163 HD
BRANCH   8  11
HETATM   11  C5  UNL     1       6.297  14.387  37.444  1.00  0.00     0.305 C 
BRANCH  11  12
HETATM   12  C4  UNL     1       4.870  13.944  37.601  1.00  0.00     0.192 C 
BRANCH  12  13
HETATM   13  C3  UNL     1       4.688  12.854  38.619  1.00  0.00     0.202 C 
BRANCH  13  14
HETATM   14  C2  UNL     1       4.373  11.598  37.878  1.00  0.00     0.073 A 
HETATM   15  N3  UNL     1       3.156  11.402  37.341  1.00  0.00    -0.287 N 
HETATM   16  N2  UNL     1       2.870  10.275  36.676  1.00  0.00    -0.132 N 
ATOM     17  H3  UNL     1       2.440  12.123  37.441  1.00  0.00     0.187 HD
HETATM   18  C1  UNL     1       3.767   9.297  36.513  1.00  0.00     0.690 A 
ATOM     19  H2  UNL     1       1.937  10.158  36.281  1.00  0.00     0.205 HD
HETATM   20  N11 UNL     1       4.996   9.465  37.039  1.00  0.00    -0.199 N 
HETATM   21  C18 UNL     1       5.312  10.602  37.719  1.00  0.00     0.135 A 
ATOM     22  H11 UNL     1       5.697   8.733  36.926  1.00  0.00     0.183 HD
BRANCH  18  23
HETATM   23  N1  UNL     1       3.413   8.250  35.863  1.00  0.00    -0.233 N 
ATOM     24  H12 UNL     1       2.530   8.172  35.361  1.00  0.00     0.174 HD
ATOM     25  H11 UNL     1       4.049   7.452  35.849  1.00  0.00     0.174 HD
ENDBRANCH  18  23
ENDBRANCH  13  14
BRANCH  13  26
HETATM   26  O1  UNL     1       3.605  13.192  39.426  1.00  0.00    -0.387 OA
ATOM     27  H1  UNL     1       3.199  13.981  39.088  1.00  0.00     0.210 HD
ENDBRANCH  13  26
ENDBRANCH  12  13
BRANCH  12  28
HETATM   28  O2  UNL     1       4.337  13.537  36.391  1.00  0.00    -0.390 OA
ATOM     29  H2  UNL     1       3.415  13.766  36.359  1.00  0.00     0.210 HD
ENDBRANCH  12  28
ENDBRANCH  11  12
BRANCH  11  30
HETATM   30  N4  UNL     1       7.056  13.932  38.580  1.00  0.00    -0.064 N 
ATOM     31  H43 UNL     1       6.661  13.091  39.000  1.00  0.00     0.275 HD
ATOM     32  H42 UNL     1       7.962  13.547  38.312  1.00  0.00     0.275 HD
ATOM     33  H41 UNL     1       7.142  14.697  39.250  1.00  0.00     0.275 HD
ENDBRANCH  11  30
ENDBRANCH   8  11
ENDBRANCH   1   7
BRANCH   2  34
HETATM   34  O4  UNL     1       8.563  19.719  37.994  1.00  0.00    -0.391 OA
ATOM     35  H4  UNL     1       8.775  20.227  37.220  1.00  0.00     0.210 HD
ENDBRANCH   2  34
BRANCH   6  36
HETATM   36  O7  UNL     1       7.690  18.341  34.343  1.00  0.00    -0.391 OA
ATOM     37  H7  UNL     1       7.700  19.268  34.139  1.00  0.00     0.210 HD
ENDBRANCH   6  36
BRANCH   3  38
HETATM   38  O5  UNL     1      10.944  18.688  38.664  1.00  0.00    -0.390 OA
ATOM     39  H5  UNL     1      10.540  18.385  39.468  1.00  0.00     0.210 HD
ENDBRANCH   3  38
BRANCH   5  40
HETATM   40  N6  UNL     1      10.184  19.123  33.996  1.00  0.00    -0.316 N 
HETATM   41  C12 UNL     1      10.582  18.049  33.261  1.00  0.00     0.187 A 
HETATM   42  N7  UNL     1      11.010  18.462  32.060  1.00  0.00    -0.335 N 
HETATM   43  C13 UNL     1      10.894  19.804  32.008  1.00  0.00     0.152 A 
ATOM     44  H7  UNL     1      11.364  17.863  31.314  1.00  0.00     0.168 HD
HETATM   45  N8  UNL     1      11.077  20.907  31.256  1.00  0.00    -0.335 N 
HETATM   46  C16 UNL     1      10.369  20.214  33.238  1.00  0.00     0.158 A 
HETATM   47  C14 UNL     1      10.691  21.955  31.967  1.00  0.00     0.188 A 
ATOM     48  H8  UNL     1      11.448  20.931  30.306  1.00  0.00     0.168 HD
HETATM   49  N9  UNL     1      10.253  21.546  33.188  1.00  0.00    -0.301 N 
BRANCH  49  50
HETATM   50  C15 UNL     1       9.755  22.397  34.218  1.00  0.00     0.361 C 
BRANCH  50  51
HETATM   51  N10 UNL     1      10.791  22.578  35.223  1.00  0.00    -0.063 N 
ATOM     52 3H10 UNL     1      10.442  22.437  36.171  1.00  0.00     0.276 HD
ATOM     53 2H10 UNL     1      11.481  21.826  35.212  1.00  0.00     0.276 HD
ATOM     54 1H10 UNL     1      11.217  23.497  35.098  1.00  0.00     0.276 HD
ENDBRANCH  50  51
ENDBRANCH  49  50
ENDBRANCH   5  40
BRANCH   4  55
HETATM   55  O6  UNL     1      11.482  19.904  36.556  1.00  0.00    -0.391 OA
ATOM     56  H6  UNL     1      12.257  19.986  36.013  1.00  0.00     0.210 HD
ENDBRANCH   4  55
TORSDOF 16
ENDMDL
MODEL 3
REMARK VINA RESULT: -8.031902980      5.558      8.482
REMARK  16 active torsions:
REMARK  status: ('A' for Active; 'I' for Inactive)
REMARK    1  A    between atoms: N1_1  and  C1_4 
REMARK    2  A    between atoms: C2_9  and  C3_10 
REMARK    3  A    between atoms: C3_10  and  O1_11 
REMARK    4  A    between atoms: C3_10  and  C4_13 
REMARK    5  A    between atoms: C4_13  and  O2_14 
REMARK    6  A    between atoms: C4_13  and  C5_16 
REMARK    7  A    between atoms: C5_16  and  N4_17 
REMARK    8  A    between atoms: C5_16  and  C6_21 
REMARK       I    between atoms: C6_21  and  N5_23 
REMARK    9  A    between atoms: N5_23  and  C7_25 
REMARK   10  A    between atoms: C8_26  and  O4_27 
REMARK   11  A    between atoms: C9_29  and  O5_30 
REMARK   12  A    between atoms: C10_32  and  O6_33 
REMARK   13  A    between atoms: C11_35  and  N6_36 
REMARK   14  A    between atoms: N9_44  and  C15_45 
REMARK   15  A    between atoms: C15_45  and  N10_46 
REMARK   16  A    between atoms: C17_51  and  O7_52 
ROOT
HETATM    1  C7  UNL     1      12.226  13.822  36.509  1.00  0.00     0.146 C 
HETATM    2  C8  UNL     1      12.261  12.567  35.678  1.00  0.00     0.174 C 
HETATM    3  C9  UNL     1      13.165  12.675  34.474  1.00  0.00     0.179 C 
HETATM    4  C10 UNL     1      14.579  12.972  34.841  1.00  0.00     0.175 C 
HETATM    5  C11 UNL     1      14.698  13.518  36.262  1.00  0.00     0.154 C 
HETATM    6  C17 UNL     1      13.567  14.453  36.580  1.00  0.00     0.169 C 
ENDROOT
BRANCH   1   7
HETATM    7  N5  UNL     1      11.254  14.705  35.901  1.00  0.00    -0.349 N 
HETATM    8  C6  UNL     1      10.673  15.831  36.493  1.00  0.00     0.251 C 
HETATM    9  O3  UNL     1      11.004  16.134  37.668  1.00  0.00    -0.271 OA
ATOM     10  H5  UNL     1      10.965  14.484  34.949  1.00  0.00     0.163 HD
BRANCH   8  11
HETATM   11  C5  UNL     1       9.694  16.676  35.809  1.00  0.00     0.305 C 
BRANCH  11  12
HETATM   12  C4  UNL     1      10.101  17.086  34.421  1.00  0.00     0.192 C 
BRANCH  12  13
HETATM   13  C3  UNL     1      11.408  17.824  34.373  1.00  0.00     0.202 C 
BRANCH  13  14
HETATM   14  C2  UNL     1      11.251  18.947  33.403  1.00  0.00     0.073 A 
HETATM   15  N3  UNL     1      11.169  18.710  32.082  1.00  0.00    -0.287 N 
HETATM   16  N2  UNL     1      11.030  19.717  31.209  1.00  0.00    -0.132 N 
ATOM     17  H3  UNL     1      11.213  17.750  31.739  1.00  0.00     0.187 HD
HETATM   18  C1  UNL     1      10.965  20.994  31.599  1.00  0.00     0.690 A 
ATOM     19  H2  UNL     1      10.970  19.502  30.214  1.00  0.00     0.205 HD
HETATM   20  N11 UNL     1      11.044  21.263  32.916  1.00  0.00    -0.199 N 
HETATM   21  C18 UNL     1      11.186  20.258  33.825  1.00  0.00     0.135 A 
ATOM     22  H11 UNL     1      10.996  22.230  33.238  1.00  0.00     0.183 HD
BRANCH  18  23
HETATM   23  N1  UNL     1      10.831  21.898  30.700  1.00  0.00    -0.233 N 
ATOM     24  H12 UNL     1      10.130  21.856  29.961  1.00  0.00     0.174 HD
ATOM     25  H11 UNL     1      11.460  22.701  30.724  1.00  0.00     0.174 HD
ENDBRANCH  18  23
ENDBRANCH  13  14
BRANCH  13  26
HETATM   26  O1  UNL     1      12.383  16.949  33.903  1.00  0.00    -0.387 OA
ATOM     27  H1  UNL     1      12.694  16.414  34.623  1.00  0.00     0.210 HD
ENDBRANCH  13  26
ENDBRANCH  12  13
BRANCH  12  28
HETATM   28  O2  UNL     1       9.118  17.849  33.817  1.00  0.00    -0.390 OA
ATOM     29  H2  UNL     1       9.172  17.745  32.875  1.00  0.00     0.210 HD
ENDBRANCH  12  28
ENDBRANCH  11  12
BRANCH  11  30
HETATM   30  N4  UNL     1       9.321  17.850  36.553  1.00  0.00    -0.064 N 
ATOM     31  H43 UNL     1       8.309  17.968  36.610  1.00  0.00     0.275 HD
ATOM     32  H42 UNL     1       9.510  17.753  37.551  1.00  0.00     0.275 HD
ATOM     33  H41 UNL     1       9.784  18.663  36.147  1.00  0.00     0.275 HD
ENDBRANCH  11  30
ENDBRANCH   8  11
ENDBRANCH   1   7
BRANCH   2  34
HETATM   34  O4  UNL     1      12.626  11.456  36.440  1.00  0.00    -0.391 OA
ATOM     35  H4  UNL     1      12.671  10.669  35.912  1.00  0.00     0.210 HD
ENDBRANCH   2  34
BRANCH   6  36
HETATM   36  O7  UNL     1      13.834  15.002  37.839  1.00  0.00    -0.391 OA
ATOM     37  H7  UNL     1      14.424  15.745  37.793  1.00  0.00     0.210 HD
ENDBRANCH   6  36
BRANCH   3  38
HETATM   38  O5  UNL     1      13.152  11.439  33.813  1.00  0.00    -0.390 OA
ATOM     39  H5  UNL     1      12.287  11.317  33.438  1.00  0.00     0.210 HD
ENDBRANCH   3  38
BRANCH   5  40
HETATM   40  N6  UNL     1      15.926  14.297  36.398  1.00  0.00    -0.316 N 
HETATM   41  C12 UNL     1      16.058  15.616  36.088  1.00  0.00     0.187 A 
HETATM   42  N7  UNL     1      17.316  16.009  36.329  1.00  0.00    -0.335 N 
HETATM   43  C13 UNL     1      18.009  14.951  36.795  1.00  0.00     0.152 A 
ATOM     44  H7  UNL     1      17.686  16.949  36.185  1.00  0.00     0.168 HD
HETATM   45  N8  UNL     1      19.204  14.510  37.235  1.00  0.00    -0.335 N 
HETATM   46  C16 UNL     1      17.120  13.870  36.836  1.00  0.00     0.158 A 
HETATM   47  C14 UNL     1      19.081  13.227  37.537  1.00  0.00     0.188 A 
ATOM     48  H8  UNL     1      20.054  15.068  37.320  1.00  0.00     0.168 HD
HETATM   49  N9  UNL     1      17.806  12.819  37.297  1.00  0.00    -0.301 N 
BRANCH  49  50
HETATM   50  C15 UNL     1      17.303  11.502  37.511  1.00  0.00     0.361 C 
BRANCH  50  51
HETATM   51  N10 UNL     1      17.703  10.656  36.396  1.00  0.00    -0.063 N 
ATOM     52 3H10 UNL     1      18.539  11.003  35.926  1.00  0.00     0.276 HD
ATOM     53 2H10 UNL     1      18.074   9.757  36.703  1.00  0.00     0.276 HD
ATOM     54 1H10 UNL     1      16.912  10.554  35.759  1.00  0.00     0.276 HD
ENDBRANCH  50  51
ENDBRANCH  49  50
ENDBRANCH   5  40
BRANCH   4  55
HETATM   55  O6  UNL     1      15.408  11.850  34.788  1.00  0.00    -0.391 OA
ATOM     56  H6  UNL     1      15.667  11.619  33.903  1.00  0.00     0.210 HD
ENDBRANCH   4  55
TORSDOF 16
ENDMDL
MODEL 4
REMARK VINA RESULT: -7.851546438      3.267      7.562
REMARK  16 active torsions:
REMARK  status: ('A' for Active; 'I' for Inactive)
REMARK    1  A    between atoms: N1_1  and  C1_4 
REMARK    2  A    between atoms: C2_9  and  C3_10 
REMARK    3  A    between atoms: C3_10  and  O1_11 
REMARK    4  A    between atoms: C3_10  and  C4_13 
REMARK    5  A    between atoms: C4_13  and  O2_14 
REMARK    6  A    between atoms: C4_13  and  C5_16 
REMARK    7  A    between atoms: C5_16  and  N4_17 
REMARK    8  A    between atoms: C5_16  and  C6_21 
REMARK       I    between atoms: C6_21  and  N5_23 
REMARK    9  A    between atoms: N5_23  and  C7_25 
REMARK   10  A    between atoms: C8_26  and  O4_27 
REMARK   11  A    between atoms: C9_29  and  O5_30 
REMARK   12  A    between atoms: C10_32  and  O6_33 
REMARK   13  A    between atoms: C11_35  and  N6_36 
REMARK   14  A    between atoms: N9_44  and  C15_45 
REMARK   15  A    between atoms: C15_45  and  N10_46 
REMARK   16  A    between atoms: C17_51  and  O7_52 
ROOT
HETATM    1  C7  UNL     1      10.394  12.083  38.228  1.00  0.00     0.146 C 
HETATM    2  C8  UNL     1      10.544  12.282  39.713  1.00  0.00     0.174 C 
HETATM    3  C9  UNL     1       9.514  13.218  40.295  1.00  0.00     0.179 C 
HETATM    4  C10 UNL     1       8.116  12.745  40.076  1.00  0.00     0.175 C 
HETATM    5  C11 UNL     1       8.036  11.695  38.971  1.00  0.00     0.154 C 
HETATM    6  C17 UNL     1       8.963  12.027  37.838  1.00  0.00     0.169 C 
ENDROOT
BRANCH   1   7
HETATM    7  N5  UNL     1      11.079  13.182  37.583  1.00  0.00    -0.349 N 
HETATM    8  C6  UNL     1      11.413  13.270  36.228  1.00  0.00     0.251 C 
HETATM    9  O3  UNL     1      11.104  12.316  35.467  1.00  0.00    -0.271 OA
ATOM     10  H5  UNL     1      11.344  13.969  38.174  1.00  0.00     0.163 HD
BRANCH   8  11
HETATM   11  C5  UNL     1      12.108  14.420  35.650  1.00  0.00     0.305 C 
BRANCH  11  12
HETATM   12  C4  UNL     1      11.201  15.552  35.260  1.00  0.00     0.192 C 
BRANCH  12  13
HETATM   13  C3  UNL     1      11.719  16.903  35.663  1.00  0.00     0.202 C 
BRANCH  13  14
HETATM   14  C2  UNL     1      11.480  17.833  34.521  1.00  0.00     0.073 A 
HETATM   15  N3  UNL     1      11.758  17.460  33.259  1.00  0.00    -0.287 N 
HETATM   16  N2  UNL     1      11.546  18.294  32.232  1.00  0.00    -0.132 N 
ATOM     17  H3  UNL     1      12.137  16.529  33.082  1.00  0.00     0.187 HD
HETATM   18  C1  UNL     1      11.052  19.524  32.404  1.00  0.00     0.690 A 
ATOM     19  H2  UNL     1      11.769  17.979  31.288  1.00  0.00     0.205 HD
HETATM   20  N11 UNL     1      10.762  19.926  33.656  1.00  0.00    -0.199 N 
HETATM   21  C18 UNL     1      10.968  19.098  34.718  1.00  0.00     0.135 A 
ATOM     22  H11 UNL     1      10.383  20.860  33.811  1.00  0.00     0.183 HD
BRANCH  18  23
HETATM   23  N1  UNL     1      10.879  20.259  31.368  1.00  0.00    -0.233 N 
ATOM     24  H12 UNL     1      10.780  19.886  30.424  1.00  0.00     0.174 HD
ATOM     25  H11 UNL     1      10.839  21.271  31.494  1.00  0.00     0.174 HD
ENDBRANCH  18  23
ENDBRANCH  13  14
BRANCH  13  26
HETATM   26  O1  UNL     1      13.089  16.794  35.883  1.00  0.00    -0.387 OA
ATOM     27  H1  UNL     1      13.500  17.630  35.704  1.00  0.00     0.210 HD
ENDBRANCH  13  26
ENDBRANCH  12  13
BRANCH  12  28
HETATM   28  O2  UNL     1       9.929  15.374  35.775  1.00  0.00    -0.390 OA
ATOM     29  H2  UNL     1       9.325  15.187  35.067  1.00  0.00     0.210 HD
ENDBRANCH  12  28
ENDBRANCH  11  12
BRANCH  11  30
HETATM   30  N4  UNL     1      12.950  14.087  34.531  1.00  0.00    -0.064 N 
ATOM     31  H43 UNL     1      12.552  14.390  33.642  1.00  0.00     0.275 HD
ATOM     32  H42 UNL     1      13.802  14.648  34.506  1.00  0.00     0.275 HD
ATOM     33  H41 UNL     1      13.145  13.086  34.548  1.00  0.00     0.275 HD
ENDBRANCH  11  30
ENDBRANCH   8  11
ENDBRANCH   1   7
BRANCH   2  34
HETATM   34  O4  UNL     1      10.514  11.066  40.400  1.00  0.00    -0.391 OA
ATOM     35  H4  UNL     1      10.922  11.137  41.254  1.00  0.00     0.210 HD
ENDBRANCH   2  34
BRANCH   6  36
HETATM   36  O7  UNL     1       8.721  11.093  36.825  1.00  0.00    -0.391 OA
ATOM     37  H7  UNL     1       8.332  10.292  37.156  1.00  0.00     0.210 HD
ENDBRANCH   6  36
BRANCH   3  38
HETATM   38  O5  UNL     1       9.724  13.284  41.680  1.00  0.00    -0.390 OA
ATOM     39  H5  UNL     1      10.453  13.873  41.837  1.00  0.00     0.210 HD
ENDBRANCH   3  38
BRANCH   5  40
HETATM   40  N6  UNL     1       6.689  11.666  38.405  1.00  0.00    -0.316 N 
HETATM   41  C12 UNL     1       5.920  10.553  38.263  1.00  0.00     0.187 A 
HETATM   42  N7  UNL     1       4.748  10.886  37.706  1.00  0.00    -0.335 N 
HETATM   43  C13 UNL     1       4.748  12.215  37.482  1.00  0.00     0.152 A 
ATOM     44  H7  UNL     1       3.986  10.243  37.489  1.00  0.00     0.168 HD
HETATM   45  N8  UNL     1       4.047  13.262  37.004  1.00  0.00    -0.335 N 
HETATM   46  C16 UNL     1       5.982  12.702  37.928  1.00  0.00     0.158 A 
HETATM   47  C14 UNL     1       4.792  14.348  37.139  1.00  0.00     0.188 A 
ATOM     48  H8  UNL     1       3.108  13.224  36.607  1.00  0.00     0.168 HD
HETATM   49  N9  UNL     1       5.984  14.020  37.705  1.00  0.00    -0.301 N 
BRANCH  49  50
HETATM   50  C15 UNL     1       7.037  14.933  38.009  1.00  0.00     0.361 C 
BRANCH  50  51
HETATM   51  N10 UNL     1       7.101  15.944  36.964  1.00  0.00    -0.063 N 
ATOM     52 3H10 UNL     1       7.786  16.671  37.168  1.00  0.00     0.276 HD
ATOM     53 2H10 UNL     1       7.522  15.589  36.105  1.00  0.00     0.276 HD
ATOM     54 1H10 UNL     1       6.166  16.322  36.811  1.00  0.00     0.276 HD
ENDBRANCH  50  51
ENDBRANCH  49  50
ENDBRANCH   5  40
BRANCH   4  55
HETATM   55  O6  UNL     1       7.551  12.158  41.209  1.00  0.00    -0.391 OA
ATOM     56  H6  UNL     1       7.734  12.638  42.009  1.00  0.00     0.210 HD
ENDBRANCH   4  55
TORSDOF 16
ENDMDL
MODEL 5
REMARK VINA RESULT: -7.793105293      7.084     10.414
REMARK  16 active torsions:
REMARK  status: ('A' for Active; 'I' for Inactive)
REMARK    1  A    between atoms: N1_1  and  C1_4 
REMARK    2  A    between atoms: C2_9  and  C3_10 
REMARK    3  A    between atoms: C3_10  and  O1_11 
REMARK    4  A    between atoms: C3_10  and  C4_13 
REMARK    5  A    between atoms: C4_13  and  O2_14 
REMARK    6  A    between atoms: C4_13  and  C5_16 
REMARK    7  A    between atoms: C5_16  and  N4_17 
REMARK    8  A    between atoms: C5_16  and  C6_21 
REMARK       I    between atoms: C6_21  and  N5_23 
REMARK    9  A    between atoms: N5_23  and  C7_25 
REMARK   10  A    between atoms: C8_26  and  O4_27 
REMARK   11  A    between atoms: C9_29  and  O5_30 
REMARK   12  A    between atoms: C10_32  and  O6_33 
REMARK   13  A    between atoms: C11_35  and  N6_36 
REMARK   14  A    between atoms: N9_44  and  C15_45 
REMARK   15  A    between atoms: C15_45  and  N10_46 
REMARK   16  A    between atoms: C17_51  and  O7_52 
ROOT
HETATM    1  C7  UNL     1      16.529  15.363  38.767  1.00  0.00     0.146 C 
HETATM    2  C8  UNL     1      17.064  14.023  39.198  1.00  0.00     0.174 C 
HETATM    3  C9  UNL     1      18.253  13.567  38.388  1.00  0.00     0.179 C 
HETATM    4  C10 UNL     1      19.399  14.519  38.463  1.00  0.00     0.175 C 
HETATM    5  C11 UNL     1      18.967  15.895  38.960  1.00  0.00     0.154 C 
HETATM    6  C17 UNL     1      17.632  16.283  38.393  1.00  0.00     0.169 C 
ENDROOT
BRANCH   1   7
HETATM    7  N5  UNL     1      15.636  15.123  37.654  1.00  0.00    -0.349 N 
HETATM    8  C6  UNL     1      14.696  16.020  37.138  1.00  0.00     0.251 C 
HETATM    9  O3  UNL     1      14.589  17.156  37.670  1.00  0.00    -0.271 OA
ATOM     10  H5  UNL     1      15.698  14.211  37.203  1.00  0.00     0.163 HD
BRANCH   8  11
HETATM   11  C5  UNL     1      13.826  15.702  36.005  1.00  0.00     0.305 C 
BRANCH  11  12
HETATM   12  C4  UNL     1      12.431  16.244  36.132  1.00  0.00     0.192 C 
BRANCH  12  13
HETATM   13  C3  UNL     1      11.487  15.720  35.087  1.00  0.00     0.202 C 
BRANCH  13  14
HETATM   14  C2  UNL     1      11.253  16.818  34.105  1.00  0.00     0.073 A 
HETATM   15  N3  UNL     1      12.196  17.151  33.205  1.00  0.00    -0.287 N 
HETATM   16  N2  UNL     1      11.989  18.138  32.324  1.00  0.00    -0.132 N 
ATOM     17  H3  UNL     1      13.081  16.644  33.195  1.00  0.00     0.187 HD
HETATM   18  C1  UNL     1      10.849  18.836  32.290  1.00  0.00     0.690 A 
ATOM     19  H2  UNL     1      12.725  18.364  31.655  1.00  0.00     0.205 HD
HETATM   20  N11 UNL     1       9.885  18.526  33.178  1.00  0.00    -0.199 N 
HETATM   21  C18 UNL     1      10.070  17.526  34.086  1.00  0.00     0.135 A 
ATOM     22  H11 UNL     1       9.007  19.044  33.171  1.00  0.00     0.183 HD
BRANCH  18  23
HETATM   23  N1  UNL     1      10.731  19.765  31.415  1.00  0.00    -0.233 N 
ATOM     24  H12 UNL     1      10.833  19.609  30.412  1.00  0.00     0.174 HD
ATOM     25  H11 UNL     1      10.525  20.711  31.738  1.00  0.00     0.174 HD
ENDBRANCH  18  23
ENDBRANCH  13  14
BRANCH  13  26
HETATM   26  O1  UNL     1      10.284  15.403  35.711  1.00  0.00    -0.387 OA
ATOM     27  H1  UNL     1      10.462  15.082  36.586  1.00  0.00     0.210 HD
ENDBRANCH  13  26
ENDBRANCH  12  13
BRANCH  12  28
HETATM   28  O2  UNL     1      12.427  17.627  36.103  1.00  0.00    -0.390 OA
ATOM     29  H2  UNL     1      12.074  17.959  36.920  1.00  0.00     0.210 HD
ENDBRANCH  12  28
ENDBRANCH  11  12
BRANCH  11  30
HETATM   30  N4  UNL     1      13.757  14.296  35.705  1.00  0.00    -0.064 N 
ATOM     31  H43 UNL     1      13.460  13.741  36.508  1.00  0.00     0.275 HD
ATOM     32  H42 UNL     1      12.983  14.070  35.080  1.00  0.00     0.275 HD
ATOM     33  H41 UNL     1      14.658  13.990  35.334  1.00  0.00     0.275 HD
ENDBRANCH  11  30
ENDBRANCH   8  11
ENDBRANCH   1   7
BRANCH   2  34
HETATM   34  O4  UNL     1      17.390  14.013  40.556  1.00  0.00    -0.391 OA
ATOM     35  H4  UNL     1      17.647  13.146  40.847  1.00  0.00     0.210 HD
ENDBRANCH   2  34
BRANCH   6  36
HETATM   36  O7  UNL     1      17.387  17.601  38.791  1.00  0.00    -0.391 OA
ATOM     37  H7  UNL     1      18.180  18.057  39.046  1.00  0.00     0.210 HD
ENDBRANCH   6  36
BRANCH   3  38
HETATM   38  O5  UNL     1      18.687  12.341  38.911  1.00  0.00    -0.390 OA
ATOM     39  H5  UNL     1      19.596  12.222  38.661  1.00  0.00     0.210 HD
ENDBRANCH   3  38
BRANCH   5  40
HETATM   40  N6  UNL     1      19.915  16.911  38.509  1.00  0.00    -0.316 N 
HETATM   41  C12 UNL     1      20.158  17.237  37.210  1.00  0.00     0.187 A 
HETATM   42  N7  UNL     1      21.085  18.203  37.156  1.00  0.00    -0.335 N 
HETATM   43  C13 UNL     1      21.451  18.509  38.417  1.00  0.00     0.152 A 
ATOM     44  H7  UNL     1      21.451  18.633  36.307  1.00  0.00     0.168 HD
HETATM   45  N8  UNL     1      22.241  19.281  39.190  1.00  0.00    -0.335 N 
HETATM   46  C16 UNL     1      20.705  17.686  39.268  1.00  0.00     0.158 A 
HETATM   47  C14 UNL     1      22.009  18.967  40.454  1.00  0.00     0.188 A 
ATOM     48  H8  UNL     1      22.902  19.984  38.858  1.00  0.00     0.168 HD
HETATM   49  N9  UNL     1      21.067  17.987  40.519  1.00  0.00    -0.301 N 
BRANCH  49  50
HETATM   50  C15 UNL     1      20.561  17.403  41.717  1.00  0.00     0.361 C 
BRANCH  50  51
HETATM   51  N10 UNL     1      21.088  16.052  41.843  1.00  0.00    -0.063 N 
ATOM     52 3H10 UNL     1      20.377  15.340  41.679  1.00  0.00     0.276 HD
ATOM     53 2H10 UNL     1      21.716  15.807  41.077  1.00  0.00     0.276 HD
ATOM     54 1H10 UNL     1      21.533  15.954  42.756  1.00  0.00     0.276 HD
ENDBRANCH  50  51
ENDBRANCH  49  50
ENDBRANCH   5  40
BRANCH   4  55
HETATM   55  O6  UNL     1      20.409  14.094  39.328  1.00  0.00    -0.391 OA
ATOM     56  H6  UNL     1      20.573  14.704  40.038  1.00  0.00     0.210 HD
ENDBRANCH   4  55
TORSDOF 16
ENDMDL
