MODEL 1
REMARK VINA RESULT: -7.221617807      0.000      0.000
REMARK  17 active torsions:
REMARK  status: ('A' for Active; 'I' for Inactive)
REMARK    1  A    between atoms: C2_2  and  O2_4 
REMARK    2  A    between atoms: O2_4  and  N1_5 
REMARK    3  A    between atoms: N1_5  and  C3_6 
REMARK    4  A    between atoms: C3_6  and  N2_7 
REMARK    5  A    between atoms: C3_6  and  C4_11 
REMARK       I    between atoms: C4_11  and  N3_13 
REMARK    6  A    between atoms: N3_13  and  C5_15 
REMARK    7  A    between atoms: C6_16  and  O4_17 
REMARK    8  A    between atoms: C7_19  and  N4_20 
REMARK    9  A    between atoms: C8_24  and  O5_25 
REMARK   10  A    between atoms: O5_25  and  C9_26 
REMARK   11  A    between atoms: C10_28  and  C11_29 
REMARK   12  A    between atoms: C12_33  and  N5_34 
REMARK   13  A    between atoms: C13_38  and  O9_39 
REMARK   14  A    between atoms: C14_41  and  N6_42 
REMARK   15  A    between atoms: C15_46  and  O10_47 
REMARK   16  A    between atoms: C15_46  and  C16_49 
REMARK   17  A    between atoms: C16_49  and  O11_50 
ROOT
HETATM    1  C5  UNL     1      11.010  11.008  37.328  1.00  0.00     0.154 C 
HETATM    2  C6  UNL     1      10.020  10.062  36.719  1.00  0.00     0.177 C 
HETATM    3  C7  UNL     1       8.657  10.105  37.269  1.00  0.00     0.245 C 
HETATM    4  C8  UNL     1       8.160  11.435  37.726  1.00  0.00     0.191 C 
HETATM    5  C14 UNL     1       9.167  12.320  38.354  1.00  0.00     0.252 C 
HETATM    6  C15 UNL     1      10.475  12.358  37.631  1.00  0.00     0.132 C 
ENDROOT
BRANCH   4   7
HETATM    7  O5  UNL     1       7.092  11.306  38.643  1.00  0.00    -0.349 OA
BRANCH   7   8
HETATM    8  C9  UNL     1       5.894  11.750  38.124  1.00  0.00     0.294 C 
HETATM    9  O6  UNL     1       5.030  10.663  37.993  1.00  0.00    -0.332 OA
HETATM   10  C10 UNL     1       4.066  10.949  37.030  1.00  0.00     0.289 C 
HETATM   11  S1  UNL     1       3.066  12.380  37.523  1.00  0.00    -0.091 SA
HETATM   12  C12 UNL     1       4.197  13.555  38.345  1.00  0.00     0.280 C 
HETATM   13  C13 UNL     1       5.226  12.722  39.080  1.00  0.00     0.213 C 
BRANCH  10  14
HETATM   14  C11 UNL     1       3.181   9.800  36.799  1.00  0.00     0.213 C 
HETATM   15  O7  UNL     1       2.012   9.804  37.252  1.00  0.00    -0.645 OA
HETATM   16  O8  UNL     1       3.614   8.708  36.087  1.00  0.00    -0.645 OA
ENDBRANCH  10  14
BRANCH  12  17
HETATM   17  N5  UNL     1       3.471  14.371  39.293  1.00  0.00    -0.064 N 
ATOM     18  H53 UNL     1       2.950  15.117  38.832  1.00  0.00     0.275 HD
ATOM     19  H52 UNL     1       2.683  13.868  39.703  1.00  0.00     0.275 HD
ATOM     20  H51 UNL     1       4.104  14.732  40.007  1.00  0.00     0.275 HD
ENDBRANCH  12  17
BRANCH  13  21
HETATM   21  O9  UNL     1       4.549  12.015  40.086  1.00  0.00    -0.388 OA
ATOM     22  H9  UNL     1       4.351  12.595  40.812  1.00  0.00     0.210 HD
ENDBRANCH  13  21
ENDBRANCH   7   8
ENDBRANCH   4   7
BRANCH   3  23
HETATM   23  N4  UNL     1       7.720   9.497  36.325  1.00  0.00    -0.070 N 
ATOM     24  H43 UNL     1       8.180   9.209  35.461  1.00  0.00     0.274 HD
ATOM     25  H42 UNL     1       7.403   8.579  36.637  1.00  0.00     0.274 HD
ATOM     26  H41 UNL     1       6.942  10.132  36.151  1.00  0.00     0.274 HD
ENDBRANCH   3  23
BRANCH   5  27
HETATM   27  N6  UNL     1       9.321  12.018  39.775  1.00  0.00    -0.070 N 
ATOM     28  H63 UNL     1       9.596  11.047  39.925  1.00  0.00     0.275 HD
ATOM     29  H62 UNL     1      10.143  12.475  40.169  1.00  0.00     0.275 HD
ATOM     30  H61 UNL     1       8.476  12.253  40.296  1.00  0.00     0.275 HD
ENDBRANCH   5  27
BRANCH   2  31
HETATM   31  O4  UNL     1      10.496   8.750  36.727  1.00  0.00    -0.391 OA
ATOM     32  H4  UNL     1       9.789   8.125  36.835  1.00  0.00     0.210 HD
ENDBRANCH   2  31
BRANCH   6  33
HETATM   33  O10 UNL     1      11.388  13.032  38.451  1.00  0.00    -0.383 OA
ATOM     34  H10 UNL     1      11.071  13.915  38.602  1.00  0.00     0.210 HD
ENDBRANCH   6  33
BRANCH   6  35
HETATM   35  C16 UNL     1      10.285  13.218  36.395  1.00  0.00     0.206 C 
BRANCH  35  36
HETATM   36  O11 UNL     1      11.151  14.288  36.362  1.00  0.00    -0.398 OA
ATOM     37  H11 UNL     1      10.764  15.053  35.953  1.00  0.00     0.209 HD
ENDBRANCH  35  36
ENDBRANCH   6  35
BRANCH   1  38
HETATM   38  N3  UNL     1      12.226  11.063  36.544  1.00  0.00    -0.348 N 
HETATM   39  C4  UNL     1      13.299  10.180  36.689  1.00  0.00     0.267 C 
HETATM   40  O3  UNL     1      13.226   9.271  37.551  1.00  0.00    -0.270 OA
ATOM     41  H3  UNL     1      12.305  11.795  35.838  1.00  0.00     0.163 HD
BRANCH  39  42
HETATM   42  C3  UNL     1      14.529  10.266  35.868  1.00  0.00     0.394 C 
BRANCH  42  43
HETATM   43  N1  UNL     1      14.358  11.113  34.714  1.00  0.00    -0.048 NA
BRANCH  43  44
HETATM   44  O2  UNL     1      14.878  12.350  34.972  1.00  0.00    -0.205 OA
BRANCH  44  45
HETATM   45  C2  UNL     1      14.146  13.505  34.864  1.00  0.00     0.273 C 
HETATM   46  C1  UNL     1      14.689  14.801  35.347  1.00  0.00     0.127 C 
HETATM   47  O1  UNL     1      13.001  13.479  34.352  1.00  0.00    -0.264 OA
ENDBRANCH  44  45
ENDBRANCH  43  44
ENDBRANCH  42  43
BRANCH  42  48
HETATM   48  N2  UNL     1      15.669  10.690  36.660  1.00  0.00    -0.050 N 
ATOM     49  H23 UNL     1      16.318   9.921  36.828  1.00  0.00     0.277 HD
ATOM     50  H22 UNL     1      16.289  11.302  36.129  1.00  0.00     0.277 HD
ATOM     51  H21 UNL     1      15.367  11.125  37.532  1.00  0.00     0.277 HD
ENDBRANCH  42  48
ENDBRANCH  39  42
ENDBRANCH   1  38
TORSDOF 17
ENDMDL
MODEL 2
REMARK VINA RESULT: -7.029567468      1.473      1.814
REMARK  17 active torsions:
REMARK  status: ('A' for Active; 'I' for Inactive)
REMARK    1  A    between atoms: C2_2  and  O2_4 
REMARK    2  A    between atoms: O2_4  and  N1_5 
REMARK    3  A    between atoms: N1_5  and  C3_6 
REMARK    4  A    between atoms: C3_6  and  N2_7 
REMARK    5  A    between atoms: C3_6  and  C4_11 
REMARK       I    between atoms: C4_11  and  N3_13 
REMARK    6  A    between atoms: N3_13  and  C5_15 
REMARK    7  A    between atoms: C6_16  and  O4_17 
REMARK    8  A    between atoms: C7_19  and  N4_20 
REMARK    9  A    between atoms: C8_24  and  O5_25 
REMARK   10  A    between atoms: O5_25  and  C9_26 
REMARK   11  A    between atoms: C10_28  and  C11_29 
REMARK   12  A    between atoms: C12_33  and  N5_34 
REMARK   13  A    between atoms: C13_38  and  O9_39 
REMARK   14  A    between atoms: C14_41  and  N6_42 
REMARK   15  A    between atoms: C15_46  and  O10_47 
REMARK   16  A    between atoms: C15_46  and  C16_49 
REMARK   17  A    between atoms: C16_49  and  O11_50 
ROOT
HETATM    1  C5  UNL     1      11.551  11.441  37.067  1.00  0.00     0.154 C 
HETATM    2  C6  UNL     1      10.632  10.400  36.502  1.00  0.00     0.177 C 
HETATM    3  C7  UNL     1       9.287  10.331  37.093  1.00  0.00     0.245 C 
HETATM    4  C8  UNL     1       8.687  11.619  37.545  1.00  0.00     0.191 C 
HETATM    5  C14 UNL     1       9.629  12.601  38.130  1.00  0.00     0.252 C 
HETATM    6  C15 UNL     1      10.907  12.743  37.367  1.00  0.00     0.132 C 
ENDROOT
BRANCH   4   7
HETATM    7  O5  UNL     1       7.662  11.411  38.497  1.00  0.00    -0.349 OA
BRANCH   7   8
HETATM    8  C9  UNL     1       6.435  11.862  38.058  1.00  0.00     0.294 C 
HETATM    9  O6  UNL     1       5.562  10.778  37.972  1.00  0.00    -0.332 OA
HETATM   10  C10 UNL     1       4.540  11.074  37.074  1.00  0.00     0.289 C 
HETATM   11  S1  UNL     1       3.576  12.502  37.639  1.00  0.00    -0.091 SA
HETATM   12  C12 UNL     1       4.759  13.669  38.399  1.00  0.00     0.280 C 
HETATM   13  C13 UNL     1       5.830  12.827  39.061  1.00  0.00     0.213 C 
BRANCH  10  14
HETATM   14  C11 UNL     1       3.640   9.928  36.889  1.00  0.00     0.213 C 
HETATM   15  O7  UNL     1       2.563   9.864  37.528  1.00  0.00    -0.645 OA
HETATM   16  O8  UNL     1       3.958   8.914  36.018  1.00  0.00    -0.645 OA
ENDBRANCH  10  14
BRANCH  12  17
HETATM   17  N5  UNL     1       4.095  14.477  39.397  1.00  0.00    -0.064 N 
ATOM     18  H53 UNL     1       3.176  14.789  39.084  1.00  0.00     0.275 HD
ATOM     19  H52 UNL     1       3.800  13.924  40.201  1.00  0.00     0.275 HD
ATOM     20  H51 UNL     1       4.690  15.260  39.671  1.00  0.00     0.275 HD
ENDBRANCH  12  17
BRANCH  13  21
HETATM   21  O9  UNL     1       5.215  12.114  40.101  1.00  0.00    -0.388 OA
ATOM     22  H9  UNL     1       5.524  12.434  40.941  1.00  0.00     0.210 HD
ENDBRANCH  13  21
ENDBRANCH   7   8
ENDBRANCH   4   7
BRANCH   3  23
HETATM   23  N4  UNL     1       8.382   9.626  36.188  1.00  0.00    -0.070 N 
ATOM     24  H43 UNL     1       8.808   8.784  35.799  1.00  0.00     0.274 HD
ATOM     25  H42 UNL     1       7.609   9.184  36.686  1.00  0.00     0.274 HD
ATOM     26  H41 UNL     1       8.055  10.260  35.460  1.00  0.00     0.274 HD
ENDBRANCH   3  23
BRANCH   5  27
HETATM   27  N6  UNL     1       9.850  12.339  39.550  1.00  0.00    -0.070 N 
ATOM     28  H63 UNL     1       9.275  11.566  39.883  1.00  0.00     0.275 HD
ATOM     29  H62 UNL     1      10.770  11.931  39.717  1.00  0.00     0.275 HD
ATOM     30  H61 UNL     1       9.706  13.180  40.107  1.00  0.00     0.275 HD
ENDBRANCH   5  27
BRANCH   2  31
HETATM   31  O4  UNL     1      11.224   9.136  36.516  1.00  0.00    -0.391 OA
ATOM     32  H4  UNL     1      10.648   8.479  36.141  1.00  0.00     0.210 HD
ENDBRANCH   2  31
BRANCH   6  33
HETATM   33  O10 UNL     1      11.779  13.510  38.148  1.00  0.00    -0.383 OA
ATOM     34  H10 UNL     1      11.269  14.009  38.776  1.00  0.00     0.210 HD
ENDBRANCH   6  33
BRANCH   6  35
HETATM   35  C16 UNL     1      10.604  13.561  36.125  1.00  0.00     0.206 C 
BRANCH  35  36
HETATM   36  O11 UNL     1      11.675  14.331  35.730  1.00  0.00    -0.398 OA
ATOM     37  H11 UNL     1      11.700  15.170  36.174  1.00  0.00     0.209 HD
ENDBRANCH  35  36
ENDBRANCH   6  35
BRANCH   1  38
HETATM   38  N3  UNL     1      12.734  11.590  36.246  1.00  0.00    -0.348 N 
HETATM   39  C4  UNL     1      13.861  10.768  36.328  1.00  0.00     0.267 C 
HETATM   40  O3  UNL     1      13.870   9.831  37.163  1.00  0.00    -0.270 OA
ATOM     41  H3  UNL     1      12.746  12.346  35.561  1.00  0.00     0.163 HD
BRANCH  39  42
HETATM   42  C3  UNL     1      15.054  10.950  35.470  1.00  0.00     0.394 C 
BRANCH  42  43
HETATM   43  N1  UNL     1      16.276  10.592  36.148  1.00  0.00    -0.048 NA
BRANCH  43  44
HETATM   44  O2  UNL     1      17.344  11.109  35.471  1.00  0.00    -0.205 OA
BRANCH  44  45
HETATM   45  C2  UNL     1      18.173  12.064  36.002  1.00  0.00     0.273 C 
HETATM   46  C1  UNL     1      18.135  13.466  35.511  1.00  0.00     0.127 C 
HETATM   47  O1  UNL     1      18.978  11.762  36.915  1.00  0.00    -0.264 OA
ENDBRANCH  44  45
ENDBRANCH  43  44
ENDBRANCH  42  43
BRANCH  42  48
HETATM   48  N2  UNL     1      14.925  10.230  34.217  1.00  0.00    -0.050 N 
ATOM     49  H23 UNL     1      15.835   9.961  33.842  1.00  0.00     0.277 HD
ATOM     50  H22 UNL     1      14.534   9.298  34.357  1.00  0.00     0.277 HD
ATOM     51  H21 UNL     1      14.384  10.768  33.541  1.00  0.00     0.277 HD
ENDBRANCH  42  48
ENDBRANCH  39  42
ENDBRANCH   1  38
TORSDOF 17
ENDMDL
MODEL 3
REMARK VINA RESULT: -6.990268947      5.763      9.638
REMARK  17 active torsions:
REMARK  status: ('A' for Active; 'I' for Inactive)
REMARK    1  A    between atoms: C2_2  and  O2_4 
REMARK    2  A    between atoms: O2_4  and  N1_5 
REMARK    3  A    between atoms: N1_5  and  C3_6 
REMARK    4  A    between atoms: C3_6  and  N2_7 
REMARK    5  A    between atoms: C3_6  and  C4_11 
REMARK       I    between atoms: C4_11  and  N3_13 
REMARK    6  A    between atoms: N3_13  and  C5_15 
REMARK    7  A    between atoms: C6_16  and  O4_17 
REMARK    8  A    between atoms: C7_19  and  N4_20 
REMARK    9  A    between atoms: C8_24  and  O5_25 
REMARK   10  A    between atoms: O5_25  and  C9_26 
REMARK   11  A    between atoms: C10_28  and  C11_29 
REMARK   12  A    between atoms: C12_33  and  N5_34 
REMARK   13  A    between atoms: C13_38  and  O9_39 
REMARK   14  A    between atoms: C14_41  and  N6_42 
REMARK   15  A    between atoms: C15_46  and  O10_47 
REMARK   16  A    between atoms: C15_46  and  C16_49 
REMARK   17  A    between atoms: C16_49  and  O11_50 
ROOT
HETATM    1  C5  UNL     1      18.920  15.374  37.562  1.00  0.00     0.154 C 
HETATM    2  C6  UNL     1      17.806  15.933  36.729  1.00  0.00     0.177 C 
HETATM    3  C7  UNL     1      16.912  14.951  36.097  1.00  0.00     0.245 C 
HETATM    4  C8  UNL     1      16.651  13.695  36.857  1.00  0.00     0.191 C 
HETATM    5  C14 UNL     1      17.793  13.162  37.635  1.00  0.00     0.252 C 
HETATM    6  C15 UNL     1      18.548  14.205  38.395  1.00  0.00     0.132 C 
ENDROOT
BRANCH   4   7
HETATM    7  O5  UNL     1      16.206  12.655  36.009  1.00  0.00    -0.349 OA
BRANCH   7   8
HETATM    8  C9  UNL     1      14.889  12.316  36.237  1.00  0.00     0.294 C 
HETATM    9  O6  UNL     1      14.069  13.284  35.658  1.00  0.00    -0.332 OA
HETATM   10  C10 UNL     1      12.826  13.278  36.286  1.00  0.00     0.289 C 
HETATM   11  S1  UNL     1      12.004  11.674  36.075  1.00  0.00    -0.091 SA
HETATM   12  C12 UNL     1      13.306  10.397  36.176  1.00  0.00     0.280 C 
HETATM   13  C13 UNL     1      14.551  11.000  35.560  1.00  0.00     0.213 C 
BRANCH  10  14
HETATM   14  C11 UNL     1      11.955  14.338  35.763  1.00  0.00     0.213 C 
HETATM   15  O7  UNL     1      12.452  15.342  35.200  1.00  0.00    -0.645 OA
HETATM   16  O8  UNL     1      10.589  14.250  35.879  1.00  0.00    -0.645 OA
ENDBRANCH  10  14
BRANCH  12  17
HETATM   17  N5  UNL     1      12.917   9.224  35.427  1.00  0.00    -0.064 N 
ATOM     18  H53 UNL     1      12.186   8.694  35.903  1.00  0.00     0.275 HD
ATOM     19  H52 UNL     1      12.401   9.465  34.581  1.00  0.00     0.275 HD
ATOM     20  H51 UNL     1      13.733   8.647  35.224  1.00  0.00     0.275 HD
ENDBRANCH  12  17
BRANCH  13  21
HETATM   21  O9  UNL     1      14.279  11.217  34.200  1.00  0.00    -0.388 OA
ATOM     22  H9  UNL     1      13.441  11.653  34.103  1.00  0.00     0.210 HD
ENDBRANCH  13  21
ENDBRANCH   7   8
ENDBRANCH   4   7
BRANCH   3  23
HETATM   23  N4  UNL     1      15.657  15.596  35.714  1.00  0.00    -0.070 N 
ATOM     24  H43 UNL     1      15.578  16.539  36.097  1.00  0.00     0.274 HD
ATOM     25  H42 UNL     1      15.636  15.836  34.723  1.00  0.00     0.274 HD
ATOM     26  H41 UNL     1      14.868  15.007  35.981  1.00  0.00     0.274 HD
ENDBRANCH   3  23
BRANCH   5  27
HETATM   27  N6  UNL     1      18.663  12.339  36.798  1.00  0.00    -0.070 N 
ATOM     28  H63 UNL     1      18.861  12.790  35.906  1.00  0.00     0.275 HD
ATOM     29  H62 UNL     1      19.613  12.301  37.168  1.00  0.00     0.275 HD
ATOM     30  H61 UNL     1      18.273  11.405  36.668  1.00  0.00     0.275 HD
ENDBRANCH   5  27
BRANCH   2  31
HETATM   31  O4  UNL     1      18.284  16.828  35.771  1.00  0.00    -0.391 OA
ATOM     32  H4  UNL     1      19.059  17.284  36.077  1.00  0.00     0.210 HD
ENDBRANCH   2  31
BRANCH   6  33
HETATM   33  O10 UNL     1      19.716  13.606  38.881  1.00  0.00    -0.383 OA
ATOM     34  H10 UNL     1      19.720  13.668  39.829  1.00  0.00     0.210 HD
ENDBRANCH   6  33
BRANCH   6  35
HETATM   35  C16 UNL     1      17.713  14.575  39.607  1.00  0.00     0.206 C 
BRANCH  35  36
HETATM   36  O11 UNL     1      18.114  13.910  40.744  1.00  0.00    -0.398 OA
ATOM     37  H11 UNL     1      18.469  14.497  41.400  1.00  0.00     0.209 HD
ENDBRANCH  35  36
ENDBRANCH   6  35
BRANCH   1  38
HETATM   38  N3  UNL     1      19.564  16.416  38.333  1.00  0.00    -0.348 N 
HETATM   39  C4  UNL     1      20.561  17.262  37.840  1.00  0.00     0.267 C 
HETATM   40  O3  UNL     1      20.938  17.128  36.652  1.00  0.00    -0.270 OA
ATOM     41  H3  UNL     1      19.270  16.541  39.302  1.00  0.00     0.163 HD
BRANCH  39  42
HETATM   42  C3  UNL     1      21.198  18.318  38.660  1.00  0.00     0.394 C 
BRANCH  42  43
HETATM   43  N1  UNL     1      20.238  19.258  39.185  1.00  0.00    -0.048 NA
BRANCH  43  44
HETATM   44  O2  UNL     1      19.425  19.693  38.177  1.00  0.00    -0.205 OA
BRANCH  44  45
HETATM   45  C2  UNL     1      18.061  19.776  38.300  1.00  0.00     0.273 C 
HETATM   46  C1  UNL     1      17.422  20.956  38.938  1.00  0.00     0.127 C 
HETATM   47  O1  UNL     1      17.333  18.848  37.873  1.00  0.00    -0.264 OA
ENDBRANCH  44  45
ENDBRANCH  43  44
ENDBRANCH  42  43
BRANCH  42  48
HETATM   48  N2  UNL     1      22.005  17.752  39.725  1.00  0.00    -0.050 N 
ATOM     49  H23 UNL     1      21.682  18.054  40.644  1.00  0.00     0.277 HD
ATOM     50  H22 UNL     1      21.846  16.750  39.826  1.00  0.00     0.277 HD
ATOM     51  H21 UNL     1      22.993  17.964  39.586  1.00  0.00     0.277 HD
ENDBRANCH  42  48
ENDBRANCH  39  42
ENDBRANCH   1  38
TORSDOF 17
ENDMDL
MODEL 4
REMARK VINA RESULT: -6.984814239      5.461      9.246
REMARK  17 active torsions:
REMARK  status: ('A' for Active; 'I' for Inactive)
REMARK    1  A    between atoms: C2_2  and  O2_4 
REMARK    2  A    between atoms: O2_4  and  N1_5 
REMARK    3  A    between atoms: N1_5  and  C3_6 
REMARK    4  A    between atoms: C3_6  and  N2_7 
REMARK    5  A    between atoms: C3_6  and  C4_11 
REMARK       I    between atoms: C4_11  and  N3_13 
REMARK    6  A    between atoms: N3_13  and  C5_15 
REMARK    7  A    between atoms: C6_16  and  O4_17 
REMARK    8  A    between atoms: C7_19  and  N4_20 
REMARK    9  A    between atoms: C8_24  and  O5_25 
REMARK   10  A    between atoms: O5_25  and  C9_26 
REMARK   11  A    between atoms: C10_28  and  C11_29 
REMARK   12  A    between atoms: C12_33  and  N5_34 
REMARK   13  A    between atoms: C13_38  and  O9_39 
REMARK   14  A    between atoms: C14_41  and  N6_42 
REMARK   15  A    between atoms: C15_46  and  O10_47 
REMARK   16  A    between atoms: C15_46  and  C16_49 
REMARK   17  A    between atoms: C16_49  and  O11_50 
ROOT
HETATM    1  C5  UNL     1      10.889  17.795  36.139  1.00  0.00     0.154 C 
HETATM    2  C6  UNL     1      12.232  17.727  36.801  1.00  0.00     0.177 C 
HETATM    3  C7  UNL     1      12.717  16.383  37.151  1.00  0.00     0.245 C 
HETATM    4  C8  UNL     1      12.336  15.273  36.230  1.00  0.00     0.191 C 
HETATM    5  C14 UNL     1      10.986  15.366  35.630  1.00  0.00     0.252 C 
HETATM    6  C15 UNL     1      10.635  16.733  35.135  1.00  0.00     0.132 C 
ENDROOT
BRANCH   4   7
HETATM    7  O5  UNL     1      12.420  14.014  36.869  1.00  0.00    -0.349 OA
BRANCH   7   8
HETATM    8  C9  UNL     1      12.773  13.004  35.999  1.00  0.00     0.294 C 
HETATM    9  O6  UNL     1      14.109  12.667  36.219  1.00  0.00    -0.332 OA
HETATM   10  C10 UNL     1      14.633  12.072  35.076  1.00  0.00     0.289 C 
HETATM   11  S1  UNL     1      13.746  10.540  34.680  1.00  0.00    -0.091 SA
HETATM   12  C12 UNL     1      11.986  10.834  35.071  1.00  0.00     0.280 C 
HETATM   13  C13 UNL     1      11.959  11.753  36.275  1.00  0.00     0.213 C 
BRANCH  10  14
HETATM   14  C11 UNL     1      16.063  11.774  35.233  1.00  0.00     0.213 C 
HETATM   15  O7  UNL     1      16.464  10.586  35.216  1.00  0.00    -0.645 OA
HETATM   16  O8  UNL     1      16.980  12.782  35.401  1.00  0.00    -0.645 OA
ENDBRANCH  10  14
BRANCH  12  17
HETATM   17  N5  UNL     1      11.331   9.588  35.401  1.00  0.00    -0.064 N 
ATOM     18  H53 UNL     1      11.617   8.832  34.779  1.00  0.00     0.275 HD
ATOM     19  H52 UNL     1      11.673   9.199  36.279  1.00  0.00     0.275 HD
ATOM     20  H51 UNL     1      10.318   9.713  35.409  1.00  0.00     0.275 HD
ENDBRANCH  12  17
BRANCH  13  21
HETATM   21  O9  UNL     1      12.518  11.046  37.351  1.00  0.00    -0.388 OA
ATOM     22  H9  UNL     1      12.290  10.126  37.288  1.00  0.00     0.210 HD
ENDBRANCH  13  21
ENDBRANCH   7   8
ENDBRANCH   4   7
BRANCH   3  23
HETATM   23  N4  UNL     1      14.164  16.415  37.356  1.00  0.00    -0.070 N 
ATOM     24  H43 UNL     1      14.570  15.478  37.361  1.00  0.00     0.274 HD
ATOM     25  H42 UNL     1      14.658  16.786  36.545  1.00  0.00     0.274 HD
ATOM     26  H41 UNL     1      14.383  16.931  38.207  1.00  0.00     0.274 HD
ENDBRANCH   3  23
BRANCH   5  27
HETATM   27  N6  UNL     1       9.971  14.817  36.526  1.00  0.00    -0.070 N 
ATOM     28  H63 UNL     1       9.246  14.319  36.011  1.00  0.00     0.275 HD
ATOM     29  H62 UNL     1      10.336  14.037  37.074  1.00  0.00     0.275 HD
ATOM     30  H61 UNL     1       9.576  15.542  37.124  1.00  0.00     0.275 HD
ENDBRANCH   5  27
BRANCH   2  31
HETATM   31  O4  UNL     1      12.293  18.561  37.919  1.00  0.00    -0.391 OA
ATOM     32  H4  UNL     1      11.860  18.170  38.668  1.00  0.00     0.210 HD
ENDBRANCH   2  31
BRANCH   6  33
HETATM   33  O10 UNL     1       9.272  16.727  34.818  1.00  0.00    -0.383 OA
ATOM     34  H10 UNL     1       8.850  16.019  35.291  1.00  0.00     0.210 HD
ENDBRANCH   6  33
BRANCH   6  35
HETATM   35  C16 UNL     1      11.383  16.949  33.833  1.00  0.00     0.206 C 
BRANCH  35  36
HETATM   36  O11 UNL     1      10.587  17.504  32.857  1.00  0.00    -0.398 OA
ATOM     37  H11 UNL     1      11.068  17.686  32.058  1.00  0.00     0.209 HD
ENDBRANCH  35  36
ENDBRANCH   6  35
BRANCH   1  38
HETATM   38  N3  UNL     1      10.636  19.120  35.613  1.00  0.00    -0.348 N 
HETATM   39  C4  UNL     1       9.427  19.806  35.748  1.00  0.00     0.267 C 
HETATM   40  O3  UNL     1       8.482  19.256  36.364  1.00  0.00    -0.270 OA
ATOM     41  H3  UNL     1      11.392  19.583  35.108  1.00  0.00     0.163 HD
BRANCH  39  42
HETATM   42  C3  UNL     1       9.204  21.162  35.195  1.00  0.00     0.394 C 
BRANCH  42  43
HETATM   43  N1  UNL     1       8.700  21.127  33.845  1.00  0.00    -0.048 NA
BRANCH  43  44
HETATM   44  O2  UNL     1       9.551  20.405  33.057  1.00  0.00    -0.205 OA
BRANCH  44  45
HETATM   45  C2  UNL     1      10.742  20.903  32.592  1.00  0.00     0.273 C 
HETATM   46  C1  UNL     1      10.774  22.074  31.677  1.00  0.00     0.127 C 
HETATM   47  O1  UNL     1      11.824  20.371  32.935  1.00  0.00    -0.264 OA
ENDBRANCH  44  45
ENDBRANCH  43  44
ENDBRANCH  42  43
BRANCH  42  48
HETATM   48  N2  UNL     1       8.340  21.952  36.053  1.00  0.00    -0.050 N 
ATOM     49  H23 UNL     1       7.492  22.243  35.566  1.00  0.00     0.277 HD
ATOM     50  H22 UNL     1       7.911  21.383  36.782  1.00  0.00     0.277 HD
ATOM     51  H21 UNL     1       8.842  22.749  36.443  1.00  0.00     0.277 HD
ENDBRANCH  42  48
ENDBRANCH  39  42
ENDBRANCH   1  38
TORSDOF 17
ENDMDL
MODEL 5
REMARK VINA RESULT: -6.962995369      5.149      7.724
REMARK  17 active torsions:
REMARK  status: ('A' for Active; 'I' for Inactive)
REMARK    1  A    between atoms: C2_2  and  O2_4 
REMARK    2  A    between atoms: O2_4  and  N1_5 
REMARK    3  A    between atoms: N1_5  and  C3_6 
REMARK    4  A    between atoms: C3_6  and  N2_7 
REMARK    5  A    between atoms: C3_6  and  C4_11 
REMARK       I    between atoms: C4_11  and  N3_13 
REMARK    6  A    between atoms: N3_13  and  C5_15 
REMARK    7  A    between atoms: C6_16  and  O4_17 
REMARK    8  A    between atoms: C7_19  and  N4_20 
REMARK    9  A    between atoms: C8_24  and  O5_25 
REMARK   10  A    between atoms: O5_25  and  C9_26 
REMARK   11  A    between atoms: C10_28  and  C11_29 
REMARK   12  A    between atoms: C12_33  and  N5_34 
REMARK   13  A    between atoms: C13_38  and  O9_39 
REMARK   14  A    between atoms: C14_41  and  N6_42 
REMARK   15  A    between atoms: C15_46  and  O10_47 
REMARK   16  A    between atoms: C15_46  and  C16_49 
REMARK   17  A    between atoms: C16_49  and  O11_50 
ROOT
HETATM    1  C5  UNL     1      11.019  17.695  36.628  1.00  0.00     0.154 C 
HETATM    2  C6  UNL     1      12.185  16.759  36.528  1.00  0.00     0.177 C 
HETATM    3  C7  UNL     1      11.975  15.400  37.051  1.00  0.00     0.245 C 
HETATM    4  C8  UNL     1      10.607  14.828  36.897  1.00  0.00     0.191 C 
HETATM    5  C14 UNL     1       9.486  15.785  37.041  1.00  0.00     0.252 C 
HETATM    6  C15 UNL     1       9.702  17.082  36.329  1.00  0.00     0.132 C 
ENDROOT
BRANCH   4   7
HETATM    7  O5  UNL     1      10.375  13.778  37.815  1.00  0.00    -0.349 OA
BRANCH   7   8
HETATM    8  C9  UNL     1      10.180  12.564  37.189  1.00  0.00     0.294 C 
HETATM    9  O6  UNL     1      11.329  11.789  37.344  1.00  0.00    -0.332 OA
HETATM   10  C10 UNL     1      11.385  10.832  36.334  1.00  0.00     0.289 C 
HETATM   11  S1  UNL     1       9.960   9.713  36.424  1.00  0.00    -0.091 SA
HETATM   12  C12 UNL     1       8.523  10.729  36.914  1.00  0.00     0.280 C 
HETATM   13  C13 UNL     1       9.048  11.798  37.850  1.00  0.00     0.213 C 
BRANCH  10  14
HETATM   14  C11 UNL     1      12.621  10.044  36.409  1.00  0.00     0.213 C 
HETATM   15  O7  UNL     1      13.388   9.979  35.420  1.00  0.00    -0.645 OA
HETATM   16  O8  UNL     1      12.958   9.367  37.557  1.00  0.00    -0.645 OA
ENDBRANCH  10  14
BRANCH  12  17
HETATM   17  N5  UNL     1       7.548   9.918  37.608  1.00  0.00    -0.064 N 
ATOM     18  H53 UNL     1       7.986   9.153  38.122  1.00  0.00     0.275 HD
ATOM     19  H52 UNL     1       7.134  10.412  38.399  1.00  0.00     0.275 HD
ATOM     20  H51 UNL     1       6.838   9.582  36.957  1.00  0.00     0.275 HD
ENDBRANCH  12  17
BRANCH  13  21
HETATM   21  O9  UNL     1       9.517  11.149  39.002  1.00  0.00    -0.388 OA
ATOM     22  H9  UNL     1       8.939  11.331  39.734  1.00  0.00     0.210 HD
ENDBRANCH  13  21
ENDBRANCH   7   8
ENDBRANCH   4   7
BRANCH   3  23
HETATM   23  N4  UNL     1      12.982  14.494  36.501  1.00  0.00    -0.070 N 
ATOM     24  H43 UNL     1      12.893  14.392  35.489  1.00  0.00     0.274 HD
ATOM     25  H42 UNL     1      13.918  14.899  36.527  1.00  0.00     0.274 HD
ATOM     26  H41 UNL     1      12.940  13.596  36.981  1.00  0.00     0.274 HD
ENDBRANCH   3  23
BRANCH   5  27
HETATM   27  N6  UNL     1       9.126  15.969  38.444  1.00  0.00    -0.070 N 
ATOM     28  H63 UNL     1       9.352  15.145  39.001  1.00  0.00     0.275 HD
ATOM     29  H62 UNL     1       9.741  16.641  38.904  1.00  0.00     0.275 HD
ATOM     30  H61 UNL     1       8.145  16.230  38.542  1.00  0.00     0.275 HD
ENDBRANCH   5  27
BRANCH   2  31
HETATM   31  O4  UNL     1      13.335  17.314  37.093  1.00  0.00    -0.391 OA
ATOM     32  H4  UNL     1      13.914  16.642  37.434  1.00  0.00     0.210 HD
ENDBRANCH   2  31
BRANCH   6  33
HETATM   33  O10 UNL     1       8.692  17.959  36.740  1.00  0.00    -0.383 OA
ATOM     34  H10 UNL     1       8.996  18.852  36.626  1.00  0.00     0.210 HD
ENDBRANCH   6  33
BRANCH   6  35
HETATM   35  C16 UNL     1       9.482  16.829  34.849  1.00  0.00     0.206 C 
BRANCH  35  36
HETATM   36  O11 UNL     1       8.211  17.168  34.442  1.00  0.00    -0.398 OA
ATOM     37  H11 UNL     1       7.586  16.469  34.593  1.00  0.00     0.209 HD
ENDBRANCH  35  36
ENDBRANCH   6  35
BRANCH   1  38
HETATM   38  N3  UNL     1      11.253  18.898  35.858  1.00  0.00    -0.348 N 
HETATM   39  C4  UNL     1      11.778  20.082  36.383  1.00  0.00     0.267 C 
HETATM   40  O3  UNL     1      12.075  20.128  37.601  1.00  0.00    -0.270 OA
ATOM     41  H3  UNL     1      11.018  18.882  34.866  1.00  0.00     0.163 HD
BRANCH  39  42
HETATM   42  C3  UNL     1      12.003  21.296  35.564  1.00  0.00     0.394 C 
BRANCH  42  43
HETATM   43  N1  UNL     1      11.496  21.152  34.222  1.00  0.00    -0.048 NA
BRANCH  43  44
HETATM   44  O2  UNL     1      10.195  21.565  34.177  1.00  0.00    -0.205 OA
BRANCH  44  45
HETATM   45  C2  UNL     1       9.156  20.726  33.861  1.00  0.00     0.273 C 
HETATM   46  C1  UNL     1       8.772  20.485  32.446  1.00  0.00     0.127 C 
HETATM   47  O1  UNL     1       8.513  20.151  34.772  1.00  0.00    -0.264 OA
ENDBRANCH  44  45
ENDBRANCH  43  44
ENDBRANCH  42  43
BRANCH  42  48
HETATM   48  N2  UNL     1      11.455  22.478  36.202  1.00  0.00    -0.050 N 
ATOM     49  H23 UNL     1      12.187  23.058  36.613  1.00  0.00     0.277 HD
ATOM     50  H22 UNL     1      11.097  23.144  35.517  1.00  0.00     0.277 HD
ATOM     51  H21 UNL     1      10.745  22.226  36.889  1.00  0.00     0.277 HD
ENDBRANCH  42  48
ENDBRANCH  39  42
ENDBRANCH   1  38
TORSDOF 17
ENDMDL
