MODEL 1
REMARK VINA RESULT: -6.814713254      0.000      0.000
REMARK  12 active torsions:
REMARK  status: ('A' for Active; 'I' for Inactive)
REMARK    1  A    between atoms: C9_9  and  N1_10 
REMARK    2  A    between atoms: N1_10  and  C10_11 
REMARK    3  A    between atoms: N1_10  and  N2_13 
REMARK    4  A    between atoms: N2_13  and  O1_14 
REMARK    5  A    between atoms: C12_16  and  O2_17 
REMARK    6  A    between atoms: O2_17  and  C13_18 
REMARK    7  A    between atoms: C14_20  and  C15_21 
REMARK    8  A    between atoms: C15_21  and  O4_22 
REMARK    9  A    between atoms: C16_24  and  O5_25 
REMARK   10  A    between atoms: C17_27  and  O6_28 
REMARK   11  A    between atoms: C18_30  and  O7_31 
REMARK   12  A    between atoms: C20_34  and  O8_35 
ROOT
HETATM    1  C1  UNL     1      45.471  43.811   6.528  1.00  0.00     0.015 C 
HETATM    2  C2  UNL     1      45.502  42.551   6.090  1.00  0.00    -0.072 C 
HETATM    3  C3  UNL     1      46.615  41.774   5.474  1.00  0.00     0.051 C 
HETATM    4  C4  UNL     1      47.709  41.566   6.451  1.00  0.00     0.017 C 
HETATM    5  C5  UNL     1      47.066  40.630   7.478  1.00  0.00    -0.005 C 
HETATM    6  C6  UNL     1      48.193  40.044   8.262  1.00  0.00     0.011 C 
HETATM    7  C7  UNL     1      46.237  39.704   6.709  1.00  0.00     0.016 C 
HETATM    8  C8  UNL     1      46.931  38.486   6.179  1.00  0.00     0.021 C 
HETATM    9  C9  UNL     1      44.873  39.400   7.217  1.00  0.00     0.148 C 
HETATM   10  C12 UNL     1      44.131  40.751   7.217  1.00  0.00     0.161 C 
HETATM   11  C19 UNL     1      44.633  41.372   5.964  1.00  0.00     0.081 C 
HETATM   12  C20 UNL     1      45.827  40.535   5.489  1.00  0.00     0.085 C 
ENDROOT
BRANCH  10  13
HETATM   13  O2  UNL     1      42.789  40.419   7.193  1.00  0.00    -0.350 OA
BRANCH  13  14
HETATM   14  C13 UNL     1      41.987  41.161   8.000  1.00  0.00     0.292 C 
HETATM   15  O3  UNL     1      42.627  42.198   8.657  1.00  0.00    -0.348 OA
HETATM   16  C14 UNL     1      41.959  42.628   9.790  1.00  0.00     0.179 C 
HETATM   17  C16 UNL     1      40.468  42.382   9.711  1.00  0.00     0.180 C 
HETATM   18  C17 UNL     1      40.124  40.929   9.551  1.00  0.00     0.183 C 
HETATM   19  C18 UNL     1      41.354  40.225   9.016  1.00  0.00     0.204 C 
BRANCH  16  20
HETATM   20  C15 UNL     1      42.149  44.133   9.873  1.00  0.00     0.198 C 
BRANCH  20  21
HETATM   21  O4  UNL     1      42.184  44.742   8.642  1.00  0.00    -0.398 OA
ATOM     22  H4  UNL     1      43.066  44.918   8.338  1.00  0.00     0.209 HD
ENDBRANCH  20  21
ENDBRANCH  16  20
BRANCH  17  23
HETATM   23  O5  UNL     1      39.867  43.196   8.748  1.00  0.00    -0.390 OA
ATOM     24  H5  UNL     1      38.921  43.200   8.838  1.00  0.00     0.210 HD
ENDBRANCH  17  23
BRANCH  18  25
HETATM   25  O6  UNL     1      39.106  40.839   8.577  1.00  0.00    -0.390 OA
ATOM     26  H6  UNL     1      39.477  40.404   7.818  1.00  0.00     0.210 HD
ENDBRANCH  18  25
BRANCH  19  27
HETATM   27  O7  UNL     1      41.021  39.040   8.382  1.00  0.00    -0.388 OA
ATOM     28  H7  UNL     1      40.689  38.430   9.030  1.00  0.00     0.210 HD
ENDBRANCH  19  27
ENDBRANCH  13  14
ENDBRANCH  10  13
BRANCH   9  29
HETATM   29  N1  UNL     1      44.752  38.719   8.441  1.00  0.00    -0.263 N 
BRANCH  29  30
HETATM   30  C10 UNL     1      44.613  37.323   8.630  1.00  0.00     0.189 C 
HETATM   31  S1  UNL     1      45.882  36.494   9.214  1.00  0.00    -0.073 SA
ENDBRANCH  29  30
BRANCH  29  32
HETATM   32  N2  UNL     1      44.771  39.466   9.633  1.00  0.00     0.024 NA
BRANCH  32  33
HETATM   33  O1  UNL     1      43.979  38.984  10.579  1.00  0.00    -0.272 OA
HETATM   34  C11 UNL     1      43.948  39.822  11.716  1.00  0.00     0.234 C 
ENDBRANCH  32  33
ENDBRANCH  29  32
ENDBRANCH   9  29
BRANCH  12  35
HETATM   35  O8  UNL     1      45.639  39.841   4.334  1.00  0.00    -0.387 OA
ATOM     36  H8  UNL     1      45.354  38.935   4.369  1.00  0.00     0.210 HD
ENDBRANCH  12  35
TORSDOF 12
ENDMDL
MODEL 2
REMARK VINA RESULT: -6.802156347      1.492      2.201
REMARK  12 active torsions:
REMARK  status: ('A' for Active; 'I' for Inactive)
REMARK    1  A    between atoms: C9_9  and  N1_10 
REMARK    2  A    between atoms: N1_10  and  C10_11 
REMARK    3  A    between atoms: N1_10  and  N2_13 
REMARK    4  A    between atoms: N2_13  and  O1_14 
REMARK    5  A    between atoms: C12_16  and  O2_17 
REMARK    6  A    between atoms: O2_17  and  C13_18 
REMARK    7  A    between atoms: C14_20  and  C15_21 
REMARK    8  A    between atoms: C15_21  and  O4_22 
REMARK    9  A    between atoms: C16_24  and  O5_25 
REMARK   10  A    between atoms: C17_27  and  O6_28 
REMARK   11  A    between atoms: C18_30  and  O7_31 
REMARK   12  A    between atoms: C20_34  and  O8_35 
ROOT
HETATM    1  C1  UNL     1      46.270  43.623   6.553  1.00  0.00     0.015 C 
HETATM    2  C2  UNL     1      45.731  42.571   5.935  1.00  0.00    -0.072 C 
HETATM    3  C3  UNL     1      46.327  41.625   4.950  1.00  0.00     0.051 C 
HETATM    4  C4  UNL     1      47.406  40.828   5.578  1.00  0.00     0.017 C 
HETATM    5  C5  UNL     1      46.639  39.959   6.578  1.00  0.00    -0.005 C 
HETATM    6  C6  UNL     1      47.566  38.852   6.957  1.00  0.00     0.011 C 
HETATM    7  C7  UNL     1      45.395  39.585   5.909  1.00  0.00     0.016 C 
HETATM    8  C8  UNL     1      45.455  38.363   5.043  1.00  0.00     0.021 C 
HETATM    9  C9  UNL     1      44.130  39.661   6.690  1.00  0.00     0.148 C 
HETATM   10  C12 UNL     1      43.986  41.145   7.081  1.00  0.00     0.161 C 
HETATM   11  C19 UNL     1      44.463  41.831   5.852  1.00  0.00     0.081 C 
HETATM   12  C20 UNL     1      45.134  40.769   4.972  1.00  0.00     0.085 C 
ENDROOT
BRANCH  10  13
HETATM   13  O2  UNL     1      42.639  41.312   7.343  1.00  0.00    -0.350 OA
BRANCH  13  14
HETATM   14  C13 UNL     1      42.336  42.245   8.285  1.00  0.00     0.292 C 
HETATM   15  O3  UNL     1      43.212  42.291   9.355  1.00  0.00    -0.348 OA
HETATM   16  C14 UNL     1      42.667  42.868  10.488  1.00  0.00     0.179 C 
HETATM   17  C16 UNL     1      41.573  43.861  10.163  1.00  0.00     0.180 C 
HETATM   18  C17 UNL     1      40.425  43.241   9.418  1.00  0.00     0.183 C 
HETATM   19  C18 UNL     1      40.930  41.960   8.786  1.00  0.00     0.204 C 
BRANCH  16  20
HETATM   20  C15 UNL     1      43.778  43.651  11.167  1.00  0.00     0.198 C 
BRANCH  20  21
HETATM   21  O4  UNL     1      43.315  44.700  11.924  1.00  0.00    -0.398 OA
ATOM     22  H4  UNL     1      42.713  44.430  12.607  1.00  0.00     0.209 HD
ENDBRANCH  20  21
ENDBRANCH  16  20
BRANCH  17  23
HETATM   23  O5  UNL     1      42.085  44.997   9.532  1.00  0.00    -0.390 OA
ATOM     24  H5  UNL     1      42.214  44.849   8.603  1.00  0.00     0.210 HD
ENDBRANCH  17  23
BRANCH  18  25
HETATM   25  O6  UNL     1      40.062  44.130   8.383  1.00  0.00    -0.390 OA
ATOM     26  H6  UNL     1      40.825  44.659   8.182  1.00  0.00     0.210 HD
ENDBRANCH  18  25
BRANCH  19  27
HETATM   27  O7  UNL     1      40.143  41.583   7.711  1.00  0.00    -0.388 OA
ATOM     28  H7  UNL     1      39.236  41.778   7.915  1.00  0.00     0.210 HD
ENDBRANCH  19  27
ENDBRANCH  13  14
ENDBRANCH  10  13
BRANCH   9  29
HETATM   29  N1  UNL     1      43.970  38.797   7.786  1.00  0.00    -0.263 N 
BRANCH  29  30
HETATM   30  C10 UNL     1      44.457  38.989   9.102  1.00  0.00     0.189 C 
HETATM   31  S1  UNL     1      45.207  37.749   9.835  1.00  0.00    -0.073 SA
ENDBRANCH  29  30
BRANCH  29  32
HETATM   32  N2  UNL     1      43.254  37.601   7.604  1.00  0.00     0.024 NA
BRANCH  32  33
HETATM   33  O1  UNL     1      42.486  37.595   6.525  1.00  0.00    -0.272 OA
HETATM   34  C11 UNL     1      41.140  37.896   6.835  1.00  0.00     0.234 C 
ENDBRANCH  32  33
ENDBRANCH  29  32
ENDBRANCH   9  29
BRANCH  12  35
HETATM   35  O8  UNL     1      44.493  40.475   3.809  1.00  0.00    -0.387 OA
ATOM     36  H8  UNL     1      44.323  41.165   3.177  1.00  0.00     0.210 HD
ENDBRANCH  12  35
TORSDOF 12
ENDMDL
MODEL 3
REMARK VINA RESULT: -6.794234585      1.075      1.368
REMARK  12 active torsions:
REMARK  status: ('A' for Active; 'I' for Inactive)
REMARK    1  A    between atoms: C9_9  and  N1_10 
REMARK    2  A    between atoms: N1_10  and  C10_11 
REMARK    3  A    between atoms: N1_10  and  N2_13 
REMARK    4  A    between atoms: N2_13  and  O1_14 
REMARK    5  A    between atoms: C12_16  and  O2_17 
REMARK    6  A    between atoms: O2_17  and  C13_18 
REMARK    7  A    between atoms: C14_20  and  C15_21 
REMARK    8  A    between atoms: C15_21  and  O4_22 
REMARK    9  A    between atoms: C16_24  and  O5_25 
REMARK   10  A    between atoms: C17_27  and  O6_28 
REMARK   11  A    between atoms: C18_30  and  O7_31 
REMARK   12  A    between atoms: C20_34  and  O8_35 
ROOT
HETATM    1  C1  UNL     1      45.437  43.752   6.306  1.00  0.00     0.015 C 
HETATM    2  C2  UNL     1      45.464  42.462   5.968  1.00  0.00    -0.072 C 
HETATM    3  C3  UNL     1      46.569  41.641   5.395  1.00  0.00     0.051 C 
HETATM    4  C4  UNL     1      47.681  41.513   6.365  1.00  0.00     0.017 C 
HETATM    5  C5  UNL     1      47.059  40.659   7.474  1.00  0.00    -0.005 C 
HETATM    6  C6  UNL     1      48.202  40.138   8.281  1.00  0.00     0.011 C 
HETATM    7  C7  UNL     1      46.220  39.673   6.795  1.00  0.00     0.016 C 
HETATM    8  C8  UNL     1      46.908  38.419   6.349  1.00  0.00     0.021 C 
HETATM    9  C9  UNL     1      44.866  39.407   7.350  1.00  0.00     0.148 C 
HETATM   10  C12 UNL     1      44.120  40.753   7.257  1.00  0.00     0.161 C 
HETATM   11  C19 UNL     1      44.597  41.275   5.950  1.00  0.00     0.081 C 
HETATM   12  C20 UNL     1      45.785  40.406   5.521  1.00  0.00     0.085 C 
ENDROOT
BRANCH  10  13
HETATM   13  O2  UNL     1      42.779  40.417   7.284  1.00  0.00    -0.350 OA
BRANCH  13  14
HETATM   14  C13 UNL     1      42.000  41.178   8.096  1.00  0.00     0.292 C 
HETATM   15  O3  UNL     1      42.661  42.221   8.721  1.00  0.00    -0.348 OA
HETATM   16  C14 UNL     1      42.022  42.674   9.861  1.00  0.00     0.179 C 
HETATM   17  C16 UNL     1      40.528  42.438   9.820  1.00  0.00     0.180 C 
HETATM   18  C17 UNL     1      40.171  40.984   9.692  1.00  0.00     0.183 C 
HETATM   19  C18 UNL     1      41.384  40.263   9.142  1.00  0.00     0.204 C 
BRANCH  16  20
HETATM   20  C15 UNL     1      42.223  44.179   9.916  1.00  0.00     0.198 C 
BRANCH  20  21
HETATM   21  O4  UNL     1      42.136  44.781   8.683  1.00  0.00    -0.398 OA
ATOM     22  H4  UNL     1      41.844  45.683   8.728  1.00  0.00     0.209 HD
ENDBRANCH  20  21
ENDBRANCH  16  20
BRANCH  17  23
HETATM   23  O5  UNL     1      39.910  43.240   8.857  1.00  0.00    -0.390 OA
ATOM     24  H5  UNL     1      40.217  44.138   8.905  1.00  0.00     0.210 HD
ENDBRANCH  17  23
BRANCH  18  25
HETATM   25  O6  UNL     1      39.131  40.886   8.742  1.00  0.00    -0.390 OA
ATOM     26  H6  UNL     1      39.186  40.023   8.349  1.00  0.00     0.210 HD
ENDBRANCH  18  25
BRANCH  19  27
HETATM   27  O7  UNL     1      41.029  39.071   8.534  1.00  0.00    -0.388 OA
ATOM     28  H7  UNL     1      41.817  38.568   8.366  1.00  0.00     0.210 HD
ENDBRANCH  19  27
ENDBRANCH  13  14
ENDBRANCH  10  13
BRANCH   9  29
HETATM   29  N1  UNL     1      44.770  38.825   8.625  1.00  0.00    -0.263 N 
BRANCH  29  30
HETATM   30  C10 UNL     1      44.927  39.475   9.874  1.00  0.00     0.189 C 
HETATM   31  S1  UNL     1      43.953  39.038  11.098  1.00  0.00    -0.073 SA
ENDBRANCH  29  30
BRANCH  29  32
HETATM   32  N2  UNL     1      44.485  37.451   8.720  1.00  0.00     0.024 NA
BRANCH  32  33
HETATM   33  O1  UNL     1      45.558  36.692   8.887  1.00  0.00    -0.272 OA
HETATM   34  C11 UNL     1      45.377  35.746   9.921  1.00  0.00     0.234 C 
ENDBRANCH  32  33
ENDBRANCH  29  32
ENDBRANCH   9  29
BRANCH  12  35
HETATM   35  O8  UNL     1      45.579  39.623   4.428  1.00  0.00    -0.387 OA
ATOM     36  H8  UNL     1      44.722  39.239   4.277  1.00  0.00     0.210 HD
ENDBRANCH  12  35
TORSDOF 12
ENDMDL
MODEL 4
REMARK VINA RESULT: -6.709265832      1.261      1.796
REMARK  12 active torsions:
REMARK  status: ('A' for Active; 'I' for Inactive)
REMARK    1  A    between atoms: C9_9  and  N1_10 
REMARK    2  A    between atoms: N1_10  and  C10_11 
REMARK    3  A    between atoms: N1_10  and  N2_13 
REMARK    4  A    between atoms: N2_13  and  O1_14 
REMARK    5  A    between atoms: C12_16  and  O2_17 
REMARK    6  A    between atoms: O2_17  and  C13_18 
REMARK    7  A    between atoms: C14_20  and  C15_21 
REMARK    8  A    between atoms: C15_21  and  O4_22 
REMARK    9  A    between atoms: C16_24  and  O5_25 
REMARK   10  A    between atoms: C17_27  and  O6_28 
REMARK   11  A    between atoms: C18_30  and  O7_31 
REMARK   12  A    between atoms: C20_34  and  O8_35 
ROOT
HETATM    1  C1  UNL     1      45.324  43.674   6.992  1.00  0.00     0.015 C 
HETATM    2  C2  UNL     1      45.130  42.581   6.251  1.00  0.00    -0.072 C 
HETATM    3  C3  UNL     1      46.082  41.820   5.393  1.00  0.00     0.051 C 
HETATM    4  C4  UNL     1      47.141  41.194   6.218  1.00  0.00     0.017 C 
HETATM    5  C5  UNL     1      46.365  40.141   7.013  1.00  0.00    -0.005 C 
HETATM    6  C6  UNL     1      47.388  39.199   7.555  1.00  0.00     0.011 C 
HETATM    7  C7  UNL     1      45.376  39.591   6.089  1.00  0.00     0.016 C 
HETATM    8  C8  UNL     1      45.840  38.455   5.229  1.00  0.00     0.021 C 
HETATM    9  C9  UNL     1      43.989  39.391   6.587  1.00  0.00     0.148 C 
HETATM   10  C12 UNL     1      43.490  40.798   6.971  1.00  0.00     0.161 C 
HETATM   11  C19 UNL     1      44.069  41.631   5.886  1.00  0.00     0.081 C 
HETATM   12  C20 UNL     1      45.093  40.764   5.144  1.00  0.00     0.085 C 
ENDROOT
BRANCH  10  13
HETATM   13  O2  UNL     1      42.111  40.704   6.947  1.00  0.00    -0.350 OA
BRANCH  13  14
HETATM   14  C13 UNL     1      41.461  41.367   7.938  1.00  0.00     0.292 C 
HETATM   15  O3  UNL     1      42.186  42.393   8.520  1.00  0.00    -0.348 OA
HETATM   16  C14 UNL     1      41.740  42.733   9.785  1.00  0.00     0.179 C 
HETATM   17  C16 UNL     1      40.270  42.430   9.982  1.00  0.00     0.180 C 
HETATM   18  C17 UNL     1      39.947  40.974   9.804  1.00  0.00     0.183 C 
HETATM   19  C18 UNL     1      41.069  40.352   8.999  1.00  0.00     0.204 C 
BRANCH  16  20
HETATM   20  C15 UNL     1      41.897  44.238   9.922  1.00  0.00     0.198 C 
BRANCH  20  21
HETATM   21  O4  UNL     1      41.959  44.887   8.712  1.00  0.00    -0.398 OA
ATOM     22  H4  UNL     1      42.626  45.562   8.685  1.00  0.00     0.209 HD
ENDBRANCH  20  21
ENDBRANCH  16  20
BRANCH  17  23
HETATM   23  O5  UNL     1      39.468  43.268   9.206  1.00  0.00    -0.390 OA
ATOM     24  H5  UNL     1      38.683  43.529   9.675  1.00  0.00     0.210 HD
ENDBRANCH  17  23
BRANCH  18  25
HETATM   25  O6  UNL     1      38.760  40.894   9.043  1.00  0.00    -0.390 OA
ATOM     26  H6  UNL     1      38.069  40.599   9.623  1.00  0.00     0.210 HD
ENDBRANCH  18  25
BRANCH  19  27
HETATM   27  O7  UNL     1      40.654  39.190   8.370  1.00  0.00    -0.388 OA
ATOM     28  H7  UNL     1      39.762  39.001   8.636  1.00  0.00     0.210 HD
ENDBRANCH  19  27
ENDBRANCH  13  14
ENDBRANCH  10  13
BRANCH   9  29
HETATM   29  N1  UNL     1      43.775  38.446   7.606  1.00  0.00    -0.263 N 
BRANCH  29  30
HETATM   30  C10 UNL     1      44.351  38.443   8.900  1.00  0.00     0.189 C 
HETATM   31  S1  UNL     1      45.107  37.096   9.403  1.00  0.00    -0.073 SA
ENDBRANCH  29  30
BRANCH  29  32
HETATM   32  N2  UNL     1      42.900  37.373   7.359  1.00  0.00     0.024 NA
BRANCH  32  33
HETATM   33  O1  UNL     1      42.249  37.466   6.210  1.00  0.00    -0.272 OA
HETATM   34  C11 UNL     1      40.859  37.271   6.376  1.00  0.00     0.234 C 
ENDBRANCH  32  33
ENDBRANCH  29  32
ENDBRANCH   9  29
BRANCH  12  35
HETATM   35  O8  UNL     1      44.768  40.430   3.866  1.00  0.00    -0.387 OA
ATOM     36  H8  UNL     1      44.097  39.777   3.704  1.00  0.00     0.210 HD
ENDBRANCH  12  35
TORSDOF 12
ENDMDL
MODEL 5
REMARK VINA RESULT: -6.623575609      2.306      6.278
REMARK  12 active torsions:
REMARK  status: ('A' for Active; 'I' for Inactive)
REMARK    1  A    between atoms: C9_9  and  N1_10 
REMARK    2  A    between atoms: N1_10  and  C10_11 
REMARK    3  A    between atoms: N1_10  and  N2_13 
REMARK    4  A    between atoms: N2_13  and  O1_14 
REMARK    5  A    between atoms: C12_16  and  O2_17 
REMARK    6  A    between atoms: O2_17  and  C13_18 
REMARK    7  A    between atoms: C14_20  and  C15_21 
REMARK    8  A    between atoms: C15_21  and  O4_22 
REMARK    9  A    between atoms: C16_24  and  O5_25 
REMARK   10  A    between atoms: C17_27  and  O6_28 
REMARK   11  A    between atoms: C18_30  and  O7_31 
REMARK   12  A    between atoms: C20_34  and  O8_35 
ROOT
HETATM    1  C1  UNL     1      41.152  38.469   7.037  1.00  0.00     0.015 C 
HETATM    2  C2  UNL     1      41.149  39.719   7.501  1.00  0.00    -0.072 C 
HETATM    3  C3  UNL     1      40.092  40.468   8.239  1.00  0.00     0.051 C 
HETATM    4  C4  UNL     1      39.862  39.867   9.573  1.00  0.00     0.017 C 
HETATM    5  C5  UNL     1      41.173  40.167  10.305  1.00  0.00    -0.005 C 
HETATM    6  C6  UNL     1      40.887  39.971  11.756  1.00  0.00     0.011 C 
HETATM    7  C7  UNL     1      41.569  41.507   9.879  1.00  0.00     0.016 C 
HETATM    8  C8  UNL     1      40.987  42.645  10.662  1.00  0.00     0.021 C 
HETATM    9  C9  UNL     1      42.997  41.736   9.529  1.00  0.00     0.148 C 
HETATM   10  C12 UNL     1      43.275  40.800   8.336  1.00  0.00     0.161 C 
HETATM   11  C19 UNL     1      42.011  40.908   7.564  1.00  0.00     0.081 C 
HETATM   12  C20 UNL     1      40.988  41.610   8.465  1.00  0.00     0.085 C 
ENDROOT
BRANCH  10  13
HETATM   13  O2  UNL     1      44.378  41.347   7.707  1.00  0.00    -0.350 OA
BRANCH  13  14
HETATM   14  C13 UNL     1      45.088  40.495   6.921  1.00  0.00     0.292 C 
HETATM   15  O3  UNL     1      45.940  39.648   7.608  1.00  0.00    -0.348 OA
HETATM   16  C14 UNL     1      46.965  39.145   6.826  1.00  0.00     0.179 C 
HETATM   17  C16 UNL     1      46.592  39.071   5.362  1.00  0.00     0.180 C 
HETATM   18  C17 UNL     1      46.244  40.411   4.780  1.00  0.00     0.183 C 
HETATM   19  C18 UNL     1      45.883  41.328   5.931  1.00  0.00     0.204 C 
BRANCH  16  20
HETATM   20  C15 UNL     1      47.215  37.718   7.285  1.00  0.00     0.198 C 
BRANCH  20  21
HETATM   21  O4  UNL     1      48.013  37.006   6.422  1.00  0.00    -0.398 OA
ATOM     22  H4  UNL     1      48.128  36.100   6.683  1.00  0.00     0.209 HD
ENDBRANCH  20  21
ENDBRANCH  16  20
BRANCH  17  23
HETATM   23  O5  UNL     1      45.612  38.103   5.132  1.00  0.00    -0.390 OA
ATOM     24  H5  UNL     1      44.750  38.494   5.051  1.00  0.00     0.210 HD
ENDBRANCH  17  23
BRANCH  18  25
HETATM   25  O6  UNL     1      45.096  40.239   3.977  1.00  0.00    -0.390 OA
ATOM     26  H6  UNL     1      45.296  40.587   3.116  1.00  0.00     0.210 HD
ENDBRANCH  18  25
BRANCH  19  27
HETATM   27  O7  UNL     1      45.096  42.385   5.506  1.00  0.00    -0.388 OA
ATOM     28  H7  UNL     1      45.621  42.953   4.953  1.00  0.00     0.210 HD
ENDBRANCH  19  27
ENDBRANCH  13  14
ENDBRANCH  10  13
BRANCH   9  29
HETATM   29  N1  UNL     1      43.961  41.616  10.545  1.00  0.00    -0.263 N 
BRANCH  29  30
HETATM   30  C10 UNL     1      44.346  42.610  11.477  1.00  0.00     0.189 C 
HETATM   31  S1  UNL     1      43.929  42.409  13.034  1.00  0.00    -0.073 SA
ENDBRANCH  29  30
BRANCH  29  32
HETATM   32  N2  UNL     1      44.640  40.393  10.690  1.00  0.00     0.024 NA
BRANCH  32  33
HETATM   33  O1  UNL     1      45.957  40.515  10.754  1.00  0.00    -0.272 OA
HETATM   34  C11 UNL     1      46.585  39.286  11.056  1.00  0.00     0.234 C 
ENDBRANCH  32  33
ENDBRANCH  29  32
ENDBRANCH   9  29
BRANCH  12  35
HETATM   35  O8  UNL     1      40.607  42.855   8.069  1.00  0.00    -0.387 OA
ATOM     36  H8  UNL     1      40.238  43.459   8.703  1.00  0.00     0.210 HD
ENDBRANCH  12  35
TORSDOF 12
ENDMDL
