MODEL 1
REMARK VINA RESULT: -7.577262980      0.000      0.000
REMARK  12 active torsions:
REMARK  status: ('A' for Active; 'I' for Inactive)
REMARK    1  A    between atoms: N1_1  and  C1_4 
REMARK    2  A    between atoms: C3_8  and  C4_9 
REMARK    3  A    between atoms: C4_9  and  C5_10 
REMARK    4  A    between atoms: C5_10  and  N3_11 
REMARK    5  A    between atoms: C5_10  and  C6_15 
REMARK       I    between atoms: C6_15  and  N4_17 
REMARK    6  A    between atoms: N4_17  and  C7_19 
REMARK    7  A    between atoms: C8_20  and  O2_21 
REMARK    8  A    between atoms: C9_23  and  O3_24 
REMARK    9  A    between atoms: C10_26  and  C11_27 
REMARK   10  A    between atoms: C12_28  and  S1_29 
REMARK   11  A    between atoms: S1_29  and  C13_30 
REMARK   12  A    between atoms: N6_38  and  O4_39 
ROOT
HETATM    1  C6  UNL     1      42.020  41.065   8.756  1.00  0.00     0.249 C 
HETATM    2  O1  UNL     1      42.043  41.616   7.617  1.00  0.00    -0.271 OA
HETATM    3  N4  UNL     1      41.172  39.964   9.038  1.00  0.00    -0.351 N 
ATOM      4  H4  UNL     1      41.162  39.526   9.959  1.00  0.00     0.163 HD
ENDROOT
BRANCH   1   5
HETATM    5  C5  UNL     1      42.917  41.605   9.812  1.00  0.00     0.280 C 
BRANCH   5   6
HETATM    6  C4  UNL     1      42.713  43.057  10.051  1.00  0.00     0.102 C 
BRANCH   6   7
HETATM    7  C3  UNL     1      41.329  43.481  10.322  1.00  0.00     0.047 A 
HETATM    8  C2  UNL     1      40.732  43.432  11.539  1.00  0.00     0.132 A 
HETATM    9  N2  UNL     1      39.455  43.834  11.659  1.00  0.00    -0.197 N 
HETATM   10  C1  UNL     1      38.809  44.272  10.572  1.00  0.00     0.717 A 
ATOM     11  H2  UNL     1      38.986  43.806  12.565  1.00  0.00     0.183 HD
HETATM   12  N6  UNL     1      39.379  44.330   9.357  1.00  0.00     0.016 N 
HETATM   13  N5  UNL     1      40.626  43.938   9.237  1.00  0.00    -0.262 N 
ATOM     14  H5  UNL     1      41.078  43.974   8.323  1.00  0.00     0.190 HD
BRANCH  10  15
HETATM   15  N1  UNL     1      37.581  44.659  10.688  1.00  0.00    -0.231 N 
ATOM     16  H12 UNL     1      37.405  45.643  10.889  1.00  0.00     0.174 HD
ATOM     17  H11 UNL     1      36.834  43.973  10.576  1.00  0.00     0.174 HD
ENDBRANCH  10  15
BRANCH  12  18
HETATM   18  O4  UNL     1      38.633  44.796   8.297  1.00  0.00    -0.254 OA
ATOM     19  H4  UNL     1      38.824  45.658   7.948  1.00  0.00     0.247 HD
ENDBRANCH  12  18
ENDBRANCH   6   7
ENDBRANCH   5   6
BRANCH   5  20
HETATM   20  N3  UNL     1      42.777  40.781  10.985  1.00  0.00    -0.066 N 
ATOM     21  H33 UNL     1      43.590  40.885  11.592  1.00  0.00     0.275 HD
ATOM     22  H32 UNL     1      42.053  41.156  11.598  1.00  0.00     0.275 HD
ATOM     23  H31 UNL     1      42.602  39.795  10.791  1.00  0.00     0.275 HD
ENDBRANCH   5  20
ENDBRANCH   1   5
BRANCH   3  24
HETATM   24  C7  UNL     1      40.322  39.485   7.970  1.00  0.00     0.126 C 
HETATM   25  C8  UNL     1      39.245  38.580   8.567  1.00  0.00     0.171 C 
HETATM   26  C9  UNL     1      39.457  37.666   7.378  1.00  0.00     0.158 C 
HETATM   27  C10 UNL     1      40.854  38.241   7.264  1.00  0.00     0.065 C 
BRANCH  25  28
HETATM   28  O2  UNL     1      38.018  39.250   8.546  1.00  0.00    -0.391 OA
ATOM     29  H2  UNL     1      37.632  39.166   7.683  1.00  0.00     0.210 HD
ENDBRANCH  25  28
BRANCH  26  30
HETATM   30  O3  UNL     1      38.628  37.947   6.301  1.00  0.00    -0.392 OA
ATOM     31  H3  UNL     1      38.720  37.339   5.578  1.00  0.00     0.210 HD
ENDBRANCH  26  30
BRANCH  27  32
HETATM   32  C11 UNL     1      41.189  38.591   5.853  1.00  0.00    -0.010 C 
HETATM   33  C12 UNL     1      42.423  38.758   5.426  1.00  0.00     0.043 C 
BRANCH  33  34
HETATM   34  S1  UNL     1      43.789  38.566   6.564  1.00  0.00    -0.116 SA
BRANCH  34  35
HETATM   35  C13 UNL     1      45.192  39.558   5.996  1.00  0.00     0.173 C 
HETATM   36  S2  UNL     1      45.818  40.619   7.349  1.00  0.00    -0.143 SA
HETATM   37  C14 UNL     1      45.211  42.306   6.955  1.00  0.00     0.076 C 
HETATM   38  C15 UNL     1      46.009  42.852   5.787  1.00  0.00     0.020 C 
HETATM   39  C16 UNL     1      45.863  42.036   4.547  1.00  0.00     0.076 C 
HETATM   40  S3  UNL     1      44.669  40.696   4.675  1.00  0.00    -0.143 SA
ENDBRANCH  34  35
ENDBRANCH  33  34
ENDBRANCH  27  32
ENDBRANCH   3  24
TORSDOF 12
ENDMDL
MODEL 2
REMARK VINA RESULT: -7.371292647      1.144      1.415
REMARK  12 active torsions:
REMARK  status: ('A' for Active; 'I' for Inactive)
REMARK    1  A    between atoms: N1_1  and  C1_4 
REMARK    2  A    between atoms: C3_8  and  C4_9 
REMARK    3  A    between atoms: C4_9  and  C5_10 
REMARK    4  A    between atoms: C5_10  and  N3_11 
REMARK    5  A    between atoms: C5_10  and  C6_15 
REMARK       I    between atoms: C6_15  and  N4_17 
REMARK    6  A    between atoms: N4_17  and  C7_19 
REMARK    7  A    between atoms: C8_20  and  O2_21 
REMARK    8  A    between atoms: C9_23  and  O3_24 
REMARK    9  A    between atoms: C10_26  and  C11_27 
REMARK   10  A    between atoms: C12_28  and  S1_29 
REMARK   11  A    between atoms: S1_29  and  C13_30 
REMARK   12  A    between atoms: N6_38  and  O4_39 
ROOT
HETATM    1  C6  UNL     1      41.630  41.526   8.716  1.00  0.00     0.249 C 
HETATM    2  O1  UNL     1      41.750  41.895   7.511  1.00  0.00    -0.271 OA
HETATM    3  N4  UNL     1      40.796  40.442   9.088  1.00  0.00    -0.351 N 
ATOM      4  H4  UNL     1      40.707  40.152  10.062  1.00  0.00     0.163 HD
ENDROOT
BRANCH   1   5
HETATM    5  C5  UNL     1      42.397  42.267   9.754  1.00  0.00     0.280 C 
BRANCH   5   6
HETATM    6  C4  UNL     1      42.007  43.698   9.843  1.00  0.00     0.102 C 
BRANCH   6   7
HETATM    7  C3  UNL     1      40.610  43.966  10.226  1.00  0.00     0.047 A 
HETATM    8  C2  UNL     1      39.612  44.250   9.351  1.00  0.00     0.132 A 
HETATM    9  N2  UNL     1      38.377  44.492   9.823  1.00  0.00    -0.197 N 
HETATM   10  C1  UNL     1      38.168  44.445  11.143  1.00  0.00     0.717 A 
ATOM     11  H2  UNL     1      37.611  44.708   9.184  1.00  0.00     0.183 HD
HETATM   12  N6  UNL     1      39.139  44.166  12.029  1.00  0.00     0.016 N 
HETATM   13  N5  UNL     1      40.346  43.929  11.571  1.00  0.00    -0.262 N 
ATOM     14  H5  UNL     1      41.099  43.715  12.225  1.00  0.00     0.190 HD
BRANCH  10  15
HETATM   15  N1  UNL     1      36.980  44.677  11.597  1.00  0.00    -0.231 N 
ATOM     16  H12 UNL     1      36.380  43.878  11.804  1.00  0.00     0.174 HD
ATOM     17  H11 UNL     1      36.682  45.644  11.732  1.00  0.00     0.174 HD
ENDBRANCH  10  15
BRANCH  12  18
HETATM   18  O4  UNL     1      38.826  44.140  13.370  1.00  0.00    -0.254 OA
ATOM     19  H4  UNL     1      39.468  43.803  13.982  1.00  0.00     0.247 HD
ENDBRANCH  12  18
ENDBRANCH   6   7
ENDBRANCH   5   6
BRANCH   5  20
HETATM   20  N3  UNL     1      42.293  41.541  10.993  1.00  0.00    -0.066 N 
ATOM     21  H33 UNL     1      43.195  41.135  11.244  1.00  0.00     0.275 HD
ATOM     22  H32 UNL     1      42.169  42.187  11.773  1.00  0.00     0.275 HD
ATOM     23  H31 UNL     1      41.566  40.826  11.005  1.00  0.00     0.275 HD
ENDBRANCH   5  20
ENDBRANCH   1   5
BRANCH   3  24
HETATM   24  C7  UNL     1      40.076  39.762   8.034  1.00  0.00     0.126 C 
HETATM   25  C8  UNL     1      39.086  38.783   8.667  1.00  0.00     0.171 C 
HETATM   26  C9  UNL     1      39.479  37.799   7.584  1.00  0.00     0.158 C 
HETATM   27  C10 UNL     1      40.798  38.538   7.479  1.00  0.00     0.065 C 
BRANCH  25  28
HETATM   28  O2  UNL     1      37.789  39.285   8.524  1.00  0.00    -0.391 OA
ATOM     29  H2  UNL     1      37.167  38.626   8.810  1.00  0.00     0.210 HD
ENDBRANCH  25  28
BRANCH  26  30
HETATM   30  O3  UNL     1      38.686  37.872   6.448  1.00  0.00    -0.392 OA
ATOM     31  H3  UNL     1      38.493  37.027   6.060  1.00  0.00     0.210 HD
ENDBRANCH  26  30
BRANCH  27  32
HETATM   32  C11 UNL     1      41.169  38.797   6.057  1.00  0.00    -0.010 C 
HETATM   33  C12 UNL     1      42.412  38.942   5.652  1.00  0.00     0.043 C 
BRANCH  33  34
HETATM   34  S1  UNL     1      43.749  38.830   6.835  1.00  0.00    -0.116 SA
BRANCH  34  35
HETATM   35  C13 UNL     1      45.163  39.790   6.242  1.00  0.00     0.173 C 
HETATM   36  S2  UNL     1      45.694  41.000   7.508  1.00  0.00    -0.143 SA
HETATM   37  C14 UNL     1      45.079  42.622   6.909  1.00  0.00     0.076 C 
HETATM   38  C15 UNL     1      45.930  43.064   5.734  1.00  0.00     0.020 C 
HETATM   39  C16 UNL     1      45.868  42.121   4.580  1.00  0.00     0.076 C 
HETATM   40  S3  UNL     1      44.693  40.773   4.784  1.00  0.00    -0.143 SA
ENDBRANCH  34  35
ENDBRANCH  33  34
ENDBRANCH  27  32
ENDBRANCH   3  24
TORSDOF 12
ENDMDL
MODEL 3
REMARK VINA RESULT: -7.323757097      2.228      5.046
REMARK  12 active torsions:
REMARK  status: ('A' for Active; 'I' for Inactive)
REMARK    1  A    between atoms: N1_1  and  C1_4 
REMARK    2  A    between atoms: C3_8  and  C4_9 
REMARK    3  A    between atoms: C4_9  and  C5_10 
REMARK    4  A    between atoms: C5_10  and  N3_11 
REMARK    5  A    between atoms: C5_10  and  C6_15 
REMARK       I    between atoms: C6_15  and  N4_17 
REMARK    6  A    between atoms: N4_17  and  C7_19 
REMARK    7  A    between atoms: C8_20  and  O2_21 
REMARK    8  A    between atoms: C9_23  and  O3_24 
REMARK    9  A    between atoms: C10_26  and  C11_27 
REMARK   10  A    between atoms: C12_28  and  S1_29 
REMARK   11  A    between atoms: S1_29  and  C13_30 
REMARK   12  A    between atoms: N6_38  and  O4_39 
ROOT
HETATM    1  C6  UNL     1      44.407  41.875   8.704  1.00  0.00     0.249 C 
HETATM    2  O1  UNL     1      44.959  40.755   8.905  1.00  0.00    -0.271 OA
HETATM    3  N4  UNL     1      44.649  42.629   7.527  1.00  0.00    -0.351 N 
ATOM      4  H4  UNL     1      44.198  43.530   7.374  1.00  0.00     0.163 HD
ENDROOT
BRANCH   1   5
HETATM    5  C5  UNL     1      43.481  42.396   9.745  1.00  0.00     0.280 C 
BRANCH   5   6
HETATM    6  C4  UNL     1      42.858  43.690   9.364  1.00  0.00     0.102 C 
BRANCH   6   7
HETATM    7  C3  UNL     1      41.492  43.923   9.863  1.00  0.00     0.047 A 
HETATM    8  C2  UNL     1      41.119  43.824  11.164  1.00  0.00     0.132 A 
HETATM    9  N2  UNL     1      39.836  44.047  11.496  1.00  0.00    -0.197 N 
HETATM   10  C1  UNL     1      38.962  44.361  10.532  1.00  0.00     0.717 A 
ATOM     11  H2  UNL     1      39.532  43.977  12.468  1.00  0.00     0.183 HD
HETATM   12  N6  UNL     1      39.308  44.466   9.238  1.00  0.00     0.016 N 
HETATM   13  N5  UNL     1      40.561  44.248   8.911  1.00  0.00    -0.262 N 
ATOM     14  H5  UNL     1      40.845  44.323   7.934  1.00  0.00     0.190 HD
BRANCH  10  15
HETATM   15  N1  UNL     1      37.728  44.576  10.851  1.00  0.00    -0.231 N 
ATOM     16  H12 UNL     1      37.241  43.861  11.393  1.00  0.00     0.174 HD
ATOM     17  H11 UNL     1      37.285  45.445  10.553  1.00  0.00     0.174 HD
ENDBRANCH  10  15
BRANCH  12  18
HETATM   18  O4  UNL     1      38.337  44.794   8.318  1.00  0.00    -0.254 OA
ATOM     19  H4  UNL     1      37.603  44.203   8.197  1.00  0.00     0.247 HD
ENDBRANCH  12  18
ENDBRANCH   6   7
ENDBRANCH   5   6
BRANCH   5  20
HETATM   20  N3  UNL     1      42.541  41.355  10.073  1.00  0.00    -0.066 N 
ATOM     21  H33 UNL     1      42.817  40.476   9.635  1.00  0.00     0.275 HD
ATOM     22  H32 UNL     1      42.628  41.095  11.055  1.00  0.00     0.275 HD
ATOM     23  H31 UNL     1      41.571  41.574   9.848  1.00  0.00     0.275 HD
ENDBRANCH   5  20
ENDBRANCH   1   5
BRANCH   3  24
HETATM   24  C7  UNL     1      45.559  42.069   6.552  1.00  0.00     0.126 C 
HETATM   25  C8  UNL     1      45.903  43.148   5.525  1.00  0.00     0.171 C 
HETATM   26  C9  UNL     1      45.785  42.074   4.465  1.00  0.00     0.158 C 
HETATM   27  C10 UNL     1      44.869  41.327   5.413  1.00  0.00     0.065 C 
BRANCH  25  28
HETATM   28  O2  UNL     1      47.214  43.584   5.738  1.00  0.00    -0.391 OA
ATOM     29  H2  UNL     1      47.260  44.521   5.585  1.00  0.00     0.210 HD
ENDBRANCH  25  28
BRANCH  26  30
HETATM   30  O3  UNL     1      46.981  41.426   4.189  1.00  0.00    -0.392 OA
ATOM     31  H3  UNL     1      47.723  42.012   4.102  1.00  0.00     0.210 HD
ENDBRANCH  26  30
BRANCH  27  32
HETATM   32  C11 UNL     1      45.224  39.880   5.492  1.00  0.00    -0.010 C 
HETATM   33  C12 UNL     1      44.326  38.918   5.512  1.00  0.00     0.043 C 
BRANCH  33  34
HETATM   34  S1  UNL     1      42.586  39.327   5.445  1.00  0.00    -0.116 SA
BRANCH  34  35
HETATM   35  C13 UNL     1      41.835  39.041   7.065  1.00  0.00     0.173 C 
HETATM   36  S2  UNL     1      40.774  37.552   7.028  1.00  0.00    -0.143 SA
HETATM   37  C14 UNL     1      39.053  38.189   6.986  1.00  0.00     0.076 C 
HETATM   38  C15 UNL     1      38.703  38.740   8.355  1.00  0.00     0.020 C 
HETATM   39  C16 UNL     1      39.578  39.875   8.770  1.00  0.00     0.076 C 
HETATM   40  S3  UNL     1      40.734  40.423   7.505  1.00  0.00    -0.143 SA
ENDBRANCH  34  35
ENDBRANCH  33  34
ENDBRANCH  27  32
ENDBRANCH   3  24
TORSDOF 12
ENDMDL
MODEL 4
REMARK VINA RESULT: -7.285974946      1.627      1.909
REMARK  12 active torsions:
REMARK  status: ('A' for Active; 'I' for Inactive)
REMARK    1  A    between atoms: N1_1  and  C1_4 
REMARK    2  A    between atoms: C3_8  and  C4_9 
REMARK    3  A    between atoms: C4_9  and  C5_10 
REMARK    4  A    between atoms: C5_10  and  N3_11 
REMARK    5  A    between atoms: C5_10  and  C6_15 
REMARK       I    between atoms: C6_15  and  N4_17 
REMARK    6  A    between atoms: N4_17  and  C7_19 
REMARK    7  A    between atoms: C8_20  and  O2_21 
REMARK    8  A    between atoms: C9_23  and  O3_24 
REMARK    9  A    between atoms: C10_26  and  C11_27 
REMARK   10  A    between atoms: C12_28  and  S1_29 
REMARK   11  A    between atoms: S1_29  and  C13_30 
REMARK   12  A    between atoms: N6_38  and  O4_39 
ROOT
HETATM    1  C6  UNL     1      40.528  42.006   9.349  1.00  0.00     0.249 C 
HETATM    2  O1  UNL     1      39.419  42.456   8.936  1.00  0.00    -0.271 OA
HETATM    3  N4  UNL     1      41.027  40.746   8.930  1.00  0.00    -0.351 N 
ATOM      4  H4  UNL     1      41.922  40.393   9.269  1.00  0.00     0.163 HD
ENDROOT
BRANCH   1   5
HETATM    5  C5  UNL     1      41.311  42.840  10.300  1.00  0.00     0.280 C 
BRANCH   5   6
HETATM    6  C4  UNL     1      40.908  44.270  10.275  1.00  0.00     0.102 C 
BRANCH   6   7
HETATM    7  C3  UNL     1      39.953  44.693  11.313  1.00  0.00     0.047 A 
HETATM    8  C2  UNL     1      40.279  45.422  12.409  1.00  0.00     0.132 A 
HETATM    9  N2  UNL     1      39.319  45.735  13.297  1.00  0.00    -0.197 N 
HETATM   10  C1  UNL     1      38.068  45.318  13.072  1.00  0.00     0.717 A 
ATOM     11  H2  UNL     1      39.541  46.283  14.129  1.00  0.00     0.183 HD
HETATM   12  N6  UNL     1      37.721  44.595  11.994  1.00  0.00     0.016 N 
HETATM   13  N5  UNL     1      38.656  44.288  11.126  1.00  0.00    -0.262 N 
ATOM     14  H5  UNL     1      38.415  43.740  10.300  1.00  0.00     0.190 HD
BRANCH  10  15
HETATM   15  N1  UNL     1      37.145  45.619  13.925  1.00  0.00    -0.231 N 
ATOM     16  H12 UNL     1      37.326  46.381  14.579  1.00  0.00     0.174 HD
ATOM     17  H11 UNL     1      36.273  45.090  13.918  1.00  0.00     0.174 HD
ENDBRANCH  10  15
BRANCH  12  18
HETATM   18  O4  UNL     1      36.406  44.211  11.849  1.00  0.00    -0.254 OA
ATOM     19  H4  UNL     1      36.210  43.436  11.337  1.00  0.00     0.247 HD
ENDBRANCH  12  18
ENDBRANCH   6   7
ENDBRANCH   5   6
BRANCH   5  20
HETATM   20  N3  UNL     1      41.243  42.223  11.600  1.00  0.00    -0.066 N 
ATOM     21  H33 UNL     1      41.679  41.302  11.580  1.00  0.00     0.275 HD
ATOM     22  H32 UNL     1      41.868  42.698  12.251  1.00  0.00     0.275 HD
ATOM     23  H31 UNL     1      40.302  42.162  11.991  1.00  0.00     0.275 HD
ENDBRANCH   5  20
ENDBRANCH   1   5
BRANCH   3  24
HETATM   24  C7  UNL     1      40.220  39.982   8.006  1.00  0.00     0.126 C 
HETATM   25  C8  UNL     1      39.281  39.077   8.805  1.00  0.00     0.171 C 
HETATM   26  C9  UNL     1      39.578  37.994   7.789  1.00  0.00     0.158 C 
HETATM   27  C10 UNL     1      40.888  38.704   7.508  1.00  0.00     0.065 C 
BRANCH  25  28
HETATM   28  O2  UNL     1      37.979  39.580   8.724  1.00  0.00    -0.391 OA
ATOM     29  H2  UNL     1      37.581  39.554   9.586  1.00  0.00     0.210 HD
ENDBRANCH  25  28
BRANCH  26  30
HETATM   30  O3  UNL     1      38.694  37.973   6.719  1.00  0.00    -0.392 OA
ATOM     31  H3  UNL     1      39.069  37.624   5.920  1.00  0.00     0.210 HD
ENDBRANCH  26  30
BRANCH  27  32
HETATM   32  C11 UNL     1      41.141  38.828   6.043  1.00  0.00    -0.010 C 
HETATM   33  C12 UNL     1      42.316  38.606   5.494  1.00  0.00     0.043 C 
BRANCH  33  34
HETATM   34  S1  UNL     1      43.700  38.132   6.522  1.00  0.00    -0.116 SA
BRANCH  34  35
HETATM   35  C13 UNL     1      44.956  39.433   6.483  1.00  0.00     0.173 C 
HETATM   36  S2  UNL     1      44.884  40.442   8.008  1.00  0.00    -0.143 SA
HETATM   37  C14 UNL     1      44.073  42.010   7.508  1.00  0.00     0.076 C 
HETATM   38  C15 UNL     1      45.053  42.826   6.686  1.00  0.00     0.020 C 
HETATM   39  C16 UNL     1      45.480  42.138   5.434  1.00  0.00     0.076 C 
HETATM   40  S3  UNL     1      44.631  40.585   5.112  1.00  0.00    -0.143 SA
ENDBRANCH  34  35
ENDBRANCH  33  34
ENDBRANCH  27  32
ENDBRANCH   3  24
TORSDOF 12
ENDMDL
MODEL 5
REMARK VINA RESULT: -7.222852251      0.924      1.300
REMARK  12 active torsions:
REMARK  status: ('A' for Active; 'I' for Inactive)
REMARK    1  A    between atoms: N1_1  and  C1_4 
REMARK    2  A    between atoms: C3_8  and  C4_9 
REMARK    3  A    between atoms: C4_9  and  C5_10 
REMARK    4  A    between atoms: C5_10  and  N3_11 
REMARK    5  A    between atoms: C5_10  and  C6_15 
REMARK       I    between atoms: C6_15  and  N4_17 
REMARK    6  A    between atoms: N4_17  and  C7_19 
REMARK    7  A    between atoms: C8_20  and  O2_21 
REMARK    8  A    between atoms: C9_23  and  O3_24 
REMARK    9  A    between atoms: C10_26  and  C11_27 
REMARK   10  A    between atoms: C12_28  and  S1_29 
REMARK   11  A    between atoms: S1_29  and  C13_30 
REMARK   12  A    between atoms: N6_38  and  O4_39 
ROOT
HETATM    1  C6  UNL     1      42.057  41.096   8.892  1.00  0.00     0.249 C 
HETATM    2  O1  UNL     1      42.156  41.634   7.751  1.00  0.00    -0.271 OA
HETATM    3  N4  UNL     1      41.176  40.012   9.136  1.00  0.00    -0.351 N 
ATOM      4  H4  UNL     1      41.105  39.585  10.059  1.00  0.00     0.163 HD
ENDROOT
BRANCH   1   5
HETATM    5  C5  UNL     1      42.901  41.632   9.993  1.00  0.00     0.280 C 
BRANCH   5   6
HETATM    6  C4  UNL     1      42.693  43.086  10.219  1.00  0.00     0.102 C 
BRANCH   6   7
HETATM    7  C3  UNL     1      41.304  43.513  10.456  1.00  0.00     0.047 A 
HETATM    8  C2  UNL     1      40.684  43.483  11.663  1.00  0.00     0.132 A 
HETATM    9  N2  UNL     1      39.405  43.886  11.752  1.00  0.00    -0.197 N 
HETATM   10  C1  UNL     1      38.779  44.305  10.646  1.00  0.00     0.717 A 
ATOM     11  H2  UNL     1      38.918  43.872  12.649  1.00  0.00     0.183 HD
HETATM   12  N6  UNL     1      39.372  44.344   9.441  1.00  0.00     0.016 N 
HETATM   13  N5  UNL     1      40.622  43.951   9.351  1.00  0.00    -0.262 N 
ATOM     14  H5  UNL     1      41.091  43.972   8.446  1.00  0.00     0.190 HD
BRANCH  10  15
HETATM   15  N1  UNL     1      37.549  44.693  10.731  1.00  0.00    -0.231 N 
ATOM     16  H12 UNL     1      36.921  44.471   9.959  1.00  0.00     0.174 HD
ATOM     17  H11 UNL     1      37.249  45.204  11.561  1.00  0.00     0.174 HD
ENDBRANCH  10  15
BRANCH  12  18
HETATM   18  O4  UNL     1      38.646  44.791   8.359  1.00  0.00    -0.254 OA
ATOM     19  H4  UNL     1      39.112  45.136   7.607  1.00  0.00     0.247 HD
ENDBRANCH  12  18
ENDBRANCH   6   7
ENDBRANCH   5   6
BRANCH   5  20
HETATM   20  N3  UNL     1      42.695  40.811  11.159  1.00  0.00    -0.066 N 
ATOM     21  H33 UNL     1      41.973  41.215  11.755  1.00  0.00     0.275 HD
ATOM     22  H32 UNL     1      42.240  39.937  10.900  1.00  0.00     0.275 HD
ATOM     23  H31 UNL     1      43.540  40.626  11.700  1.00  0.00     0.275 HD
ENDBRANCH   5  20
ENDBRANCH   1   5
BRANCH   3  24
HETATM   24  C7  UNL     1      40.381  39.536   8.025  1.00  0.00     0.126 C 
HETATM   25  C8  UNL     1      39.275  38.629   8.565  1.00  0.00     0.171 C 
HETATM   26  C9  UNL     1      39.547  37.717   7.387  1.00  0.00     0.158 C 
HETATM   27  C10 UNL     1      40.948  38.294   7.344  1.00  0.00     0.065 C 
BRANCH  25  28
HETATM   28  O2  UNL     1      38.051  39.298   8.485  1.00  0.00    -0.391 OA
ATOM     29  H2  UNL     1      37.888  39.749   9.305  1.00  0.00     0.210 HD
ENDBRANCH  25  28
BRANCH  26  30
HETATM   30  O3  UNL     1      38.773  38.001   6.270  1.00  0.00    -0.392 OA
ATOM     31  H3  UNL     1      39.116  37.636   5.464  1.00  0.00     0.210 HD
ENDBRANCH  26  30
BRANCH  27  32
HETATM   32  C11 UNL     1      41.353  38.646   5.952  1.00  0.00    -0.010 C 
HETATM   33  C12 UNL     1      42.601  38.614   5.536  1.00  0.00     0.043 C 
BRANCH  33  34
HETATM   34  S1  UNL     1      43.900  38.129   6.665  1.00  0.00    -0.116 SA
BRANCH  34  35
HETATM   35  C13 UNL     1      44.835  39.592   7.175  1.00  0.00     0.173 C 
HETATM   36  S2  UNL     1      45.039  40.746   5.770  1.00  0.00    -0.143 SA
HETATM   37  C14 UNL     1      46.779  40.537   5.226  1.00  0.00     0.076 C 
HETATM   38  C15 UNL     1      47.692  41.187   6.249  1.00  0.00     0.020 C 
HETATM   39  C16 UNL     1      47.583  40.572   7.603  1.00  0.00     0.076 C 
HETATM   40  S3  UNL     1      46.520  39.122   7.678  1.00  0.00    -0.143 SA
ENDBRANCH  34  35
ENDBRANCH  33  34
ENDBRANCH  27  32
ENDBRANCH   3  24
TORSDOF 12
ENDMDL
