MODEL 1
REMARK VINA RESULT: -7.154407849      0.000      0.000
REMARK  7 active torsions:
REMARK  status: ('A' for Active; 'I' for Inactive)
REMARK    1  A    between atoms: C2_2  and  C3_4 
REMARK    2  A    between atoms: C3_4  and  O2_5 
REMARK    3  A    between atoms: C3_4  and  N1_7 
REMARK    4  A    between atoms: N2_10  and  C6_11 
REMARK    5  A    between atoms: C7_14  and  C8_15 
REMARK       I    between atoms: C8_15  and  N4_17 
REMARK    6  A    between atoms: N4_17  and  N5_18 
REMARK    7  A    between atoms: C9_23  and  N7_24 
ROOT
HETATM    1  C6  UNL     1       4.000  21.402   3.104  1.00  0.00     0.696 A 
HETATM    2  N3  UNL     1       3.875  22.732   3.295  1.00  0.00    -0.169 N 
ATOM      3  H3  UNL     1       4.583  23.360   2.913  1.00  0.00     0.186 HD
HETATM    4  C7  UNL     1       2.879  23.229   3.951  1.00  0.00     0.220 A 
HETATM    5  N6  UNL     1       1.910  22.465   4.485  1.00  0.00    -0.169 N 
ATOM      6  H6  UNL     1       1.132  22.888   4.991  1.00  0.00     0.186 HD
HETATM    7  C9  UNL     1       1.986  21.182   4.344  1.00  0.00     0.692 A 
HETATM    8  N8  UNL     1       2.979  20.644   3.684  1.00  0.00    -0.022 N 
ATOM      9  H8  UNL     1       3.009  19.628   3.589  1.00  0.00     0.203 HD
ENDROOT
BRANCH   1  10
HETATM   10  N2  UNL     1       4.987  20.724   2.345  1.00  0.00    -0.214 N 
HETATM   11  C5  UNL     1       4.732  19.248   2.253  1.00  0.00     0.160 C 
HETATM   12  C4  UNL     1       6.166  18.725   2.632  1.00  0.00     0.140 C 
HETATM   13  N1  UNL     1       6.941  18.948   1.469  1.00  0.00    -0.379 N 
HETATM   14  C11 UNL     1       6.684  20.137   0.733  1.00  0.00     0.140 C 
HETATM   15  C10 UNL     1       6.088  21.232   1.628  1.00  0.00     0.160 C 
BRANCH  13  16
HETATM   16  C3  UNL     1       7.332  17.769   0.782  1.00  0.00     0.286 C 
BRANCH  16  17
HETATM   17  C2  UNL     1       8.750  17.866   0.368  1.00  0.00     0.170 C 
HETATM   18  C1  UNL     1       9.284  18.699  -0.732  1.00  0.00     0.096 C 
HETATM   19  O1  UNL     1       9.519  17.161   1.063  1.00  0.00    -0.294 OA
ENDBRANCH  16  17
BRANCH  16  20
HETATM   20  O2  UNL     1       7.202  16.669   1.709  1.00  0.00    -0.370 OA
ATOM     21  H2  UNL     1       7.011  15.880   1.213  1.00  0.00     0.212 HD
ENDBRANCH  16  20
ENDBRANCH  13  16
ENDBRANCH   1  10
BRANCH   4  22
HETATM   22  C8  UNL     1       2.821  24.718   4.337  1.00  0.00     0.379 C 
HETATM   23  O3  UNL     1       2.790  24.928   5.527  1.00  0.00    -0.246 OA
HETATM   24  N4  UNL     1       2.835  25.609   3.381  1.00  0.00    -0.285 NA
BRANCH  24  25
HETATM   25  N5  UNL     1       2.850  26.563   2.375  1.00  0.00    -0.276 N 
ATOM     26  H52 UNL     1       3.057  26.182   3.298  1.00  0.00     0.191 HD
ATOM     27  H51 UNL     1       2.857  27.259   1.629  1.00  0.00     0.191 HD
ENDBRANCH  24  25
ENDBRANCH   4  22
BRANCH   7  28
HETATM   28  N7  UNL     1       0.997  20.491   4.837  1.00  0.00    -0.234 N 
ATOM     29  H72 UNL     1       0.044  20.542   4.476  1.00  0.00     0.174 HD
ATOM     30  H71 UNL     1       1.212  19.917   5.652  1.00  0.00     0.174 HD
ENDBRANCH   7  28
TORSDOF 7
ENDMDL
MODEL 2
REMARK VINA RESULT: -7.051100092      2.261      7.304
REMARK  7 active torsions:
REMARK  status: ('A' for Active; 'I' for Inactive)
REMARK    1  A    between atoms: C2_2  and  C3_4 
REMARK    2  A    between atoms: C3_4  and  O2_5 
REMARK    3  A    between atoms: C3_4  and  N1_7 
REMARK    4  A    between atoms: N2_10  and  C6_11 
REMARK    5  A    between atoms: C7_14  and  C8_15 
REMARK       I    between atoms: C8_15  and  N4_17 
REMARK    6  A    between atoms: N4_17  and  N5_18 
REMARK    7  A    between atoms: C9_23  and  N7_24 
ROOT
HETATM    1  C6  UNL     1       5.243  18.879   3.008  1.00  0.00     0.696 A 
HETATM    2  N3  UNL     1       6.397  18.281   2.644  1.00  0.00    -0.169 N 
ATOM      3  H3  UNL     1       7.144  18.845   2.239  1.00  0.00     0.186 HD
HETATM    4  C7  UNL     1       6.576  17.011   2.796  1.00  0.00     0.220 A 
HETATM    5  N6  UNL     1       5.636  16.204   3.319  1.00  0.00    -0.169 N 
ATOM      6  H6  UNL     1       5.812  15.205   3.434  1.00  0.00     0.186 HD
HETATM    7  C9  UNL     1       4.505  16.720   3.673  1.00  0.00     0.692 A 
HETATM    8  N8  UNL     1       4.288  18.003   3.535  1.00  0.00    -0.022 N 
ATOM      9  H8  UNL     1       3.386  18.380   3.825  1.00  0.00     0.203 HD
ENDROOT
BRANCH   1  10
HETATM   10  N2  UNL     1       4.934  20.261   2.974  1.00  0.00    -0.214 N 
HETATM   11  C5  UNL     1       4.207  20.721   4.204  1.00  0.00     0.160 C 
HETATM   12  C4  UNL     1       3.036  21.515   3.517  1.00  0.00     0.140 C 
HETATM   13  N1  UNL     1       3.636  22.720   3.080  1.00  0.00    -0.379 N 
HETATM   14  C11 UNL     1       4.962  22.641   2.575  1.00  0.00     0.140 C 
HETATM   15  C10 UNL     1       5.269  21.243   2.020  1.00  0.00     0.160 C 
BRANCH  13  16
HETATM   16  C3  UNL     1       3.223  23.879   3.788  1.00  0.00     0.286 C 
BRANCH  16  17
HETATM   17  C2  UNL     1       3.671  25.098   3.078  1.00  0.00     0.170 C 
HETATM   18  C1  UNL     1       2.961  25.774   1.969  1.00  0.00     0.096 C 
HETATM   19  O1  UNL     1       4.753  25.557   3.514  1.00  0.00    -0.294 OA
ENDBRANCH  16  17
BRANCH  16  20
HETATM   20  O2  UNL     1       1.778  23.873   3.816  1.00  0.00    -0.370 OA
ATOM     21  H2  UNL     1       1.491  24.387   4.562  1.00  0.00     0.212 HD
ENDBRANCH  16  20
ENDBRANCH  13  16
ENDBRANCH   1  10
BRANCH   4  22
HETATM   22  C8  UNL     1       7.806  16.288   2.217  1.00  0.00     0.379 C 
HETATM   23  O3  UNL     1       7.937  15.144   2.586  1.00  0.00    -0.246 OA
HETATM   24  N4  UNL     1       8.570  16.936   1.379  1.00  0.00    -0.285 NA
BRANCH  24  25
HETATM   25  N5  UNL     1       9.389  17.615   0.489  1.00  0.00    -0.276 N 
ATOM     26  H52 UNL     1       8.629  16.993   0.764  1.00  0.00     0.191 HD
ATOM     27  H51 UNL     1       9.996  18.118  -0.159  1.00  0.00     0.191 HD
ENDBRANCH  24  25
ENDBRANCH   4  22
BRANCH   7  28
HETATM   28  N7  UNL     1       3.647  15.905   4.219  1.00  0.00    -0.234 N 
ATOM     29  H72 UNL     1       3.920  15.124   4.816  1.00  0.00     0.174 HD
ATOM     30  H71 UNL     1       2.668  16.056   3.978  1.00  0.00     0.174 HD
ENDBRANCH   7  28
TORSDOF 7
ENDMDL
MODEL 3
REMARK VINA RESULT: -7.022066616      4.353      8.409
REMARK  7 active torsions:
REMARK  status: ('A' for Active; 'I' for Inactive)
REMARK    1  A    between atoms: C2_2  and  C3_4 
REMARK    2  A    between atoms: C3_4  and  O2_5 
REMARK    3  A    between atoms: C3_4  and  N1_7 
REMARK    4  A    between atoms: N2_10  and  C6_11 
REMARK    5  A    between atoms: C7_14  and  C8_15 
REMARK       I    between atoms: C8_15  and  N4_17 
REMARK    6  A    between atoms: N4_17  and  N5_18 
REMARK    7  A    between atoms: C9_23  and  N7_24 
ROOT
HETATM    1  C6  UNL     1       4.558  22.289   5.686  1.00  0.00     0.696 A 
HETATM    2  N3  UNL     1       4.605  21.399   4.671  1.00  0.00    -0.169 N 
ATOM      3  H3  UNL     1       4.358  20.426   4.849  1.00  0.00     0.186 HD
HETATM    4  C7  UNL     1       4.956  21.753   3.479  1.00  0.00     0.220 A 
HETATM    5  N6  UNL     1       5.298  23.017   3.170  1.00  0.00    -0.169 N 
ATOM      6  H6  UNL     1       5.563  23.266   2.217  1.00  0.00     0.186 HD
HETATM    7  C9  UNL     1       5.284  23.908   4.106  1.00  0.00     0.692 A 
HETATM    8  N8  UNL     1       4.932  23.587   5.324  1.00  0.00    -0.022 N 
ATOM      9  H8  UNL     1       4.930  24.314   6.041  1.00  0.00     0.203 HD
ENDROOT
BRANCH   1  10
HETATM   10  N2  UNL     1       4.120  22.065   7.015  1.00  0.00    -0.214 N 
HETATM   11  C5  UNL     1       2.625  22.048   7.136  1.00  0.00     0.160 C 
HETATM   12  C4  UNL     1       2.464  23.020   8.361  1.00  0.00     0.140 C 
HETATM   13  N1  UNL     1       2.844  22.242   9.481  1.00  0.00    -0.379 N 
HETATM   14  C11 UNL     1       3.925  21.335   9.307  1.00  0.00     0.140 C 
HETATM   15  C10 UNL     1       4.863  21.790   8.181  1.00  0.00     0.160 C 
BRANCH  13  16
HETATM   16  C3  UNL     1       1.780  21.905  10.357  1.00  0.00     0.286 C 
BRANCH  16  17
HETATM   17  C2  UNL     1       2.020  22.483  11.698  1.00  0.00     0.170 C 
HETATM   18  C1  UNL     1       2.763  21.843  12.806  1.00  0.00     0.096 C 
HETATM   19  O1  UNL     1       1.533  23.630  11.839  1.00  0.00    -0.294 OA
ENDBRANCH  16  17
BRANCH  16  20
HETATM   20  O2  UNL     1       0.575  22.492   9.817  1.00  0.00    -0.370 OA
ATOM     21  H2  UNL     1       0.264  21.939   9.109  1.00  0.00     0.212 HD
ENDBRANCH  16  20
ENDBRANCH  13  16
ENDBRANCH   1  10
BRANCH   4  22
HETATM   22  C8  UNL     1       5.195  20.723   2.361  1.00  0.00     0.379 C 
HETATM   23  O3  UNL     1       4.197  20.166   1.969  1.00  0.00    -0.246 OA
HETATM   24  N4  UNL     1       6.414  20.556   1.921  1.00  0.00    -0.285 NA
BRANCH  24  25
HETATM   25  N5  UNL     1       7.704  20.370   1.445  1.00  0.00    -0.276 N 
ATOM     26  H52 UNL     1       6.746  20.098   1.666  1.00  0.00     0.191 HD
ATOM     27  H51 UNL     1       8.654  20.241   1.097  1.00  0.00     0.191 HD
ENDBRANCH  24  25
ENDBRANCH   4  22
BRANCH   7  28
HETATM   28  N7  UNL     1       5.576  25.126   3.744  1.00  0.00    -0.234 N 
ATOM     29  H72 UNL     1       6.231  25.344   2.994  1.00  0.00     0.174 HD
ATOM     30  H71 UNL     1       5.145  25.872   4.290  1.00  0.00     0.174 HD
ENDBRANCH   7  28
TORSDOF 7
ENDMDL
MODEL 4
REMARK VINA RESULT: -6.901930112      4.199      7.605
REMARK  7 active torsions:
REMARK  status: ('A' for Active; 'I' for Inactive)
REMARK    1  A    between atoms: C2_2  and  C3_4 
REMARK    2  A    between atoms: C3_4  and  O2_5 
REMARK    3  A    between atoms: C3_4  and  N1_7 
REMARK    4  A    between atoms: N2_10  and  C6_11 
REMARK    5  A    between atoms: C7_14  and  C8_15 
REMARK       I    between atoms: C8_15  and  N4_17 
REMARK    6  A    between atoms: N4_17  and  N5_18 
REMARK    7  A    between atoms: C9_23  and  N7_24 
ROOT
HETATM    1  C6  UNL     1       4.464  21.999   5.063  1.00  0.00     0.696 A 
HETATM    2  N3  UNL     1       4.708  21.312   3.927  1.00  0.00    -0.169 N 
ATOM      3  H3  UNL     1       4.495  20.315   3.892  1.00  0.00     0.186 HD
HETATM    4  C7  UNL     1       5.205  21.888   2.883  1.00  0.00     0.220 A 
HETATM    5  N6  UNL     1       5.514  23.197   2.856  1.00  0.00    -0.169 N 
ATOM      6  H6  UNL     1       5.897  23.624   2.013  1.00  0.00     0.186 HD
HETATM    7  C9  UNL     1       5.313  23.902   3.921  1.00  0.00     0.692 A 
HETATM    8  N8  UNL     1       4.810  23.353   4.996  1.00  0.00    -0.022 N 
ATOM      9  H8  UNL     1       4.663  23.937   5.820  1.00  0.00     0.203 HD
ENDROOT
BRANCH   1  10
HETATM   10  N2  UNL     1       3.854  21.524   6.250  1.00  0.00    -0.214 N 
HETATM   11  C5  UNL     1       4.078  22.436   7.420  1.00  0.00     0.160 C 
HETATM   12  C4  UNL     1       4.541  21.371   8.480  1.00  0.00     0.140 C 
HETATM   13  N1  UNL     1       3.348  20.713   8.863  1.00  0.00    -0.379 N 
HETATM   14  C11 UNL     1       2.382  20.474   7.848  1.00  0.00     0.140 C 
HETATM   15  C10 UNL     1       3.033  20.398   6.461  1.00  0.00     0.160 C 
BRANCH  13  16
HETATM   16  C3  UNL     1       2.920  20.985  10.189  1.00  0.00     0.286 C 
BRANCH  16  17
HETATM   17  C2  UNL     1       3.033  19.766  11.022  1.00  0.00     0.170 C 
HETATM   18  C1  UNL     1       3.402  18.414  10.546  1.00  0.00     0.096 C 
HETATM   19  O1  UNL     1       2.794  19.969  12.235  1.00  0.00    -0.294 OA
ENDBRANCH  16  17
BRANCH  16  20
HETATM   20  O2  UNL     1       3.807  21.989  10.729  1.00  0.00    -0.370 OA
ATOM     21  H2  UNL     1       3.317  22.796  10.836  1.00  0.00     0.212 HD
ENDBRANCH  16  20
ENDBRANCH  13  16
ENDBRANCH   1  10
BRANCH   4  22
HETATM   22  C8  UNL     1       5.661  21.087   1.651  1.00  0.00     0.379 C 
HETATM   23  O3  UNL     1       4.893  20.222   1.300  1.00  0.00    -0.246 OA
HETATM   24  N4  UNL     1       6.792  21.411   1.083  1.00  0.00    -0.285 NA
BRANCH  24  25
HETATM   25  N5  UNL     1       7.992  21.746   0.472  1.00  0.00    -0.276 N 
ATOM     26  H52 UNL     1       7.185  21.891   1.079  1.00  0.00     0.191 HD
ATOM     27  H51 UNL     1       8.874  21.984   0.019  1.00  0.00     0.191 HD
ENDBRANCH  24  25
ENDBRANCH   4  22
BRANCH   7  28
HETATM   28  N7  UNL     1       5.583  25.174   3.827  1.00  0.00    -0.234 N 
ATOM     29  H72 UNL     1       6.503  25.566   4.027  1.00  0.00     0.174 HD
ATOM     30  H71 UNL     1       4.801  25.782   3.585  1.00  0.00     0.174 HD
ENDBRANCH   7  28
TORSDOF 7
ENDMDL
MODEL 5
REMARK VINA RESULT: -6.900229829      2.154      2.760
REMARK  7 active torsions:
REMARK  status: ('A' for Active; 'I' for Inactive)
REMARK    1  A    between atoms: C2_2  and  C3_4 
REMARK    2  A    between atoms: C3_4  and  O2_5 
REMARK    3  A    between atoms: C3_4  and  N1_7 
REMARK    4  A    between atoms: N2_10  and  C6_11 
REMARK    5  A    between atoms: C7_14  and  C8_15 
REMARK       I    between atoms: C8_15  and  N4_17 
REMARK    6  A    between atoms: N4_17  and  N5_18 
REMARK    7  A    between atoms: C9_23  and  N7_24 
ROOT
HETATM    1  C6  UNL     1       4.392  21.712   3.781  1.00  0.00     0.696 A 
HETATM    2  N3  UNL     1       4.771  21.891   5.064  1.00  0.00    -0.169 N 
ATOM      3  H3  UNL     1       5.649  21.484   5.386  1.00  0.00     0.186 HD
HETATM    4  C7  UNL     1       4.046  22.566   5.893  1.00  0.00     0.220 A 
HETATM    5  N6  UNL     1       2.876  23.130   5.542  1.00  0.00    -0.169 N 
ATOM      6  H6  UNL     1       2.332  23.664   6.218  1.00  0.00     0.186 HD
HETATM    7  C9  UNL     1       2.458  22.978   4.328  1.00  0.00     0.692 A 
HETATM    8  N8  UNL     1       3.165  22.302   3.460  1.00  0.00    -0.022 N 
ATOM      9  H8  UNL     1       2.808  22.202   2.510  1.00  0.00     0.203 HD
ENDROOT
BRANCH   1  10
HETATM   10  N2  UNL     1       5.113  21.067   2.745  1.00  0.00    -0.214 N 
HETATM   11  C5  UNL     1       5.025  19.572   2.823  1.00  0.00     0.160 C 
HETATM   12  C4  UNL     1       6.551  19.224   2.672  1.00  0.00     0.140 C 
HETATM   13  N1  UNL     1       6.821  19.418   1.296  1.00  0.00    -0.379 N 
HETATM   14  C11 UNL     1       6.173  20.506   0.651  1.00  0.00     0.140 C 
HETATM   15  C10 UNL     1       5.811  21.614   1.650  1.00  0.00     0.160 C 
BRANCH  13  16
HETATM   16  C3  UNL     1       7.079  18.226   0.569  1.00  0.00     0.286 C 
BRANCH  16  17
HETATM   17  C2  UNL     1       8.522  18.121   0.255  1.00  0.00     0.170 C 
HETATM   18  C1  UNL     1       9.248  18.887  -0.782  1.00  0.00     0.096 C 
HETATM   19  O1  UNL     1       9.130  17.299   0.981  1.00  0.00    -0.294 OA
ENDBRANCH  16  17
BRANCH  16  20
HETATM   20  O2  UNL     1       6.717  17.116   1.421  1.00  0.00    -0.370 OA
ATOM     21  H2  UNL     1       6.282  16.460   0.889  1.00  0.00     0.212 HD
ENDBRANCH  16  20
ENDBRANCH  13  16
ENDBRANCH   1  10
BRANCH   4  22
HETATM   22  C8  UNL     1       4.369  22.622   7.397  1.00  0.00     0.379 C 
HETATM   23  O3  UNL     1       3.416  22.839   8.109  1.00  0.00    -0.246 OA
HETATM   24  N4  UNL     1       5.601  22.409   7.776  1.00  0.00    -0.285 NA
BRANCH  24  25
HETATM   25  N5  UNL     1       6.906  22.185   8.191  1.00  0.00    -0.276 N 
ATOM     26  H52 UNL     1       5.991  21.929   7.820  1.00  0.00     0.191 HD
ATOM     27  H51 UNL     1       7.867  22.029   8.497  1.00  0.00     0.191 HD
ENDBRANCH  24  25
ENDBRANCH   4  22
BRANCH   7  28
HETATM   28  N7  UNL     1       1.344  23.584   4.026  1.00  0.00    -0.234 N 
ATOM     29  H72 UNL     1       1.116  24.527   4.342  1.00  0.00     0.174 HD
ATOM     30  H71 UNL     1       0.671  23.042   3.484  1.00  0.00     0.174 HD
ENDBRANCH   7  28
TORSDOF 7
ENDMDL
