MODEL 1
REMARK VINA RESULT: -8.422679915      0.000      0.000
REMARK  5 active torsions:
REMARK  status: ('A' for Active; 'I' for Inactive)
REMARK    1  A    between atoms: N1_4  and  N2_6 
REMARK    2  A    between atoms: N2_6  and  C4_8 
REMARK    3  A    between atoms: N4_15  and  O3_16 
REMARK    4  A    between atoms: C7_18  and  C8_19 
REMARK       I    between atoms: C8_19  and  N5_21 
REMARK    5  A    between atoms: N5_21  and  C9_23 
ROOT
HETATM    1  C4  UNL     1       6.317  18.930   2.099  1.00  0.00     0.158 A 
HETATM    2  N3  UNL     1       6.208  17.591   2.185  1.00  0.00    -0.302 N 
ATOM      3  H3  UNL     1       7.056  17.028   2.127  1.00  0.00     0.171 HD
HETATM    4  C5  UNL     1       5.047  16.972   2.341  1.00  0.00     0.317 A 
HETATM    5  O1  UNL     1       4.932  15.704   2.422  1.00  0.00    -0.262 OA
HETATM    6  C6  UNL     1       3.913  17.731   2.419  1.00  0.00     0.340 A 
HETATM    7  O2  UNL     1       2.762  17.222   2.569  1.00  0.00    -0.260 OA
HETATM    8  N4  UNL     1       4.003  19.079   2.335  1.00  0.00    -0.174 N 
HETATM    9  C7  UNL     1       5.195  19.720   2.173  1.00  0.00     0.180 A 
ENDROOT
BRANCH   9  10
HETATM   10  C8  UNL     1       5.222  21.175   2.092  1.00  0.00     0.293 C 
HETATM   11  O4  UNL     1       5.693  21.787   1.098  1.00  0.00    -0.265 OA
HETATM   12  N5  UNL     1       4.693  21.923   3.181  1.00  0.00    -0.152 N 
ATOM     13  H5  UNL     1       4.174  21.427   3.906  1.00  0.00     0.188 HD
BRANCH  12  14
HETATM   14  C9  UNL     1       4.838  23.184   3.288  1.00  0.00     0.713 A 
HETATM   15  N6  UNL     1       4.023  24.130   2.827  1.00  0.00    -0.113 N 
HETATM   16  N7  UNL     1       4.536  25.307   3.158  1.00  0.00     0.009 NA
ATOM     17  H6  UNL     1       3.156  23.977   2.311  1.00  0.00     0.203 HD
HETATM   18  N8  UNL     1       5.673  25.072   3.825  1.00  0.00    -0.212 N 
HETATM   19  N9  UNL     1       5.883  23.777   3.920  1.00  0.00    -0.118 N 
ATOM     20  H8  UNL     1       6.286  25.793   4.205  1.00  0.00     0.206 HD
ATOM     21  H9  UNL     1       6.670  23.314   4.374  1.00  0.00     0.207 HD
ENDBRANCH  12  14
ENDBRANCH   9  10
BRANCH   1  22
HETATM   22  N2  UNL     1       7.584  19.527   1.921  1.00  0.00    -0.283 N 
ATOM     23  H2  UNL     1       8.165  19.695   2.742  1.00  0.00     0.188 HD
BRANCH  22  24
HETATM   24  N1  UNL     1       8.076  19.898   0.669  1.00  0.00    -0.308 N 
HETATM   25  C2  UNL     1       8.744  19.123  -0.087  1.00  0.00    -0.004 C 
HETATM   26  C1  UNL     1       9.051  17.730   0.326  1.00  0.00     0.064 C 
HETATM   27  C3  UNL     1       9.240  19.608  -1.406  1.00  0.00     0.064 C 
ATOM     28  H1  UNL     1       7.890  20.846   0.341  1.00  0.00     0.186 HD
ENDBRANCH  22  24
ENDBRANCH   1  22
BRANCH   8  29
HETATM   29  O3  UNL     1       2.868  19.843   2.415  1.00  0.00    -0.279 OA
ATOM     30  H3  UNL     1       2.925  20.742   2.716  1.00  0.00     0.245 HD
ENDBRANCH   8  29
TORSDOF 5
ENDMDL
MODEL 2
REMARK VINA RESULT: -8.317833963      1.005      1.204
REMARK  5 active torsions:
REMARK  status: ('A' for Active; 'I' for Inactive)
REMARK    1  A    between atoms: N1_4  and  N2_6 
REMARK    2  A    between atoms: N2_6  and  C4_8 
REMARK    3  A    between atoms: N4_15  and  O3_16 
REMARK    4  A    between atoms: C7_18  and  C8_19 
REMARK       I    between atoms: C8_19  and  N5_21 
REMARK    5  A    between atoms: N5_21  and  C9_23 
ROOT
HETATM    1  C4  UNL     1       6.756  19.179   2.091  1.00  0.00     0.158 A 
HETATM    2  N3  UNL     1       6.946  17.860   2.280  1.00  0.00    -0.302 N 
ATOM      3  H3  UNL     1       7.830  17.447   1.983  1.00  0.00     0.171 HD
HETATM    4  C5  UNL     1       6.035  17.074   2.836  1.00  0.00     0.317 A 
HETATM    5  O1  UNL     1       6.204  15.823   3.019  1.00  0.00    -0.262 OA
HETATM    6  C6  UNL     1       4.853  17.632   3.233  1.00  0.00     0.340 A 
HETATM    7  O2  UNL     1       3.928  16.955   3.774  1.00  0.00    -0.260 OA
HETATM    8  N4  UNL     1       4.644  18.957   3.051  1.00  0.00    -0.174 N 
HETATM    9  C7  UNL     1       5.577  19.769   2.479  1.00  0.00     0.180 A 
ENDROOT
BRANCH   9  10
HETATM   10  C8  UNL     1       5.289  21.189   2.314  1.00  0.00     0.293 C 
HETATM   11  O4  UNL     1       5.245  21.741   1.184  1.00  0.00    -0.265 OA
HETATM   12  N5  UNL     1       5.048  21.969   3.479  1.00  0.00    -0.152 N 
ATOM     13  H5  UNL     1       4.929  21.489   4.372  1.00  0.00     0.188 HD
BRANCH  12  14
HETATM   14  C9  UNL     1       4.972  23.241   3.456  1.00  0.00     0.713 A 
HETATM   15  N6  UNL     1       4.051  23.982   2.844  1.00  0.00    -0.113 N 
HETATM   16  N7  UNL     1       4.335  25.256   3.074  1.00  0.00     0.009 NA
ATOM     17  H6  UNL     1       3.265  23.631   2.295  1.00  0.00     0.203 HD
HETATM   18  N8  UNL     1       5.438  25.288   3.831  1.00  0.00    -0.212 N 
HETATM   19  N9  UNL     1       5.852  24.065   4.081  1.00  0.00    -0.118 N 
ATOM     20  H8  UNL     1       5.891  26.138   4.167  1.00  0.00     0.206 HD
ATOM     21  H9  UNL     1       6.666  23.792   4.631  1.00  0.00     0.207 HD
ENDBRANCH  12  14
ENDBRANCH   9  10
BRANCH   1  22
HETATM   22  N2  UNL     1       7.763  19.960   1.481  1.00  0.00    -0.283 N 
ATOM     23  H2  UNL     1       7.972  20.878   1.872  1.00  0.00     0.188 HD
BRANCH  22  24
HETATM   24  N1  UNL     1       8.484  19.528   0.368  1.00  0.00    -0.308 N 
HETATM   25  C2  UNL     1       8.955  20.311  -0.517  1.00  0.00    -0.004 C 
HETATM   26  C1  UNL     1       8.764  21.781  -0.418  1.00  0.00     0.064 C 
HETATM   27  C3  UNL     1       9.706  19.761  -1.682  1.00  0.00     0.064 C 
ATOM     28  H1  UNL     1       8.642  18.526   0.256  1.00  0.00     0.186 HD
ENDBRANCH  22  24
ENDBRANCH   1  22
BRANCH   8  29
HETATM   29  O3  UNL     1       3.460  19.520   3.451  1.00  0.00    -0.279 OA
ATOM     30  H3  UNL     1       2.796  19.731   2.806  1.00  0.00     0.245 HD
ENDBRANCH   8  29
TORSDOF 5
ENDMDL
MODEL 3
REMARK VINA RESULT: -7.657442426      2.846      7.123
REMARK  5 active torsions:
REMARK  status: ('A' for Active; 'I' for Inactive)
REMARK    1  A    between atoms: N1_4  and  N2_6 
REMARK    2  A    between atoms: N2_6  and  C4_8 
REMARK    3  A    between atoms: N4_15  and  O3_16 
REMARK    4  A    between atoms: C7_18  and  C8_19 
REMARK       I    between atoms: C8_19  and  N5_21 
REMARK    5  A    between atoms: N5_21  and  C9_23 
ROOT
HETATM    1  C4  UNL     1       7.459  20.845   0.880  1.00  0.00     0.158 A 
HETATM    2  N3  UNL     1       7.931  22.050   0.509  1.00  0.00    -0.302 N 
ATOM      3  H3  UNL     1       7.542  22.883   0.950  1.00  0.00     0.171 HD
HETATM    4  C5  UNL     1       8.879  22.202  -0.404  1.00  0.00     0.317 A 
HETATM    5  O1  UNL     1       9.333  23.338  -0.764  1.00  0.00    -0.262 OA
HETATM    6  C6  UNL     1       9.397  21.082  -0.992  1.00  0.00     0.340 A 
HETATM    7  O2  UNL     1      10.307  21.135  -1.873  1.00  0.00    -0.260 OA
HETATM    8  N4  UNL     1       8.935  19.862  -0.632  1.00  0.00    -0.174 N 
HETATM    9  C7  UNL     1       7.959  19.701   0.307  1.00  0.00     0.180 A 
ENDROOT
BRANCH   9  10
HETATM   10  C8  UNL     1       7.508  18.358   0.651  1.00  0.00     0.293 C 
HETATM   11  O4  UNL     1       6.300  18.012   0.573  1.00  0.00    -0.265 OA
HETATM   12  N5  UNL     1       8.476  17.411   1.086  1.00  0.00    -0.152 N 
ATOM     13  H5  UNL     1       9.465  17.647   0.997  1.00  0.00     0.188 HD
BRANCH  12  14
HETATM   14  C9  UNL     1       8.162  16.280   1.583  1.00  0.00     0.713 A 
HETATM   15  N6  UNL     1       7.658  16.044   2.792  1.00  0.00    -0.113 N 
HETATM   16  N7  UNL     1       7.469  14.737   2.907  1.00  0.00     0.009 NA
ATOM     17  H6  UNL     1       7.453  16.745   3.505  1.00  0.00     0.203 HD
HETATM   18  N8  UNL     1       7.863  14.176   1.757  1.00  0.00    -0.212 N 
HETATM   19  N9  UNL     1       8.293  15.100   0.926  1.00  0.00    -0.118 N 
ATOM     20  H8  UNL     1       7.832  13.177   1.554  1.00  0.00     0.206 HD
ATOM     21  H9  UNL     1       8.652  14.958  -0.019  1.00  0.00     0.207 HD
ENDBRANCH  12  14
ENDBRANCH   9  10
BRANCH   1  22
HETATM   22  N2  UNL     1       6.438  20.753   1.851  1.00  0.00    -0.283 N 
ATOM     23  H2  UNL     1       6.255  19.848   2.284  1.00  0.00     0.188 HD
BRANCH  22  24
HETATM   24  N1  UNL     1       5.667  21.848   2.245  1.00  0.00    -0.308 N 
HETATM   25  C2  UNL     1       4.545  21.747   2.836  1.00  0.00    -0.004 C 
HETATM   26  C1  UNL     1       3.965  20.418   3.157  1.00  0.00     0.064 C 
HETATM   27  C3  UNL     1       3.784  22.973   3.212  1.00  0.00     0.064 C 
ATOM     28  H1  UNL     1       6.024  22.783   2.047  1.00  0.00     0.186 HD
ENDBRANCH  22  24
ENDBRANCH   1  22
BRANCH   8  29
HETATM   29  O3  UNL     1       9.455  18.737  -1.217  1.00  0.00    -0.279 OA
ATOM     30  H3  UNL     1       9.145  17.880  -0.950  1.00  0.00     0.245 HD
ENDBRANCH   8  29
TORSDOF 5
ENDMDL
MODEL 4
REMARK VINA RESULT: -7.553735760      1.196      1.196
REMARK  5 active torsions:
REMARK  status: ('A' for Active; 'I' for Inactive)
REMARK    1  A    between atoms: N1_4  and  N2_6 
REMARK    2  A    between atoms: N2_6  and  C4_8 
REMARK    3  A    between atoms: N4_15  and  O3_16 
REMARK    4  A    between atoms: C7_18  and  C8_19 
REMARK       I    between atoms: C8_19  and  N5_21 
REMARK    5  A    between atoms: N5_21  and  C9_23 
ROOT
HETATM    1  C4  UNL     1       5.881  19.094   1.471  1.00  0.00     0.158 A 
HETATM    2  N3  UNL     1       5.694  17.945   0.795  1.00  0.00    -0.302 N 
ATOM      3  H3  UNL     1       6.505  17.485   0.382  1.00  0.00     0.171 HD
HETATM    4  C5  UNL     1       4.503  17.385   0.642  1.00  0.00     0.317 A 
HETATM    5  O1  UNL     1       4.315  16.298   0.003  1.00  0.00    -0.262 OA
HETATM    6  C6  UNL     1       3.420  18.006   1.198  1.00  0.00     0.340 A 
HETATM    7  O2  UNL     1       2.245  17.539   1.101  1.00  0.00    -0.260 OA
HETATM    8  N4  UNL     1       3.588  19.162   1.881  1.00  0.00    -0.174 N 
HETATM    9  C7  UNL     1       4.811  19.742   2.040  1.00  0.00     0.180 A 
ENDROOT
BRANCH   9  10
HETATM   10  C8  UNL     1       4.923  20.987   2.790  1.00  0.00     0.293 C 
HETATM   11  O4  UNL     1       4.869  21.024   4.048  1.00  0.00    -0.265 OA
HETATM   12  N5  UNL     1       5.102  22.198   2.066  1.00  0.00    -0.152 N 
ATOM     13  H5  UNL     1       5.301  22.145   1.067  1.00  0.00     0.188 HD
BRANCH  12  14
HETATM   14  C9  UNL     1       5.024  23.347   2.612  1.00  0.00     0.713 A 
HETATM   15  N6  UNL     1       4.036  24.232   2.488  1.00  0.00    -0.113 N 
HETATM   16  N7  UNL     1       4.345  25.291   3.223  1.00  0.00     0.009 NA
ATOM     17  H6  UNL     1       3.192  24.115   1.928  1.00  0.00     0.203 HD
HETATM   18  N8  UNL     1       5.530  25.048   3.796  1.00  0.00    -0.212 N 
HETATM   19  N9  UNL     1       5.971  23.862   3.437  1.00  0.00    -0.118 N 
ATOM     20  H8  UNL     1       6.020  25.689   4.420  1.00  0.00     0.206 HD
ATOM     21  H9  UNL     1       6.845  23.419   3.722  1.00  0.00     0.207 HD
ENDBRANCH  12  14
ENDBRANCH   9  10
BRANCH   1  22
HETATM   22  N2  UNL     1       7.176  19.645   1.587  1.00  0.00    -0.283 N 
ATOM     23  H2  UNL     1       7.578  19.756   2.518  1.00  0.00     0.188 HD
BRANCH  22  24
HETATM   24  N1  UNL     1       7.930  20.045   0.484  1.00  0.00    -0.308 N 
HETATM   25  C2  UNL     1       8.720  19.275  -0.150  1.00  0.00    -0.004 C 
HETATM   26  C1  UNL     1       8.896  17.857   0.257  1.00  0.00     0.064 C 
HETATM   27  C3  UNL     1       9.496  19.791  -1.314  1.00  0.00     0.064 C 
ATOM     28  H1  UNL     1       7.843  21.011   0.166  1.00  0.00     0.186 HD
ENDBRANCH  22  24
ENDBRANCH   1  22
BRANCH   8  29
HETATM   29  O3  UNL     1       2.503  19.784   2.442  1.00  0.00    -0.279 OA
ATOM     30  H3  UNL     1       2.520  20.723   2.584  1.00  0.00     0.245 HD
ENDBRANCH   8  29
TORSDOF 5
ENDMDL
MODEL 5
REMARK VINA RESULT: -7.394148733      1.916      4.283
REMARK  5 active torsions:
REMARK  status: ('A' for Active; 'I' for Inactive)
REMARK    1  A    between atoms: N1_4  and  N2_6 
REMARK    2  A    between atoms: N2_6  and  C4_8 
REMARK    3  A    between atoms: N4_15  and  O3_16 
REMARK    4  A    between atoms: C7_18  and  C8_19 
REMARK       I    between atoms: C8_19  and  N5_21 
REMARK    5  A    between atoms: N5_21  and  C9_23 
ROOT
HETATM    1  C4  UNL     1       4.601  18.899   2.169  1.00  0.00     0.158 A 
HETATM    2  N3  UNL     1       4.908  17.588   2.193  1.00  0.00    -0.302 N 
ATOM      3  H3  UNL     1       4.152  16.913   2.310  1.00  0.00     0.171 HD
HETATM    4  C5  UNL     1       6.147  17.137   2.072  1.00  0.00     0.317 A 
HETATM    5  O1  UNL     1       6.449  15.898   2.095  1.00  0.00    -0.262 OA
HETATM    6  C6  UNL     1       7.155  18.046   1.914  1.00  0.00     0.340 A 
HETATM    7  O2  UNL     1       8.369  17.702   1.790  1.00  0.00    -0.260 OA
HETATM    8  N4  UNL     1       6.866  19.368   1.887  1.00  0.00    -0.174 N 
HETATM    9  C7  UNL     1       5.592  19.837   2.013  1.00  0.00     0.180 A 
ENDROOT
BRANCH   9  10
HETATM   10  C8  UNL     1       5.349  21.274   1.973  1.00  0.00     0.293 C 
HETATM   11  O4  UNL     1       5.389  21.935   0.902  1.00  0.00    -0.265 OA
HETATM   12  N5  UNL     1       5.054  21.944   3.193  1.00  0.00    -0.152 N 
ATOM     13  H5  UNL     1       4.869  21.383   4.025  1.00  0.00     0.188 HD
BRANCH  12  14
HETATM   14  C9  UNL     1       5.011  23.213   3.291  1.00  0.00     0.713 A 
HETATM   15  N6  UNL     1       4.116  24.033   2.743  1.00  0.00    -0.113 N 
HETATM   16  N7  UNL     1       4.429  25.272   3.098  1.00  0.00     0.009 NA
ATOM     17  H6  UNL     1       3.329  23.757   2.155  1.00  0.00     0.203 HD
HETATM   18  N8  UNL     1       5.522  25.202   3.866  1.00  0.00    -0.212 N 
HETATM   19  N9  UNL     1       5.902  23.951   4.001  1.00  0.00    -0.118 N 
ATOM     20  H8  UNL     1       5.992  26.004   4.287  1.00  0.00     0.206 HD
ATOM     21  H9  UNL     1       6.702  23.605   4.531  1.00  0.00     0.207 HD
ENDBRANCH  12  14
ENDBRANCH   9  10
BRANCH   1  22
HETATM   22  N2  UNL     1       3.259  19.315   2.316  1.00  0.00    -0.283 N 
ATOM     23  H2  UNL     1       2.890  20.010   1.668  1.00  0.00     0.188 HD
BRANCH  22  24
HETATM   24  N1  UNL     1       2.417  18.816   3.309  1.00  0.00    -0.308 N 
HETATM   25  C2  UNL     1       1.705  19.548   4.068  1.00  0.00    -0.004 C 
HETATM   26  C1  UNL     1       1.724  21.028   3.940  1.00  0.00     0.064 C 
HETATM   27  C3  UNL     1       0.840  18.928   5.112  1.00  0.00     0.064 C 
ATOM     28  H1  UNL     1       2.369  17.804   3.435  1.00  0.00     0.186 HD
ENDBRANCH  22  24
ENDBRANCH   1  22
BRANCH   8  29
HETATM   29  O3  UNL     1       7.874  20.282   1.726  1.00  0.00    -0.279 OA
ATOM     30  H3  UNL     1       7.667  21.206   1.658  1.00  0.00     0.245 HD
ENDBRANCH   8  29
TORSDOF 5
ENDMDL
