MODEL 1
REMARK VINA RESULT: -6.909685476      0.000      0.000
REMARK  10 active torsions:
REMARK  status: ('A' for Active; 'I' for Inactive)
REMARK    1  A    between atoms: N1_2  and  N2_3 
REMARK    2  A    between atoms: N1_2  and  N3_6 
REMARK    3  A    between atoms: N4_8  and  C2_10 
REMARK    4  A    between atoms: C3_12  and  N5_13 
REMARK    5  A    between atoms: C5_20  and  C6_21 
REMARK    6  A    between atoms: C6_21  and  O2_22 
REMARK    7  A    between atoms: C6_21  and  N7_24 
REMARK    8  A    between atoms: N7_24  and  N8_26 
REMARK       I    between atoms: N8_26  and  C7_28 
REMARK    9  A    between atoms: C7_28  and  C8_30 
REMARK   10  A    between atoms: N9_31  and  N10_33 
ROOT
HETATM    1  C2  UNL     1       4.239  23.218   4.911  1.00  0.00     0.113 A 
HETATM    2  S1  UNL     1       4.557  24.703   4.080  1.00  0.00    -0.034 SA
HETATM    3  C3  UNL     1       3.192  25.309   3.278  1.00  0.00     0.147 A 
HETATM    4  N6  UNL     1       2.096  24.565   3.403  1.00  0.00    -0.303 N 
ATOM      5  H6  UNL     1       1.260  24.907   2.929  1.00  0.00     0.171 HD
HETATM    6  C4  UNL     1       1.971  23.437   4.072  1.00  0.00     0.264 A 
HETATM    7  O1  UNL     1       0.810  22.894   4.050  1.00  0.00    -0.267 OA
HETATM    8  C5  UNL     1       2.946  22.761   4.796  1.00  0.00     0.119 A 
ENDROOT
BRANCH   8   9
HETATM    9  C6  UNL     1       2.587  21.487   5.423  1.00  0.00     0.173 C 
BRANCH   9  10
HETATM   10  O2  UNL     1       2.240  21.584   6.674  1.00  0.00    -0.344 OA
ATOM     11  H2  UNL     1       1.305  21.671   6.816  1.00  0.00     0.219 HD
ENDBRANCH   9  10
BRANCH   9  12
HETATM   12  N7  UNL     1       2.561  20.217   4.880  1.00  0.00    -0.276 N 
ATOM     13  H7  UNL     1       1.672  19.731   4.775  1.00  0.00     0.189 HD
BRANCH  12  14
HETATM   14  N8  UNL     1       3.765  19.584   4.468  1.00  0.00    -0.263 N 
HETATM   15  C7  UNL     1       4.315  19.723   3.179  1.00  0.00     0.276 C 
HETATM   16  O3  UNL     1       3.739  20.434   2.334  1.00  0.00    -0.265 OA
ATOM     17  H8  UNL     1       4.256  18.996   5.142  1.00  0.00     0.190 HD
BRANCH  15  18
HETATM   18  C8  UNL     1       5.548  19.049   2.821  1.00  0.00     0.182 C 
HETATM   19  N9  UNL     1       6.497  19.603   2.190  1.00  0.00    -0.313 N 
ATOM     20  H9  UNL     1       7.313  19.021   1.999  1.00  0.00     0.185 HD
BRANCH  19  21
HETATM   21  N10 UNL     1       6.554  20.911   1.730  1.00  0.00    -0.345 N 
ATOM     22 2H10 UNL     1       6.065  21.595   2.308  1.00  0.00     0.176 HD
ATOM     23 1H10 UNL     1       7.024  21.253   0.892  1.00  0.00     0.176 HD
ENDBRANCH  19  21
ENDBRANCH  15  18
ENDBRANCH  12  14
ENDBRANCH   9  12
ENDBRANCH   8   9
BRANCH   1  24
HETATM   24  N4  UNL     1       5.266  22.577   5.668  1.00  0.00    -0.277 N 
HETATM   25  N3  UNL     1       5.119  22.537   6.922  1.00  0.00    -0.226 N 
ATOM     26  H3  UNL     1       4.288  22.956   7.340  1.00  0.00     0.210 HD
ATOM     27  H4  UNL     1       6.083  22.169   5.215  1.00  0.00     0.189 HD
BRANCH  25  28
HETATM   28  N1  UNL     1       6.078  21.926   7.760  1.00  0.00    -0.231 N 
HETATM   29  C1  UNL     1       5.579  21.225   8.925  1.00  0.00     0.201 C 
BRANCH  28  30
HETATM   30  N2  UNL     1       7.434  21.959   7.535  1.00  0.00    -0.328 N 
ATOM     31  H22 UNL     1       8.137  21.740   8.240  1.00  0.00     0.178 HD
ATOM     32  H21 UNL     1       7.774  22.218   6.608  1.00  0.00     0.178 HD
ENDBRANCH  28  30
ENDBRANCH  25  28
ENDBRANCH   1  24
BRANCH   3  33
HETATM   33  N5  UNL     1       3.197  26.404   2.591  1.00  0.00    -0.380 N 
ATOM     34  H52 UNL     1       2.355  26.967   2.469  1.00  0.00     0.158 HD
ATOM     35  H51 UNL     1       4.028  26.773   2.129  1.00  0.00     0.158 HD
ENDBRANCH   3  33
TORSDOF 10
ENDMDL
MODEL 2
REMARK VINA RESULT: -6.750565312      2.066      5.044
REMARK  10 active torsions:
REMARK  status: ('A' for Active; 'I' for Inactive)
REMARK    1  A    between atoms: N1_2  and  N2_3 
REMARK    2  A    between atoms: N1_2  and  N3_6 
REMARK    3  A    between atoms: N4_8  and  C2_10 
REMARK    4  A    between atoms: C3_12  and  N5_13 
REMARK    5  A    between atoms: C5_20  and  C6_21 
REMARK    6  A    between atoms: C6_21  and  O2_22 
REMARK    7  A    between atoms: C6_21  and  N7_24 
REMARK    8  A    between atoms: N7_24  and  N8_26 
REMARK       I    between atoms: N8_26  and  C7_28 
REMARK    9  A    between atoms: C7_28  and  C8_30 
REMARK   10  A    between atoms: N9_31  and  N10_33 
ROOT
HETATM    1  C2  UNL     1       4.748  23.048   3.062  1.00  0.00     0.113 A 
HETATM    2  S1  UNL     1       3.987  24.196   2.012  1.00  0.00    -0.034 SA
HETATM    3  C3  UNL     1       2.877  25.188   2.822  1.00  0.00     0.147 A 
HETATM    4  N6  UNL     1       2.757  24.943   4.123  1.00  0.00    -0.303 N 
ATOM      5  H6  UNL     1       2.094  25.526   4.634  1.00  0.00     0.171 HD
HETATM    6  C4  UNL     1       3.398  24.031   4.825  1.00  0.00     0.264 A 
HETATM    7  O1  UNL     1       3.115  23.979   6.074  1.00  0.00    -0.267 OA
HETATM    8  C5  UNL     1       4.342  23.116   4.376  1.00  0.00     0.119 A 
ENDROOT
BRANCH   8   9
HETATM    9  C6  UNL     1       4.891  22.156   5.336  1.00  0.00     0.173 C 
BRANCH   9  10
HETATM   10  O2  UNL     1       4.556  20.918   5.109  1.00  0.00    -0.344 OA
ATOM     11  H2  UNL     1       5.274  20.300   5.172  1.00  0.00     0.219 HD
ENDBRANCH   9  10
BRANCH   9  12
HETATM   12  N7  UNL     1       5.706  22.376   6.429  1.00  0.00    -0.276 N 
ATOM     13  H7  UNL     1       6.718  22.297   6.330  1.00  0.00     0.189 HD
BRANCH  12  14
HETATM   14  N8  UNL     1       5.146  22.711   7.692  1.00  0.00    -0.263 N 
HETATM   15  C7  UNL     1       4.561  21.766   8.558  1.00  0.00     0.276 C 
HETATM   16  O3  UNL     1       4.519  20.566   8.227  1.00  0.00    -0.265 OA
ATOM     17  H8  UNL     1       5.168  23.687   7.986  1.00  0.00     0.190 HD
BRANCH  15  18
HETATM   18  C8  UNL     1       4.006  22.172   9.834  1.00  0.00     0.182 C 
HETATM   19  N9  UNL     1       2.897  22.773   9.963  1.00  0.00    -0.313 N 
ATOM     20  H9  UNL     1       2.617  23.004  10.916  1.00  0.00     0.185 HD
BRANCH  19  21
HETATM   21  N10 UNL     1       2.022  23.152   8.955  1.00  0.00    -0.345 N 
ATOM     22 2H10 UNL     1       2.173  22.694   8.056  1.00  0.00     0.176 HD
ATOM     23 1H10 UNL     1       1.259  23.826   9.018  1.00  0.00     0.176 HD
ENDBRANCH  19  21
ENDBRANCH  15  18
ENDBRANCH  12  14
ENDBRANCH   9  12
ENDBRANCH   8   9
BRANCH   1  24
HETATM   24  N4  UNL     1       5.736  22.149   2.559  1.00  0.00    -0.277 N 
HETATM   25  N3  UNL     1       5.325  21.092   2.002  1.00  0.00    -0.226 N 
ATOM     26  H3  UNL     1       4.321  20.924   1.933  1.00  0.00     0.210 HD
ATOM     27  H4  UNL     1       6.731  22.351   2.646  1.00  0.00     0.189 HD
BRANCH  25  28
HETATM   28  N1  UNL     1       6.221  20.138   1.472  1.00  0.00    -0.231 N 
HETATM   29  C1  UNL     1       5.639  18.968   0.848  1.00  0.00     0.201 C 
BRANCH  28  30
HETATM   30  N2  UNL     1       7.590  20.258   1.513  1.00  0.00    -0.328 N 
ATOM     31  H22 UNL     1       8.204  20.093   0.716  1.00  0.00     0.178 HD
ATOM     32  H21 UNL     1       8.035  20.528   2.391  1.00  0.00     0.178 HD
ENDBRANCH  28  30
ENDBRANCH  25  28
ENDBRANCH   1  24
BRANCH   3  33
HETATM   33  N5  UNL     1       2.190  26.114   2.236  1.00  0.00    -0.380 N 
ATOM     34  H52 UNL     1       2.319  26.336   1.249  1.00  0.00     0.158 HD
ATOM     35  H51 UNL     1       1.486  26.678   2.713  1.00  0.00     0.158 HD
ENDBRANCH   3  33
TORSDOF 10
ENDMDL
MODEL 3
REMARK VINA RESULT: -6.716674043      1.511      4.189
REMARK  10 active torsions:
REMARK  status: ('A' for Active; 'I' for Inactive)
REMARK    1  A    between atoms: N1_2  and  N2_3 
REMARK    2  A    between atoms: N1_2  and  N3_6 
REMARK    3  A    between atoms: N4_8  and  C2_10 
REMARK    4  A    between atoms: C3_12  and  N5_13 
REMARK    5  A    between atoms: C5_20  and  C6_21 
REMARK    6  A    between atoms: C6_21  and  O2_22 
REMARK    7  A    between atoms: C6_21  and  N7_24 
REMARK    8  A    between atoms: N7_24  and  N8_26 
REMARK       I    between atoms: N8_26  and  C7_28 
REMARK    9  A    between atoms: C7_28  and  C8_30 
REMARK   10  A    between atoms: N9_31  and  N10_33 
ROOT
HETATM    1  C2  UNL     1       4.141  22.458   3.020  1.00  0.00     0.113 A 
HETATM    2  S1  UNL     1       4.276  24.079   2.427  1.00  0.00    -0.034 SA
HETATM    3  C3  UNL     1       2.935  25.036   2.829  1.00  0.00     0.147 A 
HETATM    4  N6  UNL     1       1.994  24.410   3.529  1.00  0.00    -0.303 N 
ATOM      5  H6  UNL     1       1.176  24.964   3.783  1.00  0.00     0.171 HD
HETATM    6  C4  UNL     1       2.000  23.156   3.931  1.00  0.00     0.264 A 
HETATM    7  O1  UNL     1       0.975  22.771   4.597  1.00  0.00    -0.267 OA
HETATM    8  C5  UNL     1       2.983  22.197   3.718  1.00  0.00     0.119 A 
ENDROOT
BRANCH   8   9
HETATM    9  C6  UNL     1       2.751  20.841   4.221  1.00  0.00     0.173 C 
BRANCH   9  10
HETATM   10  O2  UNL     1       2.651  19.934   3.293  1.00  0.00    -0.344 OA
ATOM     11  H2  UNL     1       2.012  19.255   3.475  1.00  0.00     0.219 HD
ENDBRANCH   9  10
BRANCH   9  12
HETATM   12  N7  UNL     1       2.630  20.396   5.523  1.00  0.00    -0.276 N 
ATOM     13  H7  UNL     1       2.236  19.474   5.707  1.00  0.00     0.189 HD
BRANCH  12  14
HETATM   14  N8  UNL     1       3.051  21.212   6.608  1.00  0.00    -0.263 N 
HETATM   15  C7  UNL     1       4.383  21.633   6.793  1.00  0.00     0.276 C 
HETATM   16  O3  UNL     1       5.260  21.288   5.979  1.00  0.00    -0.265 OA
ATOM     17  H8  UNL     1       2.352  21.509   7.288  1.00  0.00     0.190 HD
BRANCH  15  18
HETATM   18  C8  UNL     1       4.748  22.467   7.922  1.00  0.00     0.182 C 
HETATM   19  N9  UNL     1       5.942  22.662   8.298  1.00  0.00    -0.313 N 
ATOM     20  H9  UNL     1       6.067  23.271   9.106  1.00  0.00     0.185 HD
BRANCH  19  21
HETATM   21  N10 UNL     1       7.099  22.142   7.734  1.00  0.00    -0.345 N 
ATOM     22 2H10 UNL     1       6.962  21.323   7.142  1.00  0.00     0.176 HD
ATOM     23 1H10 UNL     1       8.053  22.486   7.848  1.00  0.00     0.176 HD
ENDBRANCH  19  21
ENDBRANCH  15  18
ENDBRANCH  12  14
ENDBRANCH   9  12
ENDBRANCH   8   9
BRANCH   1  24
HETATM   24  N4  UNL     1       5.192  21.517   2.803  1.00  0.00    -0.277 N 
HETATM   25  N3  UNL     1       5.243  20.959   1.671  1.00  0.00    -0.226 N 
ATOM     26  H3  UNL     1       4.545  21.197   0.967  1.00  0.00     0.210 HD
ATOM     27  H4  UNL     1       5.873  21.304   3.532  1.00  0.00     0.189 HD
BRANCH  25  28
HETATM   28  N1  UNL     1       6.244  20.013   1.356  1.00  0.00    -0.231 N 
HETATM   29  C1  UNL     1       5.806  18.774   0.747  1.00  0.00     0.201 C 
BRANCH  28  30
HETATM   30  N2  UNL     1       7.585  20.201   1.591  1.00  0.00    -0.328 N 
ATOM     31  H22 UNL     1       8.200  20.752   0.992  1.00  0.00     0.178 HD
ATOM     32  H21 UNL     1       8.008  19.767   2.412  1.00  0.00     0.178 HD
ENDBRANCH  28  30
ENDBRANCH  25  28
ENDBRANCH   1  24
BRANCH   3  33
HETATM   33  N5  UNL     1       2.819  26.277   2.487  1.00  0.00    -0.380 N 
ATOM     34  H52 UNL     1       1.972  26.637   2.048  1.00  0.00     0.158 HD
ATOM     35  H51 UNL     1       3.554  26.970   2.629  1.00  0.00     0.158 HD
ENDBRANCH   3  33
TORSDOF 10
ENDMDL
MODEL 4
REMARK VINA RESULT: -6.715053854      2.260      3.808
REMARK  10 active torsions:
REMARK  status: ('A' for Active; 'I' for Inactive)
REMARK    1  A    between atoms: N1_2  and  N2_3 
REMARK    2  A    between atoms: N1_2  and  N3_6 
REMARK    3  A    between atoms: N4_8  and  C2_10 
REMARK    4  A    between atoms: C3_12  and  N5_13 
REMARK    5  A    between atoms: C5_20  and  C6_21 
REMARK    6  A    between atoms: C6_21  and  O2_22 
REMARK    7  A    between atoms: C6_21  and  N7_24 
REMARK    8  A    between atoms: N7_24  and  N8_26 
REMARK       I    between atoms: N8_26  and  C7_28 
REMARK    9  A    between atoms: C7_28  and  C8_30 
REMARK   10  A    between atoms: N9_31  and  N10_33 
ROOT
HETATM    1  C2  UNL     1       4.402  22.518   3.550  1.00  0.00     0.113 A 
HETATM    2  S1  UNL     1       4.065  23.867   2.519  1.00  0.00    -0.034 SA
HETATM    3  C3  UNL     1       3.256  25.120   3.325  1.00  0.00     0.147 A 
HETATM    4  N6  UNL     1       3.004  24.885   4.609  1.00  0.00    -0.303 N 
ATOM      5  H6  UNL     1       2.517  25.623   5.118  1.00  0.00     0.171 HD
HETATM    6  C4  UNL     1       3.313  23.805   5.298  1.00  0.00     0.264 A 
HETATM    7  O1  UNL     1       2.966  23.804   6.531  1.00  0.00    -0.267 OA
HETATM    8  C5  UNL     1       3.969  22.665   4.848  1.00  0.00     0.119 A 
ENDROOT
BRANCH   8   9
HETATM    9  C6  UNL     1       4.164  21.560   5.789  1.00  0.00     0.173 C 
BRANCH   9  10
HETATM   10  O2  UNL     1       5.350  21.513   6.324  1.00  0.00    -0.344 OA
ATOM     11  H2  UNL     1       5.398  21.006   7.126  1.00  0.00     0.219 HD
ENDBRANCH   9  10
BRANCH   9  12
HETATM   12  N7  UNL     1       3.278  20.576   6.185  1.00  0.00    -0.276 N 
ATOM     13  H7  UNL     1       3.468  20.034   7.027  1.00  0.00     0.189 HD
BRANCH  12  14
HETATM   14  N8  UNL     1       2.104  20.315   5.428  1.00  0.00    -0.263 N 
HETATM   15  C7  UNL     1       2.087  19.507   4.273  1.00  0.00     0.276 C 
HETATM   16  O3  UNL     1       3.141  18.980   3.872  1.00  0.00    -0.265 OA
ATOM     17  H8  UNL     1       1.227  20.734   5.736  1.00  0.00     0.190 HD
BRANCH  15  18
HETATM   18  C8  UNL     1       0.855  19.279   3.545  1.00  0.00     0.182 C 
HETATM   19  N9  UNL     1       0.797  19.114   2.289  1.00  0.00    -0.313 N 
ATOM     20  H9  UNL     1      -0.131  18.961   1.896  1.00  0.00     0.185 HD
BRANCH  19  21
HETATM   21  N10 UNL     1       1.853  19.118   1.390  1.00  0.00    -0.345 N 
ATOM     22 2H10 UNL     1       2.735  19.476   1.758  1.00  0.00     0.176 HD
ATOM     23 1H10 UNL     1       1.841  18.806   0.418  1.00  0.00     0.176 HD
ENDBRANCH  19  21
ENDBRANCH  15  18
ENDBRANCH  12  14
ENDBRANCH   9  12
ENDBRANCH   8   9
BRANCH   1  24
HETATM   24  N4  UNL     1       5.106  21.381   3.050  1.00  0.00    -0.277 N 
HETATM   25  N3  UNL     1       5.817  21.550   2.018  1.00  0.00    -0.226 N 
ATOM     26  H3  UNL     1       5.860  22.474   1.590  1.00  0.00     0.210 HD
ATOM     27  H4  UNL     1       5.039  20.472   3.505  1.00  0.00     0.189 HD
BRANCH  25  28
HETATM   28  N1  UNL     1       6.552  20.489   1.445  1.00  0.00    -0.231 N 
HETATM   29  C1  UNL     1       5.800  19.329   1.013  1.00  0.00     0.201 C 
BRANCH  28  30
HETATM   30  N2  UNL     1       7.916  20.498   1.275  1.00  0.00    -0.328 N 
ATOM     31  H22 UNL     1       8.397  20.090   0.474  1.00  0.00     0.178 HD
ATOM     32  H21 UNL     1       8.499  20.937   1.989  1.00  0.00     0.178 HD
ENDBRANCH  28  30
ENDBRANCH  25  28
ENDBRANCH   1  24
BRANCH   3  33
HETATM   33  N5  UNL     1       2.901  26.223   2.752  1.00  0.00    -0.380 N 
ATOM     34  H52 UNL     1       3.263  26.495   1.838  1.00  0.00     0.158 HD
ATOM     35  H51 UNL     1       2.247  26.887   3.167  1.00  0.00     0.158 HD
ENDBRANCH   3  33
TORSDOF 10
ENDMDL
MODEL 5
REMARK VINA RESULT: -6.687794400      3.611      6.543
REMARK  10 active torsions:
REMARK  status: ('A' for Active; 'I' for Inactive)
REMARK    1  A    between atoms: N1_2  and  N2_3 
REMARK    2  A    between atoms: N1_2  and  N3_6 
REMARK    3  A    between atoms: N4_8  and  C2_10 
REMARK    4  A    between atoms: C3_12  and  N5_13 
REMARK    5  A    between atoms: C5_20  and  C6_21 
REMARK    6  A    between atoms: C6_21  and  O2_22 
REMARK    7  A    between atoms: C6_21  and  N7_24 
REMARK    8  A    between atoms: N7_24  and  N8_26 
REMARK       I    between atoms: N8_26  and  C7_28 
REMARK    9  A    between atoms: C7_28  and  C8_30 
REMARK   10  A    between atoms: N9_31  and  N10_33 
ROOT
HETATM    1  C2  UNL     1       4.815  18.832   0.711  1.00  0.00     0.113 A 
HETATM    2  S1  UNL     1       3.613  17.925  -0.144  1.00  0.00    -0.034 SA
HETATM    3  C3  UNL     1       2.081  18.030   0.573  1.00  0.00     0.147 A 
HETATM    4  N6  UNL     1       2.029  18.782   1.669  1.00  0.00    -0.303 N 
ATOM      5  H6  UNL     1       1.118  18.861   2.121  1.00  0.00     0.171 HD
HETATM    6  C4  UNL     1       3.024  19.434   2.235  1.00  0.00     0.264 A 
HETATM    7  O1  UNL     1       2.733  20.097   3.293  1.00  0.00    -0.267 OA
HETATM    8  C5  UNL     1       4.350  19.491   1.827  1.00  0.00     0.119 A 
ENDROOT
BRANCH   8   9
HETATM    9  C6  UNL     1       5.298  20.248   2.647  1.00  0.00     0.173 C 
BRANCH   9  10
HETATM   10  O2  UNL     1       6.039  19.513   3.427  1.00  0.00    -0.344 OA
ATOM     11  H2  UNL     1       6.916  19.850   3.564  1.00  0.00     0.219 HD
ENDBRANCH   9  10
BRANCH   9  12
HETATM   12  N7  UNL     1       5.517  21.610   2.705  1.00  0.00    -0.276 N 
ATOM     13  H7  UNL     1       6.425  21.964   3.007  1.00  0.00     0.189 HD
BRANCH  12  14
HETATM   14  N8  UNL     1       4.488  22.523   2.348  1.00  0.00    -0.263 N 
HETATM   15  C7  UNL     1       4.504  23.888   2.695  1.00  0.00     0.276 C 
HETATM   16  O3  UNL     1       5.459  24.349   3.349  1.00  0.00    -0.265 OA
ATOM     17  H8  UNL     1       3.695  22.170   1.812  1.00  0.00     0.190 HD
BRANCH  15  18
HETATM   18  C8  UNL     1       3.422  24.768   2.300  1.00  0.00     0.182 C 
HETATM   19  N9  UNL     1       2.699  25.410   3.120  1.00  0.00    -0.313 N 
ATOM     20  H9  UNL     1       1.970  25.996   2.715  1.00  0.00     0.185 HD
BRANCH  19  21
HETATM   21  N10 UNL     1       2.787  25.405   4.504  1.00  0.00    -0.345 N 
ATOM     22 2H10 UNL     1       3.599  25.888   4.889  1.00  0.00     0.176 HD
ATOM     23 1H10 UNL     1       2.137  24.977   5.165  1.00  0.00     0.176 HD
ENDBRANCH  19  21
ENDBRANCH  15  18
ENDBRANCH  12  14
ENDBRANCH   9  12
ENDBRANCH   8   9
BRANCH   1  24
HETATM   24  N4  UNL     1       6.159  18.884   0.234  1.00  0.00    -0.277 N 
HETATM   25  N3  UNL     1       6.993  18.100   0.769  1.00  0.00    -0.226 N 
ATOM     26  H3  UNL     1       6.681  17.470   1.507  1.00  0.00     0.210 HD
ATOM     27  H4  UNL     1       6.435  19.527  -0.508  1.00  0.00     0.189 HD
BRANCH  25  28
HETATM   28  N1  UNL     1       8.347  18.074   0.368  1.00  0.00    -0.231 N 
HETATM   29  C1  UNL     1       8.772  19.092  -0.571  1.00  0.00     0.201 C 
BRANCH  28  30
HETATM   30  N2  UNL     1       9.268  17.155   0.813  1.00  0.00    -0.328 N 
ATOM     31  H22 UNL     1       9.892  17.307   1.605  1.00  0.00     0.178 HD
ATOM     32  H21 UNL     1       9.343  16.259   0.331  1.00  0.00     0.178 HD
ENDBRANCH  28  30
ENDBRANCH  25  28
ENDBRANCH   1  24
BRANCH   3  33
HETATM   33  N5  UNL     1       1.034  17.432   0.107  1.00  0.00    -0.380 N 
ATOM     34  H52 UNL     1       1.080  16.488  -0.277  1.00  0.00     0.158 HD
ATOM     35  H51 UNL     1       0.106  17.855   0.091  1.00  0.00     0.158 HD
ENDBRANCH   3  33
TORSDOF 10
ENDMDL
