MODEL 1
REMARK VINA RESULT: -6.848700644      0.000      0.000
REMARK  5 active torsions:
REMARK  status: ('A' for Active; 'I' for Inactive)
REMARK    1  A    between atoms: N1_1  and  C1_4 
REMARK    2  A    between atoms: C5_16  and  O3_17 
REMARK    3  A    between atoms: C6_19  and  C7_20 
REMARK    4  A    between atoms: C7_20  and  N6_21 
REMARK    5  A    between atoms: N6_21  and  C8_23 
ROOT
HETATM    1  C1  UNL     1       4.920  18.111   3.165  1.00  0.00     0.145 A 
HETATM    2  N2  UNL     1       5.909  17.668   2.376  1.00  0.00    -0.258 N 
ATOM      3  H2  UNL     1       6.092  16.667   2.309  1.00  0.00     0.191 HD
HETATM    4  N3  UNL     1       6.648  18.518   1.682  1.00  0.00    -0.129 N 
HETATM    5  C2  UNL     1       7.671  18.219   0.850  1.00  0.00     0.365 A 
HETATM    6  O1  UNL     1       8.091  17.039   0.601  1.00  0.00    -0.243 OA
HETATM    7  N4  UNL     1       8.127  19.374   0.366  1.00  0.00    -0.256 N 
ATOM      8  H4  UNL     1       8.901  19.472  -0.291  1.00  0.00     0.175 HD
HETATM    9  C3  UNL     1       7.401  20.404   0.886  1.00  0.00     0.351 A 
HETATM   10  O2  UNL     1       7.644  21.578   0.579  1.00  0.00    -0.244 OA
HETATM   11  N5  UNL     1       6.498  19.840   1.692  1.00  0.00    -0.174 N 
HETATM   12  C4  UNL     1       5.510  20.343   2.476  1.00  0.00     0.128 A 
HETATM   13  C5  UNL     1       5.291  21.687   2.541  1.00  0.00     0.109 A 
HETATM   14  C6  UNL     1       4.270  22.160   3.357  1.00  0.00     0.051 A 
HETATM   15  C10 UNL     1       3.498  21.304   4.080  1.00  0.00     0.103 A 
HETATM   16  N8  UNL     1       3.738  19.993   3.993  1.00  0.00    -0.360 N 
ATOM     17  H8  UNL     1       3.155  19.358   4.538  1.00  0.00     0.165 HD
HETATM   18  C11 UNL     1       4.703  19.467   3.229  1.00  0.00     0.109 A 
ENDROOT
BRANCH  14  19
HETATM   19  C7  UNL     1       4.041  23.617   3.458  1.00  0.00     0.255 A 
HETATM   20  C9  UNL     1       4.435  24.201   4.786  1.00  0.00     0.302 A 
HETATM   21  N7  UNL     1       5.206  24.482   3.617  1.00  0.00    -0.038 N 
ATOM     22  H72 UNL     1       6.194  24.377   3.386  1.00  0.00     0.280 HD
ATOM     23  H71 UNL     1       5.505  25.346   3.165  1.00  0.00     0.280 HD
BRANCH  19  24
HETATM   24  N6  UNL     1       2.960  24.238   2.723  1.00  0.00    -0.330 N 
ATOM     25  H6  UNL     1       2.032  23.815   2.771  1.00  0.00     0.164 HD
BRANCH  24  26
HETATM   26  C8  UNL     1       3.130  25.399   1.943  1.00  0.00     0.350 C 
HETATM   27  O4  UNL     1       3.233  26.545   2.458  1.00  0.00    -0.284 OA
ENDBRANCH  24  26
ENDBRANCH  19  24
ENDBRANCH  14  19
BRANCH  13  28
HETATM   28  O3  UNL     1       6.029  22.592   1.841  1.00  0.00    -0.358 OA
ATOM     29  H3  UNL     1       6.564  23.256   2.258  1.00  0.00     0.217 HD
ENDBRANCH  13  28
BRANCH   1  30
HETATM   30  N1  UNL     1       4.175  17.318   3.860  1.00  0.00    -0.382 N 
ATOM     31  H12 UNL     1       4.612  16.639   4.483  1.00  0.00     0.157 HD
ATOM     32  H11 UNL     1       3.156  17.340   3.813  1.00  0.00     0.157 HD
ENDBRANCH   1  30
TORSDOF 5
ENDMDL
MODEL 2
REMARK VINA RESULT: -6.800735155      2.863      3.953
REMARK  5 active torsions:
REMARK  status: ('A' for Active; 'I' for Inactive)
REMARK    1  A    between atoms: N1_1  and  C1_4 
REMARK    2  A    between atoms: C5_16  and  O3_17 
REMARK    3  A    between atoms: C6_19  and  C7_20 
REMARK    4  A    between atoms: C7_20  and  N6_21 
REMARK    5  A    between atoms: N6_21  and  C8_23 
ROOT
HETATM    1  C1  UNL     1       7.593  20.480   0.869  1.00  0.00     0.145 A 
HETATM    2  N2  UNL     1       8.225  19.311   0.689  1.00  0.00    -0.258 N 
ATOM      3  H2  UNL     1       9.033  19.264   0.068  1.00  0.00     0.191 HD
HETATM    4  N3  UNL     1       7.811  18.220   1.310  1.00  0.00    -0.129 N 
HETATM    5  C2  UNL     1       8.345  16.981   1.227  1.00  0.00     0.365 A 
HETATM    6  O1  UNL     1       9.359  16.667   0.515  1.00  0.00    -0.243 OA
HETATM    7  N4  UNL     1       7.617  16.190   2.015  1.00  0.00    -0.256 N 
ATOM      8  H4  UNL     1       7.778  15.193   2.158  1.00  0.00     0.175 HD
HETATM    9  C3  UNL     1       6.624  16.919   2.598  1.00  0.00     0.351 A 
HETATM   10  O2  UNL     1       5.817  16.395   3.375  1.00  0.00    -0.244 OA
HETATM   11  N5  UNL     1       6.774  18.166   2.142  1.00  0.00    -0.174 N 
HETATM   12  C4  UNL     1       6.097  19.321   2.361  1.00  0.00     0.128 A 
HETATM   13  C5  UNL     1       5.022  19.350   3.199  1.00  0.00     0.109 A 
HETATM   14  C6  UNL     1       4.357  20.555   3.394  1.00  0.00     0.051 A 
HETATM   15  C10 UNL     1       4.765  21.690   2.764  1.00  0.00     0.103 A 
HETATM   16  N8  UNL     1       5.822  21.628   1.950  1.00  0.00    -0.360 N 
ATOM     17  H8  UNL     1       6.121  22.483   1.482  1.00  0.00     0.165 HD
HETATM   18  C11 UNL     1       6.510  20.504   1.715  1.00  0.00     0.109 A 
ENDROOT
BRANCH  14  19
HETATM   19  C7  UNL     1       3.173  20.593   4.279  1.00  0.00     0.255 A 
HETATM   20  C9  UNL     1       3.481  21.031   5.684  1.00  0.00     0.302 A 
HETATM   21  N7  UNL     1       2.755  21.889   4.804  1.00  0.00    -0.038 N 
ATOM     22  H72 UNL     1       2.891  22.850   4.490  1.00  0.00     0.280 HD
ATOM     23  H71 UNL     1       1.852  22.360   4.870  1.00  0.00     0.280 HD
BRANCH  19  24
HETATM   24  N6  UNL     1       2.074  19.676   4.066  1.00  0.00    -0.330 N 
ATOM     25  H6  UNL     1       1.856  18.999   4.796  1.00  0.00     0.164 HD
BRANCH  24  26
HETATM   26  C8  UNL     1       1.291  19.677   2.894  1.00  0.00     0.350 C 
HETATM   27  O4  UNL     1       1.714  19.205   1.803  1.00  0.00    -0.284 OA
ENDBRANCH  24  26
ENDBRANCH  19  24
ENDBRANCH  14  19
BRANCH  13  28
HETATM   28  O3  UNL     1       4.568  18.248   3.858  1.00  0.00    -0.358 OA
ATOM     29  H3  UNL     1       4.159  17.514   3.416  1.00  0.00     0.217 HD
ENDBRANCH  13  28
BRANCH   1  30
HETATM   30  N1  UNL     1       7.963  21.569   0.283  1.00  0.00    -0.382 N 
ATOM     31  H12 UNL     1       8.277  21.533  -0.687  1.00  0.00     0.157 HD
ATOM     32  H11 UNL     1       7.953  22.476   0.751  1.00  0.00     0.157 HD
ENDBRANCH   1  30
TORSDOF 5
ENDMDL
MODEL 3
REMARK VINA RESULT: -6.772840061      3.022      4.279
REMARK  5 active torsions:
REMARK  status: ('A' for Active; 'I' for Inactive)
REMARK    1  A    between atoms: N1_1  and  C1_4 
REMARK    2  A    between atoms: C5_16  and  O3_17 
REMARK    3  A    between atoms: C6_19  and  C7_20 
REMARK    4  A    between atoms: C7_20  and  N6_21 
REMARK    5  A    between atoms: N6_21  and  C8_23 
ROOT
HETATM    1  C1  UNL     1       7.556  20.480   0.901  1.00  0.00     0.145 A 
HETATM    2  N2  UNL     1       8.183  19.311   0.705  1.00  0.00    -0.258 N 
ATOM      3  H2  UNL     1       8.985  19.266   0.077  1.00  0.00     0.191 HD
HETATM    4  N3  UNL     1       7.770  18.215   1.321  1.00  0.00    -0.129 N 
HETATM    5  C2  UNL     1       8.299  16.975   1.223  1.00  0.00     0.365 A 
HETATM    6  O1  UNL     1       9.306  16.664   0.500  1.00  0.00    -0.243 OA
HETATM    7  N4  UNL     1       7.575  16.180   2.010  1.00  0.00    -0.256 N 
ATOM      8  H4  UNL     1       7.733  15.181   2.144  1.00  0.00     0.175 HD
HETATM    9  C3  UNL     1       6.588  16.908   2.607  1.00  0.00     0.351 A 
HETATM   10  O2  UNL     1       5.786  16.380   3.387  1.00  0.00    -0.244 OA
HETATM   11  N5  UNL     1       6.739  18.158   2.160  1.00  0.00    -0.174 N 
HETATM   12  C4  UNL     1       6.068  19.314   2.394  1.00  0.00     0.128 A 
HETATM   13  C5  UNL     1       5.000  19.339   3.241  1.00  0.00     0.109 A 
HETATM   14  C6  UNL     1       4.341  20.545   3.451  1.00  0.00     0.051 A 
HETATM   15  C10 UNL     1       4.748  21.684   2.828  1.00  0.00     0.103 A 
HETATM   16  N8  UNL     1       5.799  21.625   2.005  1.00  0.00    -0.360 N 
ATOM     17  H8  UNL     1       6.097  22.483   1.542  1.00  0.00     0.165 HD
HETATM   18  C11 UNL     1       6.480  20.501   1.755  1.00  0.00     0.109 A 
ENDROOT
BRANCH  14  19
HETATM   19  C7  UNL     1       3.164  20.579   4.346  1.00  0.00     0.255 A 
HETATM   20  C9  UNL     1       1.914  21.088   3.683  1.00  0.00     0.302 A 
HETATM   21  N7  UNL     1       2.038  19.707   4.026  1.00  0.00    -0.038 N 
ATOM     22  H72 UNL     1       1.951  18.841   3.495  1.00  0.00     0.280 HD
ATOM     23  H71 UNL     1       1.467  19.068   4.580  1.00  0.00     0.280 HD
BRANCH  19  24
HETATM   24  N6  UNL     1       3.334  20.803   5.766  1.00  0.00    -0.330 N 
ATOM     25  H6  UNL     1       3.654  21.719   6.079  1.00  0.00     0.164 HD
BRANCH  24  26
HETATM   26  C8  UNL     1       3.078  19.812   6.734  1.00  0.00     0.350 C 
HETATM   27  O4  UNL     1       3.402  18.606   6.563  1.00  0.00    -0.284 OA
ENDBRANCH  24  26
ENDBRANCH  19  24
ENDBRANCH  14  19
BRANCH  13  28
HETATM   28  O3  UNL     1       4.547  18.234   3.894  1.00  0.00    -0.358 OA
ATOM     29  H3  UNL     1       4.865  17.974   4.751  1.00  0.00     0.217 HD
ENDBRANCH  13  28
BRANCH   1  30
HETATM   30  N1  UNL     1       7.925  21.573   0.320  1.00  0.00    -0.382 N 
ATOM     31  H12 UNL     1       7.978  21.605  -0.698  1.00  0.00     0.157 HD
ATOM     32  H11 UNL     1       8.168  22.416   0.840  1.00  0.00     0.157 HD
ENDBRANCH   1  30
TORSDOF 5
ENDMDL
MODEL 4
REMARK VINA RESULT: -6.679304337      3.924      5.912
REMARK  5 active torsions:
REMARK  status: ('A' for Active; 'I' for Inactive)
REMARK    1  A    between atoms: N1_1  and  C1_4 
REMARK    2  A    between atoms: C5_16  and  O3_17 
REMARK    3  A    between atoms: C6_19  and  C7_20 
REMARK    4  A    between atoms: C7_20  and  N6_21 
REMARK    5  A    between atoms: N6_21  and  C8_23 
ROOT
HETATM    1  C1  UNL     1       1.243  20.979   6.953  1.00  0.00     0.145 A 
HETATM    2  N2  UNL     1       1.751  20.414   8.058  1.00  0.00    -0.258 N 
ATOM      3  H2  UNL     1       1.141  19.891   8.685  1.00  0.00     0.191 HD
HETATM    4  N3  UNL     1       3.038  20.530   8.341  1.00  0.00    -0.129 N 
HETATM    5  C2  UNL     1       3.687  20.019   9.411  1.00  0.00     0.365 A 
HETATM    6  O1  UNL     1       3.141  19.328  10.337  1.00  0.00    -0.243 OA
HETATM    7  N4  UNL     1       4.966  20.376   9.297  1.00  0.00    -0.256 N 
ATOM      8  H4  UNL     1       5.706  20.137   9.957  1.00  0.00     0.175 HD
HETATM    9  C3  UNL     1       5.133  21.111   8.161  1.00  0.00     0.351 A 
HETATM   10  O2  UNL     1       6.243  21.556   7.843  1.00  0.00    -0.244 OA
HETATM   11  N5  UNL     1       3.924  21.186   7.597  1.00  0.00    -0.174 N 
HETATM   12  C4  UNL     1       3.463  21.777   6.465  1.00  0.00     0.128 A 
HETATM   13  C5  UNL     1       4.308  22.468   5.648  1.00  0.00     0.109 A 
HETATM   14  C6  UNL     1       3.794  23.059   4.500  1.00  0.00     0.051 A 
HETATM   15  C10 UNL     1       2.473  22.953   4.189  1.00  0.00     0.103 A 
HETATM   16  N8  UNL     1       1.673  22.268   5.010  1.00  0.00    -0.360 N 
ATOM     17  H8  UNL     1       0.685  22.194   4.770  1.00  0.00     0.165 HD
HETATM   18  C11 UNL     1       2.098  21.674   6.132  1.00  0.00     0.109 A 
ENDROOT
BRANCH  14  19
HETATM   19  C7  UNL     1       4.694  23.834   3.620  1.00  0.00     0.255 A 
HETATM   20  C9  UNL     1       4.103  25.132   3.141  1.00  0.00     0.302 A 
HETATM   21  N7  UNL     1       5.164  25.131   4.097  1.00  0.00    -0.038 N 
ATOM     22  H72 UNL     1       5.272  25.540   5.026  1.00  0.00     0.280 HD
ATOM     23  H71 UNL     1       6.081  25.577   4.128  1.00  0.00     0.280 HD
BRANCH  19  24
HETATM   24  N6  UNL     1       5.648  23.154   2.770  1.00  0.00    -0.330 N 
ATOM     25  H6  UNL     1       6.556  23.589   2.611  1.00  0.00     0.164 HD
BRANCH  24  26
HETATM   26  C8  UNL     1       5.378  21.916   2.153  1.00  0.00     0.350 C 
HETATM   27  O4  UNL     1       5.364  21.779   0.900  1.00  0.00    -0.284 OA
ENDBRANCH  24  26
ENDBRANCH  19  24
ENDBRANCH  14  19
BRANCH  13  28
HETATM   28  O3  UNL     1       5.638  22.607   5.905  1.00  0.00    -0.358 OA
ATOM     29  H3  UNL     1       5.987  23.285   6.471  1.00  0.00     0.217 HD
ENDBRANCH  13  28
BRANCH   1  30
HETATM   30  N1  UNL     1      -0.006  20.891   6.638  1.00  0.00    -0.382 N 
ATOM     31  H12 UNL     1      -0.713  21.003   7.364  1.00  0.00     0.157 HD
ATOM     32  H11 UNL     1      -0.321  20.714   5.684  1.00  0.00     0.157 HD
ENDBRANCH   1  30
TORSDOF 5
ENDMDL
MODEL 5
REMARK VINA RESULT: -6.630321327      2.925      6.441
REMARK  5 active torsions:
REMARK  status: ('A' for Active; 'I' for Inactive)
REMARK    1  A    between atoms: N1_1  and  C1_4 
REMARK    2  A    between atoms: C5_16  and  O3_17 
REMARK    3  A    between atoms: C6_19  and  C7_20 
REMARK    4  A    between atoms: C7_20  and  N6_21 
REMARK    5  A    between atoms: N6_21  and  C8_23 
ROOT
HETATM    1  C1  UNL     1       4.846  23.917   4.445  1.00  0.00     0.145 A 
HETATM    2  N2  UNL     1       4.259  23.799   5.645  1.00  0.00    -0.258 N 
ATOM      3  H2  UNL     1       4.141  24.623   6.234  1.00  0.00     0.191 HD
HETATM    4  N3  UNL     1       3.831  22.622   6.071  1.00  0.00    -0.129 N 
HETATM    5  C2  UNL     1       3.225  22.352   7.249  1.00  0.00     0.365 A 
HETATM    6  O1  UNL     1       2.967  23.215   8.154  1.00  0.00    -0.243 OA
HETATM    7  N4  UNL     1       2.966  21.044   7.261  1.00  0.00    -0.256 N 
ATOM      8  H4  UNL     1       2.511  20.541   8.023  1.00  0.00     0.175 HD
HETATM    9  C3  UNL     1       3.404  20.483   6.098  1.00  0.00     0.351 A 
HETATM   10  O2  UNL     1       3.271  19.272   5.882  1.00  0.00    -0.244 OA
HETATM   11  N5  UNL     1       3.932  21.484   5.389  1.00  0.00    -0.174 N 
HETATM   12  C4  UNL     1       4.518  21.547   4.166  1.00  0.00     0.128 A 
HETATM   13  C5  UNL     1       4.659  20.425   3.404  1.00  0.00     0.109 A 
HETATM   14  C6  UNL     1       5.266  20.534   2.159  1.00  0.00     0.051 A 
HETATM   15  C10 UNL     1       5.714  21.735   1.700  1.00  0.00     0.103 A 
HETATM   16  N8  UNL     1       5.560  22.814   2.472  1.00  0.00    -0.360 N 
ATOM     17  H8  UNL     1       5.899  23.710   2.121  1.00  0.00     0.165 HD
HETATM   18  C11 UNL     1       4.986  22.784   3.680  1.00  0.00     0.109 A 
ENDROOT
BRANCH  14  19
HETATM   19  C7  UNL     1       5.449  19.320   1.334  1.00  0.00     0.255 A 
HETATM   20  C9  UNL     1       6.864  19.113   0.868  1.00  0.00     0.302 A 
HETATM   21  N7  UNL     1       6.300  18.258   1.863  1.00  0.00    -0.038 N 
ATOM     22  H72 UNL     1       6.587  17.994   2.806  1.00  0.00     0.280 HD
ATOM     23  H71 UNL     1       6.193  17.247   1.940  1.00  0.00     0.280 HD
BRANCH  19  24
HETATM   24  N6  UNL     1       4.369  18.833   0.505  1.00  0.00    -0.330 N 
ATOM     25  H6  UNL     1       4.090  19.385  -0.306  1.00  0.00     0.164 HD
BRANCH  24  26
HETATM   26  C8  UNL     1       3.684  17.629   0.766  1.00  0.00     0.350 C 
HETATM   27  O4  UNL     1       3.470  17.219   1.939  1.00  0.00    -0.284 OA
ENDBRANCH  24  26
ENDBRANCH  19  24
ENDBRANCH  14  19
BRANCH  13  28
HETATM   28  O3  UNL     1       4.229  19.198   3.807  1.00  0.00    -0.358 OA
ATOM     29  H3  UNL     1       3.336  19.027   4.081  1.00  0.00     0.217 HD
ENDBRANCH  13  28
BRANCH   1  30
HETATM   30  N1  UNL     1       5.278  25.046   3.990  1.00  0.00    -0.382 N 
ATOM     31  H12 UNL     1       5.799  25.667   4.609  1.00  0.00     0.157 HD
ATOM     32  H11 UNL     1       5.122  25.346   3.028  1.00  0.00     0.157 HD
ENDBRANCH   1  30
TORSDOF 5
ENDMDL
