MODEL 1
REMARK VINA RESULT: -6.918893183      0.000      0.000
REMARK  18 active torsions:
REMARK  status: ('A' for Active; 'I' for Inactive)
REMARK    1  A    between atoms: N1_1  and  C1_4 
REMARK    2  A    between atoms: C1_4  and  C2_5 
REMARK    3  A    between atoms: C1_4  and  N8_45 
REMARK    4  A    between atoms: C2_5  and  N2_6 
REMARK    5  A    between atoms: C4_11  and  N4_12 
REMARK    6  A    between atoms: N4_12  and  O2_14 
REMARK    7  A    between atoms: C5_18  and  N6_19 
REMARK    8  A    between atoms: N6_19  and  C6_20 
REMARK    9  A    between atoms: C6_20  and  O3_21 
REMARK   10  A    between atoms: C10_28  and  C11_29 
REMARK   11  A    between atoms: C13_33  and  C14_34 
REMARK   12  A    between atoms: C14_34  and  O8_35 
REMARK   13  A    between atoms: C14_34  and  C15_37 
REMARK   14  A    between atoms: C15_37  and  O9_38 
REMARK   15  A    between atoms: C16_40  and  N7_41 
REMARK   16  A    between atoms: N8_45  and  C17_47 
REMARK   17  A    between atoms: C17_47  and  C18_48 
REMARK   18  A    between atoms: C18_48  and  N9_49 
ROOT
HETATM    1  N2  UNL     1       4.177 -30.801 -10.426  1.00  0.00    -0.251 N 
HETATM    2  C3  UNL     1       3.098 -30.373 -11.134  1.00  0.00     0.344 A 
HETATM    3  O1  UNL     1       3.074 -30.605 -12.387  1.00  0.00    -0.246 OA
HETATM    4  N3  UNL     1       2.081 -29.723 -10.544  1.00  0.00    -0.139 N 
ATOM      5  H3  UNL     1       1.288 -29.418 -11.108  1.00  0.00     0.189 HD
HETATM    6  C4  UNL     1       2.088 -29.468  -9.223  1.00  0.00     0.709 A 
HETATM    7  N5  UNL     1       3.132 -29.879  -8.518  1.00  0.00    -0.146 N 
ATOM      8  H5  UNL     1       3.155 -29.694  -7.515  1.00  0.00     0.188 HD
HETATM    9  C5  UNL     1       4.197 -30.555  -9.106  1.00  0.00     0.282 A 
ENDROOT
BRANCH   9  10
HETATM   10  N6  UNL     1       5.086 -30.929  -8.393  1.00  0.00    -0.344 NA
BRANCH  10  11
HETATM   11  C6  UNL     1       6.139 -30.947  -7.570  1.00  0.00     0.229 C 
HETATM   12  C7  UNL     1       6.247 -31.022  -6.137  1.00  0.00     0.070 C 
HETATM   13  C8  UNL     1       6.531 -31.073  -5.055  1.00  0.00     0.077 C 
HETATM   14  C16 UNL     1       5.262 -29.642  -5.484  1.00  0.00     0.253 C 
HETATM   15  O4  UNL     1       4.920 -31.205  -4.589  1.00  0.00    -0.281 OA
HETATM   16  C13 UNL     1       7.303 -31.090  -3.911  1.00  0.00     0.076 C 
HETATM   17  C9  UNL     1       5.068 -31.110  -3.401  1.00  0.00     0.285 C 
HETATM   18  O5  UNL     1       5.216 -31.014  -2.204  1.00  0.00    -0.263 OA
HETATM   19  C10 UNL     1       5.582 -29.439  -4.039  1.00  0.00     0.169 C 
HETATM   20  C12 UNL     1       6.922 -29.550  -3.492  1.00  0.00     0.047 C 
BRANCH  11  21
HETATM   21  O3  UNL     1       7.297 -30.881  -8.224  1.00  0.00    -0.335 OA
ATOM     22  H3  UNL     1       7.463 -31.655  -8.748  1.00  0.00     0.220 HD
ENDBRANCH  11  21
BRANCH  19  23
HETATM   23  C11 UNL     1       4.563 -28.707  -3.349  1.00  0.00     0.194 C 
HETATM   24  O6  UNL     1       3.428 -28.516  -3.893  1.00  0.00    -0.647 OA
HETATM   25  O7  UNL     1       4.729 -28.167  -2.084  1.00  0.00    -0.647 OA
ENDBRANCH  19  23
BRANCH  16  26
HETATM   26  C14 UNL     1       8.813 -31.077  -4.104  1.00  0.00     0.152 C 
BRANCH  26  27
HETATM   27  O8  UNL     1       9.232 -32.398  -3.985  1.00  0.00    -0.393 OA
ATOM     28  H8  UNL     1       9.621 -32.630  -4.820  1.00  0.00     0.210 HD
ENDBRANCH  26  27
BRANCH  26  29
HETATM   29  C15 UNL     1       9.422 -30.289  -2.992  1.00  0.00     0.196 C 
BRANCH  29  30
HETATM   30  O9  UNL     1      10.434 -29.478  -3.523  1.00  0.00    -0.398 OA
ATOM     31  H9  UNL     1      10.632 -28.793  -2.896  1.00  0.00     0.209 HD
ENDBRANCH  29  30
ENDBRANCH  26  29
ENDBRANCH  16  26
BRANCH  14  32
HETATM   32  N7  UNL     1       5.757 -28.627  -6.336  1.00  0.00    -0.069 N 
ATOM     33  H73 UNL     1       5.865 -27.699  -5.928  1.00  0.00     0.275 HD
ATOM     34  H72 UNL     1       6.738 -28.694  -6.607  1.00  0.00     0.275 HD
ATOM     35  H71 UNL     1       5.069 -28.722  -7.084  1.00  0.00     0.275 HD
ENDBRANCH  14  32
ENDBRANCH  10  11
ENDBRANCH   9  10
BRANCH   1  36
HETATM   36  C2  UNL     1       5.212 -31.505 -11.163  1.00  0.00     0.213 C 
BRANCH  36  37
HETATM   37  C1  UNL     1       6.294 -30.604 -11.648  1.00  0.00     0.089 C 
BRANCH  37  38
HETATM   38  N1  UNL     1       7.510 -30.762 -11.198  1.00  0.00    -0.388 N 
ATOM     39  H12 UNL     1       7.684 -31.570 -10.601  1.00  0.00     0.157 HD
ATOM     40  H11 UNL     1       8.230 -30.087 -11.455  1.00  0.00     0.157 HD
ENDBRANCH  37  38
BRANCH  37  41
HETATM   41  N8  UNL     1       6.083 -29.571 -12.582  1.00  0.00    -0.377 N 
ATOM     42  H8  UNL     1       5.670 -28.695 -12.261  1.00  0.00     0.160 HD
BRANCH  41  43
HETATM   43  C17 UNL     1       6.432 -29.707 -13.978  1.00  0.00     0.148 C 
BRANCH  43  44
HETATM   44  C18 UNL     1       5.258 -29.399 -14.880  1.00  0.00     0.249 C 
BRANCH  44  45
HETATM   45  N9  UNL     1       4.345 -30.501 -14.980  1.00  0.00    -0.078 N 
ATOM     46  H93 UNL     1       4.330 -30.882 -15.926  1.00  0.00     0.274 HD
ATOM     47  H92 UNL     1       4.699 -31.318 -14.481  1.00  0.00     0.274 HD
ATOM     48  H91 UNL     1       3.407 -30.256 -14.666  1.00  0.00     0.274 HD
ENDBRANCH  44  45
ENDBRANCH  43  44
ENDBRANCH  41  43
ENDBRANCH  37  41
ENDBRANCH  36  37
ENDBRANCH   1  36
BRANCH   6  49
HETATM   49  N4  UNL     1       1.108 -28.842  -8.657  1.00  0.00    -0.098 N 
ATOM     50  H4  UNL     1       1.178 -28.534  -7.687  1.00  0.00     0.213 HD
BRANCH  49  51
HETATM   51  O2  UNL     1      -0.042 -28.598  -9.398  1.00  0.00    -0.276 OA
ATOM     52  H2  UNL     1      -0.602 -27.874  -9.142  1.00  0.00     0.245 HD
ENDBRANCH  49  51
ENDBRANCH   6  49
TORSDOF 18
ENDMDL
MODEL 2
REMARK VINA RESULT: -6.625404099      0.931      1.826
REMARK  18 active torsions:
REMARK  status: ('A' for Active; 'I' for Inactive)
REMARK    1  A    between atoms: N1_1  and  C1_4 
REMARK    2  A    between atoms: C1_4  and  C2_5 
REMARK    3  A    between atoms: C1_4  and  N8_45 
REMARK    4  A    between atoms: C2_5  and  N2_6 
REMARK    5  A    between atoms: C4_11  and  N4_12 
REMARK    6  A    between atoms: N4_12  and  O2_14 
REMARK    7  A    between atoms: C5_18  and  N6_19 
REMARK    8  A    between atoms: N6_19  and  C6_20 
REMARK    9  A    between atoms: C6_20  and  O3_21 
REMARK   10  A    between atoms: C10_28  and  C11_29 
REMARK   11  A    between atoms: C13_33  and  C14_34 
REMARK   12  A    between atoms: C14_34  and  O8_35 
REMARK   13  A    between atoms: C14_34  and  C15_37 
REMARK   14  A    between atoms: C15_37  and  O9_38 
REMARK   15  A    between atoms: C16_40  and  N7_41 
REMARK   16  A    between atoms: N8_45  and  C17_47 
REMARK   17  A    between atoms: C17_47  and  C18_48 
REMARK   18  A    between atoms: C18_48  and  N9_49 
ROOT
HETATM    1  N2  UNL     1       4.245 -30.813 -10.403  1.00  0.00    -0.251 N 
HETATM    2  C3  UNL     1       3.177 -30.390 -11.130  1.00  0.00     0.344 A 
HETATM    3  O1  UNL     1       3.178 -30.617 -12.384  1.00  0.00    -0.246 OA
HETATM    4  N3  UNL     1       2.144 -29.749 -10.557  1.00  0.00    -0.139 N 
ATOM      5  H3  UNL     1       1.360 -29.447 -11.135  1.00  0.00     0.189 HD
HETATM    6  C4  UNL     1       2.124 -29.500  -9.236  1.00  0.00     0.709 A 
HETATM    7  N5  UNL     1       3.157 -29.906  -8.512  1.00  0.00    -0.146 N 
ATOM      8  H5  UNL     1       3.161 -29.725  -7.508  1.00  0.00     0.188 HD
HETATM    9  C5  UNL     1       4.239 -30.573  -9.082  1.00  0.00     0.282 A 
ENDROOT
BRANCH   9  10
HETATM   10  N6  UNL     1       5.117 -30.944  -8.354  1.00  0.00    -0.344 NA
BRANCH  10  11
HETATM   11  C6  UNL     1       6.164 -30.959  -7.525  1.00  0.00     0.229 C 
HETATM   12  C7  UNL     1       6.263 -31.025  -6.091  1.00  0.00     0.070 C 
HETATM   13  C8  UNL     1       6.540 -31.070  -5.007  1.00  0.00     0.077 C 
HETATM   14  C16 UNL     1       5.276 -29.640  -5.452  1.00  0.00     0.253 C 
HETATM   15  O4  UNL     1       4.926 -31.198  -4.550  1.00  0.00    -0.281 OA
HETATM   16  C13 UNL     1       7.305 -31.083  -3.857  1.00  0.00     0.076 C 
HETATM   17  C9  UNL     1       5.066 -31.096  -3.361  1.00  0.00     0.285 C 
HETATM   18  O5  UNL     1       5.207 -30.993  -2.164  1.00  0.00    -0.263 OA
HETATM   19  C10 UNL     1       5.588 -29.430  -4.006  1.00  0.00     0.169 C 
HETATM   20  C12 UNL     1       6.924 -29.540  -3.449  1.00  0.00     0.047 C 
BRANCH  11  21
HETATM   21  O3  UNL     1       7.326 -30.898  -8.171  1.00  0.00    -0.335 OA
ATOM     22  H3  UNL     1       7.392 -30.131  -8.729  1.00  0.00     0.220 HD
ENDBRANCH  11  21
BRANCH  19  23
HETATM   23  C11 UNL     1       4.566 -28.691  -3.326  1.00  0.00     0.194 C 
HETATM   24  O6  UNL     1       3.423 -28.530  -3.865  1.00  0.00    -0.647 OA
HETATM   25  O7  UNL     1       4.737 -28.116  -2.078  1.00  0.00    -0.647 OA
ENDBRANCH  19  23
BRANCH  16  26
HETATM   26  C14 UNL     1       8.816 -31.073  -4.041  1.00  0.00     0.152 C 
BRANCH  26  27
HETATM   27  O8  UNL     1       9.237 -32.388  -3.871  1.00  0.00    -0.393 OA
ATOM     28  H8  UNL     1       9.740 -32.609  -4.645  1.00  0.00     0.210 HD
ENDBRANCH  26  27
BRANCH  26  29
HETATM   29  C15 UNL     1       9.416 -30.243  -2.956  1.00  0.00     0.196 C 
BRANCH  29  30
HETATM   30  O9  UNL     1      10.445 -29.467  -3.505  1.00  0.00    -0.398 OA
ATOM     31  H9  UNL     1      11.178 -30.036  -3.707  1.00  0.00     0.209 HD
ENDBRANCH  29  30
ENDBRANCH  26  29
ENDBRANCH  16  26
BRANCH  14  32
HETATM   32  N7  UNL     1       5.778 -28.631  -6.307  1.00  0.00    -0.069 N 
ATOM     33  H73 UNL     1       6.672 -28.214  -6.047  1.00  0.00     0.275 HD
ATOM     34  H72 UNL     1       6.109 -28.931  -7.224  1.00  0.00     0.275 HD
ATOM     35  H71 UNL     1       4.964 -28.016  -6.293  1.00  0.00     0.275 HD
ENDBRANCH  14  32
ENDBRANCH  10  11
ENDBRANCH   9  10
BRANCH   1  36
HETATM   36  C2  UNL     1       5.299 -31.507 -11.123  1.00  0.00     0.213 C 
BRANCH  36  37
HETATM   37  C1  UNL     1       6.405 -30.604 -11.546  1.00  0.00     0.089 C 
BRANCH  37  38
HETATM   38  N1  UNL     1       6.182 -29.703 -12.465  1.00  0.00    -0.388 N 
ATOM     39  H12 UNL     1       6.801 -28.893 -12.483  1.00  0.00     0.157 HD
ATOM     40  H11 UNL     1       5.411 -29.836 -13.119  1.00  0.00     0.157 HD
ENDBRANCH  37  38
BRANCH  37  41
HETATM   41  N8  UNL     1       7.704 -30.663 -11.005  1.00  0.00    -0.377 N 
ATOM     42  H8  UNL     1       7.828 -31.031 -10.062  1.00  0.00     0.160 HD
BRANCH  41  43
HETATM   43  C17 UNL     1       8.868 -30.220 -11.739  1.00  0.00     0.148 C 
BRANCH  43  44
HETATM   44  C18 UNL     1      10.028 -29.914 -10.817  1.00  0.00     0.249 C 
BRANCH  44  45
HETATM   45  N9  UNL     1       9.592 -29.462  -9.527  1.00  0.00    -0.078 N 
ATOM     46  H93 UNL     1      10.037 -28.580  -9.276  1.00  0.00     0.274 HD
ATOM     47  H92 UNL     1       8.621 -29.153  -9.554  1.00  0.00     0.274 HD
ATOM     48  H91 UNL     1       9.735 -30.165  -8.802  1.00  0.00     0.274 HD
ENDBRANCH  44  45
ENDBRANCH  43  44
ENDBRANCH  41  43
ENDBRANCH  37  41
ENDBRANCH  36  37
ENDBRANCH   1  36
BRANCH   6  49
HETATM   49  N4  UNL     1       1.129 -28.882  -8.685  1.00  0.00    -0.098 N 
ATOM     50  H4  UNL     1       1.182 -28.571  -7.715  1.00  0.00     0.213 HD
BRANCH  49  51
HETATM   51  O2  UNL     1      -0.012 -28.653  -9.444  1.00  0.00    -0.276 OA
ATOM     52  H2  UNL     1      -0.671 -29.337  -9.491  1.00  0.00     0.245 HD
ENDBRANCH  49  51
ENDBRANCH   6  49
TORSDOF 18
ENDMDL
MODEL 3
REMARK VINA RESULT: -6.579777360      1.976      3.880
REMARK  18 active torsions:
REMARK  status: ('A' for Active; 'I' for Inactive)
REMARK    1  A    between atoms: N1_1  and  C1_4 
REMARK    2  A    between atoms: C1_4  and  C2_5 
REMARK    3  A    between atoms: C1_4  and  N8_45 
REMARK    4  A    between atoms: C2_5  and  N2_6 
REMARK    5  A    between atoms: C4_11  and  N4_12 
REMARK    6  A    between atoms: N4_12  and  O2_14 
REMARK    7  A    between atoms: C5_18  and  N6_19 
REMARK    8  A    between atoms: N6_19  and  C6_20 
REMARK    9  A    between atoms: C6_20  and  O3_21 
REMARK   10  A    between atoms: C10_28  and  C11_29 
REMARK   11  A    between atoms: C13_33  and  C14_34 
REMARK   12  A    between atoms: C14_34  and  O8_35 
REMARK   13  A    between atoms: C14_34  and  C15_37 
REMARK   14  A    between atoms: C15_37  and  O9_38 
REMARK   15  A    between atoms: C16_40  and  N7_41 
REMARK   16  A    between atoms: N8_45  and  C17_47 
REMARK   17  A    between atoms: C17_47  and  C18_48 
REMARK   18  A    between atoms: C18_48  and  N9_49 
ROOT
HETATM    1  N2  UNL     1       4.171 -30.654  -8.073  1.00  0.00    -0.251 N 
HETATM    2  C3  UNL     1       3.524 -30.790  -9.261  1.00  0.00     0.344 A 
HETATM    3  O1  UNL     1       3.934 -31.687 -10.067  1.00  0.00    -0.246 OA
HETATM    4  N3  UNL     1       2.482 -30.008  -9.588  1.00  0.00    -0.139 N 
ATOM      5  H3  UNL     1       2.020 -30.140 -10.489  1.00  0.00     0.189 HD
HETATM    6  C4  UNL     1       2.034 -29.055  -8.751  1.00  0.00     0.709 A 
HETATM    7  N5  UNL     1       2.654 -28.910  -7.589  1.00  0.00    -0.146 N 
ATOM      8  H5  UNL     1       2.329 -28.192  -6.941  1.00  0.00     0.188 HD
HETATM    9  C5  UNL     1       3.735 -29.708  -7.226  1.00  0.00     0.282 A 
ENDROOT
BRANCH   9  10
HETATM   10  N6  UNL     1       4.217 -29.541  -6.140  1.00  0.00    -0.344 NA
BRANCH  10  11
HETATM   11  C6  UNL     1       4.437 -29.105  -4.897  1.00  0.00     0.229 C 
HETATM   12  C7  UNL     1       5.533 -29.294  -3.984  1.00  0.00     0.070 C 
HETATM   13  C8  UNL     1       6.277 -29.326  -3.148  1.00  0.00     0.077 C 
HETATM   14  C16 UNL     1       5.744 -31.091  -3.813  1.00  0.00     0.253 C 
HETATM   15  O4  UNL     1       7.347 -30.239  -4.070  1.00  0.00    -0.281 OA
HETATM   16  C13 UNL     1       6.858 -29.119  -1.912  1.00  0.00     0.076 C 
HETATM   17  C9  UNL     1       8.155 -30.487  -3.217  1.00  0.00     0.285 C 
HETATM   18  O5  UNL     1       8.969 -30.738  -2.357  1.00  0.00    -0.263 OA
HETATM   19  C10 UNL     1       6.627 -31.381  -2.643  1.00  0.00     0.169 C 
HETATM   20  C12 UNL     1       6.567 -30.648  -1.392  1.00  0.00     0.047 C 
BRANCH  11  21
HETATM   21  O3  UNL     1       3.437 -28.357  -4.435  1.00  0.00    -0.335 OA
ATOM     22  H3  UNL     1       3.366 -28.390  -3.488  1.00  0.00     0.220 HD
ENDBRANCH  11  21
BRANCH  19  23
HETATM   23  C11 UNL     1       7.201 -32.692  -2.702  1.00  0.00     0.194 C 
HETATM   24  O6  UNL     1       7.471 -33.324  -1.629  1.00  0.00    -0.647 OA
HETATM   25  O7  UNL     1       7.499 -33.347  -3.885  1.00  0.00    -0.647 OA
ENDBRANCH  19  23
BRANCH  16  26
HETATM   26  C14 UNL     1       6.097 -28.228  -0.941  1.00  0.00     0.152 C 
BRANCH  26  27
HETATM   27  O8  UNL     1       7.054 -27.660  -0.104  1.00  0.00    -0.393 OA
ATOM     28  H8  UNL     1       6.730 -27.769   0.782  1.00  0.00     0.210 HD
ENDBRANCH  26  27
BRANCH  26  29
HETATM   29  C15 UNL     1       5.203 -29.091  -0.114  1.00  0.00     0.196 C 
BRANCH  29  30
HETATM   30  O9  UNL     1       4.076 -28.342   0.253  1.00  0.00    -0.398 OA
ATOM     31  H9  UNL     1       3.389 -28.941   0.518  1.00  0.00     0.209 HD
ENDBRANCH  29  30
ENDBRANCH  26  29
ENDBRANCH  16  26
BRANCH  14  32
HETATM   32  N7  UNL     1       4.385 -31.429  -3.613  1.00  0.00    -0.069 N 
ATOM     33  H73 UNL     1       4.154 -31.896  -2.736  1.00  0.00     0.275 HD
ATOM     34  H72 UNL     1       3.740 -30.656  -3.448  1.00  0.00     0.275 HD
ATOM     35  H71 UNL     1       4.246 -31.967  -4.469  1.00  0.00     0.275 HD
ENDBRANCH  14  32
ENDBRANCH  10  11
ENDBRANCH   9  10
BRANCH   1  36
HETATM   36  C2  UNL     1       5.277 -31.562  -7.817  1.00  0.00     0.213 C 
BRANCH  36  37
HETATM   37  C1  UNL     1       6.608 -30.931  -8.032  1.00  0.00     0.089 C 
BRANCH  37  38
HETATM   38  N1  UNL     1       7.152 -30.238  -7.066  1.00  0.00    -0.388 N 
ATOM     39  H12 UNL     1       7.247 -30.696  -6.160  1.00  0.00     0.157 HD
ATOM     40  H11 UNL     1       7.456 -29.282  -7.248  1.00  0.00     0.157 HD
ENDBRANCH  37  38
BRANCH  37  41
HETATM   41  N8  UNL     1       7.333 -31.037  -9.234  1.00  0.00    -0.377 N 
ATOM     42  H8  UNL     1       7.938 -30.264  -9.513  1.00  0.00     0.160 HD
BRANCH  41  43
HETATM   43  C17 UNL     1       7.251 -32.201 -10.087  1.00  0.00     0.148 C 
BRANCH  43  44
HETATM   44  C18 UNL     1       7.009 -31.821 -11.531  1.00  0.00     0.249 C 
BRANCH  44  45
HETATM   45  N9  UNL     1       6.329 -30.564 -11.655  1.00  0.00    -0.078 N 
ATOM     46  H93 UNL     1       5.373 -30.693 -11.986  1.00  0.00     0.274 HD
ATOM     47  H92 UNL     1       6.132 -30.160 -10.740  1.00  0.00     0.274 HD
ATOM     48  H91 UNL     1       6.838 -29.906 -12.246  1.00  0.00     0.274 HD
ENDBRANCH  44  45
ENDBRANCH  43  44
ENDBRANCH  41  43
ENDBRANCH  37  41
ENDBRANCH  36  37
ENDBRANCH   1  36
BRANCH   6  49
HETATM   49  N4  UNL     1       1.031 -28.302  -9.068  1.00  0.00    -0.098 N 
ATOM     50  H4  UNL     1       1.069 -27.293  -8.920  1.00  0.00     0.213 HD
BRANCH  49  51
HETATM   51  O2  UNL     1      -0.100 -28.897  -9.613  1.00  0.00    -0.276 OA
ATOM     52  H2  UNL     1      -0.386 -29.734  -9.265  1.00  0.00     0.245 HD
ENDBRANCH  49  51
ENDBRANCH   6  49
TORSDOF 18
ENDMDL
MODEL 4
REMARK VINA RESULT: -6.532244482      2.156      2.663
REMARK  18 active torsions:
REMARK  status: ('A' for Active; 'I' for Inactive)
REMARK    1  A    between atoms: N1_1  and  C1_4 
REMARK    2  A    between atoms: C1_4  and  C2_5 
REMARK    3  A    between atoms: C1_4  and  N8_45 
REMARK    4  A    between atoms: C2_5  and  N2_6 
REMARK    5  A    between atoms: C4_11  and  N4_12 
REMARK    6  A    between atoms: N4_12  and  O2_14 
REMARK    7  A    between atoms: C5_18  and  N6_19 
REMARK    8  A    between atoms: N6_19  and  C6_20 
REMARK    9  A    between atoms: C6_20  and  O3_21 
REMARK   10  A    between atoms: C10_28  and  C11_29 
REMARK   11  A    between atoms: C13_33  and  C14_34 
REMARK   12  A    between atoms: C14_34  and  O8_35 
REMARK   13  A    between atoms: C14_34  and  C15_37 
REMARK   14  A    between atoms: C15_37  and  O9_38 
REMARK   15  A    between atoms: C16_40  and  N7_41 
REMARK   16  A    between atoms: N8_45  and  C17_47 
REMARK   17  A    between atoms: C17_47  and  C18_48 
REMARK   18  A    between atoms: C18_48  and  N9_49 
ROOT
HETATM    1  N2  UNL     1       5.679 -31.664 -11.717  1.00  0.00    -0.251 N 
HETATM    2  C3  UNL     1       4.943 -31.382 -12.824  1.00  0.00     0.344 A 
HETATM    3  O1  UNL     1       5.477 -31.578 -13.965  1.00  0.00    -0.246 OA
HETATM    4  N3  UNL     1       3.688 -30.910 -12.734  1.00  0.00    -0.139 N 
ATOM      5  H3  UNL     1       3.166 -30.711 -13.588  1.00  0.00     0.189 HD
HETATM    6  C4  UNL     1       3.106 -30.696 -11.540  1.00  0.00     0.709 A 
HETATM    7  N5  UNL     1       3.811 -30.966 -10.451  1.00  0.00    -0.146 N 
ATOM      8  H5  UNL     1       3.387 -30.810  -9.536  1.00  0.00     0.188 HD
HETATM    9  C5  UNL     1       5.112 -31.457 -10.517  1.00  0.00     0.282 A 
ENDROOT
BRANCH   9  10
HETATM   10  N6  UNL     1       5.669 -31.714  -9.486  1.00  0.00    -0.344 NA
BRANCH  10  11
HETATM   11  C6  UNL     1       5.921 -32.143  -8.247  1.00  0.00     0.229 C 
HETATM   12  C7  UNL     1       5.212 -31.988  -7.005  1.00  0.00     0.070 C 
HETATM   13  C8  UNL     1       4.811 -31.977  -5.960  1.00  0.00     0.077 C 
HETATM   14  C16 UNL     1       4.997 -30.200  -6.765  1.00  0.00     0.253 C 
HETATM   15  O4  UNL     1       3.445 -31.121  -6.441  1.00  0.00    -0.281 OA
HETATM   16  C13 UNL     1       4.715 -32.193  -4.599  1.00  0.00     0.076 C 
HETATM   17  C9  UNL     1       2.982 -30.896  -5.356  1.00  0.00     0.285 C 
HETATM   18  O5  UNL     1       2.514 -30.669  -4.263  1.00  0.00    -0.263 OA
HETATM   19  C10 UNL     1       4.574 -29.932  -5.358  1.00  0.00     0.169 C 
HETATM   20  C12 UNL     1       5.104 -30.646  -4.211  1.00  0.00     0.047 C 
BRANCH  11  21
HETATM   21  O3  UNL     1       7.052 -32.843  -8.171  1.00  0.00    -0.335 OA
ATOM     22  H3  UNL     1       7.049 -33.459  -7.448  1.00  0.00     0.220 HD
ENDBRANCH  11  21
BRANCH  19  23
HETATM   23  C11 UNL     1       3.959 -28.648  -5.205  1.00  0.00     0.194 C 
HETATM   24  O6  UNL     1       3.775 -27.898  -6.219  1.00  0.00    -0.647 OA
HETATM   25  O7  UNL     1       3.535 -28.140  -3.989  1.00  0.00    -0.647 OA
ENDBRANCH  19  23
BRANCH  16  26
HETATM   26  C14 UNL     1       5.808 -33.039  -3.962  1.00  0.00     0.152 C 
BRANCH  26  27
HETATM   27  O8  UNL     1       5.157 -33.996  -3.189  1.00  0.00    -0.393 OA
ATOM     28  H8  UNL     1       4.368 -34.229  -3.663  1.00  0.00     0.210 HD
ENDBRANCH  26  27
BRANCH  26  29
HETATM   29  C15 UNL     1       6.608 -32.166  -3.053  1.00  0.00     0.196 C 
BRANCH  29  30
HETATM   30  O9  UNL     1       6.918 -32.893  -1.896  1.00  0.00    -0.398 OA
ATOM     31  H9  UNL     1       6.196 -32.811  -1.285  1.00  0.00     0.209 HD
ENDBRANCH  29  30
ENDBRANCH  26  29
ENDBRANCH  16  26
BRANCH  14  32
HETATM   32  N7  UNL     1       6.323 -29.803  -7.058  1.00  0.00    -0.069 N 
ATOM     33  H73 UNL     1       6.544 -29.634  -8.039  1.00  0.00     0.275 HD
ATOM     34  H72 UNL     1       6.595 -28.864  -6.767  1.00  0.00     0.275 HD
ATOM     35  H71 UNL     1       6.807 -30.579  -6.606  1.00  0.00     0.275 HD
ENDBRANCH  14  32
ENDBRANCH  10  11
ENDBRANCH   9  10
BRANCH   1  36
HETATM   36  C2  UNL     1       7.020 -32.182 -11.931  1.00  0.00     0.213 C 
BRANCH  36  37
HETATM   37  C1  UNL     1       8.074 -31.348 -11.291  1.00  0.00     0.089 C 
BRANCH  37  38
HETATM   38  N1  UNL     1       8.867 -31.887 -10.403  1.00  0.00    -0.388 N 
ATOM     39  H12 UNL     1       9.584 -32.527 -10.746  1.00  0.00     0.157 HD
ATOM     40  H11 UNL     1       8.745 -31.654  -9.418  1.00  0.00     0.157 HD
ENDBRANCH  37  38
BRANCH  37  41
HETATM   41  N8  UNL     1       8.275 -29.987 -11.590  1.00  0.00    -0.377 N 
ATOM     42  H8  UNL     1       7.902 -29.283 -10.953  1.00  0.00     0.160 HD
BRANCH  41  43
HETATM   43  C17 UNL     1       8.991 -29.550 -12.768  1.00  0.00     0.148 C 
BRANCH  43  44
HETATM   44  C18 UNL     1       8.048 -29.216 -13.903  1.00  0.00     0.249 C 
BRANCH  44  45
HETATM   45  N9  UNL     1       6.822 -28.635 -13.439  1.00  0.00    -0.078 N 
ATOM     46  H93 UNL     1       6.773 -27.643 -13.671  1.00  0.00     0.274 HD
ATOM     47  H92 UNL     1       6.027 -28.969 -13.983  1.00  0.00     0.274 HD
ATOM     48  H91 UNL     1       6.675 -28.787 -12.441  1.00  0.00     0.274 HD
ENDBRANCH  44  45
ENDBRANCH  43  44
ENDBRANCH  41  43
ENDBRANCH  37  41
ENDBRANCH  36  37
ENDBRANCH   1  36
BRANCH   6  49
HETATM   49  N4  UNL     1       1.898 -30.241 -11.455  1.00  0.00    -0.098 N 
ATOM     50  H4  UNL     1       1.197 -30.492 -12.152  1.00  0.00     0.213 HD
BRANCH  49  51
HETATM   51  O2  UNL     1       1.577 -29.404 -10.394  1.00  0.00    -0.276 OA
ATOM     52  H2  UNL     1       2.199 -28.730 -10.142  1.00  0.00     0.245 HD
ENDBRANCH  49  51
ENDBRANCH   6  49
TORSDOF 18
ENDMDL
MODEL 5
REMARK VINA RESULT: -6.478308406      2.994      8.705
REMARK  18 active torsions:
REMARK  status: ('A' for Active; 'I' for Inactive)
REMARK    1  A    between atoms: N1_1  and  C1_4 
REMARK    2  A    between atoms: C1_4  and  C2_5 
REMARK    3  A    between atoms: C1_4  and  N8_45 
REMARK    4  A    between atoms: C2_5  and  N2_6 
REMARK    5  A    between atoms: C4_11  and  N4_12 
REMARK    6  A    between atoms: N4_12  and  O2_14 
REMARK    7  A    between atoms: C5_18  and  N6_19 
REMARK    8  A    between atoms: N6_19  and  C6_20 
REMARK    9  A    between atoms: C6_20  and  O3_21 
REMARK   10  A    between atoms: C10_28  and  C11_29 
REMARK   11  A    between atoms: C13_33  and  C14_34 
REMARK   12  A    between atoms: C14_34  and  O8_35 
REMARK   13  A    between atoms: C14_34  and  C15_37 
REMARK   14  A    between atoms: C15_37  and  O9_38 
REMARK   15  A    between atoms: C16_40  and  N7_41 
REMARK   16  A    between atoms: N8_45  and  C17_47 
REMARK   17  A    between atoms: C17_47  and  C18_48 
REMARK   18  A    between atoms: C18_48  and  N9_49 
ROOT
HETATM    1  N2  UNL     1       4.014 -29.809  -8.565  1.00  0.00    -0.251 N 
HETATM    2  C3  UNL     1       3.081 -29.265  -7.739  1.00  0.00     0.344 A 
HETATM    3  O1  UNL     1       3.387 -29.108  -6.512  1.00  0.00    -0.246 OA
HETATM    4  N3  UNL     1       1.869 -28.898  -8.189  1.00  0.00    -0.139 N 
ATOM      5  H3  UNL     1       1.196 -28.492  -7.539  1.00  0.00     0.189 HD
HETATM    6  C4  UNL     1       1.528 -29.056  -9.481  1.00  0.00     0.709 A 
HETATM    7  N5  UNL     1       2.425 -29.584 -10.299  1.00  0.00    -0.146 N 
ATOM      8  H5  UNL     1       2.184 -29.712 -11.282  1.00  0.00     0.188 HD
HETATM    9  C5  UNL     1       3.688 -29.971  -9.858  1.00  0.00     0.282 A 
ENDROOT
BRANCH   9  10
HETATM   10  N6  UNL     1       4.458 -30.405 -10.669  1.00  0.00    -0.344 NA
BRANCH  10  11
HETATM   11  C6  UNL     1       5.219 -31.235 -11.387  1.00  0.00     0.229 C 
HETATM   12  C7  UNL     1       5.885 -31.087 -12.654  1.00  0.00     0.070 C 
HETATM   13  C8  UNL     1       6.465 -31.161 -13.608  1.00  0.00     0.077 C 
HETATM   14  C16 UNL     1       4.603 -30.601 -13.845  1.00  0.00     0.253 C 
HETATM   15  O4  UNL     1       6.108 -29.567 -14.007  1.00  0.00    -0.281 OA
HETATM   16  C13 UNL     1       7.240 -31.686 -14.624  1.00  0.00     0.076 C 
HETATM   17  C9  UNL     1       6.554 -29.556 -15.122  1.00  0.00     0.285 C 
HETATM   18  O5  UNL     1       7.003 -29.543 -16.246  1.00  0.00    -0.263 OA
HETATM   19  C10 UNL     1       5.130 -30.749 -15.235  1.00  0.00     0.169 C 
HETATM   20  C12 UNL     1       5.977 -31.849 -15.658  1.00  0.00     0.047 C 
BRANCH  11  21
HETATM   21  O3  UNL     1       5.375 -32.419 -10.799  1.00  0.00    -0.335 OA
ATOM     22  H3  UNL     1       4.590 -32.708 -10.349  1.00  0.00     0.220 HD
ENDBRANCH  11  21
BRANCH  19  23
HETATM   23  C11 UNL     1       4.383 -29.985 -16.189  1.00  0.00     0.194 C 
HETATM   24  O6  UNL     1       4.298 -30.373 -17.399  1.00  0.00    -0.647 OA
HETATM   25  O7  UNL     1       3.722 -28.807 -15.880  1.00  0.00    -0.647 OA
ENDBRANCH  19  23
BRANCH  16  26
HETATM   26  C14 UNL     1       7.762 -33.102 -14.425  1.00  0.00     0.152 C 
BRANCH  26  27
HETATM   27  O8  UNL     1       8.893 -32.989 -13.621  1.00  0.00    -0.393 OA
ATOM     28  H8  UNL     1       9.297 -32.160 -13.845  1.00  0.00     0.210 HD
ENDBRANCH  26  27
BRANCH  26  29
HETATM   29  C15 UNL     1       8.180 -33.640 -15.753  1.00  0.00     0.196 C 
BRANCH  29  30
HETATM   30  O9  UNL     1       7.789 -34.982 -15.833  1.00  0.00    -0.398 OA
ATOM     31  H9  UNL     1       7.858 -35.263 -16.738  1.00  0.00     0.209 HD
ENDBRANCH  29  30
ENDBRANCH  26  29
ENDBRANCH  16  26
BRANCH  14  32
HETATM   32  N7  UNL     1       3.629 -31.564 -13.488  1.00  0.00    -0.069 N 
ATOM     33  H73 UNL     1       3.365 -31.604 -12.504  1.00  0.00     0.275 HD
ATOM     34  H72 UNL     1       2.675 -31.389 -13.805  1.00  0.00     0.275 HD
ATOM     35  H71 UNL     1       4.096 -32.386 -13.872  1.00  0.00     0.275 HD
ENDBRANCH  14  32
ENDBRANCH  10  11
ENDBRANCH   9  10
BRANCH   1  36
HETATM   36  C2  UNL     1       5.295 -30.156  -7.974  1.00  0.00     0.213 C 
BRANCH  36  37
HETATM   37  C1  UNL     1       5.314 -31.526  -7.391  1.00  0.00     0.089 C 
BRANCH  37  38
HETATM   38  N1  UNL     1       6.179 -32.400  -7.834  1.00  0.00    -0.388 N 
ATOM     39  H12 UNL     1       6.071 -33.364  -7.518  1.00  0.00     0.157 HD
ATOM     40  H11 UNL     1       6.917 -32.095  -8.468  1.00  0.00     0.157 HD
ENDBRANCH  37  38
BRANCH  37  41
HETATM   41  N8  UNL     1       4.439 -31.948  -6.371  1.00  0.00    -0.377 N 
ATOM     42  H8  UNL     1       3.441 -32.002  -6.570  1.00  0.00     0.160 HD
BRANCH  41  43
HETATM   43  C17 UNL     1       4.907 -32.307  -5.051  1.00  0.00     0.148 C 
BRANCH  43  44
HETATM   44  C18 UNL     1       4.701 -31.183  -4.060  1.00  0.00     0.249 C 
BRANCH  44  45
HETATM   45  N9  UNL     1       3.334 -30.751  -4.003  1.00  0.00    -0.078 N 
ATOM     46  H93 UNL     1       3.271 -29.751  -3.817  1.00  0.00     0.274 HD
ATOM     47  H92 UNL     1       2.903 -30.773  -4.927  1.00  0.00     0.274 HD
ATOM     48  H91 UNL     1       2.788 -31.286  -3.329  1.00  0.00     0.274 HD
ENDBRANCH  44  45
ENDBRANCH  43  44
ENDBRANCH  41  43
ENDBRANCH  37  41
ENDBRANCH  36  37
ENDBRANCH   1  36
BRANCH   6  49
HETATM   49  N4  UNL     1       0.360 -28.703  -9.913  1.00  0.00    -0.098 N 
ATOM     50  H4  UNL     1       0.253 -28.270 -10.830  1.00  0.00     0.213 HD
BRANCH  49  51
HETATM   51  O2  UNL     1      -0.744 -28.926  -9.100  1.00  0.00    -0.276 OA
ATOM     52  H2  UNL     1      -0.834 -29.773  -8.678  1.00  0.00     0.245 HD
ENDBRANCH  49  51
ENDBRANCH   6  49
TORSDOF 18
ENDMDL
