MODEL 1
REMARK VINA RESULT: -7.898114221      0.000      0.000
REMARK  12 active torsions:
REMARK  status: ('A' for Active; 'I' for Inactive)
REMARK    1  A    between atoms: N1_2  and  C3_4 
REMARK    2  A    between atoms: N4_10  and  N5_12 
REMARK    3  A    between atoms: N5_12  and  C5_14 
REMARK    4  A    between atoms: C5_14  and  N6_15 
REMARK    5  A    between atoms: C5_14  and  C8_28 
REMARK       I    between atoms: N6_15  and  C6_17 
REMARK    6  A    between atoms: C6_17  and  C7_19 
REMARK       I    between atoms: C7_19  and  N7_21 
REMARK    7  A    between atoms: N7_21  and  O3_23 
REMARK    8  A    between atoms: O3_23  and  N8_24 
REMARK    9  A    between atoms: N8_24  and  N9_25 
REMARK   10  A    between atoms: C11_33  and  S1_34 
REMARK   11  A    between atoms: S1_34  and  N11_35 
REMARK   12  A    between atoms: C15_45  and  N13_46 
ROOT
HETATM    1  C5  UNL     1       3.630 -29.541  -4.213  1.00  0.00     0.268 C 
ENDROOT
BRANCH   1   2
HETATM    2  N5  UNL     1       4.149 -29.302  -5.533  1.00  0.00    -0.304 N 
ATOM      3  H5  UNL     1       5.135 -29.081  -5.666  1.00  0.00     0.183 HD
BRANCH   2   4
HETATM    4  N4  UNL     1       3.299 -29.376  -6.616  1.00  0.00    -0.283 N 
HETATM    5  C4  UNL     1       3.578 -29.812  -7.767  1.00  0.00     0.180 A 
HETATM    6  N3  UNL     1       4.806 -30.272  -8.060  1.00  0.00    -0.267 N 
HETATM    7  C15 UNL     1       2.625 -29.827  -8.763  1.00  0.00     0.162 A 
HETATM    8  N2  UNL     1       5.152 -30.739  -9.246  1.00  0.00    -0.130 N 
ATOM      9  H3  UNL     1       5.512 -30.261  -7.323  1.00  0.00     0.189 HD
HETATM   10  C3  UNL     1       4.231 -30.763 -10.236  1.00  0.00     0.695 A 
ATOM     11  H2  UNL     1       6.101 -31.076  -9.414  1.00  0.00     0.205 HD
HETATM   12  N14 UNL     1       2.989 -30.302  -9.960  1.00  0.00    -0.172 N 
ATOM     13  H14 UNL     1       2.293 -30.318 -10.705  1.00  0.00     0.186 HD
ATOM     14  H4  UNL     1       2.346 -29.043  -6.471  1.00  0.00     0.188 HD
BRANCH  10  15
HETATM   15  N1  UNL     1       4.567 -31.258 -11.526  1.00  0.00    -0.225 N 
HETATM   16  C1  UNL     1       5.920 -31.725 -11.725  1.00  0.00     0.168 C 
HETATM   17  C2  UNL     1       3.642 -31.315 -12.624  1.00  0.00     0.168 C 
ENDBRANCH  10  15
BRANCH   7  18
HETATM   18  N13 UNL     1       1.435 -29.392  -8.518  1.00  0.00    -0.382 N 
ATOM     19 2H13 UNL     1       1.091 -29.234  -7.571  1.00  0.00     0.157 HD
ATOM     20 1H13 UNL     1       0.799 -29.193  -9.290  1.00  0.00     0.157 HD
ENDBRANCH   7  18
ENDBRANCH   2   4
ENDBRANCH   1   2
BRANCH   1  21
HETATM   21  N6  UNL     1       3.575 -31.006  -4.075  1.00  0.00    -0.324 N 
HETATM   22  C6  UNL     1       4.546 -31.868  -4.642  1.00  0.00     0.313 C 
HETATM   23  O1  UNL     1       5.515 -31.427  -5.300  1.00  0.00    -0.262 OA
ATOM     24  H6  UNL     1       2.805 -31.418  -3.548  1.00  0.00     0.165 HD
BRANCH  22  25
HETATM   25  C7  UNL     1       4.403 -33.298  -4.447  1.00  0.00     0.334 C 
HETATM   26  O2  UNL     1       3.435 -33.894  -4.991  1.00  0.00    -0.260 OA
HETATM   27  N7  UNL     1       5.305 -34.050  -3.669  1.00  0.00    -0.203 N 
ATOM     28  H7  UNL     1       6.097 -33.590  -3.219  1.00  0.00     0.200 HD
BRANCH  27  29
HETATM   29  O3  UNL     1       5.121 -35.394  -3.518  1.00  0.00    -0.140 OA
BRANCH  29  30
HETATM   30  N8  UNL     1       6.173 -35.879  -2.791  1.00  0.00     0.040 NA
BRANCH  30  31
HETATM   31  N9  UNL     1       6.152 -37.286  -2.797  1.00  0.00    -0.321 N 
ATOM     32  H92 UNL     1       5.816 -37.852  -3.577  1.00  0.00     0.174 HD
ATOM     33  H91 UNL     1       6.520 -37.644  -1.916  1.00  0.00     0.174 HD
ENDBRANCH  30  31
ENDBRANCH  29  30
ENDBRANCH  27  29
ENDBRANCH  22  25
ENDBRANCH   1  21
BRANCH   1  34
HETATM   34  C8  UNL     1       4.663 -29.112  -3.197  1.00  0.00     0.127 A 
HETATM   35  N10 UNL     1       4.460 -28.767  -1.971  1.00  0.00    -0.341 N 
HETATM   36  C9  UNL     1       5.667 -28.424  -1.317  1.00  0.00     0.062 A 
ATOM     37  H10 UNL     1       3.542 -28.745  -1.527  1.00  0.00     0.167 HD
HETATM   38  C10 UNL     1       5.944 -27.994  -0.011  1.00  0.00     0.057 A 
HETATM   39  C14 UNL     1       6.696 -28.575  -2.231  1.00  0.00     0.060 A 
HETATM   40  C11 UNL     1       7.234 -27.716   0.386  1.00  0.00     0.081 A 
HETATM   41  C12 UNL     1       8.223 -27.881  -0.551  1.00  0.00     0.027 A 
HETATM   42  C13 UNL     1       7.970 -28.303  -1.845  1.00  0.00     0.033 A 
HETATM   43  N12 UNL     1       6.059 -29.017  -3.440  1.00  0.00    -0.341 N 
ATOM     44  H12 UNL     1       6.528 -29.226  -4.321  1.00  0.00     0.167 HD
BRANCH  40  45
HETATM   45  S1  UNL     1       7.592 -27.150   2.022  1.00  0.00     0.256 S 
HETATM   46  O4  UNL     1       6.396 -26.597   2.708  1.00  0.00    -0.201 OA
HETATM   47  O5  UNL     1       8.701 -26.134   1.919  1.00  0.00    -0.201 OA
BRANCH  45  48
HETATM   48  N11 UNL     1       8.263 -28.502   2.907  1.00  0.00    -0.324 N 
ATOM     49 2H11 UNL     1       9.248 -28.764   2.933  1.00  0.00     0.169 HD
ATOM     50 1H11 UNL     1       7.490 -28.968   3.382  1.00  0.00     0.169 HD
ENDBRANCH  45  48
ENDBRANCH  40  45
ENDBRANCH   1  34
TORSDOF 12
ENDMDL
MODEL 2
REMARK VINA RESULT: -7.892316950      1.070      1.138
REMARK  12 active torsions:
REMARK  status: ('A' for Active; 'I' for Inactive)
REMARK    1  A    between atoms: N1_2  and  C3_4 
REMARK    2  A    between atoms: N4_10  and  N5_12 
REMARK    3  A    between atoms: N5_12  and  C5_14 
REMARK    4  A    between atoms: C5_14  and  N6_15 
REMARK    5  A    between atoms: C5_14  and  C8_28 
REMARK       I    between atoms: N6_15  and  C6_17 
REMARK    6  A    between atoms: C6_17  and  C7_19 
REMARK       I    between atoms: C7_19  and  N7_21 
REMARK    7  A    between atoms: N7_21  and  O3_23 
REMARK    8  A    between atoms: O3_23  and  N8_24 
REMARK    9  A    between atoms: N8_24  and  N9_25 
REMARK   10  A    between atoms: C11_33  and  S1_34 
REMARK   11  A    between atoms: S1_34  and  N11_35 
REMARK   12  A    between atoms: C15_45  and  N13_46 
ROOT
HETATM    1  C5  UNL     1       4.060 -30.090  -4.139  1.00  0.00     0.268 C 
ENDROOT
BRANCH   1   2
HETATM    2  N5  UNL     1       4.470 -29.579  -5.419  1.00  0.00    -0.304 N 
ATOM      3  H5  UNL     1       5.407 -29.198  -5.545  1.00  0.00     0.183 HD
BRANCH   2   4
HETATM    4  N4  UNL     1       3.583 -29.611  -6.473  1.00  0.00    -0.283 N 
HETATM    5  C4  UNL     1       3.824 -29.993  -7.653  1.00  0.00     0.180 A 
HETATM    6  N3  UNL     1       5.045 -30.428  -8.008  1.00  0.00    -0.267 N 
HETATM    7  C15 UNL     1       2.837 -29.971  -8.614  1.00  0.00     0.162 A 
HETATM    8  N2  UNL     1       5.353 -30.838  -9.226  1.00  0.00    -0.130 N 
ATOM      9  H3  UNL     1       5.776 -30.444  -7.297  1.00  0.00     0.189 HD
HETATM   10  C3  UNL     1       4.398 -30.826 -10.183  1.00  0.00     0.695 A 
ATOM     11  H2  UNL     1       6.297 -31.159  -9.442  1.00  0.00     0.205 HD
HETATM   12  N14 UNL     1       3.163 -30.388  -9.844  1.00  0.00    -0.172 N 
ATOM     13  H14 UNL     1       2.441 -30.376 -10.564  1.00  0.00     0.186 HD
ATOM     14  H4  UNL     1       2.633 -29.294  -6.281  1.00  0.00     0.188 HD
BRANCH  10  15
HETATM   15  N1  UNL     1       4.691 -31.258 -11.505  1.00  0.00    -0.225 N 
HETATM   16  C1  UNL     1       6.057 -31.635 -11.792  1.00  0.00     0.168 C 
HETATM   17  C2  UNL     1       3.713 -31.339 -12.555  1.00  0.00     0.168 C 
ENDBRANCH  10  15
BRANCH   7  18
HETATM   18  N13 UNL     1       1.654 -29.558  -8.308  1.00  0.00    -0.382 N 
ATOM     19 2H13 UNL     1       1.308 -28.636  -8.571  1.00  0.00     0.157 HD
ATOM     20 1H13 UNL     1       1.026 -30.165  -7.782  1.00  0.00     0.157 HD
ENDBRANCH   7  18
ENDBRANCH   2   4
ENDBRANCH   1   2
BRANCH   1  21
HETATM   21  N6  UNL     1       4.489 -31.498  -4.124  1.00  0.00    -0.324 N 
HETATM   22  C6  UNL     1       3.745 -32.534  -4.742  1.00  0.00     0.313 C 
HETATM   23  O1  UNL     1       2.670 -32.307  -5.341  1.00  0.00    -0.262 OA
ATOM     24  H6  UNL     1       5.359 -31.739  -3.649  1.00  0.00     0.165 HD
BRANCH  22  25
HETATM   25  C7  UNL     1       4.255 -33.890  -4.673  1.00  0.00     0.334 C 
HETATM   26  O2  UNL     1       3.439 -34.850  -4.687  1.00  0.00    -0.260 OA
HETATM   27  N7  UNL     1       5.631 -34.178  -4.589  1.00  0.00    -0.203 N 
ATOM     28  H7  UNL     1       6.311 -33.417  -4.576  1.00  0.00     0.200 HD
BRANCH  27  29
HETATM   29  O3  UNL     1       6.056 -35.474  -4.525  1.00  0.00    -0.140 OA
BRANCH  29  30
HETATM   30  N8  UNL     1       5.939 -35.886  -3.227  1.00  0.00     0.040 NA
BRANCH  30  31
HETATM   31  N9  UNL     1       5.246 -37.110  -3.172  1.00  0.00    -0.321 N 
ATOM     32  H92 UNL     1       4.334 -37.273  -3.600  1.00  0.00     0.174 HD
ATOM     33  H91 UNL     1       5.789 -37.796  -2.648  1.00  0.00     0.174 HD
ENDBRANCH  30  31
ENDBRANCH  29  30
ENDBRANCH  27  29
ENDBRANCH  22  25
ENDBRANCH   1  21
BRANCH   1  34
HETATM   34  C8  UNL     1       4.896 -29.437  -3.062  1.00  0.00     0.127 A 
HETATM   35  N10 UNL     1       4.479 -28.884  -1.974  1.00  0.00    -0.341 N 
HETATM   36  C9  UNL     1       5.550 -28.375  -1.203  1.00  0.00     0.062 A 
ATOM     37  H10 UNL     1       3.498 -28.822  -1.703  1.00  0.00     0.167 HD
HETATM   38  C10 UNL     1       5.591 -27.702   0.028  1.00  0.00     0.057 A 
HETATM   39  C14 UNL     1       6.724 -28.644  -1.885  1.00  0.00     0.060 A 
HETATM   40  C11 UNL     1       6.790 -27.299   0.577  1.00  0.00     0.081 A 
HETATM   41  C12 UNL     1       7.928 -27.589  -0.133  1.00  0.00     0.027 A 
HETATM   42  C13 UNL     1       7.909 -28.251  -1.348  1.00  0.00     0.033 A 
HETATM   43  N12 UNL     1       6.312 -29.327  -3.080  1.00  0.00    -0.341 N 
ATOM     44  H12 UNL     1       6.929 -29.672  -3.815  1.00  0.00     0.167 HD
BRANCH  40  45
HETATM   45  S1  UNL     1       6.851 -26.429   2.114  1.00  0.00     0.256 S 
HETATM   46  O4  UNL     1       7.681 -25.199   2.040  1.00  0.00    -0.201 OA
HETATM   47  O5  UNL     1       7.361 -27.389   3.160  1.00  0.00    -0.201 OA
BRANCH  45  48
HETATM   48  N11 UNL     1       5.204 -26.057   2.569  1.00  0.00    -0.324 N 
ATOM     49 2H11 UNL     1       4.545 -26.707   2.996  1.00  0.00     0.169 HD
ATOM     50 1H11 UNL     1       5.035 -25.080   2.329  1.00  0.00     0.169 HD
ENDBRANCH  45  48
ENDBRANCH  40  45
ENDBRANCH   1  34
TORSDOF 12
ENDMDL
MODEL 3
REMARK VINA RESULT: -7.847896239      5.507      9.899
REMARK  12 active torsions:
REMARK  status: ('A' for Active; 'I' for Inactive)
REMARK    1  A    between atoms: N1_2  and  C3_4 
REMARK    2  A    between atoms: N4_10  and  N5_12 
REMARK    3  A    between atoms: N5_12  and  C5_14 
REMARK    4  A    between atoms: C5_14  and  N6_15 
REMARK    5  A    between atoms: C5_14  and  C8_28 
REMARK       I    between atoms: N6_15  and  C6_17 
REMARK    6  A    between atoms: C6_17  and  C7_19 
REMARK       I    between atoms: C7_19  and  N7_21 
REMARK    7  A    between atoms: N7_21  and  O3_23 
REMARK    8  A    between atoms: O3_23  and  N8_24 
REMARK    9  A    between atoms: N8_24  and  N9_25 
REMARK   10  A    between atoms: C11_33  and  S1_34 
REMARK   11  A    between atoms: S1_34  and  N11_35 
REMARK   12  A    between atoms: C15_45  and  N13_46 
ROOT
HETATM    1  C5  UNL     1       5.901 -30.153 -12.986  1.00  0.00     0.268 C 
ENDROOT
BRANCH   1   2
HETATM    2  N5  UNL     1       4.973 -29.766 -14.014  1.00  0.00    -0.304 N 
ATOM      3  H5  UNL     1       4.001 -29.563 -13.781  1.00  0.00     0.183 HD
BRANCH   2   4
HETATM    4  N4  UNL     1       5.412 -29.673 -15.317  1.00  0.00    -0.283 N 
HETATM    5  C4  UNL     1       5.173 -30.484 -16.255  1.00  0.00     0.180 A 
HETATM    6  N3  UNL     1       4.424 -31.581 -16.053  1.00  0.00    -0.267 N 
HETATM    7  C15 UNL     1       5.679 -30.267 -17.518  1.00  0.00     0.162 A 
HETATM    8  N2  UNL     1       4.143 -32.463 -16.996  1.00  0.00    -0.130 N 
ATOM      9  H3  UNL     1       4.049 -31.742 -15.117  1.00  0.00     0.189 HD
HETATM   10  C3  UNL     1       4.629 -32.267 -18.243  1.00  0.00     0.695 A 
ATOM     11  H2  UNL     1       3.568 -33.280 -16.787  1.00  0.00     0.205 HD
HETATM   12  N14 UNL     1       5.388 -31.168 -18.464  1.00  0.00    -0.172 N 
ATOM     13  H14 UNL     1       5.757 -31.019 -19.402  1.00  0.00     0.186 HD
ATOM     14  H4  UNL     1       5.989 -28.864 -15.548  1.00  0.00     0.188 HD
BRANCH  10  15
HETATM   15  N1  UNL     1       4.350 -33.194 -19.283  1.00  0.00    -0.225 N 
HETATM   16  C1  UNL     1       5.060 -34.453 -19.258  1.00  0.00     0.168 C 
HETATM   17  C2  UNL     1       3.410 -32.947 -20.342  1.00  0.00     0.168 C 
ENDBRANCH  10  15
BRANCH   7  18
HETATM   18  N13 UNL     1       6.404 -29.225 -17.747  1.00  0.00    -0.382 N 
ATOM     19 2H13 UNL     1       6.200 -28.567 -18.499  1.00  0.00     0.157 HD
ATOM     20 1H13 UNL     1       7.218 -29.035 -17.163  1.00  0.00     0.157 HD
ENDBRANCH   7  18
ENDBRANCH   2   4
ENDBRANCH   1   2
BRANCH   1  21
HETATM   21  N6  UNL     1       6.808 -29.005 -12.824  1.00  0.00    -0.324 N 
HETATM   22  C6  UNL     1       8.201 -29.151 -12.612  1.00  0.00     0.313 C 
HETATM   23  O1  UNL     1       8.744 -30.277 -12.548  1.00  0.00    -0.262 OA
ATOM     24  H6  UNL     1       6.417 -28.064 -12.868  1.00  0.00     0.165 HD
BRANCH  22  25
HETATM   25  C7  UNL     1       9.009 -27.955 -12.467  1.00  0.00     0.334 C 
HETATM   26  O2  UNL     1      10.261 -28.072 -12.382  1.00  0.00    -0.260 OA
HETATM   27  N7  UNL     1       8.449 -26.665 -12.416  1.00  0.00    -0.203 N 
ATOM     28  H7  UNL     1       7.437 -26.545 -12.482  1.00  0.00     0.200 HD
BRANCH  27  29
HETATM   29  O3  UNL     1       9.257 -25.573 -12.277  1.00  0.00    -0.140 OA
BRANCH  29  30
HETATM   30  N8  UNL     1       8.607 -24.501 -12.822  1.00  0.00     0.040 NA
BRANCH  30  31
HETATM   31  N9  UNL     1       7.242 -24.542 -12.480  1.00  0.00    -0.321 N 
ATOM     32  H92 UNL     1       6.528 -25.024 -13.027  1.00  0.00     0.174 HD
ATOM     33  H91 UNL     1       7.084 -24.025 -11.615  1.00  0.00     0.174 HD
ENDBRANCH  30  31
ENDBRANCH  29  30
ENDBRANCH  27  29
ENDBRANCH  22  25
ENDBRANCH   1  21
BRANCH   1  34
HETATM   34  C8  UNL     1       5.164 -30.231 -11.668  1.00  0.00     0.127 A 
HETATM   35  N10 UNL     1       5.499 -30.906 -10.622  1.00  0.00    -0.341 N 
HETATM   36  C9  UNL     1       4.567 -30.740  -9.571  1.00  0.00     0.062 A 
ATOM     37  H10 UNL     1       6.334 -31.489 -10.560  1.00  0.00     0.167 HD
HETATM   38  C10 UNL     1       4.506 -31.265  -8.271  1.00  0.00     0.057 A 
HETATM   39  C14 UNL     1       3.576 -29.885 -10.021  1.00  0.00     0.060 A 
HETATM   40  C11 UNL     1       3.467 -30.943  -7.424  1.00  0.00     0.081 A 
HETATM   41  C12 UNL     1       2.507 -30.091  -7.911  1.00  0.00     0.027 A 
HETATM   42  C13 UNL     1       2.550 -29.563  -9.190  1.00  0.00     0.033 A 
HETATM   43  N12 UNL     1       3.953 -29.554 -11.367  1.00  0.00    -0.341 N 
ATOM     44  H12 UNL     1       3.439 -28.939 -11.998  1.00  0.00     0.167 HD
BRANCH  40  45
HETATM   45  S1  UNL     1       3.366 -31.618  -5.793  1.00  0.00     0.256 S 
HETATM   46  O4  UNL     1       4.636 -32.255  -5.360  1.00  0.00    -0.201 OA
HETATM   47  O5  UNL     1       2.214 -32.591  -5.774  1.00  0.00    -0.201 OA
BRANCH  45  48
HETATM   48  N11 UNL     1       2.911 -30.316  -4.717  1.00  0.00    -0.324 N 
ATOM     49 2H11 UNL     1       3.413 -30.040  -3.874  1.00  0.00     0.169 HD
ATOM     50 1H11 UNL     1       2.060 -29.896  -5.091  1.00  0.00     0.169 HD
ENDBRANCH  45  48
ENDBRANCH  40  45
ENDBRANCH   1  34
TORSDOF 12
ENDMDL
MODEL 4
REMARK VINA RESULT: -7.845693140      5.428      9.703
REMARK  12 active torsions:
REMARK  status: ('A' for Active; 'I' for Inactive)
REMARK    1  A    between atoms: N1_2  and  C3_4 
REMARK    2  A    between atoms: N4_10  and  N5_12 
REMARK    3  A    between atoms: N5_12  and  C5_14 
REMARK    4  A    between atoms: C5_14  and  N6_15 
REMARK    5  A    between atoms: C5_14  and  C8_28 
REMARK       I    between atoms: N6_15  and  C6_17 
REMARK    6  A    between atoms: C6_17  and  C7_19 
REMARK       I    between atoms: C7_19  and  N7_21 
REMARK    7  A    between atoms: N7_21  and  O3_23 
REMARK    8  A    between atoms: O3_23  and  N8_24 
REMARK    9  A    between atoms: N8_24  and  N9_25 
REMARK   10  A    between atoms: C11_33  and  S1_34 
REMARK   11  A    between atoms: S1_34  and  N11_35 
REMARK   12  A    between atoms: C15_45  and  N13_46 
ROOT
HETATM    1  C5  UNL     1       5.975 -30.433 -12.478  1.00  0.00     0.268 C 
ENDROOT
BRANCH   1   2
HETATM    2  N5  UNL     1       5.078 -29.920 -13.478  1.00  0.00    -0.304 N 
ATOM      3  H5  UNL     1       4.587 -29.039 -13.328  1.00  0.00     0.183 HD
BRANCH   2   4
HETATM    4  N4  UNL     1       4.889 -30.633 -14.643  1.00  0.00    -0.283 N 
HETATM    5  C4  UNL     1       5.417 -30.398 -15.766  1.00  0.00     0.180 A 
HETATM    6  N3  UNL     1       6.262 -29.367 -15.938  1.00  0.00    -0.267 N 
HETATM    7  C15 UNL     1       5.137 -31.197 -16.854  1.00  0.00     0.162 A 
HETATM    8  N2  UNL     1       6.840 -29.076 -17.090  1.00  0.00    -0.130 N 
ATOM      9  H3  UNL     1       6.468 -28.776 -15.133  1.00  0.00     0.189 HD
HETATM   10  C3  UNL     1       6.580 -29.848 -18.168  1.00  0.00     0.695 A 
ATOM     11  H2  UNL     1       7.474 -28.280 -17.164  1.00  0.00     0.205 HD
HETATM   12  N14 UNL     1       5.730 -30.890 -18.014  1.00  0.00    -0.172 N 
ATOM     13  H14 UNL     1       5.531 -31.473 -18.827  1.00  0.00     0.186 HD
ATOM     14  H4  UNL     1       4.259 -31.432 -14.592  1.00  0.00     0.188 HD
BRANCH  10  15
HETATM   15  N1  UNL     1       7.183 -29.565 -19.424  1.00  0.00    -0.225 N 
HETATM   16  C1  UNL     1       7.354 -30.669 -20.342  1.00  0.00     0.168 C 
HETATM   17  C2  UNL     1       7.625 -28.256 -19.821  1.00  0.00     0.168 C 
ENDBRANCH  10  15
BRANCH   7  18
HETATM   18  N13 UNL     1       4.330 -32.195 -16.726  1.00  0.00    -0.382 N 
ATOM     19 2H13 UNL     1       4.654 -33.148 -16.562  1.00  0.00     0.157 HD
ATOM     20 1H13 UNL     1       3.323 -32.043 -16.787  1.00  0.00     0.157 HD
ENDBRANCH   7  18
ENDBRANCH   2   4
ENDBRANCH   1   2
BRANCH   1  21
HETATM   21  N6  UNL     1       6.975 -29.373 -12.270  1.00  0.00    -0.324 N 
HETATM   22  C6  UNL     1       8.150 -29.262 -13.055  1.00  0.00     0.313 C 
HETATM   23  O1  UNL     1       8.405 -30.068 -13.977  1.00  0.00    -0.262 OA
ATOM     24  H6  UNL     1       6.817 -28.690 -11.530  1.00  0.00     0.165 HD
BRANCH  22  25
HETATM   25  C7  UNL     1       9.074 -28.180 -12.770  1.00  0.00     0.334 C 
HETATM   26  O2  UNL     1      10.312 -28.400 -12.847  1.00  0.00    -0.260 OA
HETATM   27  N7  UNL     1       8.640 -26.890 -12.410  1.00  0.00    -0.203 N 
ATOM     28  H7  UNL     1       7.642 -26.688 -12.342  1.00  0.00     0.200 HD
BRANCH  27  29
HETATM   29  O3  UNL     1       9.554 -25.909 -12.153  1.00  0.00    -0.140 OA
BRANCH  29  30
HETATM   30  N8  UNL     1       9.093 -24.752 -12.718  1.00  0.00     0.040 NA
BRANCH  30  31
HETATM   31  N9  UNL     1       7.705 -24.641 -12.521  1.00  0.00    -0.321 N 
ATOM     32  H92 UNL     1       7.009 -25.213 -13.000  1.00  0.00     0.174 HD
ATOM     33  H91 UNL     1       7.508 -23.911 -11.835  1.00  0.00     0.174 HD
ENDBRANCH  30  31
ENDBRANCH  29  30
ENDBRANCH  27  29
ENDBRANCH  22  25
ENDBRANCH   1  21
BRANCH   1  34
HETATM   34  C8  UNL     1       5.240 -30.512 -11.159  1.00  0.00     0.127 A 
HETATM   35  N10 UNL     1       5.658 -31.040 -10.060  1.00  0.00    -0.341 N 
HETATM   36  C9  UNL     1       4.697 -30.931  -9.027  1.00  0.00     0.062 A 
ATOM     37  H10 UNL     1       6.571 -31.482  -9.948  1.00  0.00     0.167 HD
HETATM   38  C10 UNL     1       4.698 -31.350  -7.688  1.00  0.00     0.057 A 
HETATM   39  C14 UNL     1       3.595 -30.276  -9.549  1.00  0.00     0.060 A 
HETATM   40  C11 UNL     1       3.611 -31.120  -6.872  1.00  0.00     0.081 A 
HETATM   41  C12 UNL     1       2.541 -30.465  -7.430  1.00  0.00     0.027 A 
HETATM   42  C13 UNL     1       2.521 -30.045  -8.749  1.00  0.00     0.033 A 
HETATM   43  N12 UNL     1       3.937 -30.003 -10.917  1.00  0.00    -0.341 N 
ATOM     44  H12 UNL     1       3.345 -29.527 -11.597  1.00  0.00     0.167 HD
BRANCH  40  45
HETATM   45  S1  UNL     1       3.591 -31.665  -5.191  1.00  0.00     0.256 S 
HETATM   46  O4  UNL     1       4.925 -31.573  -4.545  1.00  0.00    -0.201 OA
HETATM   47  O5  UNL     1       3.055 -33.075  -5.177  1.00  0.00    -0.201 OA
BRANCH  45  48
HETATM   48  N11 UNL     1       2.407 -30.696  -4.342  1.00  0.00    -0.324 N 
ATOM     49 2H11 UNL     1       1.881 -29.919  -4.741  1.00  0.00     0.169 HD
ATOM     50 1H11 UNL     1       2.349 -31.053  -3.389  1.00  0.00     0.169 HD
ENDBRANCH  45  48
ENDBRANCH  40  45
ENDBRANCH   1  34
TORSDOF 12
ENDMDL
MODEL 5
REMARK VINA RESULT: -7.675605089      3.850      7.981
REMARK  12 active torsions:
REMARK  status: ('A' for Active; 'I' for Inactive)
REMARK    1  A    between atoms: N1_2  and  C3_4 
REMARK    2  A    between atoms: N4_10  and  N5_12 
REMARK    3  A    between atoms: N5_12  and  C5_14 
REMARK    4  A    between atoms: C5_14  and  N6_15 
REMARK    5  A    between atoms: C5_14  and  C8_28 
REMARK       I    between atoms: N6_15  and  C6_17 
REMARK    6  A    between atoms: C6_17  and  C7_19 
REMARK       I    between atoms: C7_19  and  N7_21 
REMARK    7  A    between atoms: N7_21  and  O3_23 
REMARK    8  A    between atoms: O3_23  and  N8_24 
REMARK    9  A    between atoms: N8_24  and  N9_25 
REMARK   10  A    between atoms: C11_33  and  S1_34 
REMARK   11  A    between atoms: S1_34  and  N11_35 
REMARK   12  A    between atoms: C15_45  and  N13_46 
ROOT
HETATM    1  C5  UNL     1       2.602 -31.703  -6.194  1.00  0.00     0.268 C 
ENDROOT
BRANCH   1   2
HETATM    2  N5  UNL     1       2.543 -30.511  -5.392  1.00  0.00    -0.304 N 
ATOM      3  H5  UNL     1       1.702 -30.291  -4.858  1.00  0.00     0.183 HD
BRANCH   2   4
HETATM    4  N4  UNL     1       3.634 -29.669  -5.352  1.00  0.00    -0.283 N 
HETATM    5  C4  UNL     1       4.379 -29.444  -4.358  1.00  0.00     0.180 A 
HETATM    6  N3  UNL     1       4.161 -30.042  -3.174  1.00  0.00    -0.267 N 
HETATM    7  C15 UNL     1       5.442 -28.573  -4.460  1.00  0.00     0.162 A 
HETATM    8  N2  UNL     1       4.908 -29.843  -2.102  1.00  0.00    -0.130 N 
ATOM      9  H3  UNL     1       3.373 -30.687  -3.099  1.00  0.00     0.189 HD
HETATM   10  C3  UNL     1       5.956 -28.993  -2.182  1.00  0.00     0.695 A 
ATOM     11  H2  UNL     1       4.696 -30.323  -1.227  1.00  0.00     0.205 HD
HETATM   12  N14 UNL     1       6.189 -28.380  -3.366  1.00  0.00    -0.172 N 
ATOM     13  H14 UNL     1       6.978 -27.737  -3.429  1.00  0.00     0.186 HD
ATOM     14  H4  UNL     1       3.863 -29.177  -6.216  1.00  0.00     0.188 HD
BRANCH  10  15
HETATM   15  N1  UNL     1       6.781 -28.752  -1.050  1.00  0.00    -0.225 N 
HETATM   16  C1  UNL     1       8.062 -28.127  -1.284  1.00  0.00     0.168 C 
HETATM   17  C2  UNL     1       6.410 -29.095   0.296  1.00  0.00     0.168 C 
ENDBRANCH  10  15
BRANCH   7  18
HETATM   18  N13 UNL     1       5.680 -27.981  -5.580  1.00  0.00    -0.382 N 
ATOM     19 2H13 UNL     1       5.886 -28.490  -6.440  1.00  0.00     0.157 HD
ATOM     20 1H13 UNL     1       5.666 -26.962  -5.628  1.00  0.00     0.157 HD
ENDBRANCH   7  18
ENDBRANCH   2   4
ENDBRANCH   1   2
BRANCH   1  21
HETATM   21  N6  UNL     1       3.023 -31.252  -7.531  1.00  0.00    -0.324 N 
HETATM   22  C6  UNL     1       2.354 -30.225  -8.241  1.00  0.00     0.313 C 
HETATM   23  O1  UNL     1       1.356 -29.637  -7.766  1.00  0.00    -0.262 OA
ATOM     24  H6  UNL     1       3.831 -31.699  -7.965  1.00  0.00     0.165 HD
BRANCH  22  25
HETATM   25  C7  UNL     1       2.849 -29.853  -9.554  1.00  0.00     0.334 C 
HETATM   26  O2  UNL     1       3.150 -28.650  -9.773  1.00  0.00    -0.260 OA
HETATM   27  N7  UNL     1       3.006 -30.787 -10.596  1.00  0.00    -0.203 N 
ATOM     28  H7  UNL     1       2.768 -31.768 -10.442  1.00  0.00     0.200 HD
BRANCH  27  29
HETATM   29  O3  UNL     1       3.475 -30.382 -11.812  1.00  0.00    -0.140 OA
BRANCH  29  30
HETATM   30  N8  UNL     1       3.893 -31.494 -12.488  1.00  0.00     0.040 NA
BRANCH  30  31
HETATM   31  N9  UNL     1       3.720 -31.308 -13.872  1.00  0.00    -0.321 N 
ATOM     32  H92 UNL     1       4.378 -30.808 -14.471  1.00  0.00     0.174 HD
ATOM     33  H91 UNL     1       2.849 -31.743 -14.176  1.00  0.00     0.174 HD
ENDBRANCH  30  31
ENDBRANCH  29  30
ENDBRANCH  27  29
ENDBRANCH  22  25
ENDBRANCH   1  21
BRANCH   1  34
HETATM   34  C8  UNL     1       3.752 -32.558  -5.713  1.00  0.00     0.127 A 
HETATM   35  N10 UNL     1       3.703 -33.535  -4.873  1.00  0.00    -0.341 N 
HETATM   36  C9  UNL     1       4.980 -34.106  -4.659  1.00  0.00     0.062 A 
ATOM     37  H10 UNL     1       2.849 -33.858  -4.419  1.00  0.00     0.167 HD
HETATM   38  C10 UNL     1       5.417 -35.165  -3.849  1.00  0.00     0.057 A 
HETATM   39  C14 UNL     1       5.886 -33.410  -5.441  1.00  0.00     0.060 A 
HETATM   40  C11 UNL     1       6.746 -35.530  -3.816  1.00  0.00     0.081 A 
HETATM   41  C12 UNL     1       7.609 -34.815  -4.608  1.00  0.00     0.027 A 
HETATM   42  C13 UNL     1       7.197 -33.768  -5.414  1.00  0.00     0.033 A 
HETATM   43  N12 UNL     1       5.104 -32.415  -6.121  1.00  0.00    -0.341 N 
ATOM     44  H12 UNL     1       5.460 -31.725  -6.783  1.00  0.00     0.167 HD
BRANCH  40  45
HETATM   45  S1  UNL     1       7.312 -36.847  -2.780  1.00  0.00     0.256 S 
HETATM   46  O4  UNL     1       7.648 -36.388  -1.408  1.00  0.00    -0.201 OA
HETATM   47  O5  UNL     1       8.494 -37.486  -3.464  1.00  0.00    -0.201 OA
BRANCH  45  48
HETATM   48  N11 UNL     1       6.058 -38.066  -2.753  1.00  0.00    -0.324 N 
ATOM     49 2H11 UNL     1       5.090 -37.928  -3.044  1.00  0.00     0.169 HD
ATOM     50 1H11 UNL     1       6.476 -38.925  -2.396  1.00  0.00     0.169 HD
ENDBRANCH  45  48
ENDBRANCH  40  45
ENDBRANCH   1  34
TORSDOF 12
ENDMDL
