MODEL 1
REMARK VINA RESULT: -9.863230007      0.000      0.000
REMARK  9 active torsions:
REMARK  status: ('A' for Active; 'I' for Inactive)
REMARK    1  A    between atoms: N3_11  and  C7_12 
REMARK    2  A    between atoms: C8_15  and  N5_16 
REMARK    3  A    between atoms: N5_16  and  C9_18 
REMARK    4  A    between atoms: C9_18  and  C10_19 
REMARK    5  A    between atoms: C10_19  and  O1_20 
REMARK    6  A    between atoms: C10_19  and  C11_22 
REMARK    7  A    between atoms: C11_22  and  N6_23 
REMARK    8  A    between atoms: C13_25  and  C14_26 
REMARK    9  A    between atoms: C15_41  and  N14_42 
ROOT
HETATM    1  C7  UNL     1      39.737  23.518  14.319  1.00  0.00     0.719 A 
HETATM    2  N4  UNL     1      40.604  23.686  15.326  1.00  0.00    -0.021 N 
ATOM      3  H4  UNL     1      40.249  23.609  16.279  1.00  0.00     0.203 HD
HETATM    4  C8  UNL     1      41.923  23.953  15.158  1.00  0.00     0.707 A 
HETATM    5  N13 UNL     1      42.342  24.045  13.895  1.00  0.00    -0.022 N 
ATOM      6  H13 UNL     1      43.327  24.244  13.720  1.00  0.00     0.203 HD
HETATM    7  C15 UNL     1      41.505  23.884  12.820  1.00  0.00     0.705 A 
HETATM    8  N15 UNL     1      40.223  23.624  13.070  1.00  0.00    -0.021 N 
ATOM      9  H15 UNL     1      39.585  23.500  12.283  1.00  0.00     0.203 HD
ENDROOT
BRANCH   4  10
HETATM   10  N5  UNL     1      42.705  24.105  16.148  1.00  0.00    -0.223 N 
ATOM     11  H5  UNL     1      43.162  25.015  16.191  1.00  0.00     0.177 HD
BRANCH  10  12
HETATM   12  C9  UNL     1      43.050  23.220  17.202  1.00  0.00     0.171 C 
BRANCH  12  13
HETATM   13  C10 UNL     1      44.055  22.161  16.793  1.00  0.00     0.156 C 
BRANCH  13  14
HETATM   14  O1  UNL     1      43.678  21.759  15.496  1.00  0.00    -0.392 OA
ATOM     15  H1  UNL     1      44.482  21.489  15.068  1.00  0.00     0.210 HD
ENDBRANCH  13  14
BRANCH  13  16
HETATM   16  C11 UNL     1      45.463  22.642  16.825  1.00  0.00     0.183 C 
BRANCH  16  17
HETATM   17  N6  UNL     1      46.330  21.626  16.262  1.00  0.00    -0.284 N 
HETATM   18  C12 UNL     1      47.336  20.996  16.928  1.00  0.00     0.146 A 
HETATM   19  C13 UNL     1      47.947  20.095  16.088  1.00  0.00     0.113 A 
HETATM   20  N11 UNL     1      47.296  20.195  14.918  1.00  0.00    -0.281 N 
HETATM   21  N12 UNL     1      46.345  21.108  15.052  1.00  0.00    -0.240 N 
ATOM     22  H11 UNL     1      47.499  19.661  14.073  1.00  0.00     0.188 HD
ATOM     23  H12 UNL     1      45.702  21.377  14.306  1.00  0.00     0.208 HD
BRANCH  19  24
HETATM   24  C14 UNL     1      49.064  19.194  16.345  1.00  0.00     0.167 A 
HETATM   25  N7  UNL     1      49.166  18.239  17.283  1.00  0.00    -0.267 N 
HETATM   26  N8  UNL     1      50.339  17.648  17.182  1.00  0.00    -0.227 N 
ATOM     27  H7  UNL     1      48.447  18.007  17.968  1.00  0.00     0.190 HD
HETATM   28  N9  UNL     1      50.992  18.208  16.196  1.00  0.00    -0.227 N 
ATOM     29  H8  UNL     1      50.679  16.886  17.770  1.00  0.00     0.210 HD
HETATM   30  N10 UNL     1      50.239  19.155  15.665  1.00  0.00    -0.267 N 
ATOM     31  H9  UNL     1      51.931  17.954  15.888  1.00  0.00     0.210 HD
ATOM     32  H10 UNL     1      50.496  19.754  14.880  1.00  0.00     0.190 HD
ENDBRANCH  19  24
ENDBRANCH  16  17
ENDBRANCH  13  16
ENDBRANCH  12  13
ENDBRANCH  10  12
ENDBRANCH   4  10
BRANCH   1  33
HETATM   33  N3  UNL     1      38.349  23.238  14.558  1.00  0.00    -0.132 N 
HETATM   34  C2  UNL     1      37.345  24.132  14.545  1.00  0.00     0.103 A 
HETATM   35  C1  UNL     1      37.413  25.597  14.288  1.00  0.00     0.090 C 
HETATM   36  N1  UNL     1      36.172  23.500  14.814  1.00  0.00    -0.330 N 
HETATM   37  C3  UNL     1      36.422  22.189  15.002  1.00  0.00     0.135 A 
ATOM     38  H1  UNL     1      35.256  23.944  14.865  1.00  0.00     0.168 HD
HETATM   39  N2  UNL     1      35.857  20.999  15.281  1.00  0.00    -0.350 N 
HETATM   40  C6  UNL     1      37.790  22.047  14.836  1.00  0.00     0.103 A 
HETATM   41  C4  UNL     1      36.838  20.078  15.301  1.00  0.00     0.092 A 
ATOM     42  H2  UNL     1      34.865  20.827  15.446  1.00  0.00     0.166 HD
HETATM   43  C5  UNL     1      38.050  20.707  15.028  1.00  0.00     0.051 A 
ENDBRANCH   1  33
BRANCH   7  44
HETATM   44  N14 UNL     1      41.996  23.989  11.635  1.00  0.00    -0.234 N 
ATOM     45 2H14 UNL     1      42.312  24.870  11.228  1.00  0.00     0.174 HD
ATOM     46 1H14 UNL     1      42.076  23.149  11.062  1.00  0.00     0.174 HD
ENDBRANCH   7  44
TORSDOF 9
ENDMDL
MODEL 2
REMARK VINA RESULT: -9.769587683      2.169      3.750
REMARK  9 active torsions:
REMARK  status: ('A' for Active; 'I' for Inactive)
REMARK    1  A    between atoms: N3_11  and  C7_12 
REMARK    2  A    between atoms: C8_15  and  N5_16 
REMARK    3  A    between atoms: N5_16  and  C9_18 
REMARK    4  A    between atoms: C9_18  and  C10_19 
REMARK    5  A    between atoms: C10_19  and  O1_20 
REMARK    6  A    between atoms: C10_19  and  C11_22 
REMARK    7  A    between atoms: C11_22  and  N6_23 
REMARK    8  A    between atoms: C13_25  and  C14_26 
REMARK    9  A    between atoms: C15_41  and  N14_42 
ROOT
HETATM    1  C7  UNL     1      39.077  22.997  17.232  1.00  0.00     0.719 A 
HETATM    2  N4  UNL     1      40.384  22.838  17.481  1.00  0.00    -0.021 N 
ATOM      3  H4  UNL     1      41.044  23.111  16.754  1.00  0.00     0.203 HD
HETATM    4  C8  UNL     1      40.883  22.338  18.639  1.00  0.00     0.707 A 
HETATM    5  N13 UNL     1      39.982  21.996  19.561  1.00  0.00    -0.022 N 
ATOM      6  H13 UNL     1      40.311  21.615  20.448  1.00  0.00     0.203 HD
HETATM    7  C15 UNL     1      38.631  22.133  19.368  1.00  0.00     0.705 A 
HETATM    8  N15 UNL     1      38.222  22.632  18.203  1.00  0.00    -0.021 N 
ATOM      9  H15 UNL     1      37.220  22.742  18.041  1.00  0.00     0.203 HD
ENDROOT
BRANCH   4  10
HETATM   10  N5  UNL     1      42.132  22.207  18.826  1.00  0.00    -0.223 N 
ATOM     11  H5  UNL     1      42.389  21.450  19.458  1.00  0.00     0.177 HD
BRANCH  10  12
HETATM   12  C9  UNL     1      43.230  22.938  18.303  1.00  0.00     0.171 C 
BRANCH  12  13
HETATM   13  C10 UNL     1      44.037  22.161  17.280  1.00  0.00     0.156 C 
BRANCH  13  14
HETATM   14  O1  UNL     1      43.283  22.204  16.090  1.00  0.00    -0.392 OA
ATOM     15  H1  UNL     1      42.667  21.484  16.151  1.00  0.00     0.210 HD
ENDBRANCH  13  14
BRANCH  13  16
HETATM   16  C11 UNL     1      45.407  22.703  17.075  1.00  0.00     0.183 C 
BRANCH  16  17
HETATM   17  N6  UNL     1      46.233  21.693  16.445  1.00  0.00    -0.284 N 
HETATM   18  C12 UNL     1      47.277  21.051  17.038  1.00  0.00     0.146 A 
HETATM   19  C13 UNL     1      47.831  20.160  16.148  1.00  0.00     0.113 A 
HETATM   20  N11 UNL     1      47.108  20.279  15.023  1.00  0.00    -0.281 N 
HETATM   21  N12 UNL     1      46.171  21.192  15.229  1.00  0.00    -0.240 N 
ATOM     22  H11 UNL     1      47.256  19.756  14.159  1.00  0.00     0.188 HD
ATOM     23  H12 UNL     1      45.483  21.474  14.529  1.00  0.00     0.208 HD
BRANCH  19  24
HETATM   24  C14 UNL     1      48.959  19.253  16.322  1.00  0.00     0.167 A 
HETATM   25  N7  UNL     1      50.085  19.175  15.596  1.00  0.00    -0.267 N 
HETATM   26  N8  UNL     1      50.855  18.221  16.079  1.00  0.00    -0.227 N 
ATOM     27  H7  UNL     1      50.311  19.763  14.793  1.00  0.00     0.190 HD
HETATM   28  N9  UNL     1      50.241  17.686  17.104  1.00  0.00    -0.227 N 
ATOM     29  H8  UNL     1      51.770  17.948  15.719  1.00  0.00     0.210 HD
HETATM   30  N10 UNL     1      49.081  18.295  17.276  1.00  0.00    -0.267 N 
ATOM     31  H9  UNL     1      50.600  16.921  17.676  1.00  0.00     0.210 HD
ATOM     32  H10 UNL     1      48.396  18.083  18.002  1.00  0.00     0.190 HD
ENDBRANCH  19  24
ENDBRANCH  16  17
ENDBRANCH  13  16
ENDBRANCH  12  13
ENDBRANCH  10  12
ENDBRANCH   4  10
BRANCH   1  33
HETATM   33  N3  UNL     1      38.606  23.532  15.986  1.00  0.00    -0.132 N 
HETATM   34  C2  UNL     1      38.488  22.859  14.827  1.00  0.00     0.103 A 
HETATM   35  C1  UNL     1      38.805  21.432  14.549  1.00  0.00     0.090 C 
HETATM   36  N1  UNL     1      38.011  23.693  13.867  1.00  0.00    -0.330 N 
HETATM   37  C3  UNL     1      37.820  24.913  14.409  1.00  0.00     0.135 A 
ATOM     38  H1  UNL     1      37.827  23.439  12.896  1.00  0.00     0.168 HD
HETATM   39  N2  UNL     1      37.410  26.170  14.153  1.00  0.00    -0.350 N 
HETATM   40  C6  UNL     1      38.199  24.789  15.735  1.00  0.00     0.103 A 
HETATM   41  C4  UNL     1      37.517  26.872  15.296  1.00  0.00     0.092 A 
ATOM     42  H2  UNL     1      37.080  26.525  13.255  1.00  0.00     0.166 HD
HETATM   43  C5  UNL     1      38.006  26.034  16.294  1.00  0.00     0.051 A 
ENDBRANCH   1  33
BRANCH   7  44
HETATM   44  N14 UNL     1      37.833  21.776  20.313  1.00  0.00    -0.234 N 
ATOM     45 2H14 UNL     1      38.074  21.091  21.030  1.00  0.00     0.174 HD
ATOM     46 1H14 UNL     1      36.904  22.197  20.354  1.00  0.00     0.174 HD
ENDBRANCH   7  44
TORSDOF 9
ENDMDL
MODEL 3
REMARK VINA RESULT: -9.734612729      1.358      2.209
REMARK  9 active torsions:
REMARK  status: ('A' for Active; 'I' for Inactive)
REMARK    1  A    between atoms: N3_11  and  C7_12 
REMARK    2  A    between atoms: C8_15  and  N5_16 
REMARK    3  A    between atoms: N5_16  and  C9_18 
REMARK    4  A    between atoms: C9_18  and  C10_19 
REMARK    5  A    between atoms: C10_19  and  O1_20 
REMARK    6  A    between atoms: C10_19  and  C11_22 
REMARK    7  A    between atoms: C11_22  and  N6_23 
REMARK    8  A    between atoms: C13_25  and  C14_26 
REMARK    9  A    between atoms: C15_41  and  N14_42 
ROOT
HETATM    1  C7  UNL     1      39.644  23.639  15.281  1.00  0.00     0.719 A 
HETATM    2  N4  UNL     1      40.519  23.773  16.286  1.00  0.00    -0.021 N 
ATOM      3  H4  UNL     1      40.170  23.674  17.239  1.00  0.00     0.203 HD
HETATM    4  C8  UNL     1      41.840  24.033  16.116  1.00  0.00     0.707 A 
HETATM    5  N13 UNL     1      42.251  24.154  14.853  1.00  0.00    -0.022 N 
ATOM      6  H13 UNL     1      43.237  24.349  14.676  1.00  0.00     0.203 HD
HETATM    7  C15 UNL     1      41.406  24.028  13.780  1.00  0.00     0.705 A 
HETATM    8  N15 UNL     1      40.123  23.773  14.032  1.00  0.00    -0.021 N 
ATOM      9  H15 UNL     1      39.479  23.675  13.247  1.00  0.00     0.203 HD
ENDROOT
BRANCH   4  10
HETATM   10  N5  UNL     1      42.629  24.152  17.104  1.00  0.00    -0.223 N 
ATOM     11  H5  UNL     1      42.847  25.115  17.360  1.00  0.00     0.177 HD
BRANCH  10  12
HETATM   12  C9  UNL     1      43.260  23.170  17.911  1.00  0.00     0.171 C 
BRANCH  12  13
HETATM   13  C10 UNL     1      44.736  23.001  17.609  1.00  0.00     0.156 C 
BRANCH  13  14
HETATM   14  O1  UNL     1      45.300  22.435  18.770  1.00  0.00    -0.392 OA
ATOM     15  H1  UNL     1      46.236  22.401  18.610  1.00  0.00     0.210 HD
ENDBRANCH  13  14
BRANCH  13  16
HETATM   16  C11 UNL     1      44.999  22.159  16.411  1.00  0.00     0.183 C 
BRANCH  16  17
HETATM   17  N6  UNL     1      46.393  21.760  16.402  1.00  0.00    -0.284 N 
HETATM   18  C12 UNL     1      46.842  20.476  16.439  1.00  0.00     0.146 A 
HETATM   19  C13 UNL     1      48.217  20.471  16.417  1.00  0.00     0.113 A 
HETATM   20  N11 UNL     1      48.581  21.762  16.367  1.00  0.00    -0.281 N 
HETATM   21  N12 UNL     1      47.481  22.501  16.359  1.00  0.00    -0.240 N 
ATOM     22  H11 UNL     1      49.538  22.114  16.340  1.00  0.00     0.188 HD
ATOM     23  H12 UNL     1      47.477  23.521  16.323  1.00  0.00     0.208 HD
BRANCH  19  24
HETATM   24  C14 UNL     1      49.143  19.345  16.441  1.00  0.00     0.167 A 
HETATM   25  N7  UNL     1      49.134  18.276  17.253  1.00  0.00    -0.267 N 
HETATM   26  N8  UNL     1      50.144  17.486  16.949  1.00  0.00    -0.227 N 
ATOM     27  H7  UNL     1      48.451  18.102  17.990  1.00  0.00     0.190 HD
HETATM   28  N9  UNL     1      50.801  18.030  15.958  1.00  0.00    -0.227 N 
ATOM     29  H8  UNL     1      50.373  16.603  17.408  1.00  0.00     0.210 HD
HETATM   30  N10 UNL     1      50.214  19.166  15.625  1.00  0.00    -0.267 N 
ATOM     31  H9  UNL     1      51.633  17.640  15.513  1.00  0.00     0.210 HD
ATOM     32  H10 UNL     1      50.513  19.799  14.883  1.00  0.00     0.190 HD
ENDBRANCH  19  24
ENDBRANCH  16  17
ENDBRANCH  13  16
ENDBRANCH  12  13
ENDBRANCH  10  12
ENDBRANCH   4  10
BRANCH   1  33
HETATM   33  N3  UNL     1      38.255  23.365  15.522  1.00  0.00    -0.132 N 
HETATM   34  C2  UNL     1      37.651  22.169  15.408  1.00  0.00     0.103 A 
HETATM   35  C1  UNL     1      38.249  20.863  15.016  1.00  0.00     0.090 C 
HETATM   36  N1  UNL     1      36.333  22.297  15.714  1.00  0.00    -0.330 N 
HETATM   37  C3  UNL     1      36.086  23.585  16.027  1.00  0.00     0.135 A 
ATOM     38  H1  UNL     1      35.646  21.544  15.709  1.00  0.00     0.168 HD
HETATM   39  N2  UNL     1      35.127  24.451  16.407  1.00  0.00    -0.350 N 
HETATM   40  C6  UNL     1      37.302  24.234  15.901  1.00  0.00     0.103 A 
HETATM   41  C4  UNL     1      35.702  25.662  16.530  1.00  0.00     0.092 A 
ATOM     42  H2  UNL     1      34.146  24.229  16.572  1.00  0.00     0.166 HD
HETATM   43  C5  UNL     1      37.054  25.552  16.220  1.00  0.00     0.051 A 
ENDBRANCH   1  33
BRANCH   7  44
HETATM   44  N14 UNL     1      41.890  24.161  12.595  1.00  0.00    -0.234 N 
ATOM     45 2H14 UNL     1      42.620  24.831  12.351  1.00  0.00     0.174 HD
ATOM     46 1H14 UNL     1      41.527  23.566  11.849  1.00  0.00     0.174 HD
ENDBRANCH   7  44
TORSDOF 9
ENDMDL
MODEL 4
REMARK VINA RESULT: -9.633778044      2.170      3.871
REMARK  9 active torsions:
REMARK  status: ('A' for Active; 'I' for Inactive)
REMARK    1  A    between atoms: N3_11  and  C7_12 
REMARK    2  A    between atoms: C8_15  and  N5_16 
REMARK    3  A    between atoms: N5_16  and  C9_18 
REMARK    4  A    between atoms: C9_18  and  C10_19 
REMARK    5  A    between atoms: C10_19  and  O1_20 
REMARK    6  A    between atoms: C10_19  and  C11_22 
REMARK    7  A    between atoms: C11_22  and  N6_23 
REMARK    8  A    between atoms: C13_25  and  C14_26 
REMARK    9  A    between atoms: C15_41  and  N14_42 
ROOT
HETATM    1  C7  UNL     1      37.596  24.698  14.447  1.00  0.00     0.719 A 
HETATM    2  N4  UNL     1      38.158  24.984  15.628  1.00  0.00    -0.021 N 
ATOM      3  H4  UNL     1      37.566  25.390  16.353  1.00  0.00     0.203 HD
HETATM    4  C8  UNL     1      39.465  24.767  15.922  1.00  0.00     0.707 A 
HETATM    5  N13 UNL     1      40.200  24.235  14.944  1.00  0.00    -0.022 N 
ATOM      6  H13 UNL     1      41.189  24.053  15.120  1.00  0.00     0.203 HD
HETATM    7  C15 UNL     1      39.685  23.920  13.713  1.00  0.00     0.705 A 
HETATM    8  N15 UNL     1      38.392  24.164  13.504  1.00  0.00    -0.021 N 
ATOM      9  H15 UNL     1      37.990  23.936  12.595  1.00  0.00     0.203 HD
ENDROOT
BRANCH   4  10
HETATM   10  N5  UNL     1      39.951  25.056  17.059  1.00  0.00    -0.223 N 
ATOM     11  H5  UNL     1      40.211  26.035  17.173  1.00  0.00     0.177 HD
BRANCH  10  12
HETATM   12  C9  UNL     1      40.193  24.245  18.198  1.00  0.00     0.171 C 
BRANCH  12  13
HETATM   13  C10 UNL     1      41.497  23.476  18.122  1.00  0.00     0.156 C 
BRANCH  13  14
HETATM   14  O1  UNL     1      41.232  22.357  17.306  1.00  0.00    -0.392 OA
ATOM     15  H1  UNL     1      41.774  21.657  17.648  1.00  0.00     0.210 HD
ENDBRANCH  13  14
BRANCH  13  16
HETATM   16  C11 UNL     1      42.626  24.283  17.587  1.00  0.00     0.183 C 
BRANCH  16  17
HETATM   17  N6  UNL     1      43.448  23.450  16.730  1.00  0.00    -0.284 N 
HETATM   18  C12 UNL     1      44.635  22.889  17.087  1.00  0.00     0.146 A 
HETATM   19  C13 UNL     1      45.135  22.165  16.029  1.00  0.00     0.113 A 
HETATM   20  N11 UNL     1      44.235  22.303  15.042  1.00  0.00    -0.281 N 
HETATM   21  N12 UNL     1      43.249  23.068  15.486  1.00  0.00    -0.240 N 
ATOM     22  H11 UNL     1      44.301  21.890  14.111  1.00  0.00     0.188 HD
ATOM     23  H12 UNL     1      42.433  23.328  14.931  1.00  0.00     0.208 HD
BRANCH  19  24
HETATM   24  C14 UNL     1      46.368  21.394  15.931  1.00  0.00     0.167 A 
HETATM   25  N7  UNL     1      47.403  21.364  16.786  1.00  0.00    -0.267 N 
HETATM   26  N8  UNL     1      48.323  20.537  16.333  1.00  0.00    -0.227 N 
ATOM     27  H7  UNL     1      47.467  21.898  17.652  1.00  0.00     0.190 HD
HETATM   28  N9  UNL     1      47.897  20.037  15.201  1.00  0.00    -0.227 N 
ATOM     29  H8  UNL     1      49.212  20.324  16.785  1.00  0.00     0.210 HD
HETATM   30  N10 UNL     1      46.706  20.540  14.930  1.00  0.00    -0.267 N 
ATOM     31  H9  UNL     1      48.403  19.366  14.622  1.00  0.00     0.210 HD
ATOM     32  H10 UNL     1      46.138  20.325  14.110  1.00  0.00     0.190 HD
ENDBRANCH  19  24
ENDBRANCH  16  17
ENDBRANCH  13  16
ENDBRANCH  12  13
ENDBRANCH  10  12
ENDBRANCH   4  10
BRANCH   1  33
HETATM   33  N3  UNL     1      36.205  24.951  14.193  1.00  0.00    -0.132 N 
HETATM   34  C2  UNL     1      35.201  24.066  14.324  1.00  0.00     0.103 A 
HETATM   35  C1  UNL     1      35.271  22.643  14.755  1.00  0.00     0.090 C 
HETATM   36  N1  UNL     1      34.026  24.664  13.996  1.00  0.00    -0.330 N 
HETATM   37  C3  UNL     1      34.274  25.943  13.648  1.00  0.00     0.135 A 
ATOM     38  H1  UNL     1      33.108  24.220  14.009  1.00  0.00     0.168 HD
HETATM   39  N2  UNL     1      33.706  27.092  13.235  1.00  0.00    -0.350 N 
HETATM   40  C6  UNL     1      35.644  26.101  13.780  1.00  0.00     0.103 A 
HETATM   41  C4  UNL     1      34.688  28.001  13.093  1.00  0.00     0.092 A 
ATOM     42  H2  UNL     1      32.713  27.245  13.062  1.00  0.00     0.166 HD
HETATM   43  C5  UNL     1      35.902  27.407  13.426  1.00  0.00     0.051 A 
ENDBRANCH   1  33
BRANCH   7  44
HETATM   44  N14 UNL     1      40.468  23.409  12.828  1.00  0.00    -0.234 N 
ATOM     45 2H14 UNL     1      40.590  22.405  12.691  1.00  0.00     0.174 HD
ATOM     46 1H14 UNL     1      41.002  24.037  12.226  1.00  0.00     0.174 HD
ENDBRANCH   7  44
TORSDOF 9
ENDMDL
MODEL 5
REMARK VINA RESULT: -9.614158032      1.856      4.044
REMARK  9 active torsions:
REMARK  status: ('A' for Active; 'I' for Inactive)
REMARK    1  A    between atoms: N3_11  and  C7_12 
REMARK    2  A    between atoms: C8_15  and  N5_16 
REMARK    3  A    between atoms: N5_16  and  C9_18 
REMARK    4  A    between atoms: C9_18  and  C10_19 
REMARK    5  A    between atoms: C10_19  and  O1_20 
REMARK    6  A    between atoms: C10_19  and  C11_22 
REMARK    7  A    between atoms: C11_22  and  N6_23 
REMARK    8  A    between atoms: C13_25  and  C14_26 
REMARK    9  A    between atoms: C15_41  and  N14_42 
ROOT
HETATM    1  C7  UNL     1      36.704  22.837  15.291  1.00  0.00     0.719 A 
HETATM    2  N4  UNL     1      37.844  23.232  14.711  1.00  0.00    -0.021 N 
ATOM      3  H4  UNL     1      38.348  22.555  14.138  1.00  0.00     0.203 HD
HETATM    4  C8  UNL     1      38.371  24.476  14.836  1.00  0.00     0.707 A 
HETATM    5  N13 UNL     1      37.677  25.328  15.594  1.00  0.00    -0.022 N 
ATOM      6  H13 UNL     1      38.035  26.275  15.717  1.00  0.00     0.203 HD
HETATM    7  C15 UNL     1      36.504  24.984  16.216  1.00  0.00     0.705 A 
HETATM    8  N15 UNL     1      36.054  23.743  16.042  1.00  0.00    -0.021 N 
ATOM      9  H15 UNL     1      35.182  23.469  16.496  1.00  0.00     0.203 HD
ENDROOT
BRANCH   4  10
HETATM   10  N5  UNL     1      39.457  24.802  14.264  1.00  0.00    -0.223 N 
ATOM     11  H5  UNL     1      39.347  25.152  13.313  1.00  0.00     0.177 HD
BRANCH  10  12
HETATM   12  C9  UNL     1      40.798  24.761  14.726  1.00  0.00     0.171 C 
BRANCH  12  13
HETATM   13  C10 UNL     1      41.049  23.669  15.747  1.00  0.00     0.156 C 
BRANCH  13  14
HETATM   14  O1  UNL     1      41.059  22.462  15.019  1.00  0.00    -0.392 OA
ATOM     15  H1  UNL     1      40.463  21.881  15.477  1.00  0.00     0.210 HD
ENDBRANCH  13  14
BRANCH  13  16
HETATM   16  C11 UNL     1      42.313  23.854  16.509  1.00  0.00     0.183 C 
BRANCH  16  17
HETATM   17  N6  UNL     1      43.380  23.123  15.853  1.00  0.00    -0.284 N 
HETATM   18  C12 UNL     1      44.338  22.395  16.489  1.00  0.00     0.146 A 
HETATM   19  C13 UNL     1      45.183  21.839  15.556  1.00  0.00     0.113 A 
HETATM   20  N11 UNL     1      44.719  22.243  14.363  1.00  0.00    -0.281 N 
HETATM   21  N12 UNL     1      43.652  23.000  14.571  1.00  0.00    -0.240 N 
ATOM     22  H11 UNL     1      45.119  22.008  13.455  1.00  0.00     0.188 HD
ATOM     23  H12 UNL     1      43.106  23.436  13.826  1.00  0.00     0.208 HD
BRANCH  19  24
HETATM   24  C14 UNL     1      46.350  20.987  15.751  1.00  0.00     0.167 A 
HETATM   25  N7  UNL     1      47.148  20.440  14.820  1.00  0.00    -0.267 N 
HETATM   26  N8  UNL     1      48.092  19.736  15.409  1.00  0.00    -0.227 N 
ATOM     27  H7  UNL     1      47.039  20.551  13.812  1.00  0.00     0.190 HD
HETATM   28  N9  UNL     1      47.914  19.822  16.703  1.00  0.00    -0.227 N 
ATOM     29  H8  UNL     1      48.834  19.215  14.940  1.00  0.00     0.210 HD
HETATM   30  N10 UNL     1      46.859  20.579  16.943  1.00  0.00    -0.267 N 
ATOM     31  H9  UNL     1      48.497  19.375  17.412  1.00  0.00     0.210 HD
ATOM     32  H10 UNL     1      46.489  20.817  17.863  1.00  0.00     0.190 HD
ENDBRANCH  19  24
ENDBRANCH  16  17
ENDBRANCH  13  16
ENDBRANCH  12  13
ENDBRANCH  10  12
ENDBRANCH   4  10
BRANCH   1  33
HETATM   33  N3  UNL     1      36.195  21.505  15.123  1.00  0.00    -0.132 N 
HETATM   34  C2  UNL     1      36.631  20.401  15.757  1.00  0.00     0.103 A 
HETATM   35  C1  UNL     1      37.719  20.283  16.765  1.00  0.00     0.090 C 
HETATM   36  N1  UNL     1      35.911  19.327  15.342  1.00  0.00    -0.330 N 
HETATM   37  C3  UNL     1      35.004  19.739  14.433  1.00  0.00     0.135 A 
ATOM     38  H1  UNL     1      36.035  18.367  15.664  1.00  0.00     0.168 HD
HETATM   39  N2  UNL     1      34.008  19.333  13.623  1.00  0.00    -0.350 N 
HETATM   40  C6  UNL     1      35.199  21.104  14.312  1.00  0.00     0.103 A 
HETATM   41  C4  UNL     1      33.548  20.417  12.972  1.00  0.00     0.092 A 
ATOM     42  H2  UNL     1      33.664  18.377  13.523  1.00  0.00     0.166 HD
HETATM   43  C5  UNL     1      34.274  21.530  13.384  1.00  0.00     0.051 A 
ENDBRANCH   1  33
BRANCH   7  44
HETATM   44  N14 UNL     1      35.902  25.871  16.929  1.00  0.00    -0.234 N 
ATOM     45 2H14 UNL     1      35.401  25.659  17.793  1.00  0.00     0.174 HD
ATOM     46 1H14 UNL     1      35.920  26.843  16.619  1.00  0.00     0.174 HD
ENDBRANCH   7  44
TORSDOF 9
ENDMDL
