MODEL 1
REMARK VINA RESULT: -10.082620899      0.000      0.000
REMARK  7 active torsions:
REMARK  status: ('A' for Active; 'I' for Inactive)
REMARK       I    between atoms: N1_2  and  C2_4 
REMARK    1  A    between atoms: C2_4  and  C3_6 
REMARK    2  A    between atoms: C4_7  and  C5_8 
REMARK    3  A    between atoms: C6_11  and  N3_12 
REMARK       I    between atoms: N3_12  and  C7_14 
REMARK    4  A    between atoms: C9_23  and  O3_24 
REMARK    5  A    between atoms: N9_30  and  C10_31 
REMARK    6  A    between atoms: C10_31  and  C11_32 
REMARK    7  A    between atoms: C12_37  and  S1_38 
ROOT
HETATM    1  C3  UNL     1      42.446  23.187  16.152  1.00  0.00     0.150 A 
HETATM    2  C4  UNL     1      43.708  22.794  15.882  1.00  0.00     0.113 A 
HETATM    3  N7  UNL     1      43.830  23.095  14.520  1.00  0.00    -0.281 N 
ATOM      4  H7  UNL     1      44.666  22.936  13.958  1.00  0.00     0.188 HD
HETATM    5  N8  UNL     1      42.732  23.602  14.084  1.00  0.00    -0.239 N 
ATOM      6  H8  UNL     1      42.584  23.898  13.119  1.00  0.00     0.208 HD
HETATM    7  N9  UNL     1      41.831  23.692  15.017  1.00  0.00    -0.263 N 
ENDROOT
BRANCH   2   8
HETATM    8  C5  UNL     1      44.823  22.237  16.614  1.00  0.00     0.118 A 
HETATM    9  N2  UNL     1      45.655  21.380  15.912  1.00  0.00    -0.186 N 
HETATM   10  C6  UNL     1      46.677  20.746  16.490  1.00  0.00     0.688 A 
ATOM     11  H2  UNL     1      45.480  21.229  14.918  1.00  0.00     0.184 HD
HETATM   12  N6  UNL     1      46.986  20.878  17.786  1.00  0.00    -0.153 N 
HETATM   13  C8  UNL     1      46.235  21.680  18.523  1.00  0.00     0.295 A 
ATOM     14  H6  UNL     1      47.776  20.377  18.192  1.00  0.00     0.187 HD
HETATM   15  O2  UNL     1      46.475  21.845  19.746  1.00  0.00    -0.265 OA
HETATM   16  C9  UNL     1      45.155  22.349  17.914  1.00  0.00     0.165 A 
BRANCH  10  17
HETATM   17  N3  UNL     1      47.431  19.950  15.769  1.00  0.00    -0.164 N 
HETATM   18  C7  UNL     1      48.592  19.396  16.349  1.00  0.00     0.200 C 
HETATM   19  N4  UNL     1      49.705  20.024  16.185  1.00  0.00    -0.373 N 
HETATM   20  N5  UNL     1      48.615  18.196  17.100  1.00  0.00    -0.063 NA
ATOM     21  H42 UNL     1      49.688  20.889  15.644  1.00  0.00     0.158 HD
ATOM     22  H41 UNL     1      50.544  19.624  16.604  1.00  0.00     0.158 HD
ATOM     23  H3  UNL     1      47.181  19.735  14.804  1.00  0.00     0.187 HD
ENDBRANCH  10  17
BRANCH  16  24
HETATM   24  O3  UNL     1      44.440  23.139  18.766  1.00  0.00    -0.354 OA
ATOM     25  H3  UNL     1      44.086  22.798  19.578  1.00  0.00     0.218 HD
ENDBRANCH  16  24
ENDBRANCH   2   8
BRANCH   1  26
HETATM   26  C2  UNL     1      41.747  23.276  17.405  1.00  0.00     0.271 C 
HETATM   27  N1  UNL     1      41.832  24.459  18.209  1.00  0.00    -0.360 N 
HETATM   28  C1  UNL     1      41.135  24.537  19.456  1.00  0.00     0.149 C 
ATOM     29  H1  UNL     1      42.392  25.249  17.890  1.00  0.00     0.162 HD
HETATM   30  O1  UNL     1      41.040  22.338  17.856  1.00  0.00    -0.266 OA
ENDBRANCH   1  26
BRANCH   7  31
HETATM   31  C10 UNL     1      40.508  24.216  14.885  1.00  0.00     0.229 C 
BRANCH  31  32
HETATM   32  C11 UNL     1      39.460  23.169  14.695  1.00  0.00     0.120 A 
HETATM   33  N10 UNL     1      39.719  21.876  14.330  1.00  0.00    -0.285 N 
HETATM   34  N11 UNL     1      38.569  21.243  14.291  1.00  0.00    -0.278 N 
ATOM     35  H10 UNL     1      40.635  21.477  14.126  1.00  0.00     0.188 HD
HETATM   36  C12 UNL     1      37.594  22.090  14.619  1.00  0.00     0.162 A 
ATOM     37  H11 UNL     1      38.442  20.261  14.048  1.00  0.00     0.189 HD
HETATM   38  N12 UNL     1      38.167  23.281  14.867  1.00  0.00    -0.318 N 
HETATM   39  C14 UNL     1      37.403  24.474  15.286  1.00  0.00     0.160 C 
BRANCH  36  40
HETATM   40  S1  UNL     1      35.832  21.757  14.726  1.00  0.00    -0.097 SA
HETATM   41  C13 UNL     1      35.650  19.983  15.054  1.00  0.00     0.099 C 
ENDBRANCH  36  40
ENDBRANCH  31  32
ENDBRANCH   7  31
TORSDOF 7
ENDMDL
MODEL 2
REMARK VINA RESULT: -9.458972993      3.303      8.918
REMARK  7 active torsions:
REMARK  status: ('A' for Active; 'I' for Inactive)
REMARK       I    between atoms: N1_2  and  C2_4 
REMARK    1  A    between atoms: C2_4  and  C3_6 
REMARK    2  A    between atoms: C4_7  and  C5_8 
REMARK    3  A    between atoms: C6_11  and  N3_12 
REMARK       I    between atoms: N3_12  and  C7_14 
REMARK    4  A    between atoms: C9_23  and  O3_24 
REMARK    5  A    between atoms: N9_30  and  C10_31 
REMARK    6  A    between atoms: C10_31  and  C11_32 
REMARK    7  A    between atoms: C12_37  and  S1_38 
ROOT
HETATM    1  C3  UNL     1      40.271  22.905  16.172  1.00  0.00     0.150 A 
HETATM    2  C4  UNL     1      39.412  22.691  15.154  1.00  0.00     0.113 A 
HETATM    3  N7  UNL     1      40.224  22.890  14.031  1.00  0.00    -0.281 N 
ATOM      4  H7  UNL     1      39.915  22.809  13.062  1.00  0.00     0.188 HD
HETATM    5  N8  UNL     1      41.418  23.191  14.402  1.00  0.00    -0.239 N 
ATOM      6  H8  UNL     1      42.185  23.383  13.756  1.00  0.00     0.208 HD
HETATM    7  N9  UNL     1      41.534  23.224  15.696  1.00  0.00    -0.263 N 
ENDROOT
BRANCH   2   8
HETATM    8  C5  UNL     1      38.026  22.313  15.000  1.00  0.00     0.118 A 
HETATM    9  N2  UNL     1      37.089  23.317  15.189  1.00  0.00    -0.186 N 
HETATM   10  C6  UNL     1      35.775  23.084  15.144  1.00  0.00     0.688 A 
ATOM     11  H2  UNL     1      37.415  24.267  15.369  1.00  0.00     0.184 HD
HETATM   12  N6  UNL     1      35.251  21.873  14.916  1.00  0.00    -0.153 N 
HETATM   13  C8  UNL     1      36.084  20.863  14.727  1.00  0.00     0.295 A 
ATOM     14  H6  UNL     1      34.241  21.734  14.890  1.00  0.00     0.187 HD
HETATM   15  O2  UNL     1      35.652  19.703  14.509  1.00  0.00    -0.265 OA
HETATM   16  C9  UNL     1      37.471  21.108  14.775  1.00  0.00     0.165 A 
BRANCH  10  17
HETATM   17  N3  UNL     1      34.940  24.077  15.328  1.00  0.00    -0.164 N 
HETATM   18  C7  UNL     1      34.122  24.492  14.255  1.00  0.00     0.200 C 
HETATM   19  N4  UNL     1      34.549  25.449  13.507  1.00  0.00    -0.373 N 
HETATM   20  N5  UNL     1      32.862  23.923  13.945  1.00  0.00    -0.063 NA
ATOM     21  H42 UNL     1      35.457  25.859  13.730  1.00  0.00     0.158 HD
ATOM     22  H41 UNL     1      33.958  25.749  12.732  1.00  0.00     0.158 HD
ATOM     23  H3  UNL     1      34.881  24.544  16.233  1.00  0.00     0.187 HD
ENDBRANCH  10  17
BRANCH  16  24
HETATM   24  O3  UNL     1      38.238  19.996  14.580  1.00  0.00    -0.354 OA
ATOM     25  H3  UNL     1      37.969  19.307  13.984  1.00  0.00     0.218 HD
ENDBRANCH  16  24
ENDBRANCH   2   8
BRANCH   1  26
HETATM   26  C2  UNL     1      40.100  22.722  17.587  1.00  0.00     0.271 C 
HETATM   27  N1  UNL     1      39.716  23.818  18.426  1.00  0.00    -0.360 N 
HETATM   28  C1  UNL     1      39.551  23.627  19.835  1.00  0.00     0.149 C 
ATOM     29  H1  UNL     1      39.560  24.739  18.017  1.00  0.00     0.162 HD
HETATM   30  O1  UNL     1      40.278  21.613  18.155  1.00  0.00    -0.266 OA
ENDBRANCH   1  26
BRANCH   7  31
HETATM   31  C10 UNL     1      42.716  23.511  16.446  1.00  0.00     0.229 C 
BRANCH  31  32
HETATM   32  C11 UNL     1      43.931  22.792  15.958  1.00  0.00     0.120 A 
HETATM   33  N10 UNL     1      44.164  22.472  14.648  1.00  0.00    -0.285 N 
HETATM   34  N11 UNL     1      45.333  21.878  14.593  1.00  0.00    -0.278 N 
ATOM     35  H10 UNL     1      43.544  22.661  13.861  1.00  0.00     0.188 HD
HETATM   36  C12 UNL     1      45.847  21.813  15.819  1.00  0.00     0.162 A 
ATOM     37  H11 UNL     1      45.777  21.524  13.746  1.00  0.00     0.189 HD
HETATM   38  N12 UNL     1      44.962  22.386  16.654  1.00  0.00    -0.318 N 
HETATM   39  C14 UNL     1      45.192  22.523  18.107  1.00  0.00     0.160 C 
BRANCH  36  40
HETATM   40  S1  UNL     1      47.421  21.105  16.321  1.00  0.00    -0.097 SA
HETATM   41  C13 UNL     1      47.062  19.482  17.044  1.00  0.00     0.099 C 
ENDBRANCH  36  40
ENDBRANCH  31  32
ENDBRANCH   7  31
TORSDOF 7
ENDMDL
MODEL 3
REMARK VINA RESULT: -9.315507551      2.061      2.828
REMARK  7 active torsions:
REMARK  status: ('A' for Active; 'I' for Inactive)
REMARK       I    between atoms: N1_2  and  C2_4 
REMARK    1  A    between atoms: C2_4  and  C3_6 
REMARK    2  A    between atoms: C4_7  and  C5_8 
REMARK    3  A    between atoms: C6_11  and  N3_12 
REMARK       I    between atoms: N3_12  and  C7_14 
REMARK    4  A    between atoms: C9_23  and  O3_24 
REMARK    5  A    between atoms: N9_30  and  C10_31 
REMARK    6  A    between atoms: C10_31  and  C11_32 
REMARK    7  A    between atoms: C12_37  and  S1_38 
ROOT
HETATM    1  C3  UNL     1      42.343  22.922  16.283  1.00  0.00     0.150 A 
HETATM    2  C4  UNL     1      43.633  22.657  15.987  1.00  0.00     0.113 A 
HETATM    3  N7  UNL     1      43.709  23.017  14.636  1.00  0.00    -0.281 N 
ATOM      4  H7  UNL     1      44.549  22.955  14.060  1.00  0.00     0.188 HD
HETATM    5  N8  UNL     1      42.564  23.435  14.229  1.00  0.00    -0.239 N 
ATOM      6  H8  UNL     1      42.377  23.751  13.277  1.00  0.00     0.208 HD
HETATM    7  N9  UNL     1      41.670  23.409  15.173  1.00  0.00    -0.263 N 
ENDROOT
BRANCH   2   8
HETATM    8  C5  UNL     1      44.803  22.179  16.687  1.00  0.00     0.118 A 
HETATM    9  N2  UNL     1      45.677  21.388  15.959  1.00  0.00    -0.186 N 
HETATM   10  C6  UNL     1      46.757  20.827  16.507  1.00  0.00     0.688 A 
ATOM     11  H2  UNL     1      45.488  21.228  14.969  1.00  0.00     0.184 HD
HETATM   12  N6  UNL     1      47.089  20.976  17.796  1.00  0.00    -0.153 N 
HETATM   13  C8  UNL     1      46.301  21.719  18.556  1.00  0.00     0.295 A 
ATOM     14  H6  UNL     1      47.923  20.531  18.179  1.00  0.00     0.187 HD
HETATM   15  O2  UNL     1      46.560  21.895  19.774  1.00  0.00    -0.265 OA
HETATM   16  C9  UNL     1      45.160  22.310  17.979  1.00  0.00     0.165 A 
BRANCH  10  17
HETATM   17  N3  UNL     1      47.547  20.091  15.763  1.00  0.00    -0.164 N 
HETATM   18  C7  UNL     1      48.679  19.489  16.354  1.00  0.00     0.200 C 
HETATM   19  N4  UNL     1      49.797  20.126  16.297  1.00  0.00    -0.373 N 
HETATM   20  N5  UNL     1      48.666  18.231  17.005  1.00  0.00    -0.063 NA
ATOM     21  H42 UNL     1      49.806  21.032  15.828  1.00  0.00     0.158 HD
ATOM     22  H41 UNL     1      50.615  19.691  16.724  1.00  0.00     0.158 HD
ATOM     23  H3  UNL     1      47.347  19.956  14.772  1.00  0.00     0.187 HD
ENDBRANCH  10  17
BRANCH  16  24
HETATM   24  O3  UNL     1      44.411  23.043  18.853  1.00  0.00    -0.354 OA
ATOM     25  H3  UNL     1      44.816  23.629  19.481  1.00  0.00     0.218 HD
ENDBRANCH  16  24
ENDBRANCH   2   8
BRANCH   1  26
HETATM   26  C2  UNL     1      41.656  22.902  17.545  1.00  0.00     0.271 C 
HETATM   27  N1  UNL     1      41.665  24.048  18.403  1.00  0.00    -0.360 N 
HETATM   28  C1  UNL     1      40.980  24.018  19.660  1.00  0.00     0.149 C 
ATOM     29  H1  UNL     1      42.163  24.892  18.118  1.00  0.00     0.162 HD
HETATM   30  O1  UNL     1      41.024  21.894  17.957  1.00  0.00    -0.266 OA
ENDBRANCH   1  26
BRANCH   7  31
HETATM   31  C10 UNL     1      40.303  23.813  15.074  1.00  0.00     0.229 C 
BRANCH  31  32
HETATM   32  C11 UNL     1      40.082  25.267  15.336  1.00  0.00     0.120 A 
HETATM   33  N10 UNL     1      41.084  26.194  15.439  1.00  0.00    -0.285 N 
HETATM   34  N11 UNL     1      40.518  27.361  15.639  1.00  0.00    -0.278 N 
ATOM     35  H10 UNL     1      42.085  26.011  15.371  1.00  0.00     0.188 HD
HETATM   36  C12 UNL     1      39.196  27.205  15.667  1.00  0.00     0.162 A 
ATOM     37  H11 UNL     1      41.011  28.245  15.756  1.00  0.00     0.189 HD
HETATM   38  N12 UNL     1      38.944  25.898  15.476  1.00  0.00    -0.318 N 
HETATM   39  C14 UNL     1      37.578  25.337  15.421  1.00  0.00     0.160 C 
BRANCH  36  40
HETATM   40  S1  UNL     1      37.939  28.467  15.908  1.00  0.00    -0.097 SA
HETATM   41  C13 UNL     1      37.361  28.314  17.620  1.00  0.00     0.099 C 
ENDBRANCH  36  40
ENDBRANCH  31  32
ENDBRANCH   7  31
TORSDOF 7
ENDMDL
MODEL 4
REMARK VINA RESULT: -9.228448046      3.261      8.704
REMARK  7 active torsions:
REMARK  status: ('A' for Active; 'I' for Inactive)
REMARK       I    between atoms: N1_2  and  C2_4 
REMARK    1  A    between atoms: C2_4  and  C3_6 
REMARK    2  A    between atoms: C4_7  and  C5_8 
REMARK    3  A    between atoms: C6_11  and  N3_12 
REMARK       I    between atoms: N3_12  and  C7_14 
REMARK    4  A    between atoms: C9_23  and  O3_24 
REMARK    5  A    between atoms: N9_30  and  C10_31 
REMARK    6  A    between atoms: C10_31  and  C11_32 
REMARK    7  A    between atoms: C12_37  and  S1_38 
ROOT
HETATM    1  C3  UNL     1      39.827  23.069  15.434  1.00  0.00     0.150 A 
HETATM    2  C4  UNL     1      38.935  22.477  14.613  1.00  0.00     0.113 A 
HETATM    3  N7  UNL     1      39.466  22.754  13.347  1.00  0.00    -0.281 N 
ATOM      4  H7  UNL     1      39.056  22.456  12.462  1.00  0.00     0.188 HD
HETATM    5  N8  UNL     1      40.548  23.439  13.467  1.00  0.00    -0.239 N 
ATOM      6  H8  UNL     1      41.110  23.759  12.677  1.00  0.00     0.208 HD
HETATM    7  N9  UNL     1      40.841  23.677  14.710  1.00  0.00    -0.263 N 
ENDROOT
BRANCH   2   8
HETATM    8  C5  UNL     1      37.729  21.692  14.748  1.00  0.00     0.118 A 
HETATM    9  N2  UNL     1      36.686  22.014  13.895  1.00  0.00    -0.186 N 
HETATM   10  C6  UNL     1      35.496  21.413  13.965  1.00  0.00     0.688 A 
ATOM     11  H2  UNL     1      36.831  22.736  13.189  1.00  0.00     0.184 HD
HETATM   12  N6  UNL     1      35.208  20.456  14.856  1.00  0.00    -0.153 N 
HETATM   13  C8  UNL     1      36.155  20.095  15.707  1.00  0.00     0.295 A 
ATOM     14  H6  UNL     1      34.286  20.020  14.879  1.00  0.00     0.187 HD
HETATM   15  O2  UNL     1      35.944  19.203  16.567  1.00  0.00    -0.265 OA
HETATM   16  C9  UNL     1      37.411  20.730  15.634  1.00  0.00     0.165 A 
BRANCH  10  17
HETATM   17  N3  UNL     1      34.550  21.760  13.127  1.00  0.00    -0.164 N 
HETATM   18  C7  UNL     1      33.516  20.841  12.842  1.00  0.00     0.200 C 
HETATM   19  N4  UNL     1      33.659  20.073  11.818  1.00  0.00    -0.373 N 
HETATM   20  N5  UNL     1      32.333  20.708  13.609  1.00  0.00    -0.063 NA
ATOM     21  H42 UNL     1      34.512  20.169  11.266  1.00  0.00     0.158 HD
ATOM     22  H41 UNL     1      32.912  19.409  11.613  1.00  0.00     0.158 HD
ATOM     23  H3  UNL     1      34.560  22.680  12.686  1.00  0.00     0.187 HD
ENDBRANCH  10  17
BRANCH  16  24
HETATM   24  O3  UNL     1      38.309  20.293  16.563  1.00  0.00    -0.354 OA
ATOM     25  H3  UNL     1      39.243  20.295  16.389  1.00  0.00     0.218 HD
ENDBRANCH  16  24
ENDBRANCH   2   8
BRANCH   1  26
HETATM   26  C2  UNL     1      39.936  23.035  16.867  1.00  0.00     0.271 C 
HETATM   27  N1  UNL     1      39.462  24.128  17.664  1.00  0.00    -0.360 N 
HETATM   28  C1  UNL     1      39.578  24.087  19.089  1.00  0.00     0.149 C 
ATOM     29  H1  UNL     1      39.040  24.939  17.212  1.00  0.00     0.162 HD
HETATM   30  O1  UNL     1      40.446  22.066  17.487  1.00  0.00    -0.266 OA
ENDBRANCH   1  26
BRANCH   7  31
HETATM   31  C10 UNL     1      41.972  24.397  15.204  1.00  0.00     0.229 C 
BRANCH  31  32
HETATM   32  C11 UNL     1      43.120  23.524  15.595  1.00  0.00     0.120 A 
HETATM   33  N10 UNL     1      43.805  22.716  14.729  1.00  0.00    -0.285 N 
HETATM   34  N11 UNL     1      44.757  22.127  15.414  1.00  0.00    -0.278 N 
ATOM     35  H10 UNL     1      43.611  22.594  13.735  1.00  0.00     0.188 HD
HETATM   36  C12 UNL     1      44.699  22.535  16.681  1.00  0.00     0.162 A 
ATOM     37  H11 UNL     1      45.434  21.464  15.037  1.00  0.00     0.189 HD
HETATM   38  N12 UNL     1      43.676  23.403  16.774  1.00  0.00    -0.318 N 
HETATM   39  C14 UNL     1      43.310  24.090  18.029  1.00  0.00     0.160 C 
BRANCH  36  40
HETATM   40  S1  UNL     1      45.761  22.051  18.047  1.00  0.00    -0.097 SA
HETATM   41  C13 UNL     1      46.806  20.696  17.447  1.00  0.00     0.099 C 
ENDBRANCH  36  40
ENDBRANCH  31  32
ENDBRANCH   7  31
TORSDOF 7
ENDMDL
MODEL 5
REMARK VINA RESULT: -9.182748345      4.327      9.731
REMARK  7 active torsions:
REMARK  status: ('A' for Active; 'I' for Inactive)
REMARK       I    between atoms: N1_2  and  C2_4 
REMARK    1  A    between atoms: C2_4  and  C3_6 
REMARK    2  A    between atoms: C4_7  and  C5_8 
REMARK    3  A    between atoms: C6_11  and  N3_12 
REMARK       I    between atoms: N3_12  and  C7_14 
REMARK    4  A    between atoms: C9_23  and  O3_24 
REMARK    5  A    between atoms: N9_30  and  C10_31 
REMARK    6  A    between atoms: C10_31  and  C11_32 
REMARK    7  A    between atoms: C12_37  and  S1_38 
ROOT
HETATM    1  C3  UNL     1      37.909  23.033  15.615  1.00  0.00     0.150 A 
HETATM    2  C4  UNL     1      37.040  22.003  15.533  1.00  0.00     0.113 A 
HETATM    3  N7  UNL     1      37.465  21.172  16.576  1.00  0.00    -0.281 N 
ATOM      4  H7  UNL     1      37.035  20.281  16.828  1.00  0.00     0.188 HD
HETATM    5  N8  UNL     1      38.477  21.697  17.170  1.00  0.00    -0.239 N 
ATOM      6  H8  UNL     1      38.959  21.269  17.961  1.00  0.00     0.208 HD
HETATM    7  N9  UNL     1      38.816  22.836  16.644  1.00  0.00    -0.263 N 
ENDROOT
BRANCH   2   8
HETATM    8  C5  UNL     1      35.895  21.645  14.728  1.00  0.00     0.118 A 
HETATM    9  N2  UNL     1      35.084  22.689  14.311  1.00  0.00    -0.186 N 
HETATM   10  C6  UNL     1      33.959  22.487  13.622  1.00  0.00     0.688 A 
ATOM     11  H2  UNL     1      35.357  23.645  14.538  1.00  0.00     0.184 HD
HETATM   12  N6  UNL     1      33.517  21.270  13.278  1.00  0.00    -0.153 N 
HETATM   13  C8  UNL     1      34.238  20.223  13.643  1.00  0.00     0.295 A 
ATOM     14  H6  UNL     1      32.651  21.156  12.751  1.00  0.00     0.187 HD
HETATM   15  O2  UNL     1      33.874  19.056  13.349  1.00  0.00    -0.265 OA
HETATM   16  C9  UNL     1      35.425  20.435  14.370  1.00  0.00     0.165 A 
BRANCH  10  17
HETATM   17  N3  UNL     1      33.237  23.517  13.253  1.00  0.00    -0.164 N 
HETATM   18  C7  UNL     1      33.381  24.738  13.946  1.00  0.00     0.200 C 
HETATM   19  N4  UNL     1      32.580  24.972  14.927  1.00  0.00    -0.373 N 
HETATM   20  N5  UNL     1      34.350  25.723  13.633  1.00  0.00    -0.063 NA
ATOM     21  H42 UNL     1      31.883  24.262  15.152  1.00  0.00     0.158 HD
ATOM     22  H41 UNL     1      32.685  25.855  15.427  1.00  0.00     0.158 HD
ATOM     23  H3  UNL     1      32.579  23.436  12.477  1.00  0.00     0.187 HD
ENDBRANCH  10  17
BRANCH  16  24
HETATM   24  O3  UNL     1      36.084  19.289  14.706  1.00  0.00    -0.354 OA
ATOM     25  H3  UNL     1      35.825  18.771  15.460  1.00  0.00     0.218 HD
ENDBRANCH  16  24
ENDBRANCH   2   8
BRANCH   1  26
HETATM   26  C2  UNL     1      37.931  24.288  14.914  1.00  0.00     0.271 C 
HETATM   27  N1  UNL     1      37.179  25.409  15.394  1.00  0.00    -0.360 N 
HETATM   28  C1  UNL     1      37.205  26.653  14.688  1.00  0.00     0.149 C 
ATOM     29  H1  UNL     1      36.622  25.319  16.244  1.00  0.00     0.162 HD
HETATM   30  O1  UNL     1      38.597  24.465  13.861  1.00  0.00    -0.266 OA
ENDBRANCH   1  26
BRANCH   7  31
HETATM   31  C10 UNL     1      39.882  23.692  17.060  1.00  0.00     0.229 C 
BRANCH  31  32
HETATM   32  C11 UNL     1      41.189  23.392  16.402  1.00  0.00     0.120 A 
HETATM   33  N10 UNL     1      41.438  23.565  15.068  1.00  0.00    -0.285 N 
HETATM   34  N11 UNL     1      42.691  23.232  14.858  1.00  0.00    -0.278 N 
ATOM     35  H10 UNL     1      40.774  23.893  14.366  1.00  0.00     0.188 HD
HETATM   36  C12 UNL     1      43.241  22.856  16.011  1.00  0.00     0.162 A 
ATOM     37  H11 UNL     1      43.166  23.256  13.956  1.00  0.00     0.189 HD
HETATM   38  N12 UNL     1      42.293  22.963  16.959  1.00  0.00    -0.318 N 
HETATM   39  C14 UNL     1      42.535  22.652  18.383  1.00  0.00     0.160 C 
BRANCH  36  40
HETATM   40  S1  UNL     1      44.925  22.302  16.302  1.00  0.00    -0.097 SA
HETATM   41  C13 UNL     1      45.513  21.564  14.754  1.00  0.00     0.099 C 
ENDBRANCH  36  40
ENDBRANCH  31  32
ENDBRANCH   7  31
TORSDOF 7
ENDMDL
