MODEL 1
REMARK VINA RESULT: -10.337158345      0.000      0.000
REMARK  5 active torsions:
REMARK  status: ('A' for Active; 'I' for Inactive)
REMARK       I    between atoms: C2_2  and  N1_4 
REMARK    1  A    between atoms: N1_4  and  C3_5 
REMARK    2  A    between atoms: C3_5  and  C4_6 
REMARK    3  A    between atoms: C4_6  and  C5_7 
REMARK    4  A    between atoms: C6_10  and  C7_11 
REMARK    5  A    between atoms: N5_16  and  C8_17 
REMARK       I    between atoms: N11_35  and  C13_37 
ROOT
HETATM    1  C5  UNL     1      40.779  23.927  18.377  1.00  0.00     0.031 A 
HETATM    2  N2  UNL     1      41.842  23.329  17.757  1.00  0.00    -0.355 N 
ATOM      3  H2  UNL     1      42.299  22.564  18.253  1.00  0.00     0.166 HD
HETATM    4  C6  UNL     1      42.331  23.654  16.571  1.00  0.00     0.081 A 
HETATM    5  C10 UNL     1      41.707  24.683  15.919  1.00  0.00     0.054 A 
HETATM    6  C11 UNL     1      40.610  25.334  16.513  1.00  0.00     0.040 A 
HETATM    7  S1  UNL     1      39.600  26.628  16.061  1.00  0.00    -0.012 SA
HETATM    8  N10 UNL     1      38.609  26.688  17.411  1.00  0.00    -0.311 N 
ATOM      9  H10 UNL     1      37.834  27.324  17.591  1.00  0.00     0.176 HD
HETATM   10  C12 UNL     1      39.067  25.712  18.193  1.00  0.00     0.127 A 
HETATM   11  N11 UNL     1      38.491  25.509  19.363  1.00  0.00    -0.316 N 
ATOM     12  H11 UNL     1      38.842  24.761  19.960  1.00  0.00     0.170 HD
HETATM   13  C13 UNL     1      37.408  26.287  19.818  1.00  0.00     0.187 C 
HETATM   14  N12 UNL     1      37.552  27.071  20.814  1.00  0.00    -0.373 N 
ATOM     15 1H12 UNL     1      36.768  27.634  21.143  1.00  0.00     0.158 HD
ATOM     16 2H12 UNL     1      38.452  27.144  21.288  1.00  0.00     0.158 HD
HETATM   17  N13 UNL     1      36.134  26.186  19.147  1.00  0.00    -0.064 NA
HETATM   18  C14 UNL     1      40.116  24.978  17.756  1.00  0.00     0.050 A 
ENDROOT
BRANCH   4  19
HETATM   19  C7  UNL     1      43.468  22.949  15.989  1.00  0.00     0.165 A 
HETATM   20  N3  UNL     1      43.736  22.839  14.649  1.00  0.00    -0.266 N 
HETATM   21  N4  UNL     1      44.844  22.138  14.532  1.00  0.00    -0.218 N 
ATOM     22  H3  UNL     1      43.181  23.228  13.886  1.00  0.00     0.190 HD
HETATM   23  N5  UNL     1      45.318  21.781  15.717  1.00  0.00    -0.158 N 
ATOM     24  H4  UNL     1      45.282  21.900  13.642  1.00  0.00     0.210 HD
HETATM   25  N9  UNL     1      44.461  22.289  16.583  1.00  0.00    -0.258 N 
ATOM     26  H9  UNL     1      44.550  22.187  17.594  1.00  0.00     0.191 HD
BRANCH  23  27
HETATM   27  C8  UNL     1      46.495  21.022  15.951  1.00  0.00     0.214 A 
HETATM   28  N6  UNL     1      46.636  19.689  16.028  1.00  0.00    -0.219 N 
HETATM   29  O2  UNL     1      47.886  19.401  16.254  1.00  0.00    -0.153 OA
ATOM     30  H6  UNL     1      45.883  19.008  15.926  1.00  0.00     0.198 HD
HETATM   31  N7  UNL     1      48.613  20.475  16.335  1.00  0.00    -0.222 N 
HETATM   32  C9  UNL     1      47.769  21.522  16.149  1.00  0.00     0.171 A 
ATOM     33  H7  UNL     1      49.617  20.523  16.505  1.00  0.00     0.198 HD
HETATM   34  N8  UNL     1      48.078  22.772  16.156  1.00  0.00    -0.381 N 
ATOM     35  H82 UNL     1      47.443  23.558  16.015  1.00  0.00     0.157 HD
ATOM     36  H81 UNL     1      49.018  23.140  16.301  1.00  0.00     0.157 HD
ENDBRANCH  23  27
ENDBRANCH   4  19
BRANCH   1  37
HETATM   37  C4  UNL     1      40.424  23.316  19.661  1.00  0.00     0.117 C 
BRANCH  37  38
HETATM   38  C3  UNL     1      39.922  21.882  19.572  1.00  0.00     0.165 C 
BRANCH  38  39
HETATM   39  N1  UNL     1      39.181  21.639  18.455  1.00  0.00    -0.388 NA
HETATM   40  C2  UNL     1      38.449  21.399  17.350  1.00  0.00     0.286 C 
HETATM   41  C1  UNL     1      37.404  22.455  16.962  1.00  0.00     0.135 C 
HETATM   42  O1  UNL     1      38.467  20.417  16.540  1.00  0.00    -0.258 OA
ENDBRANCH  38  39
ENDBRANCH  37  38
ENDBRANCH   1  37
TORSDOF 5
ENDMDL
MODEL 2
REMARK VINA RESULT: -10.221603985      1.931      2.612
REMARK  5 active torsions:
REMARK  status: ('A' for Active; 'I' for Inactive)
REMARK       I    between atoms: C2_2  and  N1_4 
REMARK    1  A    between atoms: N1_4  and  C3_5 
REMARK    2  A    between atoms: C3_5  and  C4_6 
REMARK    3  A    between atoms: C4_6  and  C5_7 
REMARK    4  A    between atoms: C6_10  and  C7_11 
REMARK    5  A    between atoms: N5_16  and  C8_17 
REMARK       I    between atoms: N11_35  and  C13_37 
ROOT
HETATM    1  C5  UNL     1      40.715  23.869  18.192  1.00  0.00     0.031 A 
HETATM    2  N2  UNL     1      41.793  23.267  17.603  1.00  0.00    -0.355 N 
ATOM      3  H2  UNL     1      42.195  22.462  18.084  1.00  0.00     0.166 HD
HETATM    4  C6  UNL     1      42.362  23.633  16.466  1.00  0.00     0.081 A 
HETATM    5  C10 UNL     1      41.811  24.715  15.834  1.00  0.00     0.054 A 
HETATM    6  C11 UNL     1      40.703  25.374  16.397  1.00  0.00     0.040 A 
HETATM    7  S1  UNL     1      39.763  26.724  15.956  1.00  0.00    -0.012 SA
HETATM    8  N10 UNL     1      38.697  26.750  17.249  1.00  0.00    -0.311 N 
ATOM      9  H10 UNL     1      37.933  27.404  17.418  1.00  0.00     0.176 HD
HETATM   10  C12 UNL     1      39.076  25.721  18.004  1.00  0.00     0.127 A 
HETATM   11  N11 UNL     1      38.425  25.480  19.126  1.00  0.00    -0.316 N 
ATOM     12  H11 UNL     1      38.716  24.691  19.703  1.00  0.00     0.170 HD
HETATM   13  C13 UNL     1      37.342  26.272  19.558  1.00  0.00     0.187 C 
HETATM   14  N12 UNL     1      37.453  26.999  20.601  1.00  0.00    -0.373 N 
ATOM     15 1H12 UNL     1      36.669  27.572  20.914  1.00  0.00     0.158 HD
ATOM     16 2H12 UNL     1      38.326  27.016  21.129  1.00  0.00     0.158 HD
HETATM   17  N13 UNL     1      36.108  26.249  18.812  1.00  0.00    -0.064 NA
HETATM   18  C14 UNL     1      40.125  24.973  17.589  1.00  0.00     0.050 A 
ENDROOT
BRANCH   4  19
HETATM   19  C7  UNL     1      43.507  22.919  15.914  1.00  0.00     0.165 A 
HETATM   20  N3  UNL     1      43.800  22.791  14.581  1.00  0.00    -0.266 N 
HETATM   21  N4  UNL     1      44.908  22.087  14.493  1.00  0.00    -0.218 N 
ATOM     22  H3  UNL     1      43.260  23.172  13.803  1.00  0.00     0.190 HD
HETATM   23  N5  UNL     1      45.360  21.744  15.691  1.00  0.00    -0.158 N 
ATOM     24  H4  UNL     1      45.362  21.837  13.614  1.00  0.00     0.210 HD
HETATM   25  N9  UNL     1      44.488  22.264  16.534  1.00  0.00    -0.258 N 
ATOM     26  H9  UNL     1      44.557  22.175  17.548  1.00  0.00     0.191 HD
BRANCH  23  27
HETATM   27  C8  UNL     1      46.530  20.986  15.956  1.00  0.00     0.214 A 
HETATM   28  N6  UNL     1      46.665  19.654  16.066  1.00  0.00    -0.219 N 
HETATM   29  O2  UNL     1      47.911  19.366  16.312  1.00  0.00    -0.153 OA
ATOM     30  H6  UNL     1      45.910  18.975  15.971  1.00  0.00     0.198 HD
HETATM   31  N7  UNL     1      48.641  20.439  16.377  1.00  0.00    -0.222 N 
HETATM   32  C9  UNL     1      47.804  21.485  16.157  1.00  0.00     0.171 A 
ATOM     33  H7  UNL     1      49.644  20.486  16.558  1.00  0.00     0.198 HD
HETATM   34  N8  UNL     1      48.118  22.733  16.138  1.00  0.00    -0.381 N 
ATOM     35  H82 UNL     1      47.489  23.519  15.972  1.00  0.00     0.157 HD
ATOM     36  H81 UNL     1      49.058  23.101  16.287  1.00  0.00     0.157 HD
ENDBRANCH  23  27
ENDBRANCH   4  19
BRANCH   1  37
HETATM   37  C4  UNL     1      40.265  23.207  19.419  1.00  0.00     0.117 C 
BRANCH  37  38
HETATM   38  C3  UNL     1      41.185  23.381  20.618  1.00  0.00     0.165 C 
BRANCH  38  39
HETATM   39  N1  UNL     1      40.880  24.471  21.377  1.00  0.00    -0.388 NA
HETATM   40  C2  UNL     1      40.577  25.548  22.126  1.00  0.00     0.286 C 
HETATM   41  C1  UNL     1      41.736  26.230  22.867  1.00  0.00     0.135 C 
HETATM   42  O1  UNL     1      39.461  26.122  22.341  1.00  0.00    -0.258 OA
ENDBRANCH  38  39
ENDBRANCH  37  38
ENDBRANCH   1  37
TORSDOF 5
ENDMDL
MODEL 3
REMARK VINA RESULT: -10.059051429      2.964      3.868
REMARK  5 active torsions:
REMARK  status: ('A' for Active; 'I' for Inactive)
REMARK       I    between atoms: C2_2  and  N1_4 
REMARK    1  A    between atoms: N1_4  and  C3_5 
REMARK    2  A    between atoms: C3_5  and  C4_6 
REMARK    3  A    between atoms: C4_6  and  C5_7 
REMARK    4  A    between atoms: C6_10  and  C7_11 
REMARK    5  A    between atoms: N5_16  and  C8_17 
REMARK       I    between atoms: N11_35  and  C13_37 
ROOT
HETATM    1  C5  UNL     1      39.409  24.000  14.580  1.00  0.00     0.031 A 
HETATM    2  N2  UNL     1      40.619  23.600  15.077  1.00  0.00    -0.355 N 
ATOM      3  H2  UNL     1      40.960  22.683  14.786  1.00  0.00     0.166 HD
HETATM    4  C6  UNL     1      41.388  24.294  15.899  1.00  0.00     0.081 A 
HETATM    5  C10 UNL     1      40.916  25.521  16.281  1.00  0.00     0.054 A 
HETATM    6  C11 UNL     1      39.675  25.981  15.801  1.00  0.00     0.040 A 
HETATM    7  S1  UNL     1      38.749  27.390  16.039  1.00  0.00    -0.012 SA
HETATM    8  N10 UNL     1      37.429  27.016  15.077  1.00  0.00    -0.311 N 
ATOM      9  H10 UNL     1      36.597  27.581  14.908  1.00  0.00     0.176 HD
HETATM   10  C12 UNL     1      37.715  25.812  14.585  1.00  0.00     0.127 A 
HETATM   11  N11 UNL     1      36.845  25.227  13.784  1.00  0.00    -0.316 N 
ATOM     12  H11 UNL     1      37.066  24.306  13.408  1.00  0.00     0.170 HD
HETATM   13  C13 UNL     1      35.620  25.827  13.429  1.00  0.00     0.187 C 
HETATM   14  N12 UNL     1      34.518  25.332  13.838  1.00  0.00    -0.373 N 
ATOM     15 1H12 UNL     1      33.632  25.766  13.581  1.00  0.00     0.158 HD
ATOM     16 2H12 UNL     1      34.513  24.498  14.426  1.00  0.00     0.158 HD
HETATM   17  N13 UNL     1      35.626  27.007  12.597  1.00  0.00    -0.064 NA
HETATM   18  C14 UNL     1      38.887  25.236  14.941  1.00  0.00     0.050 A 
ENDROOT
BRANCH   4  19
HETATM   19  C7  UNL     1      42.671  23.782  16.369  1.00  0.00     0.165 A 
HETATM   20  N3  UNL     1      43.284  24.128  17.545  1.00  0.00    -0.266 N 
HETATM   21  N4  UNL     1      44.412  23.452  17.607  1.00  0.00    -0.218 N 
ATOM     22  H3  UNL     1      42.933  24.786  18.241  1.00  0.00     0.190 HD
HETATM   23  N5  UNL     1      44.574  22.683  16.540  1.00  0.00    -0.158 N 
ATOM     24  H4  UNL     1      45.076  23.513  18.379  1.00  0.00     0.210 HD
HETATM   25  N9  UNL     1      43.500  22.904  15.806  1.00  0.00    -0.258 N 
ATOM     26  H9  UNL     1      43.324  22.454  14.908  1.00  0.00     0.191 HD
BRANCH  23  27
HETATM   27  C8  UNL     1      45.677  21.825  16.289  1.00  0.00     0.214 A 
HETATM   28  N6  UNL     1      46.550  21.297  17.163  1.00  0.00    -0.219 N 
HETATM   29  O2  UNL     1      47.410  20.560  16.520  1.00  0.00    -0.153 OA
ATOM     30  H6  UNL     1      46.541  21.449  18.171  1.00  0.00     0.198 HD
HETATM   31  N7  UNL     1      47.169  20.556  15.243  1.00  0.00    -0.222 N 
HETATM   32  C9  UNL     1      46.080  21.344  15.057  1.00  0.00     0.171 A 
ATOM     33  H7  UNL     1      47.694  20.059  14.524  1.00  0.00     0.198 HD
HETATM   34  N8  UNL     1      45.507  21.616  13.936  1.00  0.00    -0.381 N 
ATOM     35  H82 UNL     1      44.688  22.208  13.797  1.00  0.00     0.157 HD
ATOM     36  H81 UNL     1      45.805  21.261  13.027  1.00  0.00     0.157 HD
ENDBRANCH  23  27
ENDBRANCH   4  19
BRANCH   1  37
HETATM   37  C4  UNL     1      38.811  23.047  13.640  1.00  0.00     0.117 C 
BRANCH  37  38
HETATM   38  C3  UNL     1      38.163  21.830  14.284  1.00  0.00     0.165 C 
BRANCH  38  39
HETATM   39  N1  UNL     1      36.817  21.961  14.450  1.00  0.00    -0.388 NA
HETATM   40  C2  UNL     1      35.487  22.092  14.614  1.00  0.00     0.286 C 
HETATM   41  C1  UNL     1      34.591  21.088  13.873  1.00  0.00     0.135 C 
HETATM   42  O1  UNL     1      34.813  22.930  15.296  1.00  0.00    -0.258 OA
ENDBRANCH  38  39
ENDBRANCH  37  38
ENDBRANCH   1  37
TORSDOF 5
ENDMDL
MODEL 4
REMARK VINA RESULT: -9.877038225      1.808      2.481
REMARK  5 active torsions:
REMARK  status: ('A' for Active; 'I' for Inactive)
REMARK       I    between atoms: C2_2  and  N1_4 
REMARK    1  A    between atoms: N1_4  and  C3_5 
REMARK    2  A    between atoms: C3_5  and  C4_6 
REMARK    3  A    between atoms: C4_6  and  C5_7 
REMARK    4  A    between atoms: C6_10  and  C7_11 
REMARK    5  A    between atoms: N5_16  and  C8_17 
REMARK       I    between atoms: N11_35  and  C13_37 
ROOT
HETATM    1  C5  UNL     1      40.288  24.240  15.523  1.00  0.00     0.031 A 
HETATM    2  N2  UNL     1      41.471  23.634  15.204  1.00  0.00    -0.355 N 
ATOM      3  H2  UNL     1      41.639  23.433  14.218  1.00  0.00     0.166 HD
HETATM    4  C6  UNL     1      42.419  23.284  16.057  1.00  0.00     0.081 A 
HETATM    5  C10 UNL     1      42.180  23.560  17.377  1.00  0.00     0.054 A 
HETATM    6  C11 UNL     1      40.977  24.181  17.761  1.00  0.00     0.040 A 
HETATM    7  S1  UNL     1      40.302  24.664  19.248  1.00  0.00    -0.012 SA
HETATM    8  N10 UNL     1      38.845  25.283  18.700  1.00  0.00    -0.311 N 
ATOM      9  H10 UNL     1      38.093  25.697  19.251  1.00  0.00     0.176 HD
HETATM   10  C12 UNL     1      38.894  25.112  17.381  1.00  0.00     0.127 A 
HETATM   11  N11 UNL     1      37.865  25.495  16.649  1.00  0.00    -0.316 N 
ATOM     12  H11 UNL     1      37.904  25.363  15.639  1.00  0.00     0.170 HD
HETATM   13  C13 UNL     1      36.712  26.079  17.211  1.00  0.00     0.187 C 
HETATM   14  N12 UNL     1      35.599  25.456  17.190  1.00  0.00    -0.373 N 
ATOM     15 1H12 UNL     1      34.765  25.879  17.597  1.00  0.00     0.158 HD
ATOM     16 2H12 UNL     1      35.534  24.530  16.769  1.00  0.00     0.158 HD
HETATM   17  N13 UNL     1      36.804  27.390  17.809  1.00  0.00    -0.064 NA
HETATM   18  C14 UNL     1      39.998  24.538  16.849  1.00  0.00     0.050 A 
ENDROOT
BRANCH   4  19
HETATM   19  C7  UNL     1      43.655  22.646  15.616  1.00  0.00     0.165 A 
HETATM   20  N3  UNL     1      44.109  22.598  14.323  1.00  0.00    -0.266 N 
HETATM   21  N4  UNL     1      45.252  21.946  14.338  1.00  0.00    -0.218 N 
ATOM     22  H3  UNL     1      43.647  22.994  13.504  1.00  0.00     0.190 HD
HETATM   23  N5  UNL     1      45.574  21.562  15.565  1.00  0.00    -0.158 N 
ATOM     24  H4  UNL     1      45.817  21.759  13.510  1.00  0.00     0.210 HD
HETATM   25  N9  UNL     1      44.585  22.003  16.320  1.00  0.00    -0.258 N 
ATOM     26  H9  UNL     1      44.538  21.866  17.329  1.00  0.00     0.191 HD
BRANCH  23  27
HETATM   27  C8  UNL     1      46.739  20.841  15.935  1.00  0.00     0.214 A 
HETATM   28  N6  UNL     1      46.898  19.515  16.084  1.00  0.00    -0.219 N 
HETATM   29  O2  UNL     1      48.129  19.266  16.430  1.00  0.00    -0.153 OA
ATOM     30  H6  UNL     1      46.170  18.815  15.947  1.00  0.00     0.198 HD
HETATM   31  N7  UNL     1      48.825  20.359  16.527  1.00  0.00    -0.222 N 
HETATM   32  C9  UNL     1      47.981  21.377  16.220  1.00  0.00     0.171 A 
ATOM     33  H7  UNL     1      49.809  20.436  16.782  1.00  0.00     0.198 HD
HETATM   34  N8  UNL     1      48.265  22.633  16.198  1.00  0.00    -0.381 N 
ATOM     35  H82 UNL     1      47.631  23.398  15.968  1.00  0.00     0.157 HD
ATOM     36  H81 UNL     1      49.181  23.028  16.409  1.00  0.00     0.157 HD
ENDBRANCH  23  27
ENDBRANCH   4  19
BRANCH   1  37
HETATM   37  C4  UNL     1      39.457  24.565  14.361  1.00  0.00     0.117 C 
BRANCH  37  38
HETATM   38  C3  UNL     1      39.104  23.381  13.472  1.00  0.00     0.165 C 
BRANCH  38  39
HETATM   39  N1  UNL     1      38.823  22.247  14.174  1.00  0.00    -0.388 NA
HETATM   40  C2  UNL     1      38.546  21.126  14.866  1.00  0.00     0.286 C 
HETATM   41  C1  UNL     1      37.958  21.303  16.274  1.00  0.00     0.135 C 
HETATM   42  O1  UNL     1      38.691  19.900  14.554  1.00  0.00    -0.258 OA
ENDBRANCH  38  39
ENDBRANCH  37  38
ENDBRANCH   1  37
TORSDOF 5
ENDMDL
MODEL 5
REMARK VINA RESULT: -9.876725786      2.587      3.535
REMARK  5 active torsions:
REMARK  status: ('A' for Active; 'I' for Inactive)
REMARK       I    between atoms: C2_2  and  N1_4 
REMARK    1  A    between atoms: N1_4  and  C3_5 
REMARK    2  A    between atoms: C3_5  and  C4_6 
REMARK    3  A    between atoms: C4_6  and  C5_7 
REMARK    4  A    between atoms: C6_10  and  C7_11 
REMARK    5  A    between atoms: N5_16  and  C8_17 
REMARK       I    between atoms: N11_35  and  C13_37 
ROOT
HETATM    1  C5  UNL     1      39.323  23.911  14.654  1.00  0.00     0.031 A 
HETATM    2  N2  UNL     1      40.546  23.526  15.133  1.00  0.00    -0.355 N 
ATOM      3  H2  UNL     1      40.867  22.590  14.884  1.00  0.00     0.166 HD
HETATM    4  C6  UNL     1      41.349  24.257  15.888  1.00  0.00     0.081 A 
HETATM    5  C10 UNL     1      40.902  25.510  16.212  1.00  0.00     0.054 A 
HETATM    6  C11 UNL     1      39.650  25.955  15.748  1.00  0.00     0.040 A 
HETATM    7  S1  UNL     1      38.747  27.387  15.934  1.00  0.00    -0.012 SA
HETATM    8  N10 UNL     1      37.391  26.974  15.040  1.00  0.00    -0.311 N 
ATOM      9  H10 UNL     1      36.560  27.538  14.866  1.00  0.00     0.176 HD
HETATM   10  C12 UNL     1      37.649  25.741  14.609  1.00  0.00     0.127 A 
HETATM   11  N11 UNL     1      36.746  25.121  13.873  1.00  0.00    -0.316 N 
ATOM     12  H11 UNL     1      36.946  24.177  13.544  1.00  0.00     0.170 HD
HETATM   13  C13 UNL     1      35.517  25.714  13.525  1.00  0.00     0.187 C 
HETATM   14  N12 UNL     1      34.424  25.256  13.997  1.00  0.00    -0.373 N 
ATOM     15 1H12 UNL     1      33.534  25.685  13.745  1.00  0.00     0.158 HD
ATOM     16 2H12 UNL     1      34.431  24.458  14.633  1.00  0.00     0.158 HD
HETATM   17  N13 UNL     1      35.507  26.843  12.626  1.00  0.00    -0.064 NA
HETATM   18  C14 UNL     1      38.826  25.172  14.959  1.00  0.00     0.050 A 
ENDROOT
BRANCH   4  19
HETATM   19  C7  UNL     1      42.641  23.758  16.344  1.00  0.00     0.165 A 
HETATM   20  N3  UNL     1      43.271  24.121  17.507  1.00  0.00    -0.266 N 
HETATM   21  N4  UNL     1      44.403  23.452  17.559  1.00  0.00    -0.218 N 
ATOM     22  H3  UNL     1      42.926  24.784  18.201  1.00  0.00     0.190 HD
HETATM   23  N5  UNL     1      44.554  22.672  16.498  1.00  0.00    -0.158 N 
ATOM     24  H4  UNL     1      45.079  23.525  18.320  1.00  0.00     0.210 HD
HETATM   25  N9  UNL     1      43.467  22.879  15.778  1.00  0.00    -0.258 N 
ATOM     26  H9  UNL     1      43.281  22.417  14.888  1.00  0.00     0.191 HD
BRANCH  23  27
HETATM   27  C8  UNL     1      45.658  21.818  16.240  1.00  0.00     0.214 A 
HETATM   28  N6  UNL     1      46.542  21.298  17.108  1.00  0.00    -0.219 N 
HETATM   29  O2  UNL     1      47.399  20.562  16.459  1.00  0.00    -0.153 OA
ATOM     30  H6  UNL     1      46.542  21.455  18.115  1.00  0.00     0.198 HD
HETATM   31  N7  UNL     1      47.145  20.550  15.185  1.00  0.00    -0.222 N 
HETATM   32  C9  UNL     1      46.050  21.333  15.007  1.00  0.00     0.171 A 
ATOM     33  H7  UNL     1      47.665  20.052  14.463  1.00  0.00     0.198 HD
HETATM   34  N8  UNL     1      45.465  21.596  13.890  1.00  0.00    -0.381 N 
ATOM     35  H82 UNL     1      44.642  22.184  13.756  1.00  0.00     0.157 HD
ATOM     36  H81 UNL     1      45.756  21.239  12.980  1.00  0.00     0.157 HD
ENDBRANCH  23  27
ENDBRANCH   4  19
BRANCH   1  37
HETATM   37  C4  UNL     1      38.685  22.913  13.791  1.00  0.00     0.117 C 
BRANCH  37  38
HETATM   38  C3  UNL     1      38.265  21.631  14.495  1.00  0.00     0.165 C 
BRANCH  38  39
HETATM   39  N1  UNL     1      38.396  21.693  15.849  1.00  0.00    -0.388 NA
HETATM   40  C2  UNL     1      38.527  21.753  17.188  1.00  0.00     0.286 C 
HETATM   41  C1  UNL     1      37.682  22.802  17.925  1.00  0.00     0.135 C 
HETATM   42  O1  UNL     1      39.254  21.073  17.983  1.00  0.00    -0.258 OA
ENDBRANCH  38  39
ENDBRANCH  37  38
ENDBRANCH   1  37
TORSDOF 5
ENDMDL
