MODEL 1
REMARK VINA RESULT: -8.383372952      0.000      0.000
REMARK  11 active torsions:
REMARK  status: ('A' for Active; 'I' for Inactive)
REMARK    1  A    between atoms: C2_2  and  O1_3 
REMARK    2  A    between atoms: O1_3  and  C3_4 
REMARK    3  A    between atoms: C6_11  and  C7_12 
REMARK    4  A    between atoms: C7_12  and  N3_13 
REMARK    5  A    between atoms: N3_13  and  N4_15 
REMARK    6  A    between atoms: N4_15  and  C8_17 
REMARK    7  A    between atoms: C9_19  and  C10_20 
REMARK       I    between atoms: C10_20  and  N5_22 
REMARK    8  A    between atoms: N5_22  and  C11_24 
REMARK    9  A    between atoms: C13_34  and  C14_35 
REMARK   10  A    between atoms: C14_35  and  N10_36 
REMARK   11  A    between atoms: C14_35  and  N11_40 
ROOT
HETATM    1  C8  UNL     1      39.316  23.703  17.205  1.00  0.00     0.114 A 
HETATM    2  S1  UNL     1      38.868  25.096  16.284  1.00  0.00    -0.064 SA
HETATM    3  C9  UNL     1      37.614  24.832  15.166  1.00  0.00     0.076 A 
HETATM    4  C12 UNL     1      37.135  23.547  15.156  1.00  0.00     0.037 A 
HETATM    5  C13 UNL     1      37.580  22.536  15.940  1.00  0.00     0.027 A 
HETATM    6  C15 UNL     1      38.577  22.586  16.883  1.00  0.00     0.091 A 
HETATM    7  N12 UNL     1      38.917  21.394  17.627  1.00  0.00    -0.099 NA
ENDROOT
BRANCH   1   8
HETATM    8  N4  UNL     1      40.247  23.736  18.091  1.00  0.00    -0.293 N 
ATOM      9  H4  UNL     1      40.145  24.448  18.814  1.00  0.00     0.187 HD
BRANCH   8  10
HETATM   10  N3  UNL     1      41.354  22.944  18.193  1.00  0.00    -0.310 N 
ATOM     11  H3  UNL     1      41.204  21.962  18.421  1.00  0.00     0.186 HD
BRANCH  10  12
HETATM   12  C7  UNL     1      42.565  23.327  18.028  1.00  0.00     0.125 C 
BRANCH  12  13
HETATM   13  C6  UNL     1      43.390  22.938  16.901  1.00  0.00     0.057 A 
HETATM   14  C3  UNL     1      42.991  22.990  15.578  1.00  0.00     0.171 A 
HETATM   15  N1  UNL     1      44.023  22.547  14.826  1.00  0.00    -0.279 N 
HETATM   16  N2  UNL     1      45.027  22.227  15.626  1.00  0.00    -0.302 N 
ATOM     17  H1  UNL     1      44.027  22.471  13.809  1.00  0.00     0.189 HD
HETATM   18  C4  UNL     1      44.672  22.456  16.926  1.00  0.00     0.038 A 
ATOM     19  H2  UNL     1      45.930  21.864  15.318  1.00  0.00     0.186 HD
HETATM   20  C5  UNL     1      45.505  22.228  18.131  1.00  0.00     0.070 C 
BRANCH  14  21
HETATM   21  O1  UNL     1      41.750  23.425  15.131  1.00  0.00    -0.334 OA
BRANCH  21  22
HETATM   22  C2  UNL     1      41.731  24.186  13.931  1.00  0.00     0.173 C 
HETATM   23  C1  UNL     1      40.520  23.768  13.106  1.00  0.00     0.034 C 
ENDBRANCH  21  22
ENDBRANCH  14  21
ENDBRANCH  12  13
ENDBRANCH  10  12
ENDBRANCH   8  10
ENDBRANCH   1   8
BRANCH   3  24
HETATM   24  C10 UNL     1      37.060  25.855  14.273  1.00  0.00     0.277 C 
HETATM   25  O2  UNL     1      37.585  26.996  14.264  1.00  0.00    -0.266 OA
HETATM   26  N5  UNL     1      35.969  25.625  13.424  1.00  0.00    -0.152 N 
ATOM     27  H5  UNL     1      35.979  24.751  12.898  1.00  0.00     0.187 HD
BRANCH  26  28
HETATM   28  C11 UNL     1      34.980  26.379  13.240  1.00  0.00     0.716 A 
HETATM   29  N6  UNL     1      35.003  27.650  12.820  1.00  0.00    -0.115 N 
HETATM   30  N7  UNL     1      33.761  28.116  12.747  1.00  0.00    -0.213 N 
ATOM     31  H6  UNL     1      35.845  28.179  12.592  1.00  0.00     0.207 HD
HETATM   32  N8  UNL     1      32.942  27.156  13.116  1.00  0.00    -0.213 N 
ATOM     33  H7  UNL     1      33.490  29.055  12.455  1.00  0.00     0.210 HD
HETATM   34  N9  UNL     1      33.688  26.081  13.421  1.00  0.00    -0.115 N 
ATOM     35  H8  UNL     1      31.925  27.217  13.162  1.00  0.00     0.210 HD
ATOM     36  H9  UNL     1      33.327  25.182  13.739  1.00  0.00     0.207 HD
ENDBRANCH  26  28
ENDBRANCH   3  24
BRANCH   5  37
HETATM   37  C14 UNL     1      36.905  21.199  15.760  1.00  0.00     0.413 C 
BRANCH  37  38
HETATM   38  N10 UNL     1      35.740  21.337  14.907  1.00  0.00    -0.046 N 
ATOM     39 3H10 UNL     1      35.780  22.185  14.341  1.00  0.00     0.277 HD
ATOM     40 2H10 UNL     1      35.738  20.652  14.150  1.00  0.00     0.277 HD
ATOM     41 1H10 UNL     1      34.887  21.291  15.464  1.00  0.00     0.277 HD
ENDBRANCH  37  38
BRANCH  37  42
HETATM   42  N11 UNL     1      37.813  20.283  15.092  1.00  0.00    -0.046 N 
ATOM     43 3H11 UNL     1      38.003  20.561  14.130  1.00  0.00     0.277 HD
ATOM     44 2H11 UNL     1      38.764  20.352  15.454  1.00  0.00     0.277 HD
ATOM     45 1H11 UNL     1      37.445  19.334  15.154  1.00  0.00     0.277 HD
ENDBRANCH  37  42
ENDBRANCH   5  37
TORSDOF 11
ENDMDL
MODEL 2
REMARK VINA RESULT: -8.353766727      1.070      2.354
REMARK  11 active torsions:
REMARK  status: ('A' for Active; 'I' for Inactive)
REMARK    1  A    between atoms: C2_2  and  O1_3 
REMARK    2  A    between atoms: O1_3  and  C3_4 
REMARK    3  A    between atoms: C6_11  and  C7_12 
REMARK    4  A    between atoms: C7_12  and  N3_13 
REMARK    5  A    between atoms: N3_13  and  N4_15 
REMARK    6  A    between atoms: N4_15  and  C8_17 
REMARK    7  A    between atoms: C9_19  and  C10_20 
REMARK       I    between atoms: C10_20  and  N5_22 
REMARK    8  A    between atoms: N5_22  and  C11_24 
REMARK    9  A    between atoms: C13_34  and  C14_35 
REMARK   10  A    between atoms: C14_35  and  N10_36 
REMARK   11  A    between atoms: C14_35  and  N11_40 
ROOT
HETATM    1  C8  UNL     1      39.225  24.138  17.422  1.00  0.00     0.114 A 
HETATM    2  S1  UNL     1      38.668  25.504  16.521  1.00  0.00    -0.064 SA
HETATM    3  C9  UNL     1      37.651  25.121  15.212  1.00  0.00     0.076 A 
HETATM    4  C12 UNL     1      37.418  23.778  15.060  1.00  0.00     0.037 A 
HETATM    5  C13 UNL     1      37.923  22.799  15.847  1.00  0.00     0.027 A 
HETATM    6  C15 UNL     1      38.752  22.942  16.932  1.00  0.00     0.091 A 
HETATM    7  N12 UNL     1      39.193  21.769  17.653  1.00  0.00    -0.099 NA
ENDROOT
BRANCH   1   8
HETATM    8  N4  UNL     1      40.001  24.258  18.441  1.00  0.00    -0.293 N 
ATOM      9  H4  UNL     1      39.556  24.577  19.301  1.00  0.00     0.187 HD
BRANCH   8  10
HETATM   10  N3  UNL     1      41.341  24.015  18.523  1.00  0.00    -0.310 N 
ATOM     11  H3  UNL     1      41.657  23.393  19.267  1.00  0.00     0.186 HD
BRANCH  10  12
HETATM   12  C7  UNL     1      42.239  24.499  17.746  1.00  0.00     0.125 C 
BRANCH  12  13
HETATM   13  C6  UNL     1      42.742  23.819  16.569  1.00  0.00     0.057 A 
HETATM   14  C3  UNL     1      43.503  22.664  16.592  1.00  0.00     0.171 A 
HETATM   15  N1  UNL     1      43.783  22.339  15.310  1.00  0.00    -0.279 N 
HETATM   16  N2  UNL     1      43.232  23.239  14.511  1.00  0.00    -0.302 N 
ATOM     17  H1  UNL     1      44.330  21.533  15.008  1.00  0.00     0.189 HD
HETATM   18  C4  UNL     1      42.575  24.177  15.257  1.00  0.00     0.038 A 
ATOM     19  H2  UNL     1      43.289  23.233  13.493  1.00  0.00     0.186 HD
HETATM   20  C5  UNL     1      41.829  25.355  14.754  1.00  0.00     0.070 C 
BRANCH  14  21
HETATM   21  O1  UNL     1      43.892  21.983  17.737  1.00  0.00    -0.334 OA
BRANCH  21  22
HETATM   22  C2  UNL     1      45.142  22.348  18.307  1.00  0.00     0.173 C 
HETATM   23  C1  UNL     1      46.235  21.498  17.670  1.00  0.00     0.034 C 
ENDBRANCH  21  22
ENDBRANCH  14  21
ENDBRANCH  12  13
ENDBRANCH  10  12
ENDBRANCH   8  10
ENDBRANCH   1   8
BRANCH   3  24
HETATM   24  C10 UNL     1      37.053  26.103  14.302  1.00  0.00     0.277 C 
HETATM   25  O2  UNL     1      37.509  27.274  14.294  1.00  0.00    -0.266 OA
HETATM   26  N5  UNL     1      35.994  25.803  13.435  1.00  0.00    -0.152 N 
ATOM     27  H5  UNL     1      36.065  24.928  12.916  1.00  0.00     0.187 HD
BRANCH  26  28
HETATM   28  C11 UNL     1      34.964  26.495  13.228  1.00  0.00     0.716 A 
HETATM   29  N6  UNL     1      34.919  27.768  12.818  1.00  0.00    -0.115 N 
HETATM   30  N7  UNL     1      33.653  28.156  12.713  1.00  0.00    -0.213 N 
ATOM     31  H6  UNL     1      35.732  28.351  12.617  1.00  0.00     0.207 HD
HETATM   32  N8  UNL     1      32.886  27.144  13.052  1.00  0.00    -0.213 N 
ATOM     33  H7  UNL     1      33.331  29.079  12.419  1.00  0.00     0.210 HD
HETATM   34  N9  UNL     1      33.689  26.115  13.371  1.00  0.00    -0.115 N 
ATOM     35  H8  UNL     1      31.866  27.141  13.070  1.00  0.00     0.210 HD
ATOM     36  H9  UNL     1      33.377  25.193  13.673  1.00  0.00     0.207 HD
ENDBRANCH  26  28
ENDBRANCH   3  24
BRANCH   5  37
HETATM   37  C14 UNL     1      37.532  21.385  15.493  1.00  0.00     0.413 C 
BRANCH  37  38
HETATM   38  N10 UNL     1      36.261  21.376  14.794  1.00  0.00    -0.046 N 
ATOM     39 3H10 UNL     1      35.590  22.020  15.214  1.00  0.00     0.277 HD
ATOM     40 2H10 UNL     1      36.329  21.811  13.874  1.00  0.00     0.277 HD
ATOM     41 1H10 UNL     1      35.894  20.426  14.740  1.00  0.00     0.277 HD
ENDBRANCH  37  38
BRANCH  37  42
HETATM   42  N11 UNL     1      38.517  20.821  14.587  1.00  0.00    -0.046 N 
ATOM     43 3H11 UNL     1      39.405  21.324  14.621  1.00  0.00     0.277 HD
ATOM     44 2H11 UNL     1      38.854  19.911  14.901  1.00  0.00     0.277 HD
ATOM     45 1H11 UNL     1      38.131  20.784  13.644  1.00  0.00     0.277 HD
ENDBRANCH  37  42
ENDBRANCH   5  37
TORSDOF 11
ENDMDL
MODEL 3
REMARK VINA RESULT: -8.347022385      3.051      4.714
REMARK  11 active torsions:
REMARK  status: ('A' for Active; 'I' for Inactive)
REMARK    1  A    between atoms: C2_2  and  O1_3 
REMARK    2  A    between atoms: O1_3  and  C3_4 
REMARK    3  A    between atoms: C6_11  and  C7_12 
REMARK    4  A    between atoms: C7_12  and  N3_13 
REMARK    5  A    between atoms: N3_13  and  N4_15 
REMARK    6  A    between atoms: N4_15  and  C8_17 
REMARK    7  A    between atoms: C9_19  and  C10_20 
REMARK       I    between atoms: C10_20  and  N5_22 
REMARK    8  A    between atoms: N5_22  and  C11_24 
REMARK    9  A    between atoms: C13_34  and  C14_35 
REMARK   10  A    between atoms: C14_35  and  N10_36 
REMARK   11  A    between atoms: C14_35  and  N11_40 
ROOT
HETATM    1  C8  UNL     1      35.811  20.979  14.926  1.00  0.00     0.114 A 
HETATM    2  S1  UNL     1      35.438  22.667  14.937  1.00  0.00    -0.064 SA
HETATM    3  C9  UNL     1      34.123  23.107  13.954  1.00  0.00     0.076 A 
HETATM    4  C12 UNL     1      33.543  22.056  13.291  1.00  0.00     0.037 A 
HETATM    5  C13 UNL     1      33.938  20.763  13.371  1.00  0.00     0.027 A 
HETATM    6  C15 UNL     1      34.973  20.249  14.112  1.00  0.00     0.091 A 
HETATM    7  N12 UNL     1      35.248  18.831  14.069  1.00  0.00    -0.099 NA
ENDROOT
BRANCH   1   8
HETATM    8  N4  UNL     1      36.777  20.484  15.616  1.00  0.00    -0.293 N 
ATOM      9  H4  UNL     1      36.559  20.262  16.587  1.00  0.00     0.187 HD
BRANCH   8  10
HETATM   10  N3  UNL     1      38.056  20.218  15.221  1.00  0.00    -0.310 N 
ATOM     11  H3  UNL     1      38.421  19.287  15.422  1.00  0.00     0.186 HD
BRANCH  10  12
HETATM   12  C7  UNL     1      38.839  21.035  14.619  1.00  0.00     0.125 C 
BRANCH  12  13
HETATM   13  C6  UNL     1      39.338  22.261  15.211  1.00  0.00     0.057 A 
HETATM   14  C3  UNL     1      39.439  22.495  16.570  1.00  0.00     0.171 A 
HETATM   15  N1  UNL     1      39.940  23.740  16.730  1.00  0.00    -0.279 N 
HETATM   16  N2  UNL     1      40.147  24.274  15.536  1.00  0.00    -0.302 N 
ATOM     17  H1  UNL     1      40.128  24.194  17.623  1.00  0.00     0.189 HD
HETATM   18  C4  UNL     1      39.784  23.383  14.564  1.00  0.00     0.038 A 
ATOM     19  H2  UNL     1      40.520  25.208  15.368  1.00  0.00     0.186 HD
HETATM   20  C5  UNL     1      39.853  23.587  13.097  1.00  0.00     0.070 C 
BRANCH  14  21
HETATM   21  O1  UNL     1      39.085  21.596  17.567  1.00  0.00    -0.334 OA
BRANCH  21  22
HETATM   22  C2  UNL     1      39.322  22.001  18.908  1.00  0.00     0.173 C 
HETATM   23  C1  UNL     1      38.039  21.812  19.709  1.00  0.00     0.034 C 
ENDBRANCH  21  22
ENDBRANCH  14  21
ENDBRANCH  12  13
ENDBRANCH  10  12
ENDBRANCH   8  10
ENDBRANCH   1   8
BRANCH   3  24
HETATM   24  C10 UNL     1      33.616  24.475  13.797  1.00  0.00     0.277 C 
HETATM   25  O2  UNL     1      32.428  24.638  13.424  1.00  0.00    -0.266 OA
HETATM   26  N5  UNL     1      34.392  25.615  14.043  1.00  0.00    -0.152 N 
ATOM     27  H5  UNL     1      34.955  25.607  14.893  1.00  0.00     0.187 HD
BRANCH  26  28
HETATM   28  C11 UNL     1      34.470  26.648  13.329  1.00  0.00     0.716 A 
HETATM   29  N6  UNL     1      35.518  27.044  12.598  1.00  0.00    -0.115 N 
HETATM   30  N7  UNL     1      35.224  28.183  11.980  1.00  0.00    -0.213 N 
ATOM     31  H6  UNL     1      36.407  26.548  12.526  1.00  0.00     0.207 HD
HETATM   32  N8  UNL     1      33.997  28.521  12.309  1.00  0.00    -0.213 N 
ATOM     33  H7  UNL     1      35.842  28.705  11.359  1.00  0.00     0.210 HD
HETATM   34  N9  UNL     1      33.525  27.577  13.140  1.00  0.00    -0.115 N 
ATOM     35  H8  UNL     1      33.494  29.349  11.990  1.00  0.00     0.210 HD
ATOM     36  H9  UNL     1      32.596  27.570  13.561  1.00  0.00     0.207 HD
ENDBRANCH  26  28
ENDBRANCH   3  24
BRANCH   5  37
HETATM   37  C14 UNL     1      33.152  19.769  12.552  1.00  0.00     0.413 C 
BRANCH  37  38
HETATM   38  N10 UNL     1      31.814  20.270  12.305  1.00  0.00    -0.046 N 
ATOM     39 3H10 UNL     1      31.550  20.184  11.323  1.00  0.00     0.277 HD
ATOM     40 2H10 UNL     1      31.099  19.662  12.705  1.00  0.00     0.277 HD
ATOM     41 1H10 UNL     1      31.729  21.230  12.640  1.00  0.00     0.277 HD
ENDBRANCH  37  38
BRANCH  37  42
HETATM   42  N11 UNL     1      33.787  19.598  11.257  1.00  0.00    -0.046 N 
ATOM     43 3H11 UNL     1      34.744  19.951  11.246  1.00  0.00     0.277 HD
ATOM     44 2H11 UNL     1      33.991  18.620  11.053  1.00  0.00     0.277 HD
ATOM     45 1H11 UNL     1      33.209  20.030  10.535  1.00  0.00     0.277 HD
ENDBRANCH  37  42
ENDBRANCH   5  37
TORSDOF 11
ENDMDL
MODEL 4
REMARK VINA RESULT: -8.254315086      3.330      4.962
REMARK  11 active torsions:
REMARK  status: ('A' for Active; 'I' for Inactive)
REMARK    1  A    between atoms: C2_2  and  O1_3 
REMARK    2  A    between atoms: O1_3  and  C3_4 
REMARK    3  A    between atoms: C6_11  and  C7_12 
REMARK    4  A    between atoms: C7_12  and  N3_13 
REMARK    5  A    between atoms: N3_13  and  N4_15 
REMARK    6  A    between atoms: N4_15  and  C8_17 
REMARK    7  A    between atoms: C9_19  and  C10_20 
REMARK       I    between atoms: C10_20  and  N5_22 
REMARK    8  A    between atoms: N5_22  and  C11_24 
REMARK    9  A    between atoms: C13_34  and  C14_35 
REMARK   10  A    between atoms: C14_35  and  N10_36 
REMARK   11  A    between atoms: C14_35  and  N11_40 
ROOT
HETATM    1  C8  UNL     1      40.411  22.544  19.036  1.00  0.00     0.114 A 
HETATM    2  S1  UNL     1      39.346  22.008  17.784  1.00  0.00    -0.064 SA
HETATM    3  C9  UNL     1      37.974  22.986  17.555  1.00  0.00     0.076 A 
HETATM    4  C12 UNL     1      37.909  24.064  18.400  1.00  0.00     0.037 A 
HETATM    5  C13 UNL     1      38.823  24.375  19.350  1.00  0.00     0.027 A 
HETATM    6  C15 UNL     1      39.974  23.693  19.657  1.00  0.00     0.091 A 
HETATM    7  N12 UNL     1      40.831  24.179  20.715  1.00  0.00    -0.099 NA
ENDROOT
BRANCH   1   8
HETATM    8  N4  UNL     1      41.492  21.915  19.335  1.00  0.00    -0.293 N 
ATOM      9  H4  UNL     1      41.376  21.086  19.917  1.00  0.00     0.187 HD
BRANCH   8  10
HETATM   10  N3  UNL     1      42.775  22.210  18.975  1.00  0.00    -0.310 N 
ATOM     11  H3  UNL     1      43.512  21.614  19.351  1.00  0.00     0.186 HD
BRANCH  10  12
HETATM   12  C7  UNL     1      43.135  23.169  18.206  1.00  0.00     0.125 C 
BRANCH  12  13
HETATM   13  C6  UNL     1      43.356  23.025  16.780  1.00  0.00     0.057 A 
HETATM   14  C3  UNL     1      44.369  22.274  16.213  1.00  0.00     0.171 A 
HETATM   15  N1  UNL     1      44.252  22.386  14.871  1.00  0.00    -0.279 N 
HETATM   16  N2  UNL     1      43.220  23.167  14.595  1.00  0.00    -0.302 N 
ATOM     17  H1  UNL     1      44.860  21.942  14.183  1.00  0.00     0.189 HD
HETATM   18  C4  UNL     1      42.635  23.585  15.759  1.00  0.00     0.038 A 
ATOM     19  H2  UNL     1      42.908  23.419  13.657  1.00  0.00     0.186 HD
HETATM   20  C5  UNL     1      41.456  24.473  15.895  1.00  0.00     0.070 C 
BRANCH  14  21
HETATM   21  O1  UNL     1      45.319  21.547  16.917  1.00  0.00    -0.334 OA
BRANCH  21  22
HETATM   22  C2  UNL     1      46.436  22.268  17.419  1.00  0.00     0.173 C 
HETATM   23  C1  UNL     1      47.489  22.364  16.322  1.00  0.00     0.034 C 
ENDBRANCH  21  22
ENDBRANCH  14  21
ENDBRANCH  12  13
ENDBRANCH  10  12
ENDBRANCH   8  10
ENDBRANCH   1   8
BRANCH   3  24
HETATM   24  C10 UNL     1      36.928  22.740  16.557  1.00  0.00     0.277 C 
HETATM   25  O2  UNL     1      35.836  23.349  16.666  1.00  0.00    -0.266 OA
HETATM   26  N5  UNL     1      37.084  21.854  15.482  1.00  0.00    -0.152 N 
ATOM     27  H5  UNL     1      37.967  21.908  14.974  1.00  0.00     0.187 HD
BRANCH  26  28
HETATM   28  C11 UNL     1      36.254  21.002  15.076  1.00  0.00     0.716 A 
HETATM   29  N6  UNL     1      35.189  21.221  14.296  1.00  0.00    -0.115 N 
HETATM   30  N7  UNL     1      34.552  20.076  14.080  1.00  0.00    -0.213 N 
ATOM     31  H6  UNL     1      34.910  22.130  13.924  1.00  0.00     0.207 HD
HETATM   32  N8  UNL     1      35.198  19.124  14.715  1.00  0.00    -0.213 N 
ATOM     33  H7  UNL     1      33.708  19.956  13.520  1.00  0.00     0.210 HD
HETATM   34  N9  UNL     1      36.250  19.688  15.332  1.00  0.00    -0.115 N 
ATOM     35  H8  UNL     1      34.945  18.136  14.736  1.00  0.00     0.210 HD
ATOM     36  H9  UNL     1      36.936  19.194  15.903  1.00  0.00     0.207 HD
ENDBRANCH  26  28
ENDBRANCH   3  24
BRANCH   5  37
HETATM   37  C14 UNL     1      38.547  25.613  20.167  1.00  0.00     0.413 C 
BRANCH  37  38
HETATM   38  N10 UNL     1      37.376  26.300  19.657  1.00  0.00    -0.046 N 
ATOM     39 3H10 UNL     1      36.555  25.693  19.642  1.00  0.00     0.277 HD
ATOM     40 2H10 UNL     1      37.030  27.002  20.312  1.00  0.00     0.277 HD
ATOM     41 1H10 UNL     1      37.572  26.699  18.739  1.00  0.00     0.277 HD
ENDBRANCH  37  38
BRANCH  37  42
HETATM   42  N11 UNL     1      38.254  25.234  21.538  1.00  0.00    -0.046 N 
ATOM     43 3H11 UNL     1      37.697  24.381  21.592  1.00  0.00     0.277 HD
ATOM     44 2H11 UNL     1      39.081  24.899  22.031  1.00  0.00     0.277 HD
ATOM     45 1H11 UNL     1      37.809  26.016  22.019  1.00  0.00     0.277 HD
ENDBRANCH  37  42
ENDBRANCH   5  37
TORSDOF 11
ENDMDL
MODEL 5
REMARK VINA RESULT: -8.236782563      4.853      9.301
REMARK  11 active torsions:
REMARK  status: ('A' for Active; 'I' for Inactive)
REMARK    1  A    between atoms: C2_2  and  O1_3 
REMARK    2  A    between atoms: O1_3  and  C3_4 
REMARK    3  A    between atoms: C6_11  and  C7_12 
REMARK    4  A    between atoms: C7_12  and  N3_13 
REMARK    5  A    between atoms: N3_13  and  N4_15 
REMARK    6  A    between atoms: N4_15  and  C8_17 
REMARK    7  A    between atoms: C9_19  and  C10_20 
REMARK       I    between atoms: C10_20  and  N5_22 
REMARK    8  A    between atoms: N5_22  and  C11_24 
REMARK    9  A    between atoms: C13_34  and  C14_35 
REMARK   10  A    between atoms: C14_35  and  N10_36 
REMARK   11  A    between atoms: C14_35  and  N11_40 
ROOT
HETATM    1  C8  UNL     1      42.368  22.493  18.454  1.00  0.00     0.114 A 
HETATM    2  S1  UNL     1      44.037  22.041  18.418  1.00  0.00    -0.064 SA
HETATM    3  C9  UNL     1      44.846  22.437  16.976  1.00  0.00     0.076 A 
HETATM    4  C12 UNL     1      44.056  23.060  16.045  1.00  0.00     0.037 A 
HETATM    5  C13 UNL     1      42.745  23.360  16.201  1.00  0.00     0.027 A 
HETATM    6  C15 UNL     1      41.954  23.109  17.294  1.00  0.00     0.091 A 
HETATM    7  N12 UNL     1      40.563  23.503  17.276  1.00  0.00    -0.099 NA
ENDROOT
BRANCH   1   8
HETATM    8  N4  UNL     1      41.616  22.264  19.472  1.00  0.00    -0.293 N 
ATOM      9  H4  UNL     1      41.013  21.444  19.401  1.00  0.00     0.187 HD
BRANCH   8  10
HETATM   10  N3  UNL     1      41.518  22.972  20.634  1.00  0.00    -0.310 N 
ATOM     11  H3  UNL     1      41.566  22.445  21.506  1.00  0.00     0.186 HD
BRANCH  10  12
HETATM   12  C7  UNL     1      41.371  24.241  20.727  1.00  0.00     0.125 C 
BRANCH  12  13
HETATM   13  C6  UNL     1      40.171  24.883  21.226  1.00  0.00     0.057 A 
HETATM   14  C3  UNL     1      38.891  24.619  20.773  1.00  0.00     0.171 A 
HETATM   15  N1  UNL     1      38.045  25.410  21.470  1.00  0.00    -0.279 N 
HETATM   16  N2  UNL     1      38.746  26.140  22.321  1.00  0.00    -0.302 N 
ATOM     17  H1  UNL     1      37.032  25.439  21.358  1.00  0.00     0.189 HD
HETATM   18  C4  UNL     1      40.075  25.841  22.200  1.00  0.00     0.038 A 
ATOM     19  H2  UNL     1      38.354  26.823  22.970  1.00  0.00     0.186 HD
HETATM   20  C5  UNL     1      41.196  26.436  22.965  1.00  0.00     0.070 C 
BRANCH  14  21
HETATM   21  O1  UNL     1      38.564  23.703  19.782  1.00  0.00    -0.334 OA
BRANCH  21  22
HETATM   22  C2  UNL     1      38.081  22.438  20.213  1.00  0.00     0.173 C 
HETATM   23  C1  UNL     1      38.097  21.480  19.028  1.00  0.00     0.034 C 
ENDBRANCH  21  22
ENDBRANCH  14  21
ENDBRANCH  12  13
ENDBRANCH  10  12
ENDBRANCH   8  10
ENDBRANCH   1   8
BRANCH   3  24
HETATM   24  C10 UNL     1      46.261  22.157  16.707  1.00  0.00     0.277 C 
HETATM   25  O2  UNL     1      46.961  23.054  16.175  1.00  0.00    -0.266 OA
HETATM   26  N5  UNL     1      46.875  20.936  17.013  1.00  0.00    -0.152 N 
ATOM     27  H5  UNL     1      46.668  20.540  17.930  1.00  0.00     0.187 HD
BRANCH  26  28
HETATM   28  C11 UNL     1      47.654  20.274  16.280  1.00  0.00     0.716 A 
HETATM   29  N6  UNL     1      48.827  19.735  16.631  1.00  0.00    -0.115 N 
HETATM   30  N7  UNL     1      49.360  19.112  15.586  1.00  0.00    -0.213 N 
ATOM     31  H6  UNL     1      49.247  19.793  17.559  1.00  0.00     0.207 HD
HETATM   32  N8  UNL     1      48.540  19.247  14.568  1.00  0.00    -0.213 N 
ATOM     33  H7  UNL     1      50.251  18.614  15.576  1.00  0.00     0.210 HD
HETATM   34  N9  UNL     1      47.484  19.963  14.989  1.00  0.00    -0.115 N 
ATOM     35  H8  UNL     1      48.680  18.875  13.629  1.00  0.00     0.210 HD
ATOM     36  H9  UNL     1      46.683  20.227  14.418  1.00  0.00     0.207 HD
ENDBRANCH  26  28
ENDBRANCH   3  24
BRANCH   5  37
HETATM   37  C14 UNL     1      42.071  24.050  15.040  1.00  0.00     0.413 C 
BRANCH  37  38
HETATM   38  N10 UNL     1      42.088  25.487  15.233  1.00  0.00    -0.046 N 
ATOM     39 3H10 UNL     1      43.031  25.838  15.400  1.00  0.00     0.277 HD
ATOM     40 2H10 UNL     1      41.891  25.991  14.368  1.00  0.00     0.277 HD
ATOM     41 1H10 UNL     1      41.446  25.750  15.981  1.00  0.00     0.277 HD
ENDBRANCH  37  38
BRANCH  37  42
HETATM   42  N11 UNL     1      42.809  23.777  13.819  1.00  0.00    -0.046 N 
ATOM     43 3H11 UNL     1      43.656  23.236  13.993  1.00  0.00     0.277 HD
ATOM     44 2H11 UNL     1      42.329  23.107  13.220  1.00  0.00     0.277 HD
ATOM     45 1H11 UNL     1      43.005  24.655  13.337  1.00  0.00     0.277 HD
ENDBRANCH  37  42
ENDBRANCH   5  37
TORSDOF 11
ENDMDL
