MODEL 1
REMARK VINA RESULT: -10.058856253      0.000      0.000
REMARK  7 active torsions:
REMARK  status: ('A' for Active; 'I' for Inactive)
REMARK    1  A    between atoms: N1_1  and  C1_4 
REMARK    2  A    between atoms: C2_10  and  C3_11 
REMARK       I    between atoms: C3_11  and  N4_13 
REMARK    3  A    between atoms: N4_13  and  C4_15 
REMARK    4  A    between atoms: C6_20  and  C7_21 
REMARK    5  A    between atoms: C8_22  and  N7_23 
REMARK    6  A    between atoms: N7_23  and  C9_25 
REMARK    7  A    between atoms: C13_37  and  N10_38 
ROOT
HETATM    1  C4  UNL     1      46.126  21.441  15.646  1.00  0.00     0.090 A 
HETATM    2  C5  UNL     1      45.140  21.593  14.725  1.00  0.00     0.151 A 
HETATM    3  N5  UNL     1      44.081  22.298  15.233  1.00  0.00    -0.239 N 
HETATM    4  N6  UNL     1      42.886  22.792  14.976  1.00  0.00    -0.270 N 
ATOM      5  H6  UNL     1      42.383  22.719  14.091  1.00  0.00     0.190 HD
HETATM    6  C6  UNL     1      42.435  23.425  16.115  1.00  0.00     0.184 A 
HETATM    7  O6  UNL     1      43.390  23.262  16.963  1.00  0.00    -0.270 OA
HETATM    8  C12 UNL     1      44.415  22.589  16.495  1.00  0.00     0.206 A 
HETATM    9  C13 UNL     1      45.673  22.079  16.795  1.00  0.00     0.184 A 
ENDROOT
BRANCH   1  10
HETATM   10  N4  UNL     1      47.397  20.807  15.617  1.00  0.00    -0.318 N 
HETATM   11  C3  UNL     1      47.688  19.588  16.240  1.00  0.00     0.278 C 
HETATM   12  O2  UNL     1      46.738  19.018  16.875  1.00  0.00    -0.265 OA
ATOM     13  H4  UNL     1      48.149  21.272  15.108  1.00  0.00     0.169 HD
BRANCH  11  14
HETATM   14  C2  UNL     1      48.961  18.895  16.247  1.00  0.00     0.169 A 
HETATM   15  C1  UNL     1      49.786  18.557  15.221  1.00  0.00     0.155 A 
HETATM   16  N2  UNL     1      50.868  17.913  15.724  1.00  0.00    -0.224 N 
HETATM   17  O1  UNL     1      50.709  17.860  17.004  1.00  0.00    -0.155 OA
ATOM     18  H2  UNL     1      51.655  17.542  15.192  1.00  0.00     0.198 HD
HETATM   19  N3  UNL     1      49.607  18.422  17.361  1.00  0.00    -0.233 N 
ATOM     20  H3  UNL     1      49.269  18.503  18.320  1.00  0.00     0.197 HD
BRANCH  15  21
HETATM   21  N1  UNL     1      49.641  18.770  13.978  1.00  0.00    -0.382 N 
ATOM     22  H12 UNL     1      50.270  19.249  13.333  1.00  0.00     0.157 HD
ATOM     23  H11 UNL     1      48.817  18.459  13.464  1.00  0.00     0.157 HD
ENDBRANCH  15  21
ENDBRANCH  11  14
ENDBRANCH   1  10
BRANCH   9  24
HETATM   24  N10 UNL     1      46.305  22.224  18.057  1.00  0.00    -0.109 N 
HETATM   25  O7  UNL     1      47.486  22.535  18.184  1.00  0.00    -0.532 OA
HETATM   26  O8  UNL     1      45.548  22.007  19.178  1.00  0.00    -0.532 OA
ENDBRANCH   9  24
BRANCH   6  27
HETATM   27  C7  UNL     1      41.148  24.098  16.227  1.00  0.00     0.129 A 
HETATM   28  C8  UNL     1      40.237  23.884  17.229  1.00  0.00     0.131 A 
HETATM   29  N8  UNL     1      39.066  24.598  17.202  1.00  0.00    -0.293 N 
HETATM   30  C10 UNL     1      38.749  25.493  16.258  1.00  0.00     0.328 A 
ATOM     31  H8  UNL     1      38.391  24.436  17.951  1.00  0.00     0.172 HD
HETATM   32  O4  UNL     1      37.663  26.134  16.260  1.00  0.00    -0.247 OA
HETATM   33  N9  UNL     1      39.629  25.713  15.272  1.00  0.00    -0.275 N 
HETATM   34  C11 UNL     1      40.790  25.044  15.251  1.00  0.00     0.267 A 
ATOM     35  H9  UNL     1      39.416  26.390  14.539  1.00  0.00     0.173 HD
HETATM   36  O5  UNL     1      41.625  25.242  14.329  1.00  0.00    -0.267 OA
BRANCH  28  37
HETATM   37  N7  UNL     1      40.498  22.962  18.249  1.00  0.00    -0.319 N 
ATOM     38  H7  UNL     1      41.305  23.107  18.855  1.00  0.00     0.169 HD
BRANCH  37  39
HETATM   39  C9  UNL     1      39.673  21.834  18.461  1.00  0.00     0.354 C 
HETATM   40  O3  UNL     1      39.108  21.259  17.474  1.00  0.00    -0.283 OA
ENDBRANCH  37  39
ENDBRANCH  28  37
ENDBRANCH   6  27
TORSDOF 7
ENDMDL
MODEL 2
REMARK VINA RESULT: -9.909435161      1.130      2.499
REMARK  7 active torsions:
REMARK  status: ('A' for Active; 'I' for Inactive)
REMARK    1  A    between atoms: N1_1  and  C1_4 
REMARK    2  A    between atoms: C2_10  and  C3_11 
REMARK       I    between atoms: C3_11  and  N4_13 
REMARK    3  A    between atoms: N4_13  and  C4_15 
REMARK    4  A    between atoms: C6_20  and  C7_21 
REMARK    5  A    between atoms: C8_22  and  N7_23 
REMARK    6  A    between atoms: N7_23  and  C9_25 
REMARK    7  A    between atoms: C13_37  and  N10_38 
ROOT
HETATM    1  C4  UNL     1      45.931  21.522  15.580  1.00  0.00     0.090 A 
HETATM    2  C5  UNL     1      44.826  21.666  14.805  1.00  0.00     0.151 A 
HETATM    3  N5  UNL     1      43.828  22.330  15.468  1.00  0.00    -0.239 N 
HETATM    4  N6  UNL     1      42.597  22.796  15.388  1.00  0.00    -0.270 N 
ATOM      5  H6  UNL     1      41.982  22.728  14.577  1.00  0.00     0.190 HD
HETATM    6  C6  UNL     1      42.290  23.391  16.592  1.00  0.00     0.184 A 
HETATM    7  O6  UNL     1      43.355  23.237  17.299  1.00  0.00    -0.270 OA
HETATM    8  C12 UNL     1      44.323  22.604  16.680  1.00  0.00     0.206 A 
HETATM    9  C13 UNL     1      45.622  22.123  16.795  1.00  0.00     0.184 A 
ENDROOT
BRANCH   1  10
HETATM   10  N4  UNL     1      47.202  20.925  15.365  1.00  0.00    -0.318 N 
HETATM   11  C3  UNL     1      47.610  19.709  15.924  1.00  0.00     0.278 C 
HETATM   12  O2  UNL     1      46.774  19.106  16.678  1.00  0.00    -0.265 OA
ATOM     13  H4  UNL     1      47.862  21.415  14.761  1.00  0.00     0.169 HD
BRANCH  11  14
HETATM   14  C2  UNL     1      48.889  19.051  15.742  1.00  0.00     0.169 A 
HETATM   15  C1  UNL     1      49.727  18.486  16.651  1.00  0.00     0.155 A 
HETATM   16  N2  UNL     1      50.811  17.995  16.001  1.00  0.00    -0.224 N 
HETATM   17  O1  UNL     1      50.641  18.250  14.747  1.00  0.00    -0.155 OA
ATOM     18  H2  UNL     1      51.607  17.516  16.422  1.00  0.00     0.198 HD
HETATM   19  N3  UNL     1      49.530  18.867  14.543  1.00  0.00    -0.233 N 
ATOM     20  H3  UNL     1      49.181  19.172  13.634  1.00  0.00     0.197 HD
BRANCH  15  21
HETATM   21  N1  UNL     1      49.592  18.393  17.910  1.00  0.00    -0.382 N 
ATOM     22  H12 UNL     1      49.661  17.565  18.502  1.00  0.00     0.157 HD
ATOM     23  H11 UNL     1      49.385  19.201  18.497  1.00  0.00     0.157 HD
ENDBRANCH  15  21
ENDBRANCH  11  14
ENDBRANCH   1  10
BRANCH   9  24
HETATM   24  N10 UNL     1      46.415  22.259  17.964  1.00  0.00    -0.109 N 
HETATM   25  O7  UNL     1      47.593  22.605  17.938  1.00  0.00    -0.532 OA
HETATM   26  O8  UNL     1      45.825  21.990  19.170  1.00  0.00    -0.532 OA
ENDBRANCH   9  24
BRANCH   6  27
HETATM   27  C7  UNL     1      41.013  24.026  16.894  1.00  0.00     0.129 A 
HETATM   28  C8  UNL     1      40.735  25.355  16.703  1.00  0.00     0.131 A 
HETATM   29  N8  UNL     1      39.483  25.808  17.032  1.00  0.00    -0.293 N 
HETATM   30  C10 UNL     1      38.508  25.036  17.532  1.00  0.00     0.328 A 
ATOM     31  H8  UNL     1      39.280  26.797  16.887  1.00  0.00     0.172 HD
HETATM   32  O4  UNL     1      37.366  25.483  17.825  1.00  0.00    -0.247 OA
HETATM   33  N9  UNL     1      38.765  23.736  17.723  1.00  0.00    -0.275 N 
HETATM   34  C11 UNL     1      39.973  23.240  17.418  1.00  0.00     0.267 A 
ATOM     35  H9  UNL     1      38.043  23.123  18.102  1.00  0.00     0.173 HD
HETATM   36  O5  UNL     1      40.226  22.019  17.594  1.00  0.00    -0.267 OA
BRANCH  28  37
HETATM   37  N7  UNL     1      41.705  26.222  16.187  1.00  0.00    -0.319 N 
ATOM     38  H7  UNL     1      42.625  26.255  16.626  1.00  0.00     0.169 HD
BRANCH  37  39
HETATM   39  C9  UNL     1      41.443  27.054  15.075  1.00  0.00     0.354 C 
HETATM   40  O3  UNL     1      40.425  27.820  15.073  1.00  0.00    -0.283 OA
ENDBRANCH  37  39
ENDBRANCH  28  37
ENDBRANCH   6  27
TORSDOF 7
ENDMDL
MODEL 3
REMARK VINA RESULT: -9.811048197      3.650      6.871
REMARK  7 active torsions:
REMARK  status: ('A' for Active; 'I' for Inactive)
REMARK    1  A    between atoms: N1_1  and  C1_4 
REMARK    2  A    between atoms: C2_10  and  C3_11 
REMARK       I    between atoms: C3_11  and  N4_13 
REMARK    3  A    between atoms: N4_13  and  C4_15 
REMARK    4  A    between atoms: C6_20  and  C7_21 
REMARK    5  A    between atoms: C8_22  and  N7_23 
REMARK    6  A    between atoms: N7_23  and  C9_25 
REMARK    7  A    between atoms: C13_37  and  N10_38 
ROOT
HETATM    1  C4  UNL     1      40.767  23.861  14.755  1.00  0.00     0.090 A 
HETATM    2  C5  UNL     1      39.710  23.066  14.448  1.00  0.00     0.151 A 
HETATM    3  N5  UNL     1      38.540  23.776  14.403  1.00  0.00    -0.239 N 
HETATM    4  N6  UNL     1      37.240  23.711  14.196  1.00  0.00    -0.270 N 
ATOM      5  H6  UNL     1      36.712  22.871  13.960  1.00  0.00     0.190 HD
HETATM    6  C6  UNL     1      36.721  24.978  14.353  1.00  0.00     0.184 A 
HETATM    7  O6  UNL     1      37.745  25.703  14.642  1.00  0.00    -0.270 OA
HETATM    8  C12 UNL     1      38.876  25.039  14.689  1.00  0.00     0.206 A 
HETATM    9  C13 UNL     1      40.244  25.139  14.914  1.00  0.00     0.184 A 
ENDROOT
BRANCH   1  10
HETATM   10  N4  UNL     1      42.157  23.616  14.918  1.00  0.00    -0.318 N 
HETATM   11  C3  UNL     1      42.723  22.979  16.027  1.00  0.00     0.278 C 
HETATM   12  O2  UNL     1      41.926  22.598  16.949  1.00  0.00    -0.265 OA
ATOM     13  H4  UNL     1      42.784  23.925  14.175  1.00  0.00     0.169 HD
BRANCH  11  14
HETATM   14  C2  UNL     1      44.129  22.703  16.250  1.00  0.00     0.169 A 
HETATM   15  C1  UNL     1      45.052  22.123  15.438  1.00  0.00     0.155 A 
HETATM   16  N2  UNL     1      46.241  22.081  16.088  1.00  0.00    -0.224 N 
HETATM   17  O1  UNL     1      46.051  22.613  17.249  1.00  0.00    -0.155 OA
ATOM     18  H2  UNL     1      47.117  21.701  15.729  1.00  0.00     0.198 HD
HETATM   19  N3  UNL     1      44.829  22.994  17.393  1.00  0.00    -0.233 N 
ATOM     20  H3  UNL     1      44.444  23.441  18.225  1.00  0.00     0.197 HD
BRANCH  15  21
HETATM   21  N1  UNL     1      44.908  21.672  14.260  1.00  0.00    -0.382 N 
ATOM     22  H12 UNL     1      45.556  21.715  13.474  1.00  0.00     0.157 HD
ATOM     23  H11 UNL     1      44.062  21.185  13.964  1.00  0.00     0.157 HD
ENDBRANCH  15  21
ENDBRANCH  11  14
ENDBRANCH   1  10
BRANCH   9  24
HETATM   24  N10 UNL     1      40.905  26.352  15.239  1.00  0.00    -0.109 N 
HETATM   25  O7  UNL     1      40.402  27.458  15.063  1.00  0.00    -0.532 OA
HETATM   26  O8  UNL     1      42.163  26.269  15.776  1.00  0.00    -0.532 OA
ENDBRANCH   9  24
BRANCH   6  27
HETATM   27  C7  UNL     1      35.311  25.314  14.203  1.00  0.00     0.129 A 
HETATM   28  C8  UNL     1      34.822  26.282  13.365  1.00  0.00     0.131 A 
HETATM   29  N8  UNL     1      33.465  26.483  13.330  1.00  0.00    -0.293 N 
HETATM   30  C10 UNL     1      32.581  25.794  14.064  1.00  0.00     0.328 A 
ATOM     31  H8  UNL     1      33.105  27.204  12.704  1.00  0.00     0.172 HD
HETATM   32  O4  UNL     1      31.338  26.002  14.010  1.00  0.00    -0.247 OA
HETATM   33  N9  UNL     1      33.044  24.844  14.887  1.00  0.00    -0.275 N 
HETATM   34  C11 UNL     1      34.361  24.606  14.960  1.00  0.00     0.267 A 
ATOM     35  H9  UNL     1      32.395  24.303  15.458  1.00  0.00     0.173 HD
HETATM   36  O5  UNL     1      34.808  23.716  15.731  1.00  0.00    -0.267 OA
BRANCH  28  37
HETATM   37  N7  UNL     1      35.685  27.044  12.570  1.00  0.00    -0.319 N 
ATOM     38  H7  UNL     1      36.481  26.588  12.124  1.00  0.00     0.169 HD
BRANCH  37  39
HETATM   39  C9  UNL     1      35.485  28.429  12.369  1.00  0.00     0.354 C 
HETATM   40  O3  UNL     1      34.593  28.836  11.556  1.00  0.00    -0.283 OA
ENDBRANCH  37  39
ENDBRANCH  28  37
ENDBRANCH   6  27
TORSDOF 7
ENDMDL
MODEL 4
REMARK VINA RESULT: -9.686209875      2.959      4.779
REMARK  7 active torsions:
REMARK  status: ('A' for Active; 'I' for Inactive)
REMARK    1  A    between atoms: N1_1  and  C1_4 
REMARK    2  A    between atoms: C2_10  and  C3_11 
REMARK       I    between atoms: C3_11  and  N4_13 
REMARK    3  A    between atoms: N4_13  and  C4_15 
REMARK    4  A    between atoms: C6_20  and  C7_21 
REMARK    5  A    between atoms: C8_22  and  N7_23 
REMARK    6  A    between atoms: N7_23  and  C9_25 
REMARK    7  A    between atoms: C13_37  and  N10_38 
ROOT
HETATM    1  C4  UNL     1      42.308  23.651  15.960  1.00  0.00     0.090 A 
HETATM    2  C5  UNL     1      41.778  24.133  14.806  1.00  0.00     0.151 A 
HETATM    3  N5  UNL     1      40.410  24.177  14.860  1.00  0.00    -0.239 N 
HETATM    4  N6  UNL     1      39.310  24.488  14.204  1.00  0.00    -0.270 N 
ATOM      5  H6  UNL     1      39.261  24.866  13.258  1.00  0.00     0.190 HD
HETATM    6  C6  UNL     1      38.236  24.214  15.024  1.00  0.00     0.184 A 
HETATM    7  O6  UNL     1      38.772  23.762  16.103  1.00  0.00    -0.270 OA
HETATM    8  C12 UNL     1      40.083  23.713  16.071  1.00  0.00     0.206 A 
HETATM    9  C13 UNL     1      41.226  23.375  16.787  1.00  0.00     0.184 A 
ENDROOT
BRANCH   1  10
HETATM   10  N4  UNL     1      43.640  23.416  16.397  1.00  0.00    -0.318 N 
HETATM   11  C3  UNL     1      44.422  22.326  16.001  1.00  0.00     0.278 C 
HETATM   12  O2  UNL     1      43.891  21.493  15.191  1.00  0.00    -0.265 OA
ATOM     13  H4  UNL     1      44.053  24.088  17.044  1.00  0.00     0.169 HD
BRANCH  11  14
HETATM   14  C2  UNL     1      45.780  22.033  16.412  1.00  0.00     0.169 A 
HETATM   15  C1  UNL     1      46.768  21.353  15.772  1.00  0.00     0.155 A 
HETATM   16  N2  UNL     1      47.872  21.340  16.559  1.00  0.00    -0.224 N 
HETATM   17  O1  UNL     1      47.570  21.986  17.635  1.00  0.00    -0.155 OA
ATOM     18  H2  UNL     1      48.768  20.904  16.342  1.00  0.00     0.198 HD
HETATM   19  N3  UNL     1      46.356  22.413  17.598  1.00  0.00    -0.233 N 
ATOM     20  H3  UNL     1      45.895  22.949  18.334  1.00  0.00     0.197 HD
BRANCH  15  21
HETATM   21  N1  UNL     1      46.743  20.795  14.632  1.00  0.00    -0.382 N 
ATOM     22  H12 UNL     1      47.523  20.486  14.052  1.00  0.00     0.157 HD
ATOM     23  H11 UNL     1      45.869  20.586  14.147  1.00  0.00     0.157 HD
ENDBRANCH  15  21
ENDBRANCH  11  14
ENDBRANCH   1  10
BRANCH   9  24
HETATM   24  N10 UNL     1      41.207  22.853  18.106  1.00  0.00    -0.109 N 
HETATM   25  O7  UNL     1      40.479  23.294  18.992  1.00  0.00    -0.532 OA
HETATM   26  O8  UNL     1      42.044  21.806  18.391  1.00  0.00    -0.532 OA
ENDBRANCH   9  24
BRANCH   6  27
HETATM   27  C7  UNL     1      36.843  24.427  14.653  1.00  0.00     0.129 A 
HETATM   28  C8  UNL     1      35.842  23.502  14.805  1.00  0.00     0.131 A 
HETATM   29  N8  UNL     1      34.575  23.850  14.411  1.00  0.00    -0.293 N 
HETATM   30  C10 UNL     1      34.247  25.037  13.885  1.00  0.00     0.328 A 
ATOM     31  H8  UNL     1      33.833  23.158  14.527  1.00  0.00     0.172 HD
HETATM   32  O4  UNL     1      33.071  25.326  13.532  1.00  0.00    -0.247 OA
HETATM   33  N9  UNL     1      35.214  25.951  13.731  1.00  0.00    -0.275 N 
HETATM   34  C11 UNL     1      36.470  25.664  14.100  1.00  0.00     0.267 A 
ATOM     35  H9  UNL     1      34.994  26.864  13.333  1.00  0.00     0.173 HD
HETATM   36  O5  UNL     1      37.387  26.516  13.960  1.00  0.00    -0.267 OA
BRANCH  28  37
HETATM   37  N7  UNL     1      36.110  22.239  15.345  1.00  0.00    -0.319 N 
ATOM     38  H7  UNL     1      36.656  22.173  16.204  1.00  0.00     0.169 HD
BRANCH  37  39
HETATM   39  C9  UNL     1      35.646  21.054  14.731  1.00  0.00     0.354 C 
HETATM   40  O3  UNL     1      35.206  21.080  13.536  1.00  0.00    -0.283 OA
ENDBRANCH  37  39
ENDBRANCH  28  37
ENDBRANCH   6  27
TORSDOF 7
ENDMDL
MODEL 5
REMARK VINA RESULT: -9.371107589      3.487      6.019
REMARK  7 active torsions:
REMARK  status: ('A' for Active; 'I' for Inactive)
REMARK    1  A    between atoms: N1_1  and  C1_4 
REMARK    2  A    between atoms: C2_10  and  C3_11 
REMARK       I    between atoms: C3_11  and  N4_13 
REMARK    3  A    between atoms: N4_13  and  C4_15 
REMARK    4  A    between atoms: C6_20  and  C7_21 
REMARK    5  A    between atoms: C8_22  and  N7_23 
REMARK    6  A    between atoms: N7_23  and  C9_25 
REMARK    7  A    between atoms: C13_37  and  N10_38 
ROOT
HETATM    1  C4  UNL     1      41.307  23.769  14.442  1.00  0.00     0.090 A 
HETATM    2  C5  UNL     1      40.245  23.071  13.966  1.00  0.00     0.151 A 
HETATM    3  N5  UNL     1      39.098  23.819  13.991  1.00  0.00    -0.239 N 
HETATM    4  N6  UNL     1      37.807  23.833  13.722  1.00  0.00    -0.270 N 
ATOM      5  H6  UNL     1      37.267  23.061  13.331  1.00  0.00     0.190 HD
HETATM    6  C6  UNL     1      37.316  25.075  14.063  1.00  0.00     0.184 A 
HETATM    7  O6  UNL     1      38.346  25.708  14.508  1.00  0.00    -0.270 OA
HETATM    8  C12 UNL     1      39.455  25.007  14.492  1.00  0.00     0.206 A 
HETATM    9  C13 UNL     1      40.814  25.021  14.786  1.00  0.00     0.184 A 
ENDROOT
BRANCH   1  10
HETATM   10  N4  UNL     1      42.681  23.452  14.619  1.00  0.00    -0.318 N 
HETATM   11  C3  UNL     1      43.205  22.800  15.741  1.00  0.00     0.278 C 
HETATM   12  O2  UNL     1      42.382  22.474  16.661  1.00  0.00    -0.265 OA
ATOM     13  H4  UNL     1      43.330  23.719  13.878  1.00  0.00     0.169 HD
BRANCH  11  14
HETATM   14  C2  UNL     1      44.592  22.453  15.978  1.00  0.00     0.169 A 
HETATM   15  C1  UNL     1      45.519  21.908  15.147  1.00  0.00     0.155 A 
HETATM   16  N2  UNL     1      46.685  21.766  15.824  1.00  0.00    -0.224 N 
HETATM   17  O1  UNL     1      46.478  22.207  17.020  1.00  0.00    -0.155 OA
ATOM     18  H2  UNL     1      47.557  21.384  15.458  1.00  0.00     0.198 HD
HETATM   19  N3  UNL     1      45.267  22.621  17.161  1.00  0.00    -0.233 N 
ATOM     20  H3  UNL     1      44.872  23.012  18.017  1.00  0.00     0.197 HD
BRANCH  15  21
HETATM   21  N1  UNL     1      45.395  21.562  13.932  1.00  0.00    -0.382 N 
ATOM     22  H12 UNL     1      45.875  21.927  13.109  1.00  0.00     0.157 HD
ATOM     23  H11 UNL     1      44.751  20.827  13.638  1.00  0.00     0.157 HD
ENDBRANCH  15  21
ENDBRANCH  11  14
ENDBRANCH   1  10
BRANCH   9  24
HETATM   24  N10 UNL     1      41.492  26.142  15.332  1.00  0.00    -0.109 N 
HETATM   25  O7  UNL     1      42.444  26.040  16.102  1.00  0.00    -0.532 OA
HETATM   26  O8  UNL     1      41.055  27.389  14.974  1.00  0.00    -0.532 OA
ENDBRANCH   9  24
BRANCH   6  27
HETATM   27  C7  UNL     1      35.925  25.480  13.913  1.00  0.00     0.129 A 
HETATM   28  C8  UNL     1      34.844  24.688  14.204  1.00  0.00     0.131 A 
HETATM   29  N8  UNL     1      33.589  25.211  14.013  1.00  0.00    -0.293 N 
HETATM   30  C10 UNL     1      33.348  26.447  13.558  1.00  0.00     0.328 A 
ATOM     31  H8  UNL     1      32.788  24.618  14.232  1.00  0.00     0.172 HD
HETATM   32  O4  UNL     1      32.182  26.898  13.393  1.00  0.00    -0.247 OA
HETATM   33  N9  UNL     1      34.394  27.232  13.270  1.00  0.00    -0.275 N 
HETATM   34  C11 UNL     1      35.642  26.772  13.439  1.00  0.00     0.267 A 
ATOM     35  H9  UNL     1      34.242  28.178  12.922  1.00  0.00     0.173 HD
HETATM   36  O5  UNL     1      36.633  27.501  13.171  1.00  0.00    -0.267 OA
BRANCH  28  37
HETATM   37  N7  UNL     1      35.019  23.384  14.680  1.00  0.00    -0.319 N 
ATOM     38  H7  UNL     1      35.564  23.235  15.529  1.00  0.00     0.169 HD
BRANCH  37  39
HETATM   39  C9  UNL     1      34.459  22.268  14.017  1.00  0.00     0.354 C 
HETATM   40  O3  UNL     1      33.246  22.295  13.630  1.00  0.00    -0.283 OA
ENDBRANCH  37  39
ENDBRANCH  28  37
ENDBRANCH   6  27
TORSDOF 7
ENDMDL
