MODEL 1
REMARK VINA RESULT: -7.131976020      0.000      0.000
REMARK  4 active torsions:
REMARK  status: ('A' for Active; 'I' for Inactive)
REMARK    1  A    between atoms: N1_1  and  C1_4 
REMARK    2  A    between atoms: C4_7  and  C5_8 
REMARK    3  A    between atoms: C5_8  and  N2_9 
REMARK    4  A    between atoms: C10_22  and  N6_23 
ROOT
HETATM    1  C1  UNL     1     -16.946   7.388  35.255  1.00  0.00     0.070 C 
HETATM    2  C2  UNL     1     -16.356   7.513  36.488  1.00  0.00     0.033 C 
HETATM    3  C3  UNL     1     -15.066   7.129  36.831  1.00  0.00     0.012 C 
HETATM    4  C4  UNL     1     -14.172   6.374  36.108  1.00  0.00    -0.023 C 
HETATM    5  C9  UNL     1     -14.142   6.241  34.732  1.00  0.00     0.098 C 
HETATM    6  N5  UNL     1     -15.095   6.545  33.821  1.00  0.00    -0.350 N 
ATOM      7  H5  UNL     1     -14.841   6.435  32.840  1.00  0.00     0.166 HD
HETATM    8  C10 UNL     1     -16.352   6.981  34.080  1.00  0.00     0.125 C 
ENDROOT
BRANCH   4   9
HETATM    9  C5  UNL     1     -13.134   5.625  36.856  1.00  0.00     0.194 C 
BRANCH   9  10
HETATM   10  N2  UNL     1     -13.642   4.409  37.461  1.00  0.00    -0.238 N 
HETATM   11  N3  UNL     1     -14.585   3.695  36.828  1.00  0.00    -0.300 N 
HETATM   12  C6  UNL     1     -15.091   2.562  37.344  1.00  0.00     0.181 A 
ATOM     13  H3  UNL     1     -14.930   4.023  35.926  1.00  0.00     0.186 HD
HETATM   14  C7  UNL     1     -14.652   2.084  38.562  1.00  0.00     0.266 A 
HETATM   15  O1  UNL     1     -15.112   1.021  39.069  1.00  0.00    -0.267 OA
HETATM   16  N4  UNL     1     -13.706   2.802  39.194  1.00  0.00    -0.273 N 
HETATM   17  C8  UNL     1     -13.215   3.943  38.646  1.00  0.00     0.344 A 
ATOM     18  H4  UNL     1     -13.353   2.484  40.097  1.00  0.00     0.173 HD
HETATM   19  O2  UNL     1     -12.326   4.614  39.245  1.00  0.00    -0.245 OA
ENDBRANCH   9  10
ENDBRANCH   4   9
BRANCH   1  20
HETATM   20  N1  UNL     1     -18.207   7.690  35.204  1.00  0.00    -0.396 N 
ATOM     21  H12 UNL     1     -18.443   8.679  35.116  1.00  0.00     0.156 HD
ATOM     22  H11 UNL     1     -18.851   6.902  35.258  1.00  0.00     0.156 HD
ENDBRANCH   1  20
BRANCH   8  23
HETATM   23  N6  UNL     1     -17.177   7.042  33.069  1.00  0.00    -0.384 N 
ATOM     24  H62 UNL     1     -16.792   7.351  32.176  1.00  0.00     0.157 HD
ATOM     25  H61 UNL     1     -18.122   6.760  33.331  1.00  0.00     0.157 HD
ENDBRANCH   8  23
TORSDOF 4
ENDMDL
MODEL 2
REMARK VINA RESULT: -7.113350644      2.667      3.934
REMARK  4 active torsions:
REMARK  status: ('A' for Active; 'I' for Inactive)
REMARK    1  A    between atoms: N1_1  and  C1_4 
REMARK    2  A    between atoms: C4_7  and  C5_8 
REMARK    3  A    between atoms: C5_8  and  N2_9 
REMARK    4  A    between atoms: C10_22  and  N6_23 
ROOT
HETATM    1  C1  UNL     1     -13.747   6.309  35.863  1.00  0.00     0.070 C 
HETATM    2  C2  UNL     1     -13.004   5.204  36.196  1.00  0.00     0.033 C 
HETATM    3  C3  UNL     1     -13.461   4.063  36.843  1.00  0.00     0.012 C 
HETATM    4  C4  UNL     1     -14.671   3.852  37.464  1.00  0.00    -0.023 C 
HETATM    5  C9  UNL     1     -15.857   4.504  37.183  1.00  0.00     0.098 C 
HETATM    6  N5  UNL     1     -16.063   5.647  36.489  1.00  0.00    -0.350 N 
ATOM      7  H5  UNL     1     -17.033   5.920  36.335  1.00  0.00     0.166 HD
HETATM    8  C10 UNL     1     -15.111   6.466  35.978  1.00  0.00     0.125 C 
ENDROOT
BRANCH   4   9
HETATM    9  C5  UNL     1     -14.728   2.835  38.541  1.00  0.00     0.194 C 
BRANCH   9  10
HETATM   10  N2  UNL     1     -16.078   2.389  38.825  1.00  0.00    -0.238 N 
HETATM   11  N3  UNL     1     -16.770   2.959  39.823  1.00  0.00    -0.300 N 
HETATM   12  C6  UNL     1     -18.024   2.584  40.130  1.00  0.00     0.181 A 
ATOM     13  H3  UNL     1     -16.331   3.701  40.367  1.00  0.00     0.186 HD
HETATM   14  C7  UNL     1     -18.655   1.584  39.419  1.00  0.00     0.266 A 
HETATM   15  O1  UNL     1     -19.832   1.213  39.687  1.00  0.00    -0.267 OA
HETATM   16  N4  UNL     1     -17.958   1.014  38.419  1.00  0.00    -0.273 N 
HETATM   17  C8  UNL     1     -16.693   1.416  38.134  1.00  0.00     0.344 A 
ATOM     18  H4  UNL     1     -18.387   0.270  37.867  1.00  0.00     0.173 HD
HETATM   19  O2  UNL     1     -16.043   0.877  37.192  1.00  0.00    -0.245 OA
ENDBRANCH   9  10
ENDBRANCH   4   9
BRANCH   1  20
HETATM   20  N1  UNL     1     -13.076   7.312  35.385  1.00  0.00    -0.396 N 
ATOM     21  H12 UNL     1     -12.554   7.151  34.523  1.00  0.00     0.156 HD
ATOM     22  H11 UNL     1     -13.134   8.176  35.922  1.00  0.00     0.156 HD
ENDBRANCH   1  20
BRANCH   8  23
HETATM   23  N6  UNL     1     -15.512   7.615  35.503  1.00  0.00    -0.384 N 
ATOM     24  H62 UNL     1     -15.889   7.616  34.555  1.00  0.00     0.157 HD
ATOM     25  H61 UNL     1     -15.383   8.372  36.175  1.00  0.00     0.157 HD
ENDBRANCH   8  23
TORSDOF 4
ENDMDL
MODEL 3
REMARK VINA RESULT: -7.045500898      2.498      3.820
REMARK  4 active torsions:
REMARK  status: ('A' for Active; 'I' for Inactive)
REMARK    1  A    between atoms: N1_1  and  C1_4 
REMARK    2  A    between atoms: C4_7  and  C5_8 
REMARK    3  A    between atoms: C5_8  and  N2_9 
REMARK    4  A    between atoms: C10_22  and  N6_23 
ROOT
HETATM    1  C1  UNL     1     -14.260   6.379  35.329  1.00  0.00     0.070 C 
HETATM    2  C2  UNL     1     -15.298   5.544  35.659  1.00  0.00     0.033 C 
HETATM    3  C3  UNL     1     -15.319   4.617  36.692  1.00  0.00     0.012 C 
HETATM    4  C4  UNL     1     -14.278   4.181  37.479  1.00  0.00    -0.023 C 
HETATM    5  C9  UNL     1     -13.119   4.880  37.759  1.00  0.00     0.098 C 
HETATM    6  N5  UNL     1     -12.603   5.966  37.139  1.00  0.00    -0.350 N 
ATOM      7  H5  UNL     1     -11.765   6.374  37.554  1.00  0.00     0.166 HD
HETATM    8  C10 UNL     1     -13.084   6.567  36.023  1.00  0.00     0.125 C 
ENDROOT
BRANCH   4   9
HETATM    9  C5  UNL     1     -14.389   2.835  38.091  1.00  0.00     0.194 C 
BRANCH   9  10
HETATM   10  N2  UNL     1     -15.749   2.491  38.456  1.00  0.00    -0.238 N 
HETATM   11  N3  UNL     1     -16.316   3.067  39.527  1.00  0.00    -0.300 N 
HETATM   12  C6  UNL     1     -17.573   2.784  39.910  1.00  0.00     0.181 A 
ATOM     13  H3  UNL     1     -15.775   3.741  40.068  1.00  0.00     0.186 HD
HETATM   14  C7  UNL     1     -18.338   1.878  39.205  1.00  0.00     0.266 A 
HETATM   15  O1  UNL     1     -19.522   1.594  39.544  1.00  0.00    -0.267 OA
HETATM   16  N4  UNL     1     -17.767   1.302  38.131  1.00  0.00    -0.273 N 
HETATM   17  C8  UNL     1     -16.494   1.609  37.770  1.00  0.00     0.344 A 
ATOM     18  H4  UNL     1     -18.297   0.626  37.581  1.00  0.00     0.173 HD
HETATM   19  O2  UNL     1     -15.962   1.065  36.760  1.00  0.00    -0.245 OA
ENDBRANCH   9  10
ENDBRANCH   4   9
BRANCH   1  20
HETATM   20  N1  UNL     1     -14.416   7.065  34.239  1.00  0.00    -0.396 N 
ATOM     21  H12 UNL     1     -14.674   8.047  34.342  1.00  0.00     0.156 HD
ATOM     22  H11 UNL     1     -14.266   6.551  33.371  1.00  0.00     0.156 HD
ENDBRANCH   1  20
BRANCH   8  23
HETATM   23  N6  UNL     1     -12.337   7.488  35.478  1.00  0.00    -0.384 N 
ATOM     24  H62 UNL     1     -12.734   8.426  35.411  1.00  0.00     0.157 HD
ATOM     25  H61 UNL     1     -11.430   7.122  35.187  1.00  0.00     0.157 HD
ENDBRANCH   8  23
TORSDOF 4
ENDMDL
MODEL 4
REMARK VINA RESULT: -6.868327845      3.147      6.091
REMARK  4 active torsions:
REMARK  status: ('A' for Active; 'I' for Inactive)
REMARK    1  A    between atoms: N1_1  and  C1_4 
REMARK    2  A    between atoms: C4_7  and  C5_8 
REMARK    3  A    between atoms: C5_8  and  N2_9 
REMARK    4  A    between atoms: C10_22  and  N6_23 
ROOT
HETATM    1  C1  UNL     1     -14.843   3.132  38.185  1.00  0.00     0.070 C 
HETATM    2  C2  UNL     1     -15.954   3.807  37.743  1.00  0.00     0.033 C 
HETATM    3  C3  UNL     1     -15.980   4.849  36.825  1.00  0.00     0.012 C 
HETATM    4  C4  UNL     1     -14.926   5.567  36.309  1.00  0.00    -0.023 C 
HETATM    5  C9  UNL     1     -13.619   5.131  36.194  1.00  0.00     0.098 C 
HETATM    6  N5  UNL     1     -13.012   4.080  36.790  1.00  0.00    -0.350 N 
ATOM      7  H5  UNL     1     -12.050   3.888  36.511  1.00  0.00     0.166 HD
HETATM    8  C10 UNL     1     -13.550   3.255  37.722  1.00  0.00     0.125 C 
ENDROOT
BRANCH   4   9
HETATM    9  C5  UNL     1     -15.196   6.943  35.827  1.00  0.00     0.194 C 
BRANCH   9  10
HETATM   10  N2  UNL     1     -15.258   7.033  34.381  1.00  0.00    -0.238 N 
HETATM   11  N3  UNL     1     -16.079   6.221  33.699  1.00  0.00    -0.300 N 
HETATM   12  C6  UNL     1     -16.175   6.261  32.359  1.00  0.00     0.181 A 
ATOM     13  H3  UNL     1     -16.650   5.550  34.214  1.00  0.00     0.186 HD
HETATM   14  C7  UNL     1     -15.421   7.153  31.624  1.00  0.00     0.266 A 
HETATM   15  O1  UNL     1     -15.492   7.211  30.364  1.00  0.00    -0.267 OA
HETATM   16  N4  UNL     1     -14.598   7.967  32.311  1.00  0.00    -0.273 N 
HETATM   17  C8  UNL     1     -14.524   7.901  33.666  1.00  0.00     0.344 A 
ATOM     18  H4  UNL     1     -14.022   8.642  31.808  1.00  0.00     0.173 HD
HETATM   19  O2  UNL     1     -13.749   8.668  34.306  1.00  0.00    -0.245 OA
ENDBRANCH   9  10
ENDBRANCH   4   9
BRANCH   1  20
HETATM   20  N1  UNL     1     -15.046   2.286  39.147  1.00  0.00    -0.396 N 
ATOM     21  H12 UNL     1     -14.542   2.447  40.020  1.00  0.00     0.156 HD
ATOM     22  H11 UNL     1     -15.699   1.531  38.939  1.00  0.00     0.156 HD
ENDBRANCH   1  20
BRANCH   8  23
HETATM   23  N6  UNL     1     -12.740   2.415  38.308  1.00  0.00    -0.384 N 
ATOM     24  H62 UNL     1     -11.755   2.676  38.351  1.00  0.00     0.157 HD
ATOM     25  H61 UNL     1     -13.231   1.589  38.651  1.00  0.00     0.157 HD
ENDBRANCH   8  23
TORSDOF 4
ENDMDL
MODEL 5
REMARK VINA RESULT: -6.831243811      3.106      6.056
REMARK  4 active torsions:
REMARK  status: ('A' for Active; 'I' for Inactive)
REMARK    1  A    between atoms: N1_1  and  C1_4 
REMARK    2  A    between atoms: C4_7  and  C5_8 
REMARK    3  A    between atoms: C5_8  and  N2_9 
REMARK    4  A    between atoms: C10_22  and  N6_23 
ROOT
HETATM    1  C1  UNL     1     -14.719   3.033  38.291  1.00  0.00     0.070 C 
HETATM    2  C2  UNL     1     -15.803   3.665  37.735  1.00  0.00     0.033 C 
HETATM    3  C3  UNL     1     -15.773   4.721  36.834  1.00  0.00     0.012 C 
HETATM    4  C4  UNL     1     -14.702   5.495  36.450  1.00  0.00    -0.023 C 
HETATM    5  C9  UNL     1     -13.372   5.118  36.478  1.00  0.00     0.098 C 
HETATM    6  N5  UNL     1     -12.788   4.084  37.125  1.00  0.00    -0.350 N 
ATOM      7  H5  UNL     1     -11.793   3.940  36.954  1.00  0.00     0.166 HD
HETATM    8  C10 UNL     1     -13.390   3.220  37.979  1.00  0.00     0.125 C 
ENDROOT
BRANCH   4   9
HETATM    9  C5  UNL     1     -14.979   6.865  35.957  1.00  0.00     0.194 C 
BRANCH   9  10
HETATM   10  N2  UNL     1     -15.854   6.885  34.802  1.00  0.00    -0.238 N 
HETATM   11  N3  UNL     1     -15.430   6.370  33.638  1.00  0.00    -0.300 N 
HETATM   12  C6  UNL     1     -16.200   6.362  32.536  1.00  0.00     0.181 A 
ATOM     13  H3  UNL     1     -14.493   5.972  33.587  1.00  0.00     0.186 HD
HETATM   14  C7  UNL     1     -17.475   6.891  32.562  1.00  0.00     0.266 A 
HETATM   15  O1  UNL     1     -18.218   6.896  31.541  1.00  0.00    -0.267 OA
HETATM   16  N4  UNL     1     -17.897   7.406  33.731  1.00  0.00    -0.273 N 
HETATM   17  C8  UNL     1     -17.095   7.399  34.827  1.00  0.00     0.344 A 
ATOM     18  H4  UNL     1     -18.833   7.807  33.796  1.00  0.00     0.173 HD
HETATM   19  O2  UNL     1     -17.498   7.884  35.923  1.00  0.00    -0.245 OA
ENDBRANCH   9  10
ENDBRANCH   4   9
BRANCH   1  20
HETATM   20  N1  UNL     1     -14.991   2.162  39.214  1.00  0.00    -0.396 N 
ATOM     21  H12 UNL     1     -15.405   1.280  38.911  1.00  0.00     0.156 HD
ATOM     22  H11 UNL     1     -14.763   2.444  40.167  1.00  0.00     0.156 HD
ENDBRANCH   1  20
BRANCH   8  23
HETATM   23  N6  UNL     1     -12.614   2.406  38.643  1.00  0.00    -0.384 N 
ATOM     24  H62 UNL     1     -13.046   1.857  39.386  1.00  0.00     0.157 HD
ATOM     25  H61 UNL     1     -11.650   2.440  38.308  1.00  0.00     0.157 HD
ENDBRANCH   8  23
TORSDOF 4
ENDMDL
