MODEL 1
REMARK VINA RESULT: -7.457763400      0.000      0.000
REMARK  2 active torsions:
REMARK  status: ('A' for Active; 'I' for Inactive)
REMARK    1  A    between atoms: C1_2  and  C2_4 
REMARK    2  A    between atoms: N4_13  and  C6_14 
ROOT
HETATM    1  C2  UNL     1     -15.287   3.333  37.618  1.00  0.00     0.134 A 
HETATM    2  C3  UNL     1     -14.411   2.542  38.403  1.00  0.00     0.146 A 
HETATM    3  N2  UNL     1     -14.795   1.285  38.945  1.00  0.00    -0.094 NA
HETATM    4  C4  UNL     1     -13.144   2.984  38.663  1.00  0.00     0.276 A 
HETATM    5  O2  UNL     1     -12.320   2.312  39.362  1.00  0.00    -0.266 OA
HETATM    6  N3  UNL     1     -12.794   4.166  38.149  1.00  0.00    -0.274 N 
ATOM      7  H3  UNL     1     -11.852   4.511  38.332  1.00  0.00     0.173 HD
HETATM    8  C5  UNL     1     -13.606   4.915  37.413  1.00  0.00     0.330 A 
HETATM    9  O3  UNL     1     -13.152   6.036  36.975  1.00  0.00    -0.246 OA
HETATM   10  N4  UNL     1     -14.874   4.501  37.138  1.00  0.00    -0.287 N 
ENDROOT
BRANCH  10  11
HETATM   11  C6  UNL     1     -15.684   5.355  36.355  1.00  0.00     0.120 C 
HETATM   12  C7  UNL     1     -15.963   6.702  37.003  1.00  0.00     0.029 C 
HETATM   13  C8  UNL     1     -15.812   7.835  36.058  1.00  0.00     0.029 C 
HETATM   14  C9  UNL     1     -16.339   7.561  34.673  1.00  0.00     0.232 C 
HETATM   15  N5  UNL     1     -16.050   6.232  34.194  1.00  0.00    -0.073 N 
HETATM   16  C10 UNL     1     -15.017   5.583  34.990  1.00  0.00     0.257 C 
ATOM     17  H52 UNL     1     -16.894   5.663  34.146  1.00  0.00     0.277 HD
ATOM     18  H51 UNL     1     -15.805   6.240  33.204  1.00  0.00     0.277 HD
ENDBRANCH  10  11
BRANCH   1  19
HETATM   19  C1  UNL     1     -16.576   2.721  37.442  1.00  0.00     0.283 C 
HETATM   20  N1  UNL     1     -17.755   2.989  38.126  1.00  0.00    -0.056 NA
HETATM   21  O1  UNL     1     -16.729   1.793  36.547  1.00  0.00    -0.269 OA
ENDBRANCH   1  19
TORSDOF 2
ENDMDL
MODEL 2
REMARK VINA RESULT: -6.847711097      1.931      3.451
REMARK  2 active torsions:
REMARK  status: ('A' for Active; 'I' for Inactive)
REMARK    1  A    between atoms: C1_2  and  C2_4 
REMARK    2  A    between atoms: N4_13  and  C6_14 
ROOT
HETATM    1  C2  UNL     1     -14.652   3.105  38.007  1.00  0.00     0.134 A 
HETATM    2  C3  UNL     1     -15.789   2.411  38.492  1.00  0.00     0.146 A 
HETATM    3  N2  UNL     1     -15.686   1.215  39.254  1.00  0.00    -0.094 NA
HETATM    4  C4  UNL     1     -17.042   2.889  38.229  1.00  0.00     0.276 A 
HETATM    5  O2  UNL     1     -18.093   2.303  38.643  1.00  0.00    -0.266 OA
HETATM    6  N3  UNL     1     -17.127   4.012  37.513  1.00  0.00    -0.274 N 
ATOM      7  H3  UNL     1     -18.054   4.385  37.308  1.00  0.00     0.173 HD
HETATM    8  C5  UNL     1     -16.069   4.671  37.053  1.00  0.00     0.330 A 
HETATM    9  O3  UNL     1     -16.282   5.742  36.374  1.00  0.00    -0.246 OA
HETATM   10  N4  UNL     1     -14.809   4.218  37.298  1.00  0.00    -0.287 N 
ENDROOT
BRANCH  10  11
HETATM   11  C6  UNL     1     -13.733   4.967  36.770  1.00  0.00     0.120 C 
HETATM   12  C7  UNL     1     -13.915   5.363  35.314  1.00  0.00     0.029 C 
HETATM   13  C8  UNL     1     -13.554   6.777  35.053  1.00  0.00     0.029 C 
HETATM   14  C9  UNL     1     -12.332   7.251  35.798  1.00  0.00     0.232 C 
HETATM   15  N5  UNL     1     -12.253   6.766  37.153  1.00  0.00    -0.073 N 
HETATM   16  C10 UNL     1     -13.528   6.235  37.613  1.00  0.00     0.257 C 
ATOM     17  H52 UNL     1     -11.505   6.080  37.259  1.00  0.00     0.277 HD
ATOM     18  H51 UNL     1     -11.900   7.485  37.785  1.00  0.00     0.277 HD
ENDBRANCH  10  11
BRANCH   1  19
HETATM   19  C1  UNL     1     -13.417   2.468  38.374  1.00  0.00     0.283 C 
HETATM   20  N1  UNL     1     -12.492   2.873  39.328  1.00  0.00    -0.056 NA
HETATM   21  O1  UNL     1     -13.061   1.370  37.780  1.00  0.00    -0.269 OA
ENDBRANCH   1  19
TORSDOF 2
ENDMDL
MODEL 3
REMARK VINA RESULT: -6.742174909      1.947      4.589
REMARK  2 active torsions:
REMARK  status: ('A' for Active; 'I' for Inactive)
REMARK    1  A    between atoms: C1_2  and  C2_4 
REMARK    2  A    between atoms: N4_13  and  C6_14 
ROOT
HETATM    1  C2  UNL     1     -14.930   5.455  36.285  1.00  0.00     0.134 A 
HETATM    2  C3  UNL     1     -13.730   5.965  35.729  1.00  0.00     0.146 A 
HETATM    3  N2  UNL     1     -13.673   7.213  35.050  1.00  0.00    -0.094 NA
HETATM    4  C4  UNL     1     -12.572   5.248  35.835  1.00  0.00     0.276 A 
HETATM    5  O2  UNL     1     -11.469   5.663  35.353  1.00  0.00    -0.266 OA
HETATM    6  N3  UNL     1     -12.637   4.077  36.474  1.00  0.00    -0.274 N 
ATOM      7  H3  UNL     1     -11.782   3.528  36.564  1.00  0.00     0.173 HD
HETATM    8  C5  UNL     1     -13.755   3.589  36.999  1.00  0.00     0.330 A 
HETATM    9  O3  UNL     1     -13.689   2.449  37.590  1.00  0.00    -0.246 OA
HETATM   10  N4  UNL     1     -14.925   4.281  36.907  1.00  0.00    -0.287 N 
ENDROOT
BRANCH  10  11
HETATM   11  C6  UNL     1     -16.075   3.695  37.482  1.00  0.00     0.120 C 
HETATM   12  C7  UNL     1     -16.420   2.329  36.913  1.00  0.00     0.029 C 
HETATM   13  C8  UNL     1     -16.770   1.341  37.962  1.00  0.00     0.029 C 
HETATM   14  C9  UNL     1     -17.604   1.902  39.085  1.00  0.00     0.232 C 
HETATM   15  N5  UNL     1     -17.206   3.224  39.500  1.00  0.00    -0.073 N 
HETATM   16  C10 UNL     1     -15.883   3.572  39.001  1.00  0.00     0.257 C 
ATOM     17  H52 UNL     1     -17.899   3.921  39.232  1.00  0.00     0.277 HD
ATOM     18  H51 UNL     1     -17.259   3.326  40.514  1.00  0.00     0.277 HD
ENDBRANCH  10  11
BRANCH   1  19
HETATM   19  C1  UNL     1     -16.050   6.334  36.084  1.00  0.00     0.283 C 
HETATM   20  N1  UNL     1     -16.715   7.106  37.028  1.00  0.00    -0.056 NA
HETATM   21  O1  UNL     1     -16.551   6.473  34.895  1.00  0.00    -0.269 OA
ENDBRANCH   1  19
TORSDOF 2
ENDMDL
MODEL 4
REMARK VINA RESULT: -6.054052280      2.276      5.663
REMARK  2 active torsions:
REMARK  status: ('A' for Active; 'I' for Inactive)
REMARK    1  A    between atoms: C1_2  and  C2_4 
REMARK    2  A    between atoms: N4_13  and  C6_14 
ROOT
HETATM    1  C2  UNL     1     -13.947   6.354  35.623  1.00  0.00     0.134 A 
HETATM    2  C3  UNL     1     -14.928   7.065  34.887  1.00  0.00     0.146 A 
HETATM    3  N2  UNL     1     -14.590   8.006  33.876  1.00  0.00    -0.094 NA
HETATM    4  C4  UNL     1     -16.254   6.856  35.142  1.00  0.00     0.276 A 
HETATM    5  O2  UNL     1     -17.172   7.470  34.508  1.00  0.00    -0.266 OA
HETATM    6  N3  UNL     1     -16.559   5.971  36.093  1.00  0.00    -0.274 N 
ATOM      7  H3  UNL     1     -17.544   5.801  36.297  1.00  0.00     0.173 HD
HETATM    8  C5  UNL     1     -15.649   5.299  36.790  1.00  0.00     0.330 A 
HETATM    9  O3  UNL     1     -16.070   4.473  37.681  1.00  0.00    -0.246 OA
HETATM   10  N4  UNL     1     -14.320   5.487  36.558  1.00  0.00    -0.287 N 
ENDROOT
BRANCH  10  11
HETATM   11  C6  UNL     1     -13.411   4.743  37.344  1.00  0.00     0.120 C 
HETATM   12  C7  UNL     1     -13.028   5.420  38.650  1.00  0.00     0.029 C 
HETATM   13  C8  UNL     1     -13.044   4.490  39.805  1.00  0.00     0.029 C 
HETATM   14  C9  UNL     1     -12.501   3.117  39.500  1.00  0.00     0.232 C 
HETATM   15  N5  UNL     1     -12.896   2.609  38.211  1.00  0.00    -0.073 N 
HETATM   16  C10 UNL     1     -14.009   3.362  37.650  1.00  0.00     0.257 C 
ATOM     17  H52 UNL     1     -12.107   2.577  37.566  1.00  0.00     0.277 HD
ATOM     18  H51 UNL     1     -13.107   1.611  38.254  1.00  0.00     0.277 HD
ENDBRANCH  10  11
BRANCH   1  19
HETATM   19  C1  UNL     1     -12.606   6.692  35.228  1.00  0.00     0.283 C 
HETATM   20  N1  UNL     1     -12.041   7.954  35.100  1.00  0.00    -0.056 NA
HETATM   21  O1  UNL     1     -11.764   5.746  34.943  1.00  0.00    -0.269 OA
ENDBRANCH   1  19
TORSDOF 2
ENDMDL
MODEL 5
REMARK VINA RESULT: -6.019162585      1.055      1.399
REMARK  2 active torsions:
REMARK  status: ('A' for Active; 'I' for Inactive)
REMARK    1  A    between atoms: C1_2  and  C2_4 
REMARK    2  A    between atoms: N4_13  and  C6_14 
ROOT
HETATM    1  C2  UNL     1     -14.620   3.838  37.701  1.00  0.00     0.134 A 
HETATM    2  C3  UNL     1     -13.936   2.900  38.515  1.00  0.00     0.146 A 
HETATM    3  N2  UNL     1     -14.472   1.618  38.816  1.00  0.00    -0.094 NA
HETATM    4  C4  UNL     1     -12.716   3.218  39.042  1.00  0.00     0.276 A 
HETATM    5  O2  UNL     1     -12.063   2.410  39.778  1.00  0.00    -0.266 OA
HETATM    6  N3  UNL     1     -12.223   4.424  38.752  1.00  0.00    -0.274 N 
ATOM      7  H3  UNL     1     -11.313   4.679  39.136  1.00  0.00     0.173 HD
HETATM    8  C5  UNL     1     -12.855   5.311  37.992  1.00  0.00     0.330 A 
HETATM    9  O3  UNL     1     -12.275   6.441  37.786  1.00  0.00    -0.246 OA
HETATM   10  N4  UNL     1     -14.072   5.023  37.453  1.00  0.00    -0.287 N 
ENDROOT
BRANCH  10  11
HETATM   11  C6  UNL     1     -14.687   6.019  36.661  1.00  0.00     0.120 C 
HETATM   12  C7  UNL     1     -14.496   5.822  35.166  1.00  0.00     0.029 C 
HETATM   13  C8  UNL     1     -15.746   6.028  34.395  1.00  0.00     0.029 C 
HETATM   14  C9  UNL     1     -16.591   7.176  34.884  1.00  0.00     0.232 C 
HETATM   15  N5  UNL     1     -16.651   7.283  36.320  1.00  0.00    -0.073 N 
HETATM   16  C10 UNL     1     -16.190   6.066  36.974  1.00  0.00     0.257 C 
ATOM     17  H52 UNL     1     -16.139   8.100  36.654  1.00  0.00     0.277 HD
ATOM     18  H51 UNL     1     -17.587   7.542  36.634  1.00  0.00     0.277 HD
ENDBRANCH  10  11
BRANCH   1  19
HETATM   19  C1  UNL     1     -15.885   3.343  37.230  1.00  0.00     0.283 C 
HETATM   20  N1  UNL     1     -17.131   3.461  37.832  1.00  0.00    -0.056 NA
HETATM   21  O1  UNL     1     -15.943   2.697  36.106  1.00  0.00    -0.269 OA
ENDBRANCH   1  19
TORSDOF 2
ENDMDL
