MODEL 1
REMARK VINA RESULT: -6.796017018      0.000      0.000
REMARK  4 active torsions:
REMARK  status: ('A' for Active; 'I' for Inactive)
REMARK    1  A    between atoms: C1_4  and  C2_5 
REMARK    2  A    between atoms: C2_5  and  C3_6 
REMARK       I    between atoms: C3_6  and  N2_8 
REMARK       I    between atoms: C4_10  and  N3_11 
REMARK       I    between atoms: C4_10  and  N6_18 
REMARK    3  A    between atoms: N3_11  and  N4_13 
REMARK    4  A    between atoms: N4_13  and  C5_15 
ROOT
HETATM    1  C3  UNL     1     -13.498   4.676  37.282  1.00  0.00     0.240 C 
HETATM    2  O1  UNL     1     -13.486   3.470  36.988  1.00  0.00    -0.272 OA
HETATM    3  N2  UNL     1     -14.327   5.628  36.657  1.00  0.00    -0.156 N 
ATOM      4  H2  UNL     1     -13.883   6.323  36.058  1.00  0.00     0.187 HD
HETATM    5  C4  UNL     1     -15.609   5.680  36.793  1.00  0.00     0.721 C 
HETATM    6  N3  UNL     1     -16.262   4.733  37.617  1.00  0.00    -0.128 N 
ATOM      7  H3  UNL     1     -16.375   4.945  38.608  1.00  0.00     0.205 HD
HETATM    8  N6  UNL     1     -16.295   6.710  36.086  1.00  0.00    -0.080 N 
HETATM    9  C6  UNL     1     -16.637   7.922  36.512  1.00  0.00     0.226 A 
HETATM   10  N7  UNL     1     -17.266   8.543  35.505  1.00  0.00    -0.345 N 
ATOM     11  H7  UNL     1     -17.647   9.489  35.529  1.00  0.00     0.167 HD
HETATM   12  C7  UNL     1     -17.307   7.707  34.461  1.00  0.00     0.199 A 
HETATM   13  N8  UNL     1     -16.699   6.569  34.837  1.00  0.00    -0.274 N 
ATOM     14  H8  UNL     1     -16.570   5.740  34.258  1.00  0.00     0.189 HD
ENDROOT
BRANCH   6  15
HETATM   15  N4  UNL     1     -16.759   3.521  37.133  1.00  0.00    -0.264 N 
ATOM     16  H4  UNL     1     -17.051   3.451  36.158  1.00  0.00     0.189 HD
BRANCH  15  17
HETATM   17  C5  UNL     1     -16.864   2.385  37.981  1.00  0.00     0.200 C 
HETATM   18  N5  UNL     1     -16.444   1.120  37.526  1.00  0.00    -0.068 NA
HETATM   19  S1  UNL     1     -17.463   2.481  39.496  1.00  0.00    -0.043 SA
ENDBRANCH  15  17
ENDBRANCH   6  15
BRANCH   1  20
HETATM   20  C2  UNL     1     -12.580   5.151  38.361  1.00  0.00     0.147 C 
BRANCH  20  21
HETATM   21  C1  UNL     1     -12.868   4.455  39.649  1.00  0.00     0.062 C 
HETATM   22  N1  UNL     1     -12.805   3.185  39.688  1.00  0.00    -0.411 N 
ATOM     23  H12 UNL     1     -12.561   2.666  38.844  1.00  0.00     0.155 HD
ATOM     24  H11 UNL     1     -13.002   2.709  40.568  1.00  0.00     0.155 HD
ENDBRANCH  20  21
ENDBRANCH   1  20
TORSDOF 4
ENDMDL
MODEL 2
REMARK VINA RESULT: -6.559471502      2.262      4.107
REMARK  4 active torsions:
REMARK  status: ('A' for Active; 'I' for Inactive)
REMARK    1  A    between atoms: C1_4  and  C2_5 
REMARK    2  A    between atoms: C2_5  and  C3_6 
REMARK       I    between atoms: C3_6  and  N2_8 
REMARK       I    between atoms: C4_10  and  N3_11 
REMARK       I    between atoms: C4_10  and  N6_18 
REMARK    3  A    between atoms: N3_11  and  N4_13 
REMARK    4  A    between atoms: N4_13  and  C5_15 
ROOT
HETATM    1  C3  UNL     1     -16.606   3.250  38.558  1.00  0.00     0.240 C 
HETATM    2  O1  UNL     1     -15.879   2.929  39.512  1.00  0.00    -0.272 OA
HETATM    3  N2  UNL     1     -16.388   4.383  37.751  1.00  0.00    -0.156 N 
ATOM      4  H2  UNL     1     -17.050   5.155  37.827  1.00  0.00     0.187 HD
HETATM    5  C4  UNL     1     -15.406   4.511  36.923  1.00  0.00     0.721 C 
HETATM    6  N3  UNL     1     -14.466   3.462  36.788  1.00  0.00    -0.128 N 
ATOM      7  H3  UNL     1     -14.650   2.726  36.106  1.00  0.00     0.205 HD
HETATM    8  N6  UNL     1     -15.335   5.728  36.184  1.00  0.00    -0.080 N 
HETATM    9  C6  UNL     1     -15.820   5.994  34.976  1.00  0.00     0.226 A 
HETATM   10  N7  UNL     1     -15.514   7.266  34.687  1.00  0.00    -0.345 N 
ATOM     11  H7  UNL     1     -15.753   7.759  33.827  1.00  0.00     0.167 HD
HETATM   12  C7  UNL     1     -14.840   7.777  35.723  1.00  0.00     0.199 A 
HETATM   13  N8  UNL     1     -14.736   6.808  36.649  1.00  0.00    -0.274 N 
ATOM     14  H8  UNL     1     -14.274   6.893  37.554  1.00  0.00     0.189 HD
ENDROOT
BRANCH   6  15
HETATM   15  N4  UNL     1     -13.297   3.390  37.548  1.00  0.00    -0.264 N 
ATOM     16  H4  UNL     1     -12.817   2.496  37.650  1.00  0.00     0.189 HD
BRANCH  15  17
HETATM   17  C5  UNL     1     -12.766   4.548  38.181  1.00  0.00     0.200 C 
HETATM   18  N5  UNL     1     -12.215   5.588  37.408  1.00  0.00    -0.068 NA
HETATM   19  S1  UNL     1     -12.767   4.732  39.802  1.00  0.00    -0.043 SA
ENDBRANCH  15  17
ENDBRANCH   6  15
BRANCH   1  20
HETATM   20  C2  UNL     1     -17.784   2.386  38.245  1.00  0.00     0.147 C 
BRANCH  20  21
HETATM   21  C1  UNL     1     -18.384   1.832  39.493  1.00  0.00     0.062 C 
HETATM   22  N1  UNL     1     -19.310   0.966  39.397  1.00  0.00    -0.411 N 
ATOM     23  H12 UNL     1     -19.627   0.666  38.475  1.00  0.00     0.155 HD
ATOM     24  H11 UNL     1     -19.720   0.587  40.250  1.00  0.00     0.155 HD
ENDBRANCH  20  21
ENDBRANCH   1  20
TORSDOF 4
ENDMDL
MODEL 3
REMARK VINA RESULT: -6.453824568      1.085      1.091
REMARK  4 active torsions:
REMARK  status: ('A' for Active; 'I' for Inactive)
REMARK    1  A    between atoms: C1_4  and  C2_5 
REMARK    2  A    between atoms: C2_5  and  C3_6 
REMARK       I    between atoms: C3_6  and  N2_8 
REMARK       I    between atoms: C4_10  and  N3_11 
REMARK       I    between atoms: C4_10  and  N6_18 
REMARK    3  A    between atoms: N3_11  and  N4_13 
REMARK    4  A    between atoms: N4_13  and  C5_15 
ROOT
HETATM    1  C3  UNL     1     -13.416   4.931  36.865  1.00  0.00     0.240 C 
HETATM    2  O1  UNL     1     -13.474   3.694  36.783  1.00  0.00    -0.272 OA
HETATM    3  N2  UNL     1     -14.279   5.805  36.174  1.00  0.00    -0.156 N 
ATOM      4  H2  UNL     1     -13.882   6.366  35.421  1.00  0.00     0.187 HD
HETATM    5  C4  UNL     1     -15.536   5.941  36.429  1.00  0.00     0.721 C 
HETATM    6  N3  UNL     1     -16.124   5.179  37.467  1.00  0.00    -0.128 N 
ATOM      7  H3  UNL     1     -16.122   5.560  38.413  1.00  0.00     0.205 HD
HETATM    8  N6  UNL     1     -16.264   6.871  35.630  1.00  0.00    -0.080 N 
HETATM    9  C6  UNL     1     -16.519   8.152  35.873  1.00  0.00     0.226 A 
HETATM   10  N7  UNL     1     -17.235   8.626  34.845  1.00  0.00    -0.345 N 
ATOM     11  H7  UNL     1     -17.581   9.580  34.745  1.00  0.00     0.167 HD
HETATM   12  C7  UNL     1     -17.416   7.630  33.970  1.00  0.00     0.199 A 
HETATM   13  N8  UNL     1     -16.805   6.543  34.472  1.00  0.00    -0.274 N 
ATOM     14  H8  UNL     1     -16.767   5.623  34.034  1.00  0.00     0.189 HD
ENDROOT
BRANCH   6  15
HETATM   15  N4  UNL     1     -16.708   3.930  37.251  1.00  0.00    -0.264 N 
ATOM     16  H4  UNL     1     -17.268   3.773  36.413  1.00  0.00     0.189 HD
BRANCH  15  17
HETATM   17  C5  UNL     1     -16.534   2.873  38.186  1.00  0.00     0.200 C 
HETATM   18  N5  UNL     1     -16.503   3.146  39.568  1.00  0.00    -0.068 NA
HETATM   19  S1  UNL     1     -16.361   1.318  37.721  1.00  0.00    -0.043 SA
ENDBRANCH  15  17
ENDBRANCH   6  15
BRANCH   1  20
HETATM   20  C2  UNL     1     -12.371   5.535  37.746  1.00  0.00     0.147 C 
BRANCH  20  21
HETATM   21  C1  UNL     1     -12.697   5.314  39.185  1.00  0.00     0.062 C 
HETATM   22  N1  UNL     1     -13.350   4.274  39.514  1.00  0.00    -0.411 N 
ATOM     23  H12 UNL     1     -13.639   3.611  38.794  1.00  0.00     0.155 HD
ATOM     24  H11 UNL     1     -13.573   4.123  40.498  1.00  0.00     0.155 HD
ENDBRANCH  20  21
ENDBRANCH   1  20
TORSDOF 4
ENDMDL
MODEL 4
REMARK VINA RESULT: -6.386496598      2.486      4.889
REMARK  4 active torsions:
REMARK  status: ('A' for Active; 'I' for Inactive)
REMARK    1  A    between atoms: C1_4  and  C2_5 
REMARK    2  A    between atoms: C2_5  and  C3_6 
REMARK       I    between atoms: C3_6  and  N2_8 
REMARK       I    between atoms: C4_10  and  N3_11 
REMARK       I    between atoms: C4_10  and  N6_18 
REMARK    3  A    between atoms: N3_11  and  N4_13 
REMARK    4  A    between atoms: N4_13  and  C5_15 
ROOT
HETATM    1  C3  UNL     1     -13.616   5.649  37.552  1.00  0.00     0.240 C 
HETATM    2  O1  UNL     1     -13.904   6.850  37.680  1.00  0.00    -0.272 OA
HETATM    3  N2  UNL     1     -14.494   4.594  37.868  1.00  0.00    -0.156 N 
ATOM      4  H2  UNL     1     -14.270   4.015  38.677  1.00  0.00     0.187 HD
HETATM    5  C4  UNL     1     -15.564   4.311  37.203  1.00  0.00     0.721 C 
HETATM    6  N3  UNL     1     -15.910   5.090  36.074  1.00  0.00    -0.128 N 
ATOM      7  H3  UNL     1     -15.542   4.818  35.162  1.00  0.00     0.205 HD
HETATM    8  N6  UNL     1     -16.341   3.207  37.663  1.00  0.00    -0.080 N 
HETATM    9  C6  UNL     1     -16.286   1.937  37.277  1.00  0.00     0.226 A 
HETATM   10  N7  UNL     1     -17.202   1.259  37.982  1.00  0.00    -0.345 N 
ATOM     11  H7  UNL     1     -17.397   0.261  37.907  1.00  0.00     0.167 HD
HETATM   12  C7  UNL     1     -17.817   2.120  38.801  1.00  0.00     0.199 A 
HETATM   13  N8  UNL     1     -17.270   3.330  38.592  1.00  0.00    -0.274 N 
ATOM     14  H8  UNL     1     -17.528   4.193  39.069  1.00  0.00     0.189 HD
ENDROOT
BRANCH   6  15
HETATM   15  N4  UNL     1     -16.733   6.215  36.153  1.00  0.00    -0.264 N 
ATOM     16  H4  UNL     1     -17.441   6.270  36.884  1.00  0.00     0.189 HD
BRANCH  15  17
HETATM   17  C5  UNL     1     -16.596   7.285  35.226  1.00  0.00     0.200 C 
HETATM   18  N5  UNL     1     -15.331   7.606  34.697  1.00  0.00    -0.068 NA
HETATM   19  S1  UNL     1     -17.868   8.182  34.737  1.00  0.00    -0.043 SA
ENDBRANCH  15  17
ENDBRANCH   6  15
BRANCH   1  20
HETATM   20  C2  UNL     1     -12.259   5.297  37.035  1.00  0.00     0.147 C 
BRANCH  20  21
HETATM   21  C1  UNL     1     -12.115   5.697  35.605  1.00  0.00     0.062 C 
HETATM   22  N1  UNL     1     -12.411   6.887  35.268  1.00  0.00    -0.411 N 
ATOM     23  H12 UNL     1     -12.740   7.545  35.975  1.00  0.00     0.155 HD
ATOM     24  H11 UNL     1     -12.312   7.161  34.291  1.00  0.00     0.155 HD
ENDBRANCH  20  21
ENDBRANCH   1  20
TORSDOF 4
ENDMDL
MODEL 5
REMARK VINA RESULT: -6.307508590      2.753      5.494
REMARK  4 active torsions:
REMARK  status: ('A' for Active; 'I' for Inactive)
REMARK    1  A    between atoms: C1_4  and  C2_5 
REMARK    2  A    between atoms: C2_5  and  C3_6 
REMARK       I    between atoms: C3_6  and  N2_8 
REMARK       I    between atoms: C4_10  and  N3_11 
REMARK       I    between atoms: C4_10  and  N6_18 
REMARK    3  A    between atoms: N3_11  and  N4_13 
REMARK    4  A    between atoms: N4_13  and  C5_15 
ROOT
HETATM    1  C3  UNL     1     -17.082   2.190  38.865  1.00  0.00     0.240 C 
HETATM    2  O1  UNL     1     -17.511   1.873  37.745  1.00  0.00    -0.272 OA
HETATM    3  N2  UNL     1     -15.763   2.621  39.107  1.00  0.00    -0.156 N 
ATOM      4  H2  UNL     1     -15.149   2.000  39.633  1.00  0.00     0.187 HD
HETATM    5  C4  UNL     1     -15.279   3.749  38.707  1.00  0.00     0.721 C 
HETATM    6  N3  UNL     1     -16.100   4.639  37.974  1.00  0.00    -0.128 N 
ATOM      7  H3  UNL     1     -16.661   5.319  38.486  1.00  0.00     0.205 HD
HETATM    8  N6  UNL     1     -13.920   4.026  39.038  1.00  0.00    -0.080 N 
HETATM    9  C6  UNL     1     -13.441   4.687  40.086  1.00  0.00     0.226 A 
HETATM   10  N7  UNL     1     -12.105   4.700  39.981  1.00  0.00    -0.345 N 
ATOM     11  H7  UNL     1     -11.457   5.135  40.637  1.00  0.00     0.167 HD
HETATM   12  C7  UNL     1     -11.769   4.044  38.864  1.00  0.00     0.199 A 
HETATM   13  N8  UNL     1     -12.910   3.629  38.287  1.00  0.00    -0.274 N 
ATOM     14  H8  UNL     1     -12.983   3.099  37.419  1.00  0.00     0.189 HD
ENDROOT
BRANCH   6  15
HETATM   15  N4  UNL     1     -16.174   4.628  36.580  1.00  0.00    -0.264 N 
ATOM     16  H4  UNL     1     -16.805   3.976  36.115  1.00  0.00     0.189 HD
BRANCH  15  17
HETATM   17  C5  UNL     1     -15.379   5.513  35.800  1.00  0.00     0.200 C 
HETATM   18  N5  UNL     1     -13.979   5.370  35.772  1.00  0.00    -0.068 NA
HETATM   19  S1  UNL     1     -16.032   6.719  34.916  1.00  0.00    -0.043 SA
ENDBRANCH  15  17
ENDBRANCH   6  15
BRANCH   1  20
HETATM   20  C2  UNL     1     -18.014   2.110  40.030  1.00  0.00     0.147 C 
BRANCH  20  21
HETATM   21  C1  UNL     1     -19.386   1.724  39.588  1.00  0.00     0.062 C 
HETATM   22  N1  UNL     1     -19.662   0.491  39.451  1.00  0.00    -0.411 N 
ATOM     23  H12 UNL     1     -18.948  -0.211  39.645  1.00  0.00     0.155 HD
ATOM     24  H11 UNL     1     -20.600   0.227  39.149  1.00  0.00     0.155 HD
ENDBRANCH  20  21
ENDBRANCH   1  20
TORSDOF 4
ENDMDL
