MODEL 1
REMARK VINA RESULT: -7.751863053      0.000      0.000
REMARK  2 active torsions:
REMARK  status: ('A' for Active; 'I' for Inactive)
REMARK    1  A    between atoms: C3_8  and  C4_9 
REMARK    2  A    between atoms: C4_9  and  C5_10 
ROOT
HETATM    1  C5  UNL     1     -13.776   4.191  36.914  1.00  0.00     0.088 A 
HETATM    2  N3  UNL     1     -12.592   4.381  36.298  1.00  0.00    -0.353 N 
ATOM      3  H3  UNL     1     -11.884   3.654  36.398  1.00  0.00     0.166 HD
HETATM    4  C6  UNL     1     -12.284   5.447  35.570  1.00  0.00     0.123 A 
HETATM    5  C7  UNL     1     -13.226   6.434  35.425  1.00  0.00     0.106 A 
HETATM    6  N4  UNL     1     -13.239   7.603  34.778  1.00  0.00    -0.279 N 
ATOM      7  H4  UNL     1     -12.477   8.000  34.229  1.00  0.00     0.184 HD
HETATM    8  N5  UNL     1     -14.430   8.153  34.984  1.00  0.00    -0.021 NA
HETATM    9  N6  UNL     1     -15.161   7.351  35.746  1.00  0.00    -0.267 N 
ATOM     10  H6  UNL     1     -16.116   7.540  36.052  1.00  0.00     0.186 HD
HETATM   11  C8  UNL     1     -14.447   6.240  36.058  1.00  0.00     0.149 A 
HETATM   12  N7  UNL     1     -14.702   5.134  36.786  1.00  0.00    -0.329 N 
ATOM     13  H7  UNL     1     -15.609   5.021  37.240  1.00  0.00     0.168 HD
ENDROOT
BRANCH   1  14
HETATM   14  C4  UNL     1     -13.921   2.940  37.673  1.00  0.00     0.135 C 
BRANCH  14  15
HETATM   15  C3  UNL     1     -15.331   2.611  37.995  1.00  0.00     0.035 A 
HETATM   16  C2  UNL     1     -16.246   2.321  36.998  1.00  0.00     0.115 A 
HETATM   17  N2  UNL     1     -17.529   2.021  37.265  1.00  0.00    -0.346 N 
HETATM   18  C1  UNL     1     -17.970   1.994  38.539  1.00  0.00     0.168 A 
ATOM     19  H2  UNL     1     -18.172   1.813  36.501  1.00  0.00     0.167 HD
HETATM   20  N1  UNL     1     -19.178   1.716  38.867  1.00  0.00    -0.381 N 
HETATM   21  C9  UNL     1     -17.074   2.281  39.567  1.00  0.00     0.289 A 
ATOM     22  H12 UNL     1     -19.834   1.505  38.115  1.00  0.00     0.157 HD
ATOM     23  H11 UNL     1     -19.511   1.695  39.831  1.00  0.00     0.157 HD
HETATM   24  N8  UNL     1     -15.797   2.577  39.259  1.00  0.00    -0.322 N 
HETATM   25  O1  UNL     1     -17.492   2.254  40.761  1.00  0.00    -0.264 OA
ATOM     26  H8  UNL     1     -15.150   2.786  40.020  1.00  0.00     0.169 HD
ENDBRANCH  14  15
ENDBRANCH   1  14
TORSDOF 2
ENDMDL
MODEL 2
REMARK VINA RESULT: -7.656020569      3.021      4.292
REMARK  2 active torsions:
REMARK  status: ('A' for Active; 'I' for Inactive)
REMARK    1  A    between atoms: C3_8  and  C4_9 
REMARK    2  A    between atoms: C4_9  and  C5_10 
ROOT
HETATM    1  C5  UNL     1     -16.148   6.489  35.347  1.00  0.00     0.088 A 
HETATM    2  N3  UNL     1     -17.139   7.400  35.286  1.00  0.00    -0.353 N 
ATOM      3  H3  UNL     1     -17.444   7.828  36.160  1.00  0.00     0.166 HD
HETATM    4  C6  UNL     1     -17.747   7.778  34.169  1.00  0.00     0.123 A 
HETATM    5  C7  UNL     1     -17.349   7.212  32.984  1.00  0.00     0.106 A 
HETATM    6  N4  UNL     1     -17.740   7.365  31.715  1.00  0.00    -0.279 N 
ATOM      7  H4  UNL     1     -18.473   7.990  31.379  1.00  0.00     0.184 HD
HETATM    8  N5  UNL     1     -16.996   6.552  30.974  1.00  0.00    -0.021 NA
HETATM    9  N6  UNL     1     -16.149   5.895  31.753  1.00  0.00    -0.267 N 
ATOM     10  H6  UNL     1     -15.467   5.208  31.432  1.00  0.00     0.186 HD
HETATM   11  C8  UNL     1     -16.327   6.274  33.045  1.00  0.00     0.149 A 
HETATM   12  N7  UNL     1     -15.746   5.928  34.212  1.00  0.00    -0.329 N 
ATOM     13  H7  UNL     1     -14.998   5.235  34.223  1.00  0.00     0.168 HD
ENDROOT
BRANCH   1  14
HETATM   14  C4  UNL     1     -15.605   6.207  36.684  1.00  0.00     0.135 C 
BRANCH  14  15
HETATM   15  C3  UNL     1     -15.122   4.812  36.838  1.00  0.00     0.035 A 
HETATM   16  C2  UNL     1     -13.774   4.529  36.967  1.00  0.00     0.115 A 
HETATM   17  N2  UNL     1     -13.313   3.274  37.106  1.00  0.00    -0.346 N 
HETATM   18  C1  UNL     1     -14.170   2.234  37.124  1.00  0.00     0.168 A 
ATOM     19  H2  UNL     1     -12.311   3.108  37.199  1.00  0.00     0.167 HD
HETATM   20  N1  UNL     1     -13.802   1.012  37.254  1.00  0.00    -0.381 N 
HETATM   21  C9  UNL     1     -15.535   2.484  36.996  1.00  0.00     0.289 A 
ATOM     22  H12 UNL     1     -12.803   0.829  37.348  1.00  0.00     0.157 HD
ATOM     23  H11 UNL     1     -14.451   0.225  37.268  1.00  0.00     0.157 HD
HETATM   24  N8  UNL     1     -15.958   3.755  36.859  1.00  0.00    -0.322 N 
HETATM   25  O1  UNL     1     -16.336   1.504  37.014  1.00  0.00    -0.264 OA
ATOM     26  H8  UNL     1     -16.959   3.927  36.766  1.00  0.00     0.169 HD
ENDBRANCH  14  15
ENDBRANCH   1  14
TORSDOF 2
ENDMDL
MODEL 3
REMARK VINA RESULT: -7.574167859      2.436      3.787
REMARK  2 active torsions:
REMARK  status: ('A' for Active; 'I' for Inactive)
REMARK    1  A    between atoms: C3_8  and  C4_9 
REMARK    2  A    between atoms: C4_9  and  C5_10 
ROOT
HETATM    1  C5  UNL     1     -15.397   6.690  35.231  1.00  0.00     0.088 A 
HETATM    2  N3  UNL     1     -16.179   6.179  34.260  1.00  0.00    -0.353 N 
ATOM      3  H3  UNL     1     -16.867   5.474  34.527  1.00  0.00     0.166 HD
HETATM    4  C6  UNL     1     -16.118   6.527  32.981  1.00  0.00     0.123 A 
HETATM    5  C7  UNL     1     -15.197   7.473  32.605  1.00  0.00     0.106 A 
HETATM    6  N4  UNL     1     -14.883   8.035  31.434  1.00  0.00    -0.279 N 
ATOM      7  H4  UNL     1     -15.315   7.835  30.532  1.00  0.00     0.184 HD
HETATM    8  N5  UNL     1     -13.903   8.900  31.663  1.00  0.00    -0.021 NA
HETATM    9  N6  UNL     1     -13.599   8.892  32.954  1.00  0.00    -0.267 N 
ATOM     10  H6  UNL     1     -12.879   9.466  33.392  1.00  0.00     0.186 HD
HETATM   11  C8  UNL     1     -14.392   8.002  33.604  1.00  0.00     0.149 A 
HETATM   12  N7  UNL     1     -14.500   7.608  34.890  1.00  0.00    -0.329 N 
ATOM     13  H7  UNL     1     -13.892   8.015  35.600  1.00  0.00     0.168 HD
ENDROOT
BRANCH   1  14
HETATM   14  C4  UNL     1     -15.623   6.171  36.589  1.00  0.00     0.135 C 
BRANCH  14  15
HETATM   15  C3  UNL     1     -15.120   4.788  36.776  1.00  0.00     0.035 A 
HETATM   16  C2  UNL     1     -13.769   4.529  36.925  1.00  0.00     0.115 A 
HETATM   17  N2  UNL     1     -13.291   3.285  37.095  1.00  0.00    -0.346 N 
HETATM   18  C1  UNL     1     -14.132   2.231  37.128  1.00  0.00     0.168 A 
ATOM     19  H2  UNL     1     -12.287   3.136  37.201  1.00  0.00     0.167 HD
HETATM   20  N1  UNL     1     -13.746   1.018  37.287  1.00  0.00    -0.381 N 
HETATM   21  C9  UNL     1     -15.499   2.457  36.981  1.00  0.00     0.289 A 
ATOM     22  H12 UNL     1     -12.745   0.853  37.394  1.00  0.00     0.157 HD
ATOM     23  H11 UNL     1     -14.382   0.222  37.312  1.00  0.00     0.157 HD
HETATM   24  N8  UNL     1     -15.940   3.719  36.812  1.00  0.00    -0.322 N 
HETATM   25  O1  UNL     1     -16.284   1.466  37.013  1.00  0.00    -0.264 OA
ATOM     26  H8  UNL     1     -16.943   3.872  36.706  1.00  0.00     0.169 HD
ENDBRANCH  14  15
ENDBRANCH   1  14
TORSDOF 2
ENDMDL
MODEL 4
REMARK VINA RESULT: -7.503872198      3.418      6.127
REMARK  2 active torsions:
REMARK  status: ('A' for Active; 'I' for Inactive)
REMARK    1  A    between atoms: C3_8  and  C4_9 
REMARK    2  A    between atoms: C4_9  and  C5_10 
ROOT
HETATM    1  C5  UNL     1     -15.355   5.204  36.968  1.00  0.00     0.088 A 
HETATM    2  N3  UNL     1     -16.480   4.497  37.197  1.00  0.00    -0.353 N 
ATOM      3  H3  UNL     1     -17.372   4.981  37.095  1.00  0.00     0.166 HD
HETATM    4  C6  UNL     1     -16.508   3.218  37.546  1.00  0.00     0.123 A 
HETATM    5  C7  UNL     1     -15.315   2.552  37.687  1.00  0.00     0.106 A 
HETATM    6  N4  UNL     1     -14.997   1.297  38.017  1.00  0.00    -0.279 N 
ATOM      7  H4  UNL     1     -15.650   0.547  38.243  1.00  0.00     0.184 HD
HETATM    8  N5  UNL     1     -13.673   1.209  37.997  1.00  0.00    -0.021 NA
HETATM    9  N6  UNL     1     -13.157   2.383  37.661  1.00  0.00    -0.267 N 
ATOM     10  H6  UNL     1     -12.160   2.584  37.574  1.00  0.00     0.186 HD
HETATM   11  C8  UNL     1     -14.156   3.278  37.450  1.00  0.00     0.149 A 
HETATM   12  N7  UNL     1     -14.190   4.580  37.099  1.00  0.00    -0.329 N 
ATOM     13  H7  UNL     1     -13.320   5.086  36.933  1.00  0.00     0.168 HD
ENDROOT
BRANCH   1  14
HETATM   14  C4  UNL     1     -15.538   6.613  36.591  1.00  0.00     0.135 C 
BRANCH  14  15
HETATM   15  C3  UNL     1     -16.245   6.785  35.297  1.00  0.00     0.035 A 
HETATM   16  C2  UNL     1     -17.368   7.587  35.194  1.00  0.00     0.115 A 
HETATM   17  N2  UNL     1     -18.025   7.757  34.034  1.00  0.00    -0.346 N 
HETATM   18  C1  UNL     1     -17.600   7.138  32.915  1.00  0.00     0.168 A 
ATOM     19  H2  UNL     1     -18.849   8.358  34.000  1.00  0.00     0.167 HD
HETATM   20  N1  UNL     1     -18.177   7.254  31.775  1.00  0.00    -0.381 N 
HETATM   21  C9  UNL     1     -16.472   6.322  32.984  1.00  0.00     0.289 A 
ATOM     22  H12 UNL     1     -19.002   7.851  31.724  1.00  0.00     0.157 HD
ATOM     23  H11 UNL     1     -17.855   6.786  30.928  1.00  0.00     0.157 HD
HETATM   24  N8  UNL     1     -15.841   6.177  34.165  1.00  0.00    -0.322 N 
HETATM   25  O1  UNL     1     -16.077   5.743  31.931  1.00  0.00    -0.264 OA
ATOM     26  H8  UNL     1     -15.016   5.577  34.204  1.00  0.00     0.169 HD
ENDBRANCH  14  15
ENDBRANCH   1  14
TORSDOF 2
ENDMDL
MODEL 5
REMARK VINA RESULT: -7.499324395      2.947      6.357
REMARK  2 active torsions:
REMARK  status: ('A' for Active; 'I' for Inactive)
REMARK    1  A    between atoms: C3_8  and  C4_9 
REMARK    2  A    between atoms: C4_9  and  C5_10 
ROOT
HETATM    1  C5  UNL     1     -15.278   5.006  36.905  1.00  0.00     0.088 A 
HETATM    2  N3  UNL     1     -14.109   4.343  37.016  1.00  0.00    -0.353 N 
ATOM      3  H3  UNL     1     -13.248   4.880  36.914  1.00  0.00     0.166 HD
HETATM    4  C6  UNL     1     -14.001   3.042  37.249  1.00  0.00     0.123 A 
HETATM    5  C7  UNL     1     -15.151   2.305  37.389  1.00  0.00     0.106 A 
HETATM    6  N4  UNL     1     -15.390   1.011  37.624  1.00  0.00    -0.279 N 
ATOM      7  H4  UNL     1     -14.690   0.279  37.751  1.00  0.00     0.184 HD
HETATM    8  N5  UNL     1     -16.707   0.855  37.661  1.00  0.00    -0.021 NA
HETATM    9  N6  UNL     1     -17.297   2.025  37.455  1.00  0.00    -0.267 N 
ATOM     10  H6  UNL     1     -18.305   2.180  37.434  1.00  0.00     0.186 HD
HETATM   11  C8  UNL     1     -16.355   2.986  37.276  1.00  0.00     0.149 A 
HETATM   12  N7  UNL     1     -16.402   4.313  37.038  1.00  0.00    -0.329 N 
ATOM     13  H7  UNL     1     -17.303   4.784  36.959  1.00  0.00     0.168 HD
ENDROOT
BRANCH   1  14
HETATM   14  C4  UNL     1     -15.183   6.451  36.645  1.00  0.00     0.135 C 
BRANCH  14  15
HETATM   15  C3  UNL     1     -15.210   6.788  35.201  1.00  0.00     0.035 A 
HETATM   16  C2  UNL     1     -14.490   7.858  34.700  1.00  0.00     0.115 A 
HETATM   17  N2  UNL     1     -14.500   8.183  33.395  1.00  0.00    -0.346 N 
HETATM   18  C1  UNL     1     -15.227   7.460  32.520  1.00  0.00     0.168 A 
ATOM     19  H2  UNL     1     -13.954   8.979  33.066  1.00  0.00     0.167 HD
HETATM   20  N1  UNL     1     -15.283   7.712  31.263  1.00  0.00    -0.381 N 
HETATM   21  C9  UNL     1     -15.964   6.376  32.992  1.00  0.00     0.289 A 
ATOM     22  H12 UNL     1     -14.743   8.505  30.918  1.00  0.00     0.157 HD
ATOM     23  H11 UNL     1     -15.833   7.165  30.601  1.00  0.00     0.157 HD
HETATM   24  N8  UNL     1     -15.929   6.082  34.306  1.00  0.00    -0.322 N 
HETATM   25  O1  UNL     1     -16.645   5.700  32.167  1.00  0.00    -0.264 OA
ATOM     26  H8  UNL     1     -16.473   5.286  34.640  1.00  0.00     0.169 HD
ENDBRANCH  14  15
ENDBRANCH   1  14
TORSDOF 2
ENDMDL
