MODEL 1
REMARK VINA RESULT: -7.867871819      0.000      0.000
REMARK  4 active torsions:
REMARK  status: ('A' for Active; 'I' for Inactive)
REMARK    1  A    between atoms: N1_1  and  C1_4 
REMARK    2  A    between atoms: C2_7  and  C3_8 
REMARK    3  A    between atoms: C5_14  and  C6_15 
REMARK       I    between atoms: C6_15  and  N4_17 
REMARK    4  A    between atoms: N4_17  and  C7_19 
ROOT
HETATM    1  C1  UNL     1     -13.694   3.309  37.755  1.00  0.00     0.117 A 
HETATM    2  N2  UNL     1     -13.228   4.226  36.892  1.00  0.00    -0.323 N 
ATOM      3  H2  UNL     1     -12.218   4.317  36.789  1.00  0.00     0.169 HD
HETATM    4  C2  UNL     1     -14.014   5.032  36.156  1.00  0.00     0.185 A 
HETATM    5  N3  UNL     1     -15.341   4.885  36.317  1.00  0.00    -0.346 N 
ATOM      6  H3  UNL     1     -15.967   5.480  35.774  1.00  0.00     0.167 HD
HETATM    7  C4  UNL     1     -15.876   3.992  37.158  1.00  0.00     0.111 A 
HETATM    8  C5  UNL     1     -15.059   3.173  37.906  1.00  0.00     0.091 A 
ENDROOT
BRANCH   8   9
HETATM    9  C6  UNL     1     -15.582   2.184  38.837  1.00  0.00     0.275 C 
HETATM   10  O3  UNL     1     -15.207   0.984  38.830  1.00  0.00    -0.267 OA
HETATM   11  N4  UNL     1     -16.555   2.552  39.804  1.00  0.00    -0.154 N 
ATOM     12  H4  UNL     1     -16.343   3.271  40.495  1.00  0.00     0.187 HD
BRANCH  11  13
HETATM   13  C7  UNL     1     -17.718   1.971  39.806  1.00  0.00     0.700 A 
HETATM   14  N5  UNL     1     -18.688   2.066  40.732  1.00  0.00    -0.185 N 
HETATM   15  C8  UNL     1     -19.709   1.310  40.339  1.00  0.00     0.215 A 
ATOM     16  H5  UNL     1     -18.648   2.621  41.586  1.00  0.00     0.185 HD
HETATM   17  N6  UNL     1     -19.398   0.726  39.161  1.00  0.00    -0.281 N 
HETATM   18  N7  UNL     1     -18.184   1.145  38.859  1.00  0.00    -0.131 N 
ATOM     19  H6  UNL     1     -19.983   0.092  38.616  1.00  0.00     0.188 HD
ATOM     20  H7  UNL     1     -17.669   0.876  38.021  1.00  0.00     0.205 HD
ENDBRANCH  11  13
ENDBRANCH   8   9
BRANCH   1  21
HETATM   21  N1  UNL     1     -12.905   2.540  38.457  1.00  0.00    -0.385 N 
ATOM     22  H12 UNL     1     -12.020   2.921  38.793  1.00  0.00     0.157 HD
ATOM     23  H11 UNL     1     -13.139   1.573  38.683  1.00  0.00     0.157 HD
ENDBRANCH   1  21
BRANCH   4  24
HETATM   24  C3  UNL     1     -13.452   6.010  35.236  1.00  0.00     0.245 C 
HETATM   25  O1  UNL     1     -12.255   6.352  35.381  1.00  0.00    -0.642 OA
HETATM   26  O2  UNL     1     -14.204   6.566  34.219  1.00  0.00    -0.642 OA
ENDBRANCH   4  24
TORSDOF 4
ENDMDL
MODEL 2
REMARK VINA RESULT: -7.300286445      3.305      7.633
REMARK  4 active torsions:
REMARK  status: ('A' for Active; 'I' for Inactive)
REMARK    1  A    between atoms: N1_1  and  C1_4 
REMARK    2  A    between atoms: C2_7  and  C3_8 
REMARK    3  A    between atoms: C5_14  and  C6_15 
REMARK       I    between atoms: C6_15  and  N4_17 
REMARK    4  A    between atoms: N4_17  and  C7_19 
ROOT
HETATM    1  C1  UNL     1     -15.274   5.232  36.351  1.00  0.00     0.117 A 
HETATM    2  N2  UNL     1     -15.009   4.262  37.240  1.00  0.00    -0.323 N 
ATOM      3  H2  UNL     1     -15.770   3.937  37.836  1.00  0.00     0.169 HD
HETATM    4  C2  UNL     1     -13.799   3.694  37.393  1.00  0.00     0.185 A 
HETATM    5  N3  UNL     1     -12.819   4.146  36.592  1.00  0.00    -0.346 N 
ATOM      6  H3  UNL     1     -11.889   3.737  36.681  1.00  0.00     0.167 HD
HETATM    7  C4  UNL     1     -13.010   5.109  35.683  1.00  0.00     0.111 A 
HETATM    8  C5  UNL     1     -14.254   5.683  35.537  1.00  0.00     0.091 A 
ENDROOT
BRANCH   8   9
HETATM    9  C6  UNL     1     -14.523   6.734  34.567  1.00  0.00     0.275 C 
HETATM   10  O3  UNL     1     -15.141   6.521  33.493  1.00  0.00    -0.267 OA
HETATM   11  N4  UNL     1     -14.084   8.064  34.808  1.00  0.00    -0.154 N 
ATOM     12  H4  UNL     1     -14.413   8.569  35.631  1.00  0.00     0.187 HD
BRANCH  11  13
HETATM   13  C7  UNL     1     -13.263   8.636  33.979  1.00  0.00     0.700 A 
HETATM   14  N5  UNL     1     -13.526   9.116  32.752  1.00  0.00    -0.185 N 
HETATM   15  C8  UNL     1     -12.401   9.616  32.254  1.00  0.00     0.215 A 
ATOM     16  H5  UNL     1     -14.432   9.100  32.285  1.00  0.00     0.185 HD
HETATM   17  N6  UNL     1     -11.409   9.458  33.158  1.00  0.00    -0.281 N 
HETATM   18  N7  UNL     1     -11.959   8.860  34.197  1.00  0.00    -0.131 N 
ATOM     19  H6  UNL     1     -10.434   9.743  33.058  1.00  0.00     0.188 HD
ATOM     20  H7  UNL     1     -11.461   8.603  35.049  1.00  0.00     0.205 HD
ENDBRANCH  11  13
ENDBRANCH   8   9
BRANCH   1  21
HETATM   21  N1  UNL     1     -16.460   5.767  36.225  1.00  0.00    -0.385 N 
ATOM     22  H12 UNL     1     -16.883   5.807  35.298  1.00  0.00     0.157 HD
ATOM     23  H11 UNL     1     -16.979   6.144  37.018  1.00  0.00     0.157 HD
ENDBRANCH   1  21
BRANCH   4  24
HETATM   24  C3  UNL     1     -13.571   2.645  38.376  1.00  0.00     0.245 C 
HETATM   25  O1  UNL     1     -12.620   2.775  39.182  1.00  0.00    -0.642 OA
HETATM   26  O2  UNL     1     -14.371   1.520  38.437  1.00  0.00    -0.642 OA
ENDBRANCH   4  24
TORSDOF 4
ENDMDL
MODEL 3
REMARK VINA RESULT: -7.154445024      1.131      1.723
REMARK  4 active torsions:
REMARK  status: ('A' for Active; 'I' for Inactive)
REMARK    1  A    between atoms: N1_1  and  C1_4 
REMARK    2  A    between atoms: C2_7  and  C3_8 
REMARK    3  A    between atoms: C5_14  and  C6_15 
REMARK       I    between atoms: C6_15  and  N4_17 
REMARK    4  A    between atoms: N4_17  and  C7_19 
ROOT
HETATM    1  C1  UNL     1     -15.011   3.372  37.027  1.00  0.00     0.117 A 
HETATM    2  N2  UNL     1     -14.265   4.259  36.349  1.00  0.00    -0.323 N 
ATOM      3  H2  UNL     1     -14.562   4.513  35.406  1.00  0.00     0.169 HD
HETATM    4  C2  UNL     1     -13.152   4.833  36.837  1.00  0.00     0.185 A 
HETATM    5  N3  UNL     1     -12.790   4.476  38.083  1.00  0.00    -0.346 N 
ATOM      6  H3  UNL     1     -11.951   4.892  38.485  1.00  0.00     0.167 HD
HETATM    7  C4  UNL     1     -13.485   3.599  38.817  1.00  0.00     0.111 A 
HETATM    8  C5  UNL     1     -14.623   3.018  38.304  1.00  0.00     0.091 A 
ENDROOT
BRANCH   8   9
HETATM    9  C6  UNL     1     -15.420   2.058  39.054  1.00  0.00     0.275 C 
HETATM   10  O3  UNL     1     -15.300   0.817  38.904  1.00  0.00    -0.267 OA
HETATM   11  N4  UNL     1     -16.381   2.507  39.999  1.00  0.00    -0.154 N 
ATOM     12  H4  UNL     1     -16.088   3.073  40.796  1.00  0.00     0.187 HD
BRANCH  11  13
HETATM   13  C7  UNL     1     -17.634   2.195  39.848  1.00  0.00     0.700 A 
HETATM   14  N5  UNL     1     -18.538   1.919  40.803  1.00  0.00    -0.185 N 
HETATM   15  C8  UNL     1     -19.697   1.652  40.209  1.00  0.00     0.215 A 
ATOM     16  H5  UNL     1     -18.366   1.916  41.808  1.00  0.00     0.185 HD
HETATM   17  N6  UNL     1     -19.541   1.754  38.871  1.00  0.00    -0.281 N 
HETATM   18  N7  UNL     1     -18.278   2.084  38.678  1.00  0.00    -0.131 N 
ATOM     19  H6  UNL     1     -20.253   1.605  38.155  1.00  0.00     0.188 HD
ATOM     20  H7  UNL     1     -17.851   2.235  37.765  1.00  0.00     0.205 HD
ENDBRANCH  11  13
ENDBRANCH   8   9
BRANCH   1  21
HETATM   21  N1  UNL     1     -16.089   2.830  36.525  1.00  0.00    -0.385 N 
ATOM     22  H12 UNL     1     -16.250   2.899  35.520  1.00  0.00     0.157 HD
ATOM     23  H11 UNL     1     -16.776   2.341  37.099  1.00  0.00     0.157 HD
ENDBRANCH   1  21
BRANCH   4  24
HETATM   24  C3  UNL     1     -12.382   5.789  36.055  1.00  0.00     0.245 C 
HETATM   25  O1  UNL     1     -12.629   7.010  36.187  1.00  0.00    -0.642 OA
HETATM   26  O2  UNL     1     -11.396   5.381  35.176  1.00  0.00    -0.642 OA
ENDBRANCH   4  24
TORSDOF 4
ENDMDL
MODEL 4
REMARK VINA RESULT: -7.070500102      2.377      6.694
REMARK  4 active torsions:
REMARK  status: ('A' for Active; 'I' for Inactive)
REMARK    1  A    between atoms: N1_1  and  C1_4 
REMARK    2  A    between atoms: C2_7  and  C3_8 
REMARK    3  A    between atoms: C5_14  and  C6_15 
REMARK       I    between atoms: C6_15  and  N4_17 
REMARK    4  A    between atoms: N4_17  and  C7_19 
ROOT
HETATM    1  C1  UNL     1     -13.961   3.529  38.546  1.00  0.00     0.117 A 
HETATM    2  N2  UNL     1     -14.940   2.776  39.071  1.00  0.00    -0.323 N 
ATOM      3  H2  UNL     1     -14.680   2.049  39.738  1.00  0.00     0.169 HD
HETATM    4  C2  UNL     1     -16.243   2.922  38.771  1.00  0.00     0.185 A 
HETATM    5  N3  UNL     1     -16.550   3.889  37.889  1.00  0.00    -0.346 N 
ATOM      6  H3  UNL     1     -17.528   4.028  37.638  1.00  0.00     0.167 HD
HETATM    7  C4  UNL     1     -15.627   4.678  37.326  1.00  0.00     0.111 A 
HETATM    8  C5  UNL     1     -14.296   4.517  37.642  1.00  0.00     0.091 A 
ENDROOT
BRANCH   8   9
HETATM    9  C6  UNL     1     -13.247   5.344  37.063  1.00  0.00     0.275 C 
HETATM   10  O3  UNL     1     -12.435   5.997  37.766  1.00  0.00    -0.267 OA
HETATM   11  N4  UNL     1     -13.106   5.441  35.653  1.00  0.00    -0.154 N 
ATOM     12  H4  UNL     1     -12.924   4.604  35.098  1.00  0.00     0.187 HD
BRANCH  11  13
HETATM   13  C7  UNL     1     -13.211   6.598  35.069  1.00  0.00     0.700 A 
HETATM   14  N5  UNL     1     -14.252   7.079  34.368  1.00  0.00    -0.185 N 
HETATM   15  C8  UNL     1     -13.937   8.300  33.947  1.00  0.00     0.215 A 
ATOM     16  H5  UNL     1     -15.130   6.592  34.189  1.00  0.00     0.185 HD
HETATM   17  N6  UNL     1     -12.693   8.607  34.376  1.00  0.00    -0.281 N 
HETATM   18  N7  UNL     1     -12.275   7.556  35.054  1.00  0.00    -0.131 N 
ATOM     19  H6  UNL     1     -12.182   9.475  34.209  1.00  0.00     0.188 HD
ATOM     20  H7  UNL     1     -11.364   7.483  35.506  1.00  0.00     0.205 HD
ENDBRANCH  11  13
ENDBRANCH   8   9
BRANCH   1  21
HETATM   21  N1  UNL     1     -12.702   3.363  38.857  1.00  0.00    -0.385 N 
ATOM     22  H12 UNL     1     -12.082   4.174  38.841  1.00  0.00     0.157 HD
ATOM     23  H11 UNL     1     -12.316   2.455  39.116  1.00  0.00     0.157 HD
ENDBRANCH   1  21
BRANCH   4  24
HETATM   24  C3  UNL     1     -17.262   2.074  39.371  1.00  0.00     0.245 C 
HETATM   25  O1  UNL     1     -17.848   1.235  38.648  1.00  0.00    -0.642 OA
HETATM   26  O2  UNL     1     -17.595   2.175  40.709  1.00  0.00    -0.642 OA
ENDBRANCH   4  24
TORSDOF 4
ENDMDL
MODEL 5
REMARK VINA RESULT: -7.016762866      0.555      1.531
REMARK  4 active torsions:
REMARK  status: ('A' for Active; 'I' for Inactive)
REMARK    1  A    between atoms: N1_1  and  C1_4 
REMARK    2  A    between atoms: C2_7  and  C3_8 
REMARK    3  A    between atoms: C5_14  and  C6_15 
REMARK       I    between atoms: C6_15  and  N4_17 
REMARK    4  A    between atoms: N4_17  and  C7_19 
ROOT
HETATM    1  C1  UNL     1     -15.817   3.892  37.167  1.00  0.00     0.117 A 
HETATM    2  N2  UNL     1     -15.281   4.809  36.345  1.00  0.00    -0.323 N 
ATOM      3  H2  UNL     1     -15.915   5.379  35.785  1.00  0.00     0.169 HD
HETATM    4  C2  UNL     1     -13.959   5.020  36.216  1.00  0.00     0.185 A 
HETATM    5  N3  UNL     1     -13.153   4.251  36.968  1.00  0.00    -0.346 N 
ATOM      6  H3  UNL     1     -12.145   4.384  36.895  1.00  0.00     0.167 HD
HETATM    7  C4  UNL     1     -13.616   3.319  37.809  1.00  0.00     0.111 A 
HETATM    8  C5  UNL     1     -14.972   3.113  37.931  1.00  0.00     0.091 A 
ENDROOT
BRANCH   8   9
HETATM    9  C6  UNL     1     -15.536   2.114  38.828  1.00  0.00     0.275 C 
HETATM   10  O3  UNL     1     -15.223   0.899  38.770  1.00  0.00    -0.267 OA
HETATM   11  N4  UNL     1     -16.481   2.492  39.819  1.00  0.00    -0.154 N 
ATOM     12  H4  UNL     1     -16.226   3.172  40.536  1.00  0.00     0.187 HD
BRANCH  11  13
HETATM   13  C7  UNL     1     -17.672   1.971  39.812  1.00  0.00     0.700 A 
HETATM   14  N5  UNL     1     -18.650   2.131  40.719  1.00  0.00    -0.185 N 
HETATM   15  C8  UNL     1     -19.701   1.420  40.323  1.00  0.00     0.215 A 
ATOM     16  H5  UNL     1     -18.596   2.698  41.565  1.00  0.00     0.185 HD
HETATM   17  N6  UNL     1     -19.402   0.801  39.160  1.00  0.00    -0.281 N 
HETATM   18  N7  UNL     1     -18.163   1.153  38.872  1.00  0.00    -0.131 N 
ATOM     19  H6  UNL     1     -20.009   0.187  38.616  1.00  0.00     0.188 HD
ATOM     20  H7  UNL     1     -17.650   0.843  38.047  1.00  0.00     0.205 HD
ENDBRANCH  11  13
ENDBRANCH   8   9
BRANCH   1  21
HETATM   21  N1  UNL     1     -17.107   3.710  37.271  1.00  0.00    -0.385 N 
ATOM     22  H12 UNL     1     -17.473   2.759  37.225  1.00  0.00     0.157 HD
ATOM     23  H11 UNL     1     -17.762   4.482  37.398  1.00  0.00     0.157 HD
ENDBRANCH   1  21
BRANCH   4  24
HETATM   24  C3  UNL     1     -13.435   6.029  35.306  1.00  0.00     0.245 C 
HETATM   25  O1  UNL     1     -12.249   6.406  35.447  1.00  0.00    -0.642 OA
HETATM   26  O2  UNL     1     -14.212   6.575  34.303  1.00  0.00    -0.642 OA
ENDBRANCH   4  24
TORSDOF 4
ENDMDL
