MODEL 1
REMARK VINA RESULT: -7.813692553      0.000      0.000
REMARK  3 active torsions:
REMARK  status: ('A' for Active; 'I' for Inactive)
REMARK       I    between atoms: C1_4  and  N3_6 
REMARK       I    between atoms: N3_6  and  C2_8 
REMARK    1  A    between atoms: C2_8  and  C3_10 
REMARK    2  A    between atoms: C7_14  and  N4_15 
REMARK    3  A    between atoms: C10_18  and  N5_19 
ROOT
HETATM    1  C3  UNL     1     -15.157   4.360  37.230  1.00  0.00     0.102 A 
HETATM    2  C4  UNL     1     -13.783   4.455  37.213  1.00  0.00     0.035 A 
HETATM    3  C5  UNL     1     -13.121   5.191  36.246  1.00  0.00     0.006 A 
HETATM    4  C6  UNL     1     -13.870   5.837  35.286  1.00  0.00     0.049 A 
HETATM    5  C7  UNL     1     -15.246   5.743  35.302  1.00  0.00     0.112 A 
HETATM    6  N7  UNL     1     -15.842   5.024  36.251  1.00  0.00    -0.338 N 
ATOM      7  H7  UNL     1     -16.860   4.965  36.247  1.00  0.00     0.167 HD
ENDROOT
BRANCH   5   8
HETATM    8  N4  UNL     1     -15.987   6.434  34.281  1.00  0.00    -0.304 N 
HETATM    9  C8  UNL     1     -15.814   6.156  32.968  1.00  0.00     0.103 A 
HETATM   10  C9  UNL     1     -16.515   6.807  31.980  1.00  0.00     0.066 A 
HETATM   11  C10 UNL     1     -17.426   7.777  32.342  1.00  0.00     0.100 A 
HETATM   12  N6  UNL     1     -17.583   8.035  33.632  1.00  0.00    -0.339 N 
HETATM   13  C11 UNL     1     -16.889   7.388  34.577  1.00  0.00     0.191 A 
ATOM     14  H6  UNL     1     -18.254   8.749  33.914  1.00  0.00     0.168 HD
BRANCH  11  15
HETATM   15  N5  UNL     1     -18.091   8.396  31.426  1.00  0.00    -0.385 N 
ATOM     16  H52 UNL     1     -18.206   8.020  30.485  1.00  0.00     0.157 HD
ATOM     17  H51 UNL     1     -18.520   9.295  31.641  1.00  0.00     0.157 HD
ENDBRANCH  11  15
ENDBRANCH   5   8
BRANCH   1  18
HETATM   18  C2  UNL     1     -15.894   3.590  38.237  1.00  0.00     0.274 C 
HETATM   19  N3  UNL     1     -17.196   3.124  38.038  1.00  0.00    -0.296 N 
HETATM   20  C1  UNL     1     -17.865   2.382  39.050  1.00  0.00     0.188 C 
ATOM     21  H3  UNL     1     -17.672   3.319  37.157  1.00  0.00     0.171 HD
HETATM   22  N1  UNL     1     -19.065   1.933  38.907  1.00  0.00    -0.373 N 
HETATM   23  N2  UNL     1     -17.208   2.117  40.263  1.00  0.00    -0.064 NA
ATOM     24  H12 UNL     1     -19.545   1.401  39.634  1.00  0.00     0.158 HD
ATOM     25  H11 UNL     1     -19.542   2.126  38.027  1.00  0.00     0.158 HD
HETATM   26  O1  UNL     1     -15.307   3.355  39.318  1.00  0.00    -0.266 OA
ENDBRANCH   1  18
TORSDOF 3
ENDMDL
MODEL 2
REMARK VINA RESULT: -7.743793621      2.983      6.926
REMARK  3 active torsions:
REMARK  status: ('A' for Active; 'I' for Inactive)
REMARK       I    between atoms: C1_4  and  N3_6 
REMARK       I    between atoms: N3_6  and  C2_8 
REMARK    1  A    between atoms: C2_8  and  C3_10 
REMARK    2  A    between atoms: C7_14  and  N4_15 
REMARK    3  A    between atoms: C10_18  and  N5_19 
ROOT
HETATM    1  C3  UNL     1     -13.766   5.467  37.226  1.00  0.00     0.102 A 
HETATM    2  C4  UNL     1     -12.676   5.277  38.048  1.00  0.00     0.035 A 
HETATM    3  C5  UNL     1     -12.698   4.349  39.074  1.00  0.00     0.006 A 
HETATM    4  C6  UNL     1     -13.843   3.605  39.262  1.00  0.00     0.049 A 
HETATM    5  C7  UNL     1     -14.935   3.794  38.440  1.00  0.00     0.112 A 
HETATM    6  N7  UNL     1     -14.870   4.699  37.465  1.00  0.00    -0.338 N 
ATOM      7  H7  UNL     1     -15.687   4.826  36.867  1.00  0.00     0.167 HD
ENDROOT
BRANCH   5   8
HETATM    8  N4  UNL     1     -16.109   2.996  38.672  1.00  0.00    -0.304 N 
HETATM    9  C8  UNL     1     -16.898   3.195  39.754  1.00  0.00     0.103 A 
HETATM   10  C9  UNL     1     -18.024   2.442  39.990  1.00  0.00     0.066 A 
HETATM   11  C10 UNL     1     -18.358   1.449  39.093  1.00  0.00     0.100 A 
HETATM   12  N6  UNL     1     -17.574   1.269  38.041  1.00  0.00    -0.339 N 
HETATM   13  C11 UNL     1     -16.482   2.015  37.831  1.00  0.00     0.191 A 
ATOM     14  H6  UNL     1     -17.810   0.539  37.369  1.00  0.00     0.168 HD
BRANCH  11  15
HETATM   15  N5  UNL     1     -19.411   0.734  39.303  1.00  0.00    -0.385 N 
ATOM     16  H52 UNL     1     -20.188   1.059  39.879  1.00  0.00     0.157 HD
ATOM     17  H51 UNL     1     -19.479  -0.192  38.881  1.00  0.00     0.157 HD
ENDBRANCH  11  15
ENDBRANCH   5   8
BRANCH   1  18
HETATM   18  C2  UNL     1     -13.781   6.440  36.130  1.00  0.00     0.274 C 
HETATM   19  N3  UNL     1     -12.646   7.149  35.724  1.00  0.00    -0.296 N 
HETATM   20  C1  UNL     1     -12.718   8.082  34.654  1.00  0.00     0.188 C 
ATOM     21  H3  UNL     1     -11.758   6.994  36.201  1.00  0.00     0.171 HD
HETATM   22  N1  UNL     1     -11.696   8.756  34.246  1.00  0.00    -0.373 N 
HETATM   23  N2  UNL     1     -13.942   8.294  34.000  1.00  0.00    -0.064 NA
ATOM     24  H12 UNL     1     -11.747   9.426  33.479  1.00  0.00     0.158 HD
ATOM     25  H11 UNL     1     -10.807   8.602  34.721  1.00  0.00     0.158 HD
HETATM   26  O1  UNL     1     -14.873   6.629  35.548  1.00  0.00    -0.266 OA
ENDBRANCH   1  18
TORSDOF 3
ENDMDL
MODEL 3
REMARK VINA RESULT: -7.732338978      0.588      1.065
REMARK  3 active torsions:
REMARK  status: ('A' for Active; 'I' for Inactive)
REMARK       I    between atoms: C1_4  and  N3_6 
REMARK       I    between atoms: N3_6  and  C2_8 
REMARK    1  A    between atoms: C2_8  and  C3_10 
REMARK    2  A    between atoms: C7_14  and  N4_15 
REMARK    3  A    between atoms: C10_18  and  N5_19 
ROOT
HETATM    1  C3  UNL     1     -15.218   4.349  37.223  1.00  0.00     0.102 A 
HETATM    2  C4  UNL     1     -13.843   4.415  37.168  1.00  0.00     0.035 A 
HETATM    3  C5  UNL     1     -13.192   5.154  36.196  1.00  0.00     0.006 A 
HETATM    4  C6  UNL     1     -13.954   5.834  35.270  1.00  0.00     0.049 A 
HETATM    5  C7  UNL     1     -15.331   5.770  35.324  1.00  0.00     0.112 A 
HETATM    6  N7  UNL     1     -15.915   5.046  36.277  1.00  0.00    -0.338 N 
ATOM      7  H7  UNL     1     -16.934   5.010  36.301  1.00  0.00     0.167 HD
ENDROOT
BRANCH   5   8
HETATM    8  N4  UNL     1     -16.085   6.496  34.338  1.00  0.00    -0.304 N 
HETATM    9  C8  UNL     1     -16.951   7.476  34.688  1.00  0.00     0.103 A 
HETATM   10  C9  UNL     1     -17.680   8.180  33.757  1.00  0.00     0.066 A 
HETATM   11  C10 UNL     1     -17.521   7.874  32.422  1.00  0.00     0.100 A 
HETATM   12  N6  UNL     1     -16.669   6.913  32.099  1.00  0.00    -0.339 N 
HETATM   13  C11 UNL     1     -15.970   6.241  33.022  1.00  0.00     0.191 A 
ATOM     14  H6  UNL     1     -16.542   6.678  31.115  1.00  0.00     0.168 HD
BRANCH  11  15
HETATM   15  N5  UNL     1     -18.198   8.526  31.538  1.00  0.00    -0.385 N 
ATOM     16  H52 UNL     1     -18.978   9.135  31.785  1.00  0.00     0.157 HD
ATOM     17  H51 UNL     1     -17.952   8.436  30.553  1.00  0.00     0.157 HD
ENDBRANCH  11  15
ENDBRANCH   5   8
BRANCH   1  18
HETATM   18  C2  UNL     1     -15.942   3.577  38.237  1.00  0.00     0.274 C 
HETATM   19  N3  UNL     1     -17.242   3.100  38.047  1.00  0.00    -0.296 N 
HETATM   20  C1  UNL     1     -17.899   2.356  39.066  1.00  0.00     0.188 C 
ATOM     21  H3  UNL     1     -17.725   3.287  37.168  1.00  0.00     0.171 HD
HETATM   22  N1  UNL     1     -19.096   1.896  38.931  1.00  0.00    -0.373 N 
HETATM   23  N2  UNL     1     -17.232   2.100  40.275  1.00  0.00    -0.064 NA
ATOM     24  H12 UNL     1     -19.567   1.363  39.663  1.00  0.00     0.158 HD
ATOM     25  H11 UNL     1     -19.580   2.082  38.053  1.00  0.00     0.158 HD
HETATM   26  O1  UNL     1     -15.347   3.350  39.316  1.00  0.00    -0.266 OA
ENDBRANCH   1  18
TORSDOF 3
ENDMDL
MODEL 4
REMARK VINA RESULT: -7.684017602      1.456      1.594
REMARK  3 active torsions:
REMARK  status: ('A' for Active; 'I' for Inactive)
REMARK       I    between atoms: C1_4  and  N3_6 
REMARK       I    between atoms: N3_6  and  C2_8 
REMARK    1  A    between atoms: C2_8  and  C3_10 
REMARK    2  A    between atoms: C7_14  and  N4_15 
REMARK    3  A    between atoms: C10_18  and  N5_19 
ROOT
HETATM    1  C3  UNL     1     -14.419   4.891  37.531  1.00  0.00     0.102 A 
HETATM    2  C4  UNL     1     -13.221   5.339  38.043  1.00  0.00     0.035 A 
HETATM    3  C5  UNL     1     -12.440   6.255  37.360  1.00  0.00     0.006 A 
HETATM    4  C6  UNL     1     -12.888   6.720  36.142  1.00  0.00     0.049 A 
HETATM    5  C7  UNL     1     -14.088   6.273  35.629  1.00  0.00     0.112 A 
HETATM    6  N7  UNL     1     -14.807   5.390  36.320  1.00  0.00    -0.338 N 
ATOM      7  H7  UNL     1     -15.691   5.070  35.925  1.00  0.00     0.167 HD
ENDROOT
BRANCH   5   8
HETATM    8  N4  UNL     1     -14.516   6.784  34.355  1.00  0.00    -0.304 N 
HETATM    9  C8  UNL     1     -15.386   6.104  33.573  1.00  0.00     0.103 A 
HETATM   10  C9  UNL     1     -15.806   6.579  32.353  1.00  0.00     0.066 A 
HETATM   11  C10 UNL     1     -15.321   7.792  31.912  1.00  0.00     0.100 A 
HETATM   12  N6  UNL     1     -14.471   8.445  32.690  1.00  0.00    -0.339 N 
HETATM   13  C11 UNL     1     -14.076   7.962  33.875  1.00  0.00     0.191 A 
ATOM     14  H6  UNL     1     -14.105   9.344  32.376  1.00  0.00     0.168 HD
BRANCH  11  15
HETATM   15  N5  UNL     1     -15.706   8.251  30.769  1.00  0.00    -0.385 N 
ATOM     16  H52 UNL     1     -15.172   8.947  30.250  1.00  0.00     0.157 HD
ATOM     17  H51 UNL     1     -16.576   7.909  30.360  1.00  0.00     0.157 HD
ENDBRANCH  11  15
ENDBRANCH   5   8
BRANCH   1  18
HETATM   18  C2  UNL     1     -15.273   3.922  38.225  1.00  0.00     0.274 C 
HETATM   19  N3  UNL     1     -16.570   3.614  37.807  1.00  0.00    -0.296 N 
HETATM   20  C1  UNL     1     -17.356   2.665  38.518  1.00  0.00     0.188 C 
ATOM     21  H3  UNL     1     -16.958   4.075  36.984  1.00  0.00     0.171 HD
HETATM   22  N1  UNL     1     -18.556   2.351  38.167  1.00  0.00    -0.373 N 
HETATM   23  N2  UNL     1     -16.820   2.033  39.652  1.00  0.00    -0.064 NA
ATOM     24  H12 UNL     1     -19.120   1.670  38.678  1.00  0.00     0.158 HD
ATOM     25  H11 UNL     1     -18.945   2.810  37.344  1.00  0.00     0.158 HD
HETATM   26  O1  UNL     1     -14.794   3.359  39.236  1.00  0.00    -0.266 OA
ENDBRANCH   1  18
TORSDOF 3
ENDMDL
MODEL 5
REMARK VINA RESULT: -7.679474418      2.120      2.822
REMARK  3 active torsions:
REMARK  status: ('A' for Active; 'I' for Inactive)
REMARK       I    between atoms: C1_4  and  N3_6 
REMARK       I    between atoms: N3_6  and  C2_8 
REMARK    1  A    between atoms: C2_8  and  C3_10 
REMARK    2  A    between atoms: C7_14  and  N4_15 
REMARK    3  A    between atoms: C10_18  and  N5_19 
ROOT
HETATM    1  C3  UNL     1     -15.972   2.751  38.546  1.00  0.00     0.102 A 
HETATM    2  C4  UNL     1     -14.839   1.968  38.541  1.00  0.00     0.035 A 
HETATM    3  C5  UNL     1     -13.708   2.336  37.833  1.00  0.00     0.006 A 
HETATM    4  C6  UNL     1     -13.735   3.517  37.122  1.00  0.00     0.049 A 
HETATM    5  C7  UNL     1     -14.868   4.302  37.126  1.00  0.00     0.112 A 
HETATM    6  N7  UNL     1     -15.934   3.909  37.821  1.00  0.00    -0.338 N 
ATOM      7  H7  UNL     1     -16.764   4.502  37.813  1.00  0.00     0.167 HD
ENDROOT
BRANCH   5   8
HETATM    8  N4  UNL     1     -14.851   5.526  36.371  1.00  0.00    -0.304 N 
HETATM    9  C8  UNL     1     -13.724   5.972  35.769  1.00  0.00     0.103 A 
HETATM   10  C9  UNL     1     -13.691   7.140  35.043  1.00  0.00     0.066 A 
HETATM   11  C10 UNL     1     -14.848   7.880  34.926  1.00  0.00     0.100 A 
HETATM   12  N6  UNL     1     -15.942   7.428  35.521  1.00  0.00    -0.339 N 
HETATM   13  C11 UNL     1     -15.951   6.288  36.223  1.00  0.00     0.191 A 
ATOM     14  H6  UNL     1     -16.805   7.966  35.441  1.00  0.00     0.168 HD
BRANCH  11  15
HETATM   15  N5  UNL     1     -14.832   8.978  34.248  1.00  0.00    -0.385 N 
ATOM     16  H52 UNL     1     -13.972   9.493  34.059  1.00  0.00     0.157 HD
ATOM     17  H51 UNL     1     -15.707   9.353  33.883  1.00  0.00     0.157 HD
ENDBRANCH  11  15
ENDBRANCH   5   8
BRANCH   1  18
HETATM   18  C2  UNL     1     -17.188   2.395  39.283  1.00  0.00     0.274 C 
HETATM   19  N3  UNL     1     -18.046   1.365  38.886  1.00  0.00    -0.296 N 
HETATM   20  C1  UNL     1     -19.213   1.062  39.640  1.00  0.00     0.188 C 
ATOM     21  H3  UNL     1     -17.832   0.826  38.048  1.00  0.00     0.171 HD
HETATM   22  N1  UNL     1     -20.031   0.121  39.310  1.00  0.00    -0.373 N 
HETATM   23  N2  UNL     1     -19.506   1.808  40.794  1.00  0.00    -0.064 NA
ATOM     24  H12 UNL     1     -20.869  -0.096  39.850  1.00  0.00     0.158 HD
ATOM     25  H11 UNL     1     -19.818  -0.420  38.472  1.00  0.00     0.158 HD
HETATM   26  O1  UNL     1     -17.448   3.061  40.312  1.00  0.00    -0.266 OA
ENDBRANCH   1  18
TORSDOF 3
ENDMDL
