MODEL 1
REMARK VINA RESULT: -7.794111514      0.000      0.000
REMARK  7 active torsions:
REMARK  status: ('A' for Active; 'I' for Inactive)
REMARK       I    between atoms: C2_2  and  N1_4 
REMARK    1  A    between atoms: N1_4  and  C3_6 
REMARK    2  A    between atoms: C3_6  and  C5_8 
REMARK       I    between atoms: C5_8  and  N2_10 
REMARK    3  A    between atoms: N2_10  and  C6_12 
REMARK    4  A    between atoms: C6_12  and  C7_13 
REMARK    5  A    between atoms: C6_12  and  C13_26 
REMARK    6  A    between atoms: C7_13  and  N3_14 
REMARK       I    between atoms: N3_14  and  C8_16 
REMARK    7  A    between atoms: C8_16  and  C9_18 
ROOT
HETATM    1  C6  UNL     1     -14.780   5.815  37.225  1.00  0.00     0.116 C 
ENDROOT
BRANCH   1   2
HETATM    2  N2  UNL     1     -15.116   4.380  37.294  1.00  0.00    -0.320 N 
HETATM    3  C5  UNL     1     -14.993   3.595  38.456  1.00  0.00     0.244 C 
HETATM    4  O2  UNL     1     -14.575   4.072  39.554  1.00  0.00    -0.271 OA
ATOM      5  H2  UNL     1     -15.458   3.928  36.446  1.00  0.00     0.169 HD
BRANCH   3   6
HETATM    6  C3  UNL     1     -15.357   2.155  38.424  1.00  0.00     0.172 C 
HETATM    7  C4  UNL     1     -15.535   1.683  36.996  1.00  0.00     0.042 C 
BRANCH   6   8
HETATM    8  N1  UNL     1     -16.519   1.888  39.246  1.00  0.00    -0.348 N 
HETATM    9  C2  UNL     1     -17.793   2.420  38.983  1.00  0.00     0.214 C 
HETATM   10  C1  UNL     1     -18.930   2.099  39.871  1.00  0.00     0.117 C 
HETATM   11  O1  UNL     1     -17.951   3.166  37.992  1.00  0.00    -0.274 OA
ATOM     12  H1  UNL     1     -16.407   1.282  40.059  1.00  0.00     0.163 HD
ENDBRANCH   6   8
ENDBRANCH   3   6
ENDBRANCH   1   2
BRANCH   1  13
HETATM   13  C7  UNL     1     -15.843   6.567  36.549  1.00  0.00     0.126 C 
BRANCH  13  14
HETATM   14  N3  UNL     1     -16.059   6.315  35.184  1.00  0.00    -0.329 N 
HETATM   15  C8  UNL     1     -15.739   7.083  34.067  1.00  0.00     0.272 C 
HETATM   16  O3  UNL     1     -15.142   8.174  34.135  1.00  0.00    -0.266 OA
ATOM     17  H3  UNL     1     -16.523   5.430  34.978  1.00  0.00     0.168 HD
BRANCH  15  18
HETATM   18  C9  UNL     1     -16.093   6.646  32.696  1.00  0.00     0.103 A 
HETATM   19  C10 UNL     1     -15.245   6.738  31.615  1.00  0.00     0.062 A 
HETATM   20  C11 UNL     1     -15.904   6.239  30.511  1.00  0.00     0.074 A 
HETATM   21 CL1  UNL     1     -15.268   6.122  28.861  1.00  0.00    -0.081 Cl
HETATM   22  C12 UNL     1     -17.151   5.851  30.945  1.00  0.00     0.126 A 
HETATM   23 CL2  UNL     1     -18.374   5.145  29.894  1.00  0.00    -0.063 Cl
HETATM   24  N4  UNL     1     -17.236   6.105  32.252  1.00  0.00    -0.341 N 
ATOM     25  H4  UNL     1     -18.054   5.916  32.831  1.00  0.00     0.167 HD
ENDBRANCH  15  18
ENDBRANCH  13  14
ENDBRANCH   1  13
BRANCH   1  26
HETATM   26  C13 UNL     1     -13.398   6.043  36.927  1.00  0.00     0.282 C 
HETATM   27  N5  UNL     1     -12.801   6.004  35.626  1.00  0.00    -0.056 NA
HETATM   28  O4  UNL     1     -12.597   6.318  37.888  1.00  0.00    -0.269 OA
ENDBRANCH   1  26
TORSDOF 7
ENDMDL
MODEL 2
REMARK VINA RESULT: -7.654127214      3.554      4.380
REMARK  7 active torsions:
REMARK  status: ('A' for Active; 'I' for Inactive)
REMARK       I    between atoms: C2_2  and  N1_4 
REMARK    1  A    between atoms: N1_4  and  C3_6 
REMARK    2  A    between atoms: C3_6  and  C5_8 
REMARK       I    between atoms: C5_8  and  N2_10 
REMARK    3  A    between atoms: N2_10  and  C6_12 
REMARK    4  A    between atoms: C6_12  and  C7_13 
REMARK    5  A    between atoms: C6_12  and  C13_26 
REMARK    6  A    between atoms: C7_13  and  N3_14 
REMARK       I    between atoms: N3_14  and  C8_16 
REMARK    7  A    between atoms: C8_16  and  C9_18 
ROOT
HETATM    1  C6  UNL     1     -14.971   6.764  36.259  1.00  0.00     0.116 C 
ENDROOT
BRANCH   1   2
HETATM    2  N2  UNL     1     -14.976   6.002  37.523  1.00  0.00    -0.320 N 
HETATM    3  C5  UNL     1     -14.192   4.857  37.759  1.00  0.00     0.244 C 
HETATM    4  O2  UNL     1     -13.405   4.384  36.885  1.00  0.00    -0.271 OA
ATOM      5  H2  UNL     1     -15.587   6.325  38.273  1.00  0.00     0.169 HD
BRANCH   3   6
HETATM    6  C3  UNL     1     -14.269   4.159  39.068  1.00  0.00     0.172 C 
HETATM    7  C4  UNL     1     -12.883   3.806  39.565  1.00  0.00     0.042 C 
BRANCH   6   8
HETATM    8  N1  UNL     1     -15.143   3.006  38.997  1.00  0.00    -0.348 N 
HETATM    9  C2  UNL     1     -16.545   3.098  38.949  1.00  0.00     0.214 C 
HETATM   10  C1  UNL     1     -17.369   1.873  38.878  1.00  0.00     0.117 C 
HETATM   11  O1  UNL     1     -17.084   4.226  38.968  1.00  0.00    -0.274 OA
ATOM     12  H1  UNL     1     -14.720   2.078  38.983  1.00  0.00     0.163 HD
ENDBRANCH   6   8
ENDBRANCH   3   6
ENDBRANCH   1   2
BRANCH   1  13
HETATM   13  C7  UNL     1     -13.791   7.632  36.179  1.00  0.00     0.126 C 
BRANCH  13  14
HETATM   14  N3  UNL     1     -13.699   8.515  35.091  1.00  0.00    -0.329 N 
HETATM   15  C8  UNL     1     -12.616   9.258  34.625  1.00  0.00     0.272 C 
HETATM   16  O3  UNL     1     -11.482   9.210  35.139  1.00  0.00    -0.266 OA
ATOM     17  H3  UNL     1     -14.561   8.631  34.557  1.00  0.00     0.168 HD
BRANCH  15  18
HETATM   18  C9  UNL     1     -12.742  10.172  33.466  1.00  0.00     0.103 A 
HETATM   19  C10 UNL     1     -12.940   9.749  32.170  1.00  0.00     0.062 A 
HETATM   20  C11 UNL     1     -13.010  10.865  31.363  1.00  0.00     0.074 A 
HETATM   21 CL1  UNL     1     -13.256  10.889  29.608  1.00  0.00    -0.081 Cl
HETATM   22  C12 UNL     1     -12.853  11.954  32.189  1.00  0.00     0.126 A 
HETATM   23 CL2  UNL     1     -12.869  13.620  31.621  1.00  0.00    -0.063 Cl
HETATM   24  N4  UNL     1     -12.694  11.511  33.438  1.00  0.00    -0.341 N 
ATOM     25  H4  UNL     1     -12.557  12.106  34.255  1.00  0.00     0.167 HD
ENDBRANCH  15  18
ENDBRANCH  13  14
ENDBRANCH   1  13
BRANCH   1  26
HETATM   26  C13 UNL     1     -16.273   7.237  35.896  1.00  0.00     0.282 C 
HETATM   27  N5  UNL     1     -16.704   7.579  34.575  1.00  0.00    -0.056 NA
HETATM   28  O4  UNL     1     -17.158   7.370  36.813  1.00  0.00    -0.269 OA
ENDBRANCH   1  26
TORSDOF 7
ENDMDL
MODEL 3
REMARK VINA RESULT: -7.646512553      1.231      1.670
REMARK  7 active torsions:
REMARK  status: ('A' for Active; 'I' for Inactive)
REMARK       I    between atoms: C2_2  and  N1_4 
REMARK    1  A    between atoms: N1_4  and  C3_6 
REMARK    2  A    between atoms: C3_6  and  C5_8 
REMARK       I    between atoms: C5_8  and  N2_10 
REMARK    3  A    between atoms: N2_10  and  C6_12 
REMARK    4  A    between atoms: C6_12  and  C7_13 
REMARK    5  A    between atoms: C6_12  and  C13_26 
REMARK    6  A    between atoms: C7_13  and  N3_14 
REMARK       I    between atoms: N3_14  and  C8_16 
REMARK    7  A    between atoms: C8_16  and  C9_18 
ROOT
HETATM    1  C6  UNL     1     -14.700   6.049  37.308  1.00  0.00     0.116 C 
ENDROOT
BRANCH   1   2
HETATM    2  N2  UNL     1     -14.937   4.594  37.396  1.00  0.00    -0.320 N 
HETATM    3  C5  UNL     1     -14.759   3.835  38.566  1.00  0.00     0.244 C 
HETATM    4  O2  UNL     1     -14.374   4.353  39.658  1.00  0.00    -0.271 OA
ATOM      5  H2  UNL     1     -15.249   4.110  36.554  1.00  0.00     0.169 HD
BRANCH   3   6
HETATM    6  C3  UNL     1     -15.024   2.373  38.553  1.00  0.00     0.172 C 
HETATM    7  C4  UNL     1     -15.080   1.856  37.131  1.00  0.00     0.042 C 
BRANCH   6   8
HETATM    8  N1  UNL     1     -16.216   2.047  39.309  1.00  0.00    -0.348 N 
HETATM    9  C2  UNL     1     -17.487   2.568  39.013  1.00  0.00     0.214 C 
HETATM   10  C1  UNL     1     -18.656   2.186  39.834  1.00  0.00     0.117 C 
HETATM   11  O1  UNL     1     -17.616   3.356  38.051  1.00  0.00    -0.274 OA
ATOM     12  H1  UNL     1     -16.127   1.406  40.098  1.00  0.00     0.163 HD
ENDBRANCH   6   8
ENDBRANCH   3   6
ENDBRANCH   1   2
BRANCH   1  13
HETATM   13  C7  UNL     1     -15.952   6.765  37.043  1.00  0.00     0.126 C 
BRANCH  13  14
HETATM   14  N3  UNL     1     -16.521   6.642  35.765  1.00  0.00    -0.329 N 
HETATM   15  C8  UNL     1     -16.506   7.524  34.686  1.00  0.00     0.272 C 
HETATM   16  O3  UNL     1     -15.911   8.618  34.704  1.00  0.00    -0.266 OA
ATOM     17  H3  UNL     1     -17.024   5.770  35.600  1.00  0.00     0.168 HD
BRANCH  15  18
HETATM   18  C9  UNL     1     -17.211   7.214  33.419  1.00  0.00     0.103 A 
HETATM   19  C10 UNL     1     -18.341   7.870  32.986  1.00  0.00     0.062 A 
HETATM   20  C11 UNL     1     -18.716   7.322  31.777  1.00  0.00     0.074 A 
HETATM   21 CL1  UNL     1     -20.105   7.798  30.784  1.00  0.00    -0.081 Cl
HETATM   22  C12 UNL     1     -17.800   6.335  31.497  1.00  0.00     0.126 A 
HETATM   23 CL2  UNL     1     -17.854   5.337  30.048  1.00  0.00    -0.063 Cl
HETATM   24  N4  UNL     1     -16.913   6.292  32.494  1.00  0.00    -0.341 N 
ATOM     25  H4  UNL     1     -16.122   5.650  32.544  1.00  0.00     0.167 HD
ENDBRANCH  15  18
ENDBRANCH  13  14
ENDBRANCH   1  13
BRANCH   1  26
HETATM   26  C13 UNL     1     -13.493   6.368  36.606  1.00  0.00     0.282 C 
HETATM   27  N5  UNL     1     -12.498   5.433  36.178  1.00  0.00    -0.056 NA
HETATM   28  O4  UNL     1     -13.257   7.593  36.312  1.00  0.00    -0.269 OA
ENDBRANCH   1  26
TORSDOF 7
ENDMDL
MODEL 4
REMARK VINA RESULT: -7.643484559      3.619      4.059
REMARK  7 active torsions:
REMARK  status: ('A' for Active; 'I' for Inactive)
REMARK       I    between atoms: C2_2  and  N1_4 
REMARK    1  A    between atoms: N1_4  and  C3_6 
REMARK    2  A    between atoms: C3_6  and  C5_8 
REMARK       I    between atoms: C5_8  and  N2_10 
REMARK    3  A    between atoms: N2_10  and  C6_12 
REMARK    4  A    between atoms: C6_12  and  C7_13 
REMARK    5  A    between atoms: C6_12  and  C13_26 
REMARK    6  A    between atoms: C7_13  and  N3_14 
REMARK       I    between atoms: N3_14  and  C8_16 
REMARK    7  A    between atoms: C8_16  and  C9_18 
ROOT
HETATM    1  C6  UNL     1     -14.486   5.121  37.939  1.00  0.00     0.116 C 
ENDROOT
BRANCH   1   2
HETATM    2  N2  UNL     1     -14.904   3.743  38.263  1.00  0.00    -0.320 N 
HETATM    3  C5  UNL     1     -16.240   3.349  38.466  1.00  0.00     0.244 C 
HETATM    4  O2  UNL     1     -17.206   4.166  38.384  1.00  0.00    -0.271 OA
ATOM      5  H2  UNL     1     -14.178   3.031  38.345  1.00  0.00     0.169 HD
BRANCH   3   6
HETATM    6  C3  UNL     1     -16.558   1.935  38.790  1.00  0.00     0.172 C 
HETATM    7  C4  UNL     1     -15.895   1.000  37.801  1.00  0.00     0.042 C 
BRANCH   6   8
HETATM    8  N1  UNL     1     -17.989   1.725  38.877  1.00  0.00    -0.348 N 
HETATM    9  C2  UNL     1     -18.738   1.972  40.041  1.00  0.00     0.214 C 
HETATM   10  C1  UNL     1     -20.197   1.732  40.050  1.00  0.00     0.117 C 
HETATM   11  O1  UNL     1     -18.157   2.394  41.064  1.00  0.00    -0.274 OA
ATOM     12  H1  UNL     1     -18.478   1.379  38.052  1.00  0.00     0.163 HD
ENDBRANCH   6   8
ENDBRANCH   3   6
ENDBRANCH   1   2
BRANCH   1  13
HETATM   13  C7  UNL     1     -14.765   5.432  36.532  1.00  0.00     0.126 C 
BRANCH  13  14
HETATM   14  N3  UNL     1     -14.141   6.560  35.974  1.00  0.00    -0.329 N 
HETATM   15  C8  UNL     1     -14.600   7.869  35.844  1.00  0.00     0.272 C 
HETATM   16  O3  UNL     1     -15.707   8.251  36.269  1.00  0.00    -0.266 OA
ATOM     17  H3  UNL     1     -13.203   6.395  35.606  1.00  0.00     0.168 HD
BRANCH  15  18
HETATM   18  C9  UNL     1     -13.787   8.915  35.180  1.00  0.00     0.103 A 
HETATM   19  C10 UNL     1     -12.410   8.909  35.138  1.00  0.00     0.062 A 
HETATM   20  C11 UNL     1     -12.000  10.027  34.442  1.00  0.00     0.074 A 
HETATM   21 CL1  UNL     1     -10.328  10.503  34.095  1.00  0.00    -0.081 Cl
HETATM   22  C12 UNL     1     -13.142  10.697  34.073  1.00  0.00     0.126 A 
HETATM   23 CL2  UNL     1     -13.140  12.200  33.157  1.00  0.00    -0.063 Cl
HETATM   24  N4  UNL     1     -14.194  10.011  34.527  1.00  0.00    -0.341 N 
ATOM     25  H4  UNL     1     -15.169  10.283  34.395  1.00  0.00     0.167 HD
ENDBRANCH  15  18
ENDBRANCH  13  14
ENDBRANCH   1  13
BRANCH   1  26
HETATM   26  C13 UNL     1     -13.241   5.477  38.551  1.00  0.00     0.282 C 
HETATM   27  N5  UNL     1     -12.919   5.341  39.939  1.00  0.00    -0.056 NA
HETATM   28  O4  UNL     1     -12.308   5.956  37.816  1.00  0.00    -0.269 OA
ENDBRANCH   1  26
TORSDOF 7
ENDMDL
MODEL 5
REMARK VINA RESULT: -7.642183547      2.755      3.251
REMARK  7 active torsions:
REMARK  status: ('A' for Active; 'I' for Inactive)
REMARK       I    between atoms: C2_2  and  N1_4 
REMARK    1  A    between atoms: N1_4  and  C3_6 
REMARK    2  A    between atoms: C3_6  and  C5_8 
REMARK       I    between atoms: C5_8  and  N2_10 
REMARK    3  A    between atoms: N2_10  and  C6_12 
REMARK    4  A    between atoms: C6_12  and  C7_13 
REMARK    5  A    between atoms: C6_12  and  C13_26 
REMARK    6  A    between atoms: C7_13  and  N3_14 
REMARK       I    between atoms: N3_14  and  C8_16 
REMARK    7  A    between atoms: C8_16  and  C9_18 
ROOT
HETATM    1  C6  UNL     1     -14.662   5.517  36.943  1.00  0.00     0.116 C 
ENDROOT
BRANCH   1   2
HETATM    2  N2  UNL     1     -15.021   4.126  37.284  1.00  0.00    -0.320 N 
HETATM    3  C5  UNL     1     -16.153   3.764  38.037  1.00  0.00     0.244 C 
HETATM    4  O2  UNL     1     -16.968   4.624  38.490  1.00  0.00    -0.271 OA
ATOM      5  H2  UNL     1     -14.410   3.380  36.952  1.00  0.00     0.169 HD
BRANCH   3   6
HETATM    6  C3  UNL     1     -16.428   2.334  38.328  1.00  0.00     0.172 C 
HETATM    7  C4  UNL     1     -15.814   1.447  37.266  1.00  0.00     0.042 C 
BRANCH   6   8
HETATM    8  N1  UNL     1     -17.847   2.095  38.498  1.00  0.00    -0.348 N 
HETATM    9  C2  UNL     1     -18.491   2.111  39.748  1.00  0.00     0.214 C 
HETATM   10  C1  UNL     1     -19.944   1.858  39.837  1.00  0.00     0.117 C 
HETATM   11  O1  UNL     1     -17.821   2.341  40.778  1.00  0.00    -0.274 OA
ATOM     12  H1  UNL     1     -18.408   1.905  37.668  1.00  0.00     0.163 HD
ENDBRANCH   6   8
ENDBRANCH   3   6
ENDBRANCH   1   2
BRANCH   1  13
HETATM   13  C7  UNL     1     -15.457   5.996  35.807  1.00  0.00     0.126 C 
BRANCH  13  14
HETATM   14  N3  UNL     1     -14.945   7.064  35.052  1.00  0.00    -0.329 N 
HETATM   15  C8  UNL     1     -14.879   7.239  33.671  1.00  0.00     0.272 C 
HETATM   16  O3  UNL     1     -15.333   6.415  32.855  1.00  0.00    -0.266 OA
ATOM     17  H3  UNL     1     -14.559   7.833  35.602  1.00  0.00     0.168 HD
BRANCH  15  18
HETATM   18  C9  UNL     1     -14.255   8.441  33.069  1.00  0.00     0.103 A 
HETATM   19  C10 UNL     1     -13.676   9.456  33.799  1.00  0.00     0.062 A 
HETATM   20  C11 UNL     1     -13.201  10.400  32.914  1.00  0.00     0.074 A 
HETATM   21 CL1  UNL     1     -12.367  11.910  33.324  1.00  0.00    -0.081 Cl
HETATM   22  C12 UNL     1     -13.503   9.940  31.654  1.00  0.00     0.126 A 
HETATM   23 CL2  UNL     1     -13.097  10.805  30.175  1.00  0.00    -0.063 Cl
HETATM   24  N4  UNL     1     -14.132   8.769  31.776  1.00  0.00    -0.341 N 
ATOM     25  H4  UNL     1     -14.471   8.204  30.997  1.00  0.00     0.167 HD
ENDBRANCH  15  18
ENDBRANCH  13  14
ENDBRANCH   1  13
BRANCH   1  26
HETATM   26  C13 UNL     1     -13.253   5.757  37.024  1.00  0.00     0.282 C 
HETATM   27  N5  UNL     1     -12.318   5.644  35.945  1.00  0.00    -0.056 NA
HETATM   28  O4  UNL     1     -12.752   6.114  38.147  1.00  0.00    -0.269 OA
ENDBRANCH   1  26
TORSDOF 7
ENDMDL
