MODEL 1
REMARK VINA RESULT: -8.595258496      0.000      0.000
REMARK  8 active torsions:
REMARK  status: ('A' for Active; 'I' for Inactive)
REMARK    1  A    between atoms: C2_2  and  C4_4 
REMARK       I    between atoms: C4_4  and  N1_6 
REMARK    2  A    between atoms: N1_6  and  C5_8 
REMARK    3  A    between atoms: C5_8  and  C6_9 
REMARK    4  A    between atoms: C5_8  and  C12_21 
REMARK    5  A    between atoms: C6_9  and  C7_10 
REMARK       I    between atoms: C12_21  and  N3_23 
REMARK    6  A    between atoms: N3_23  and  C13_25 
REMARK    7  A    between atoms: C13_25  and  C15_27 
REMARK       I    between atoms: C15_27  and  N4_29 
REMARK    8  A    between atoms: N4_29  and  N5_31 
ROOT
HETATM    1  C5  UNL     1     -15.501   6.611  35.927  1.00  0.00     0.181 C 
ENDROOT
BRANCH   1   2
HETATM    2  N1  UNL     1     -15.524   6.311  34.532  1.00  0.00    -0.347 N 
HETATM    3  C4  UNL     1     -16.284   6.852  33.496  1.00  0.00     0.221 C 
HETATM    4  O1  UNL     1     -17.108   7.761  33.666  1.00  0.00    -0.273 OA
ATOM      5  H1  UNL     1     -14.877   5.577  34.245  1.00  0.00     0.163 HD
BRANCH   3   6
HETATM    6  C2  UNL     1     -16.101   6.308  32.110  1.00  0.00     0.070 C 
HETATM    7  C1  UNL     1     -15.265   7.288  31.288  1.00  0.00     0.019 C 
HETATM    8  C3  UNL     1     -17.483   6.299  31.469  1.00  0.00     0.019 C 
ENDBRANCH   3   6
ENDBRANCH   1   2
BRANCH   1   9
HETATM    9  C6  UNL     1     -14.616   7.682  36.411  1.00  0.00     0.080 C 
BRANCH   9  10
HETATM   10  C7  UNL     1     -13.914   8.554  35.487  1.00  0.00     0.032 A 
HETATM   11  C8  UNL     1     -12.606   8.141  35.142  1.00  0.00     0.181 A 
HETATM   12  F1  UNL     1     -12.071   7.001  35.637  1.00  0.00    -0.201 F 
HETATM   13  C9  UNL     1     -11.834   8.891  34.291  1.00  0.00     0.230 A 
HETATM   14  F2  UNL     1     -10.586   8.493  33.967  1.00  0.00    -0.183 F 
HETATM   15  N2  UNL     1     -12.292  10.040  33.755  1.00  0.00    -0.295 N 
HETATM   16  C10 UNL     1     -13.521  10.438  34.072  1.00  0.00     0.286 A 
ATOM     17  H2  UNL     1     -11.711  10.590  33.123  1.00  0.00     0.171 HD
HETATM   18  O2  UNL     1     -14.011  11.518  33.598  1.00  0.00    -0.265 OA
HETATM   19  C11 UNL     1     -14.356   9.717  34.934  1.00  0.00     0.193 A 
HETATM   20  F3  UNL     1     -15.570  10.257  35.157  1.00  0.00    -0.200 F 
ENDBRANCH   9  10
ENDBRANCH   1   9
BRANCH   1  21
HETATM   21  C12 UNL     1     -15.363   5.342  36.683  1.00  0.00     0.241 C 
HETATM   22  O3  UNL     1     -14.185   4.921  36.856  1.00  0.00    -0.271 OA
HETATM   23  N3  UNL     1     -16.459   4.619  37.197  1.00  0.00    -0.346 N 
ATOM     24  H3  UNL     1     -17.409   4.963  37.049  1.00  0.00     0.163 HD
BRANCH  23  25
HETATM   25  C13 UNL     1     -16.244   3.394  37.929  1.00  0.00     0.174 C 
HETATM   26  C14 UNL     1     -16.231   2.183  36.989  1.00  0.00     0.042 C 
BRANCH  25  27
HETATM   27  C15 UNL     1     -17.292   3.138  38.925  1.00  0.00     0.258 C 
HETATM   28  O4  UNL     1     -17.368   3.846  39.958  1.00  0.00    -0.270 OA
HETATM   29  N4  UNL     1     -18.225   2.102  38.749  1.00  0.00    -0.275 N 
ATOM     30  H4  UNL     1     -18.158   1.531  37.906  1.00  0.00     0.189 HD
BRANCH  29  31
HETATM   31  N5  UNL     1     -19.241   1.811  39.666  1.00  0.00    -0.343 N 
ATOM     32  H52 UNL     1     -19.871   2.572  39.921  1.00  0.00     0.176 HD
ATOM     33  H51 UNL     1     -19.378   0.890  40.083  1.00  0.00     0.176 HD
ENDBRANCH  29  31
ENDBRANCH  25  27
ENDBRANCH  23  25
ENDBRANCH   1  21
TORSDOF 8
ENDMDL
MODEL 2
REMARK VINA RESULT: -8.586478525      1.000      2.030
REMARK  8 active torsions:
REMARK  status: ('A' for Active; 'I' for Inactive)
REMARK    1  A    between atoms: C2_2  and  C4_4 
REMARK       I    between atoms: C4_4  and  N1_6 
REMARK    2  A    between atoms: N1_6  and  C5_8 
REMARK    3  A    between atoms: C5_8  and  C6_9 
REMARK    4  A    between atoms: C5_8  and  C12_21 
REMARK    5  A    between atoms: C6_9  and  C7_10 
REMARK       I    between atoms: C12_21  and  N3_23 
REMARK    6  A    between atoms: N3_23  and  C13_25 
REMARK    7  A    between atoms: C13_25  and  C15_27 
REMARK       I    between atoms: C15_27  and  N4_29 
REMARK    8  A    between atoms: N4_29  and  N5_31 
ROOT
HETATM    1  C5  UNL     1     -15.242   6.628  35.818  1.00  0.00     0.181 C 
ENDROOT
BRANCH   1   2
HETATM    2  N1  UNL     1     -15.349   6.316  34.430  1.00  0.00    -0.347 N 
HETATM    3  C4  UNL     1     -16.183   6.835  33.441  1.00  0.00     0.221 C 
HETATM    4  O1  UNL     1     -17.012   7.730  33.656  1.00  0.00    -0.273 OA
ATOM      5  H1  UNL     1     -14.707   5.592  34.107  1.00  0.00     0.163 HD
BRANCH   3   6
HETATM    6  C2  UNL     1     -16.078   6.283  32.049  1.00  0.00     0.070 C 
HETATM    7  C1  UNL     1     -15.261   7.242  31.184  1.00  0.00     0.019 C 
HETATM    8  C3  UNL     1     -17.488   6.303  31.475  1.00  0.00     0.019 C 
ENDBRANCH   3   6
ENDBRANCH   1   2
BRANCH   1   9
HETATM    9  C6  UNL     1     -14.280   7.656  36.246  1.00  0.00     0.080 C 
BRANCH   9  10
HETATM   10  C7  UNL     1     -13.567   8.470  35.278  1.00  0.00     0.032 A 
HETATM   11  C8  UNL     1     -14.229   9.656  34.884  1.00  0.00     0.181 A 
HETATM   12  F1  UNL     1     -15.433   9.999  35.396  1.00  0.00    -0.201 F 
HETATM   13  C9  UNL     1     -13.665  10.501  33.960  1.00  0.00     0.230 A 
HETATM   14  F2  UNL     1     -14.301  11.630  33.586  1.00  0.00    -0.183 F 
HETATM   15  N2  UNL     1     -12.468  10.232  33.401  1.00  0.00    -0.295 N 
HETATM   16  C10 UNL     1     -11.837   9.119  33.765  1.00  0.00     0.286 A 
ATOM     17  H2  UNL     1     -12.057  10.866  32.716  1.00  0.00     0.171 HD
HETATM   18  O2  UNL     1     -10.701   8.809  33.271  1.00  0.00    -0.265 OA
HETATM   19  C11 UNL     1     -12.360   8.219  34.701  1.00  0.00     0.193 A 
HETATM   20  F3  UNL     1     -11.600   7.137  34.959  1.00  0.00    -0.200 F 
ENDBRANCH   9  10
ENDBRANCH   1   9
BRANCH   1  21
HETATM   21  C12 UNL     1     -15.133   5.361  36.582  1.00  0.00     0.241 C 
HETATM   22  O3  UNL     1     -13.964   4.947  36.812  1.00  0.00    -0.271 OA
HETATM   23  N3  UNL     1     -16.250   4.633  37.043  1.00  0.00    -0.346 N 
ATOM     24  H3  UNL     1     -17.193   4.971  36.850  1.00  0.00     0.163 HD
BRANCH  23  25
HETATM   25  C13 UNL     1     -16.063   3.410  37.787  1.00  0.00     0.174 C 
HETATM   26  C14 UNL     1     -16.057   2.191  36.856  1.00  0.00     0.042 C 
BRANCH  25  27
HETATM   27  C15 UNL     1     -17.128   3.178  38.772  1.00  0.00     0.258 C 
HETATM   28  O4  UNL     1     -17.224   3.914  39.783  1.00  0.00    -0.270 OA
HETATM   29  N4  UNL     1     -18.054   2.134  38.608  1.00  0.00    -0.275 N 
ATOM     30  H4  UNL     1     -17.970   1.540  37.782  1.00  0.00     0.189 HD
BRANCH  29  31
HETATM   31  N5  UNL     1     -19.085   1.864  39.515  1.00  0.00    -0.343 N 
ATOM     32  H52 UNL     1     -19.397   0.896  39.591  1.00  0.00     0.176 HD
ATOM     33  H51 UNL     1     -19.530   2.578  40.092  1.00  0.00     0.176 HD
ENDBRANCH  29  31
ENDBRANCH  25  27
ENDBRANCH  23  25
ENDBRANCH   1  21
TORSDOF 8
ENDMDL
MODEL 3
REMARK VINA RESULT: -8.578503690      1.702      2.080
REMARK  8 active torsions:
REMARK  status: ('A' for Active; 'I' for Inactive)
REMARK    1  A    between atoms: C2_2  and  C4_4 
REMARK       I    between atoms: C4_4  and  N1_6 
REMARK    2  A    between atoms: N1_6  and  C5_8 
REMARK    3  A    between atoms: C5_8  and  C6_9 
REMARK    4  A    between atoms: C5_8  and  C12_21 
REMARK    5  A    between atoms: C6_9  and  C7_10 
REMARK       I    between atoms: C12_21  and  N3_23 
REMARK    6  A    between atoms: N3_23  and  C13_25 
REMARK    7  A    between atoms: C13_25  and  C15_27 
REMARK       I    between atoms: C15_27  and  N4_29 
REMARK    8  A    between atoms: N4_29  and  N5_31 
ROOT
HETATM    1  C5  UNL     1     -16.147   7.901  35.209  1.00  0.00     0.181 C 
ENDROOT
BRANCH   1   2
HETATM    2  N1  UNL     1     -16.296   7.127  34.020  1.00  0.00    -0.347 N 
HETATM    3  C4  UNL     1     -17.252   7.188  33.007  1.00  0.00     0.221 C 
HETATM    4  O1  UNL     1     -18.177   8.012  32.999  1.00  0.00    -0.273 OA
ATOM      5  H1  UNL     1     -15.585   6.407  33.890  1.00  0.00     0.163 HD
BRANCH   3   6
HETATM    6  C2  UNL     1     -17.160   6.211  31.872  1.00  0.00     0.070 C 
HETATM    7  C1  UNL     1     -15.850   6.433  31.117  1.00  0.00     0.019 C 
HETATM    8  C3  UNL     1     -18.271   6.583  30.898  1.00  0.00     0.019 C 
ENDBRANCH   3   6
ENDBRANCH   1   2
BRANCH   1   9
HETATM    9  C6  UNL     1     -15.167   8.998  35.228  1.00  0.00     0.080 C 
BRANCH   9  10
HETATM   10  C7  UNL     1     -14.135   9.103  34.212  1.00  0.00     0.032 A 
HETATM   11  C8  UNL     1     -12.823   8.813  34.653  1.00  0.00     0.181 A 
HETATM   12  F1  UNL     1     -12.570   8.448  35.931  1.00  0.00    -0.201 F 
HETATM   13  C9  UNL     1     -11.758   8.894  33.791  1.00  0.00     0.230 A 
HETATM   14  F2  UNL     1     -10.508   8.618  34.218  1.00  0.00    -0.183 F 
HETATM   15  N2  UNL     1     -11.924   9.251  32.502  1.00  0.00    -0.295 N 
HETATM   16  C10 UNL     1     -13.154   9.526  32.076  1.00  0.00     0.286 A 
ATOM     17  H2  UNL     1     -11.127   9.309  31.869  1.00  0.00     0.171 HD
HETATM   18  O2  UNL     1     -13.376   9.871  30.867  1.00  0.00    -0.265 OA
HETATM   19  C11 UNL     1     -14.279   9.461  32.907  1.00  0.00     0.193 A 
HETATM   20  F3  UNL     1     -15.453   9.774  32.325  1.00  0.00    -0.200 F 
ENDBRANCH   9  10
ENDBRANCH   1   9
BRANCH   1  21
HETATM   21  C12 UNL     1     -16.023   6.978  36.365  1.00  0.00     0.241 C 
HETATM   22  O3  UNL     1     -16.839   7.156  37.310  1.00  0.00    -0.271 OA
HETATM   23  N3  UNL     1     -15.062   5.948  36.438  1.00  0.00    -0.346 N 
ATOM     24  H3  UNL     1     -14.403   5.812  35.671  1.00  0.00     0.163 HD
BRANCH  23  25
HETATM   25  C13 UNL     1     -15.009   5.085  37.593  1.00  0.00     0.174 C 
HETATM   26  C14 UNL     1     -13.595   4.529  37.803  1.00  0.00     0.042 C 
BRANCH  25  27
HETATM   27  C15 UNL     1     -15.900   3.923  37.475  1.00  0.00     0.258 C 
HETATM   28  O4  UNL     1     -15.434   2.798  37.180  1.00  0.00    -0.270 OA
HETATM   29  N4  UNL     1     -17.285   4.046  37.683  1.00  0.00    -0.275 N 
ATOM     30  H4  UNL     1     -17.657   4.965  37.923  1.00  0.00     0.189 HD
BRANCH  29  31
HETATM   31  N5  UNL     1     -18.181   2.976  37.579  1.00  0.00    -0.343 N 
ATOM     32  H52 UNL     1     -17.974   2.141  38.127  1.00  0.00     0.176 HD
ATOM     33  H51 UNL     1     -19.014   2.993  36.991  1.00  0.00     0.176 HD
ENDBRANCH  29  31
ENDBRANCH  25  27
ENDBRANCH  23  25
ENDBRANCH   1  21
TORSDOF 8
ENDMDL
MODEL 4
REMARK VINA RESULT: -8.463100033      2.192      2.514
REMARK  8 active torsions:
REMARK  status: ('A' for Active; 'I' for Inactive)
REMARK    1  A    between atoms: C2_2  and  C4_4 
REMARK       I    between atoms: C4_4  and  N1_6 
REMARK    2  A    between atoms: N1_6  and  C5_8 
REMARK    3  A    between atoms: C5_8  and  C6_9 
REMARK    4  A    between atoms: C5_8  and  C12_21 
REMARK    5  A    between atoms: C6_9  and  C7_10 
REMARK       I    between atoms: C12_21  and  N3_23 
REMARK    6  A    between atoms: N3_23  and  C13_25 
REMARK    7  A    between atoms: C13_25  and  C15_27 
REMARK       I    between atoms: C15_27  and  N4_29 
REMARK    8  A    between atoms: N4_29  and  N5_31 
ROOT
HETATM    1  C5  UNL     1     -15.860   7.292  35.461  1.00  0.00     0.181 C 
ENDROOT
BRANCH   1   2
HETATM    2  N1  UNL     1     -17.202   7.380  34.985  1.00  0.00    -0.347 N 
HETATM    3  C4  UNL     1     -17.815   8.319  34.157  1.00  0.00     0.221 C 
HETATM    4  O1  UNL     1     -17.213   9.285  33.668  1.00  0.00    -0.273 OA
ATOM      5  H1  UNL     1     -17.816   6.631  35.304  1.00  0.00     0.163 HD
BRANCH   3   6
HETATM    6  C2  UNL     1     -19.274   8.157  33.842  1.00  0.00     0.070 C 
HETATM    7  C1  UNL     1     -19.437   7.805  32.364  1.00  0.00     0.019 C 
HETATM    8  C3  UNL     1     -19.903   9.533  34.015  1.00  0.00     0.019 C 
ENDBRANCH   3   6
ENDBRANCH   1   2
BRANCH   1   9
HETATM    9  C6  UNL     1     -14.805   6.836  34.543  1.00  0.00     0.080 C 
BRANCH   9  10
HETATM   10  C7  UNL     1     -13.882   7.775  33.930  1.00  0.00     0.032 A 
HETATM   11  C8  UNL     1     -12.831   8.218  34.765  1.00  0.00     0.181 A 
HETATM   12  F1  UNL     1     -12.701   7.775  36.037  1.00  0.00    -0.201 F 
HETATM   13  C9  UNL     1     -11.904   9.121  34.307  1.00  0.00     0.230 A 
HETATM   14  F2  UNL     1     -10.904   9.542  35.109  1.00  0.00    -0.183 F 
HETATM   15  N2  UNL     1     -11.962   9.613  33.054  1.00  0.00    -0.295 N 
HETATM   16  C10 UNL     1     -12.947   9.202  32.259  1.00  0.00     0.286 A 
ATOM     17  H2  UNL     1     -11.268  10.283  32.722  1.00  0.00     0.171 HD
HETATM   18  O2  UNL     1     -13.057   9.632  31.062  1.00  0.00    -0.265 OA
HETATM   19  C11 UNL     1     -13.922   8.284  32.668  1.00  0.00     0.193 A 
HETATM   20  F3  UNL     1     -14.854   7.974  31.747  1.00  0.00    -0.200 F 
ENDBRANCH   9  10
ENDBRANCH   1   9
BRANCH   1  21
HETATM   21  C12 UNL     1     -15.864   6.575  36.761  1.00  0.00     0.241 C 
HETATM   22  O3  UNL     1     -16.649   7.022  37.642  1.00  0.00    -0.271 OA
HETATM   23  N3  UNL     1     -15.051   5.455  37.033  1.00  0.00    -0.346 N 
ATOM     24  H3  UNL     1     -14.415   5.102  36.318  1.00  0.00     0.163 HD
BRANCH  23  25
HETATM   25  C13 UNL     1     -15.116   4.807  38.321  1.00  0.00     0.174 C 
HETATM   26  C14 UNL     1     -13.822   4.040  38.620  1.00  0.00     0.042 C 
BRANCH  25  27
HETATM   27  C15 UNL     1     -16.210   3.830  38.409  1.00  0.00     0.258 C 
HETATM   28  O4  UNL     1     -16.190   2.938  39.289  1.00  0.00    -0.270 OA
HETATM   29  N4  UNL     1     -17.294   3.871  37.515  1.00  0.00    -0.275 N 
ATOM     30  H4  UNL     1     -17.304   4.601  36.802  1.00  0.00     0.189 HD
BRANCH  29  31
HETATM   31  N5  UNL     1     -18.360   2.964  37.549  1.00  0.00    -0.343 N 
ATOM     32  H52 UNL     1     -18.332   2.240  38.266  1.00  0.00     0.176 HD
ATOM     33  H51 UNL     1     -19.147   2.995  36.902  1.00  0.00     0.176 HD
ENDBRANCH  29  31
ENDBRANCH  25  27
ENDBRANCH  23  25
ENDBRANCH   1  21
TORSDOF 8
ENDMDL
MODEL 5
REMARK VINA RESULT: -8.451028663      1.659      2.538
REMARK  8 active torsions:
REMARK  status: ('A' for Active; 'I' for Inactive)
REMARK    1  A    between atoms: C2_2  and  C4_4 
REMARK       I    between atoms: C4_4  and  N1_6 
REMARK    2  A    between atoms: N1_6  and  C5_8 
REMARK    3  A    between atoms: C5_8  and  C6_9 
REMARK    4  A    between atoms: C5_8  and  C12_21 
REMARK    5  A    between atoms: C6_9  and  C7_10 
REMARK       I    between atoms: C12_21  and  N3_23 
REMARK    6  A    between atoms: N3_23  and  C13_25 
REMARK    7  A    between atoms: C13_25  and  C15_27 
REMARK       I    between atoms: C15_27  and  N4_29 
REMARK    8  A    between atoms: N4_29  and  N5_31 
ROOT
HETATM    1  C5  UNL     1     -15.330   7.479  35.692  1.00  0.00     0.181 C 
ENDROOT
BRANCH   1   2
HETATM    2  N1  UNL     1     -15.395   6.881  34.398  1.00  0.00    -0.347 N 
HETATM    3  C4  UNL     1     -16.086   7.266  33.250  1.00  0.00     0.221 C 
HETATM    4  O1  UNL     1     -16.791   8.284  33.195  1.00  0.00    -0.273 OA
ATOM      5  H1  UNL     1     -14.844   6.029  34.296  1.00  0.00     0.163 HD
BRANCH   3   6
HETATM    6  C2  UNL     1     -15.976   6.409  32.023  1.00  0.00     0.070 C 
HETATM    7  C1  UNL     1     -15.229   7.179  30.934  1.00  0.00     0.019 C 
HETATM    8  C3  UNL     1     -17.396   6.224  31.504  1.00  0.00     0.019 C 
ENDBRANCH   3   6
ENDBRANCH   1   2
BRANCH   1   9
HETATM    9  C6  UNL     1     -14.209   8.379  36.007  1.00  0.00     0.080 C 
BRANCH   9  10
HETATM   10  C7  UNL     1     -13.430   9.008  34.955  1.00  0.00     0.032 A 
HETATM   11  C8  UNL     1     -13.977  10.203  34.433  1.00  0.00     0.181 A 
HETATM   12  F1  UNL     1     -15.137  10.717  34.905  1.00  0.00    -0.201 F 
HETATM   13  C9  UNL     1     -13.344  10.882  33.422  1.00  0.00     0.230 A 
HETATM   14  F2  UNL     1     -13.871  12.021  32.926  1.00  0.00    -0.183 F 
HETATM   15  N2  UNL     1     -12.185  10.437  32.896  1.00  0.00    -0.295 N 
HETATM   16  C10 UNL     1     -11.662   9.315  33.379  1.00  0.00     0.286 A 
ATOM     17  H2  UNL     1     -11.722  10.949  32.145  1.00  0.00     0.171 HD
HETATM   18  O2  UNL     1     -10.568   8.842  32.922  1.00  0.00    -0.265 OA
HETATM   19  C11 UNL     1     -12.260   8.578  34.409  1.00  0.00     0.193 A 
HETATM   20  F3  UNL     1     -11.607   7.461  34.783  1.00  0.00    -0.200 F 
ENDBRANCH   9  10
ENDBRANCH   1   9
BRANCH   1  21
HETATM   21  C12 UNL     1     -15.548   6.425  36.714  1.00  0.00     0.241 C 
HETATM   22  O3  UNL     1     -16.555   6.572  37.460  1.00  0.00    -0.271 OA
HETATM   23  N3  UNL     1     -14.701   5.309  36.872  1.00  0.00    -0.346 N 
ATOM     24  H3  UNL     1     -13.886   5.199  36.268  1.00  0.00     0.163 HD
BRANCH  23  25
HETATM   25  C13 UNL     1     -14.983   4.321  37.886  1.00  0.00     0.174 C 
HETATM   26  C14 UNL     1     -13.757   3.439  38.155  1.00  0.00     0.042 C 
BRANCH  25  27
HETATM   27  C15 UNL     1     -16.074   3.414  37.505  1.00  0.00     0.258 C 
HETATM   28  O4  UNL     1     -15.827   2.362  36.869  1.00  0.00    -0.270 OA
HETATM   29  N4  UNL     1     -17.409   3.703  37.838  1.00  0.00    -0.275 N 
ATOM     30  H4  UNL     1     -17.601   4.560  38.357  1.00  0.00     0.189 HD
BRANCH  29  31
HETATM   31  N5  UNL     1     -18.487   2.879  37.498  1.00  0.00    -0.343 N 
ATOM     32  H52 UNL     1     -18.409   1.889  37.732  1.00  0.00     0.176 HD
ATOM     33  H51 UNL     1     -19.331   3.216  37.035  1.00  0.00     0.176 HD
ENDBRANCH  29  31
ENDBRANCH  25  27
ENDBRANCH  23  25
ENDBRANCH   1  21
TORSDOF 8
ENDMDL
