MODEL 1
REMARK VINA RESULT: -7.327991863      0.000      0.000
REMARK  9 active torsions:
REMARK  status: ('A' for Active; 'I' for Inactive)
REMARK    1  A    between atoms: N3_4  and  C2_6 
REMARK    2  A    between atoms: C2_6  and  N4_7 
REMARK    3  A    between atoms: C2_6  and  C12_28 
REMARK    4  A    between atoms: N4_7  and  C3_10 
REMARK    5  A    between atoms: C3_10  and  N5_11 
REMARK    6  A    between atoms: C3_10  and  C4_15 
REMARK    7  A    between atoms: C4_15  and  C5_16 
REMARK    8  A    between atoms: C5_16  and  C6_17 
REMARK       I    between atoms: C6_17  and  N6_19 
REMARK    9  A    between atoms: N6_19  and  N7_21 
ROOT
HETATM    1  C3  UNL     1     -11.636   9.798  34.244  1.00  0.00     0.383 C 
ENDROOT
BRANCH   1   2
HETATM    2  N4  UNL     1     -12.251  10.034  32.967  1.00  0.00    -0.021 N 
ATOM      3  H42 UNL     1     -12.435   9.171  32.456  1.00  0.00     0.282 HD
ATOM      4  H41 UNL     1     -11.611  10.461  32.298  1.00  0.00     0.282 HD
BRANCH   2   5
HETATM    5  C2  UNL     1     -13.450  10.826  33.170  1.00  0.00     0.343 C 
BRANCH   5   6
HETATM    6  N3  UNL     1     -13.505  12.032  32.414  1.00  0.00    -0.336 N 
HETATM    7  C1  UNL     1     -12.604  12.928  32.303  1.00  0.00     0.198 C 
HETATM    8  N1  UNL     1     -12.954  14.047  31.458  1.00  0.00    -0.067 NA
HETATM    9  N2  UNL     1     -11.338  12.903  32.925  1.00  0.00    -0.067 NA
ATOM     10  H3  UNL     1     -14.370  12.200  31.900  1.00  0.00     0.164 HD
ENDBRANCH   5   6
BRANCH   5  11
HETATM   11  C12 UNL     1     -14.601   9.937  32.671  1.00  0.00     0.233 C 
HETATM   12 CL1  UNL     1     -15.429  10.840  31.381  1.00  0.00    -0.080 Cl
HETATM   13 CL2  UNL     1     -15.713   9.554  34.006  1.00  0.00    -0.080 Cl
HETATM   14 CL3  UNL     1     -13.949   8.449  31.942  1.00  0.00    -0.080 Cl
ENDBRANCH   5  11
ENDBRANCH   2   5
ENDBRANCH   1   2
BRANCH   1  15
HETATM   15  N5  UNL     1     -10.203   9.961  34.085  1.00  0.00    -0.050 N 
ATOM     16  H53 UNL     1      -9.677   9.139  34.383  1.00  0.00     0.276 HD
ATOM     17  H52 UNL     1      -9.912   9.963  33.108  1.00  0.00     0.276 HD
ATOM     18  H51 UNL     1      -9.927  10.808  34.582  1.00  0.00     0.276 HD
ENDBRANCH   1  15
BRANCH   1  19
HETATM   19  C4  UNL     1     -11.856   8.371  34.718  1.00  0.00     0.071 C 
BRANCH  19  20
HETATM   20  C5  UNL     1     -12.916   8.271  35.760  1.00  0.00     0.108 C 
BRANCH  20  21
HETATM   21  C6  UNL     1     -13.097   6.859  36.147  1.00  0.00     0.236 C 
HETATM   22  O1  UNL     1     -12.408   5.972  35.600  1.00  0.00    -0.272 OA
HETATM   23  N6  UNL     1     -14.044   6.502  37.132  1.00  0.00    -0.265 N 
ATOM     24  H6  UNL     1     -14.582   7.262  37.550  1.00  0.00     0.190 HD
BRANCH  23  25
HETATM   25  N7  UNL     1     -14.313   5.223  37.586  1.00  0.00    -0.259 N 
HETATM   26  C7  UNL     1     -15.323   4.349  37.028  1.00  0.00     0.152 C 
HETATM   27  C8  UNL     1     -16.071   3.769  38.234  1.00  0.00     0.022 C 
HETATM   28  C9  UNL     1     -15.179   2.799  38.974  1.00  0.00     0.011 C 
HETATM   29  C10 UNL     1     -13.703   3.166  38.821  1.00  0.00     0.105 C 
HETATM   30  C11 UNL     1     -13.573   4.656  38.689  1.00  0.00     0.238 C 
HETATM   31  O2  UNL     1     -12.900   5.371  39.440  1.00  0.00    -0.272 OA
ENDBRANCH  23  25
ENDBRANCH  20  21
ENDBRANCH  19  20
ENDBRANCH   1  19
TORSDOF 9
ENDMDL
MODEL 2
REMARK VINA RESULT: -7.295786768      3.678      8.736
REMARK  9 active torsions:
REMARK  status: ('A' for Active; 'I' for Inactive)
REMARK    1  A    between atoms: N3_4  and  C2_6 
REMARK    2  A    between atoms: C2_6  and  N4_7 
REMARK    3  A    between atoms: C2_6  and  C12_28 
REMARK    4  A    between atoms: N4_7  and  C3_10 
REMARK    5  A    between atoms: C3_10  and  N5_11 
REMARK    6  A    between atoms: C3_10  and  C4_15 
REMARK    7  A    between atoms: C4_15  and  C5_16 
REMARK    8  A    between atoms: C5_16  and  C6_17 
REMARK       I    between atoms: C6_17  and  N6_19 
REMARK    9  A    between atoms: N6_19  and  N7_21 
ROOT
HETATM    1  C3  UNL     1     -15.727   6.501  36.738  1.00  0.00     0.383 C 
ENDROOT
BRANCH   1   2
HETATM    2  N4  UNL     1     -15.432   5.098  36.834  1.00  0.00    -0.021 N 
ATOM      3  H42 UNL     1     -14.729   4.799  36.158  1.00  0.00     0.282 HD
ATOM      4  H41 UNL     1     -16.201   4.514  36.505  1.00  0.00     0.282 HD
BRANCH   2   5
HETATM    5  C2  UNL     1     -15.053   4.797  38.201  1.00  0.00     0.343 C 
BRANCH   5   6
HETATM    6  N3  UNL     1     -15.491   3.527  38.678  1.00  0.00    -0.336 N 
HETATM    7  C1  UNL     1     -16.646   3.001  38.554  1.00  0.00     0.198 C 
HETATM    8  N1  UNL     1     -16.789   1.691  39.146  1.00  0.00    -0.067 NA
HETATM    9  N2  UNL     1     -17.752   3.587  37.903  1.00  0.00    -0.067 NA
ATOM     10  H3  UNL     1     -14.797   2.973  39.179  1.00  0.00     0.164 HD
ENDBRANCH   5   6
BRANCH   5  11
HETATM   11  C12 UNL     1     -13.516   4.758  38.187  1.00  0.00     0.233 C 
HETATM   12 CL1  UNL     1     -13.029   3.250  38.994  1.00  0.00    -0.080 Cl
HETATM   13 CL2  UNL     1     -12.851   6.181  39.023  1.00  0.00    -0.080 Cl
HETATM   14 CL3  UNL     1     -12.926   4.676  36.509  1.00  0.00    -0.080 Cl
ENDBRANCH   5  11
ENDBRANCH   2   5
ENDBRANCH   1   2
BRANCH   1  15
HETATM   15  N5  UNL     1     -17.167   6.649  36.653  1.00  0.00    -0.050 N 
ATOM     16  H53 UNL     1     -17.560   6.216  35.817  1.00  0.00     0.276 HD
ATOM     17  H52 UNL     1     -17.664   6.088  37.344  1.00  0.00     0.276 HD
ATOM     18  H51 UNL     1     -17.385   7.644  36.721  1.00  0.00     0.276 HD
ENDBRANCH   1  15
BRANCH   1  19
HETATM   19  C4  UNL     1     -15.156   7.110  35.468  1.00  0.00     0.071 C 
BRANCH  19  20
HETATM   20  C5  UNL     1     -14.056   8.077  35.742  1.00  0.00     0.108 C 
BRANCH  20  21
HETATM   21  C6  UNL     1     -13.974   9.056  34.641  1.00  0.00     0.236 C 
HETATM   22  O1  UNL     1     -13.703  10.250  34.892  1.00  0.00    -0.272 OA
HETATM   23  N6  UNL     1     -14.198   8.654  33.306  1.00  0.00    -0.265 N 
ATOM     24  H6  UNL     1     -14.415   7.669  33.152  1.00  0.00     0.190 HD
BRANCH  23  25
HETATM   25  N7  UNL     1     -14.152   9.466  32.186  1.00  0.00    -0.259 N 
HETATM   26  C7  UNL     1     -15.315  10.007  31.515  1.00  0.00     0.152 C 
HETATM   27  C8  UNL     1     -15.070   9.768  30.020  1.00  0.00     0.022 C 
HETATM   28  C9  UNL     1     -13.964  10.673  29.530  1.00  0.00     0.011 C 
HETATM   29  C10 UNL     1     -12.971  11.001  30.644  1.00  0.00     0.105 C 
HETATM   30  C11 UNL     1     -12.889   9.840  31.593  1.00  0.00     0.238 C 
HETATM   31  O2  UNL     1     -11.849   9.231  31.868  1.00  0.00    -0.272 OA
ENDBRANCH  23  25
ENDBRANCH  20  21
ENDBRANCH  19  20
ENDBRANCH   1  19
TORSDOF 9
ENDMDL
MODEL 3
REMARK VINA RESULT: -7.184538849      1.931      2.418
REMARK  9 active torsions:
REMARK  status: ('A' for Active; 'I' for Inactive)
REMARK    1  A    between atoms: N3_4  and  C2_6 
REMARK    2  A    between atoms: C2_6  and  N4_7 
REMARK    3  A    between atoms: C2_6  and  C12_28 
REMARK    4  A    between atoms: N4_7  and  C3_10 
REMARK    5  A    between atoms: C3_10  and  N5_11 
REMARK    6  A    between atoms: C3_10  and  C4_15 
REMARK    7  A    between atoms: C4_15  and  C5_16 
REMARK    8  A    between atoms: C5_16  and  C6_17 
REMARK       I    between atoms: C6_17  and  N6_19 
REMARK    9  A    between atoms: N6_19  and  N7_21 
ROOT
HETATM    1  C3  UNL     1     -13.408   9.014  34.807  1.00  0.00     0.383 C 
ENDROOT
BRANCH   1   2
HETATM    2  N4  UNL     1     -13.613   8.385  33.531  1.00  0.00    -0.021 N 
ATOM      3  H42 UNL     1     -13.858   7.399  33.617  1.00  0.00     0.282 HD
ATOM      4  H41 UNL     1     -12.745   8.269  33.008  1.00  0.00     0.282 HD
BRANCH   2   5
HETATM    5  C2  UNL     1     -14.608   9.143  32.796  1.00  0.00     0.343 C 
BRANCH   5   6
HETATM    6  N3  UNL     1     -14.201   9.559  31.496  1.00  0.00    -0.336 N 
HETATM    7  C1  UNL     1     -13.243  10.342  31.188  1.00  0.00     0.198 C 
HETATM    8  N1  UNL     1     -13.073  10.578  29.773  1.00  0.00    -0.067 NA
HETATM    9  N2  UNL     1     -12.369  10.971  32.101  1.00  0.00    -0.067 NA
ATOM     10  H3  UNL     1     -14.743   9.186  30.716  1.00  0.00     0.164 HD
ENDBRANCH   5   6
BRANCH   5  11
HETATM   11  C12 UNL     1     -15.783   8.171  32.602  1.00  0.00     0.233 C 
HETATM   12 CL1  UNL     1     -16.216   8.220  30.878  1.00  0.00    -0.080 Cl
HETATM   13 CL2  UNL     1     -17.158   8.647  33.626  1.00  0.00    -0.080 Cl
HETATM   14 CL3  UNL     1     -15.264   6.508  32.971  1.00  0.00    -0.080 Cl
ENDBRANCH   5  11
ENDBRANCH   2   5
ENDBRANCH   1   2
BRANCH   1  15
HETATM   15  N5  UNL     1     -11.994   9.312  34.934  1.00  0.00    -0.050 N 
ATOM     16  H53 UNL     1     -11.566   8.857  35.741  1.00  0.00     0.276 HD
ATOM     17  H52 UNL     1     -11.430   8.866  34.211  1.00  0.00     0.276 HD
ATOM     18  H51 UNL     1     -11.887  10.326  34.951  1.00  0.00     0.276 HD
ENDBRANCH   1  15
BRANCH   1  19
HETATM   19  C4  UNL     1     -13.756   8.083  35.956  1.00  0.00     0.071 C 
BRANCH  19  20
HETATM   20  C5  UNL     1     -12.723   7.032  36.174  1.00  0.00     0.108 C 
BRANCH  20  21
HETATM   21  C6  UNL     1     -13.264   5.983  37.061  1.00  0.00     0.236 C 
HETATM   22  O1  UNL     1     -12.883   5.919  38.249  1.00  0.00    -0.272 OA
HETATM   23  N6  UNL     1     -14.209   5.053  36.576  1.00  0.00    -0.265 N 
ATOM     24  H6  UNL     1     -14.489   5.147  35.600  1.00  0.00     0.190 HD
BRANCH  23  25
HETATM   25  N7  UNL     1     -14.793   4.026  37.297  1.00  0.00    -0.259 N 
HETATM   26  C7  UNL     1     -14.230   2.700  37.441  1.00  0.00     0.152 C 
HETATM   27  C8  UNL     1     -15.395   1.734  37.190  1.00  0.00     0.022 C 
HETATM   28  C9  UNL     1     -16.371   1.797  38.342  1.00  0.00     0.011 C 
HETATM   29  C10 UNL     1     -16.366   3.173  39.008  1.00  0.00     0.105 C 
HETATM   30  C11 UNL     1     -16.051   4.220  37.979  1.00  0.00     0.238 C 
HETATM   31  O2  UNL     1     -16.781   5.182  37.711  1.00  0.00    -0.272 OA
ENDBRANCH  23  25
ENDBRANCH  20  21
ENDBRANCH  19  20
ENDBRANCH   1  19
TORSDOF 9
ENDMDL
MODEL 4
REMARK VINA RESULT: -7.180586179      1.914      2.457
REMARK  9 active torsions:
REMARK  status: ('A' for Active; 'I' for Inactive)
REMARK    1  A    between atoms: N3_4  and  C2_6 
REMARK    2  A    between atoms: C2_6  and  N4_7 
REMARK    3  A    between atoms: C2_6  and  C12_28 
REMARK    4  A    between atoms: N4_7  and  C3_10 
REMARK    5  A    between atoms: C3_10  and  N5_11 
REMARK    6  A    between atoms: C3_10  and  C4_15 
REMARK    7  A    between atoms: C4_15  and  C5_16 
REMARK    8  A    between atoms: C5_16  and  C6_17 
REMARK       I    between atoms: C6_17  and  N6_19 
REMARK    9  A    between atoms: N6_19  and  N7_21 
ROOT
HETATM    1  C3  UNL     1     -13.283   9.113  34.756  1.00  0.00     0.383 C 
ENDROOT
BRANCH   1   2
HETATM    2  N4  UNL     1     -13.523   8.479  33.490  1.00  0.00    -0.021 N 
ATOM      3  H42 UNL     1     -13.761   7.492  33.586  1.00  0.00     0.282 HD
ATOM      4  H41 UNL     1     -12.671   8.365  32.941  1.00  0.00     0.282 HD
BRANCH   2   5
HETATM    5  C2  UNL     1     -14.543   9.229  32.783  1.00  0.00     0.343 C 
BRANCH   5   6
HETATM    6  N3  UNL     1     -14.189   9.619  31.459  1.00  0.00    -0.336 N 
HETATM    7  C1  UNL     1     -13.256  10.410  31.099  1.00  0.00     0.198 C 
HETATM    8  N1  UNL     1     -13.138  10.612  29.673  1.00  0.00    -0.067 NA
HETATM    9  N2  UNL     1     -12.364  11.078  31.965  1.00  0.00    -0.067 NA
ATOM     10  H3  UNL     1     -14.749   9.216  30.708  1.00  0.00     0.164 HD
ENDBRANCH   5   6
BRANCH   5  11
HETATM   11  C12 UNL     1     -15.732   8.261  32.655  1.00  0.00     0.233 C 
HETATM   12 CL1  UNL     1     -16.957   8.789  33.831  1.00  0.00    -0.080 Cl
HETATM   13 CL2  UNL     1     -15.208   6.591  32.975  1.00  0.00    -0.080 Cl
HETATM   14 CL3  UNL     1     -16.457   8.399  31.035  1.00  0.00    -0.080 Cl
ENDBRANCH   5  11
ENDBRANCH   2   5
ENDBRANCH   1   2
BRANCH   1  15
HETATM   15  N5  UNL     1     -11.885   9.498  34.804  1.00  0.00    -0.050 N 
ATOM     16  H53 UNL     1     -11.328   9.052  34.075  1.00  0.00     0.276 HD
ATOM     17  H52 UNL     1     -11.732  10.465  34.520  1.00  0.00     0.276 HD
ATOM     18  H51 UNL     1     -11.537   9.302  35.743  1.00  0.00     0.276 HD
ENDBRANCH   1  15
BRANCH   1  19
HETATM   19  C4  UNL     1     -13.504   8.156  35.916  1.00  0.00     0.071 C 
BRANCH  19  20
HETATM   20  C5  UNL     1     -12.716   6.899  35.779  1.00  0.00     0.108 C 
BRANCH  20  21
HETATM   21  C6  UNL     1     -13.202   5.902  36.753  1.00  0.00     0.236 C 
HETATM   22  O1  UNL     1     -12.673   5.831  37.883  1.00  0.00    -0.272 OA
HETATM   23  N6  UNL     1     -14.259   5.029  36.419  1.00  0.00    -0.265 N 
ATOM     24  H6  UNL     1     -14.659   5.126  35.485  1.00  0.00     0.190 HD
BRANCH  23  25
HETATM   25  N7  UNL     1     -14.808   4.055  37.234  1.00  0.00    -0.259 N 
HETATM   26  C7  UNL     1     -14.246   2.734  37.427  1.00  0.00     0.152 C 
HETATM   27  C8  UNL     1     -15.430   1.767  37.304  1.00  0.00     0.022 C 
HETATM   28  C9  UNL     1     -16.337   1.911  38.504  1.00  0.00     0.011 C 
HETATM   29  C10 UNL     1     -16.284   3.324  39.082  1.00  0.00     0.105 C 
HETATM   30  C11 UNL     1     -16.023   4.303  37.974  1.00  0.00     0.238 C 
HETATM   31  O2  UNL     1     -16.760   5.254  37.689  1.00  0.00    -0.272 OA
ENDBRANCH  23  25
ENDBRANCH  20  21
ENDBRANCH  19  20
ENDBRANCH   1  19
TORSDOF 9
ENDMDL
MODEL 5
REMARK VINA RESULT: -7.170766346      3.475      8.697
REMARK  9 active torsions:
REMARK  status: ('A' for Active; 'I' for Inactive)
REMARK    1  A    between atoms: N3_4  and  C2_6 
REMARK    2  A    between atoms: C2_6  and  N4_7 
REMARK    3  A    between atoms: C2_6  and  C12_28 
REMARK    4  A    between atoms: N4_7  and  C3_10 
REMARK    5  A    between atoms: C3_10  and  N5_11 
REMARK    6  A    between atoms: C3_10  and  C4_15 
REMARK    7  A    between atoms: C4_15  and  C5_16 
REMARK    8  A    between atoms: C5_16  and  C6_17 
REMARK       I    between atoms: C6_17  and  N6_19 
REMARK    9  A    between atoms: N6_19  and  N7_21 
ROOT
HETATM    1  C3  UNL     1     -15.815   6.847  36.768  1.00  0.00     0.383 C 
ENDROOT
BRANCH   1   2
HETATM    2  N4  UNL     1     -15.393   5.518  36.423  1.00  0.00    -0.021 N 
ATOM      3  H42 UNL     1     -14.554   5.512  35.843  1.00  0.00     0.282 HD
ATOM      4  H41 UNL     1     -16.024   5.067  35.761  1.00  0.00     0.282 HD
BRANCH   2   5
HETATM    5  C2  UNL     1     -15.230   4.752  37.644  1.00  0.00     0.343 C 
BRANCH   5   6
HETATM    6  N3  UNL     1     -15.765   3.432  37.598  1.00  0.00    -0.336 N 
HETATM    7  C1  UNL     1     -16.642   2.915  38.365  1.00  0.00     0.198 C 
HETATM    8  N1  UNL     1     -16.986   1.544  38.068  1.00  0.00    -0.067 NA
HETATM    9  N2  UNL     1     -17.277   3.566  39.445  1.00  0.00    -0.067 NA
ATOM     10  H3  UNL     1     -15.401   2.827  36.862  1.00  0.00     0.164 HD
ENDBRANCH   5   6
BRANCH   5  11
HETATM   11  C12 UNL     1     -13.710   4.608  37.822  1.00  0.00     0.233 C 
HETATM   12 CL1  UNL     1     -13.206   5.847  38.995  1.00  0.00    -0.080 Cl
HETATM   13 CL2  UNL     1     -12.880   4.821  36.263  1.00  0.00    -0.080 Cl
HETATM   14 CL3  UNL     1     -13.329   3.020  38.532  1.00  0.00    -0.080 Cl
ENDBRANCH   5  11
ENDBRANCH   2   5
ENDBRANCH   1   2
BRANCH   1  15
HETATM   15  N5  UNL     1     -17.197   6.997  36.356  1.00  0.00    -0.050 N 
ATOM     16  H53 UNL     1     -17.651   7.806  36.782  1.00  0.00     0.276 HD
ATOM     17  H52 UNL     1     -17.291   7.286  35.383  1.00  0.00     0.276 HD
ATOM     18  H51 UNL     1     -17.681   6.122  36.557  1.00  0.00     0.276 HD
ENDBRANCH   1  15
BRANCH   1  19
HETATM   19  C4  UNL     1     -15.025   7.902  36.011  1.00  0.00     0.071 C 
BRANCH  19  20
HETATM   20  C5  UNL     1     -14.484   7.395  34.719  1.00  0.00     0.108 C 
BRANCH  20  21
HETATM   21  C6  UNL     1     -14.131   8.534  33.850  1.00  0.00     0.236 C 
HETATM   22  O1  UNL     1     -13.980   8.354  32.622  1.00  0.00    -0.272 OA
HETATM   23  N6  UNL     1     -13.963   9.826  34.394  1.00  0.00    -0.265 N 
ATOM     24  H6  UNL     1     -14.097   9.922  35.401  1.00  0.00     0.190 HD
BRANCH  23  25
HETATM   25  N7  UNL     1     -13.634  10.974  33.695  1.00  0.00    -0.259 N 
HETATM   26  C7  UNL     1     -14.592  11.841  33.043  1.00  0.00     0.152 C 
HETATM   27  C8  UNL     1     -14.003  12.126  31.656  1.00  0.00     0.022 C 
HETATM   28  C9  UNL     1     -12.794  13.023  31.787  1.00  0.00     0.011 C 
HETATM   29  C10 UNL     1     -12.089  12.823  33.127  1.00  0.00     0.105 C 
HETATM   30  C11 UNL     1     -12.259  11.398  33.569  1.00  0.00     0.238 C 
HETATM   31  O2  UNL     1     -11.328  10.623  33.814  1.00  0.00    -0.272 OA
ENDBRANCH  23  25
ENDBRANCH  20  21
ENDBRANCH  19  20
ENDBRANCH   1  19
TORSDOF 9
ENDMDL
