MODEL 1
REMARK VINA RESULT: -6.702751164      0.000      0.000
REMARK  7 active torsions:
REMARK  status: ('A' for Active; 'I' for Inactive)
REMARK       I    between atoms: C1_2  and  N1_3 
REMARK    1  A    between atoms: C1_2  and  C10_22 
REMARK    2  A    between atoms: N1_3  and  C2_5 
REMARK    3  A    between atoms: C2_5  and  C3_6 
REMARK    4  A    between atoms: C2_5  and  C4_8 
REMARK    5  A    between atoms: C4_8  and  N2_9 
REMARK    6  A    between atoms: C4_8  and  C9_19 
REMARK       I    between atoms: N2_9  and  C5_11 
REMARK    7  A    between atoms: C5_11  and  C6_13 
ROOT
HETATM    1  C4  UNL     1     -14.845   6.051  37.186  1.00  0.00     0.209 C 
ENDROOT
BRANCH   1   2
HETATM    2  C2  UNL     1     -15.097   7.166  36.233  1.00  0.00     0.127 C 
BRANCH   2   3
HETATM    3  N1  UNL     1     -13.994   8.088  36.108  1.00  0.00    -0.351 N 
HETATM    4  C1  UNL     1     -13.429   8.484  34.876  1.00  0.00     0.251 C 
HETATM    5  O1  UNL     1     -13.897   8.021  33.816  1.00  0.00    -0.271 OA
ATOM      6  H1  UNL     1     -13.597   8.478  36.964  1.00  0.00     0.163 HD
BRANCH   4   7
HETATM    7  C10 UNL     1     -12.302   9.427  34.774  1.00  0.00     0.269 C 
HETATM    8 CL1  UNL     1     -12.746  10.914  33.907  1.00  0.00    -0.098 Cl
HETATM    9 CL2  UNL     1     -10.903   8.722  33.940  1.00  0.00    -0.098 Cl
ENDBRANCH   4   7
ENDBRANCH   2   3
BRANCH   2  10
HETATM   10  C3  UNL     1     -16.401   7.905  36.551  1.00  0.00     0.113 C 
HETATM   11 BR1  UNL     1     -17.431   8.167  34.933  1.00  0.00    -0.094 Br
ENDBRANCH   2  10
ENDBRANCH   1   2
BRANCH   1  12
HETATM   12  N2  UNL     1     -15.646   4.875  36.932  1.00  0.00    -0.343 N 
HETATM   13  C5  UNL     1     -15.899   3.987  38.011  1.00  0.00     0.249 C 
HETATM   14  O2  UNL     1     -15.448   4.195  39.167  1.00  0.00    -0.271 OA
ATOM     15  H2  UNL     1     -16.020   4.689  36.002  1.00  0.00     0.163 HD
BRANCH  13  16
HETATM   16  C6  UNL     1     -16.719   2.770  37.782  1.00  0.00     0.278 A 
HETATM   17  C7  UNL     1     -16.881   1.927  39.027  1.00  0.00     0.070 A 
HETATM   18  C8  UNL     1     -18.363   2.200  38.986  1.00  0.00     0.236 A 
HETATM   19  N3  UNL     1     -18.148   3.001  37.797  1.00  0.00    -0.062 N 
ATOM     20  H32 UNL     1     -18.484   3.964  37.795  1.00  0.00     0.278 HD
ATOM     21  H31 UNL     1     -18.685   2.777  36.958  1.00  0.00     0.278 HD
ENDBRANCH  13  16
ENDBRANCH   1  12
BRANCH   1  22
HETATM   22  C9  UNL     1     -13.419   5.640  37.042  1.00  0.00     0.198 C 
HETATM   23  O3  UNL     1     -12.966   5.092  36.002  1.00  0.00    -0.646 OA
HETATM   24  O4  UNL     1     -12.582   5.886  38.121  1.00  0.00    -0.646 OA
ENDBRANCH   1  22
TORSDOF 7
ENDMDL
MODEL 2
REMARK VINA RESULT: -6.411280675      3.698      6.730
REMARK  7 active torsions:
REMARK  status: ('A' for Active; 'I' for Inactive)
REMARK       I    between atoms: C1_2  and  N1_3 
REMARK    1  A    between atoms: C1_2  and  C10_22 
REMARK    2  A    between atoms: N1_3  and  C2_5 
REMARK    3  A    between atoms: C2_5  and  C3_6 
REMARK    4  A    between atoms: C2_5  and  C4_8 
REMARK    5  A    between atoms: C4_8  and  N2_9 
REMARK    6  A    between atoms: C4_8  and  C9_19 
REMARK       I    between atoms: N2_9  and  C5_11 
REMARK    7  A    between atoms: C5_11  and  C6_13 
ROOT
HETATM    1  C4  UNL     1     -14.099   5.684  36.991  1.00  0.00     0.209 C 
ENDROOT
BRANCH   1   2
HETATM    2  C2  UNL     1     -15.575   5.676  37.184  1.00  0.00     0.127 C 
BRANCH   2   3
HETATM    3  N1  UNL     1     -16.157   4.356  37.186  1.00  0.00    -0.351 N 
HETATM    4  C1  UNL     1     -16.812   3.781  38.297  1.00  0.00     0.251 C 
HETATM    5  O1  UNL     1     -16.905   4.438  39.355  1.00  0.00    -0.271 OA
ATOM      6  H1  UNL     1     -16.092   3.803  36.331  1.00  0.00     0.163 HD
BRANCH   4   7
HETATM    7  C10 UNL     1     -17.399   2.430  38.275  1.00  0.00     0.269 C 
HETATM    8 CL1  UNL     1     -18.505   2.155  39.639  1.00  0.00    -0.098 Cl
HETATM    9 CL2  UNL     1     -16.164   1.155  38.323  1.00  0.00    -0.098 Cl
ENDBRANCH   4   7
ENDBRANCH   2   3
BRANCH   2  10
HETATM   10  C3  UNL     1     -16.287   6.593  36.183  1.00  0.00     0.113 C 
HETATM   11 BR1  UNL     1     -16.932   8.184  37.077  1.00  0.00    -0.094 Br
ENDBRANCH   2  10
ENDBRANCH   1   2
BRANCH   1  12
HETATM   12  N2  UNL     1     -13.537   7.007  36.849  1.00  0.00    -0.343 N 
HETATM   13  C5  UNL     1     -13.097   7.417  35.562  1.00  0.00     0.249 C 
HETATM   14  O2  UNL     1     -13.182   6.665  34.557  1.00  0.00    -0.271 OA
ATOM     15  H2  UNL     1     -13.459   7.631  37.652  1.00  0.00     0.163 HD
BRANCH  13  16
HETATM   16  C6  UNL     1     -12.514   8.771  35.383  1.00  0.00     0.278 A 
HETATM   17  C7  UNL     1     -11.538   8.844  34.230  1.00  0.00     0.070 A 
HETATM   18  C8  UNL     1     -12.466   9.810  33.540  1.00  0.00     0.236 A 
HETATM   19  N3  UNL     1     -13.368   9.699  34.670  1.00  0.00    -0.062 N 
ATOM     20  H32 UNL     1     -14.335   9.429  34.492  1.00  0.00     0.278 HD
ATOM     21  H31 UNL     1     -13.658  10.554  35.145  1.00  0.00     0.278 HD
ENDBRANCH  13  16
ENDBRANCH   1  12
BRANCH   1  22
HETATM   22  C9  UNL     1     -13.476   5.079  38.203  1.00  0.00     0.198 C 
HETATM   23  O3  UNL     1     -13.036   5.767  39.162  1.00  0.00    -0.646 OA
HETATM   24  O4  UNL     1     -13.394   3.695  38.244  1.00  0.00    -0.646 OA
ENDBRANCH   1  22
TORSDOF 7
ENDMDL
MODEL 3
REMARK VINA RESULT: -6.318506735      3.519      6.715
REMARK  7 active torsions:
REMARK  status: ('A' for Active; 'I' for Inactive)
REMARK       I    between atoms: C1_2  and  N1_3 
REMARK    1  A    between atoms: C1_2  and  C10_22 
REMARK    2  A    between atoms: N1_3  and  C2_5 
REMARK    3  A    between atoms: C2_5  and  C3_6 
REMARK    4  A    between atoms: C2_5  and  C4_8 
REMARK    5  A    between atoms: C4_8  and  N2_9 
REMARK    6  A    between atoms: C4_8  and  C9_19 
REMARK       I    between atoms: N2_9  and  C5_11 
REMARK    7  A    between atoms: C5_11  and  C6_13 
ROOT
HETATM    1  C4  UNL     1     -14.390   6.152  36.570  1.00  0.00     0.209 C 
ENDROOT
BRANCH   1   2
HETATM    2  C2  UNL     1     -15.608   6.180  37.425  1.00  0.00     0.127 C 
BRANCH   2   3
HETATM    3  N1  UNL     1     -16.441   5.009  37.294  1.00  0.00    -0.351 N 
HETATM    4  C1  UNL     1     -16.554   4.003  38.278  1.00  0.00     0.251 C 
HETATM    5  O1  UNL     1     -15.901   4.113  39.337  1.00  0.00    -0.271 OA
ATOM      6  H1  UNL     1     -16.983   4.901  36.436  1.00  0.00     0.163 HD
BRANCH   4   7
HETATM    7  C10 UNL     1     -17.411   2.816  38.122  1.00  0.00     0.269 C 
HETATM    8 CL1  UNL     1     -18.347   2.463  39.591  1.00  0.00    -0.098 Cl
HETATM    9 CL2  UNL     1     -16.481   1.358  37.718  1.00  0.00    -0.098 Cl
ENDBRANCH   4   7
ENDBRANCH   2   3
BRANCH   2  10
HETATM   10  C3  UNL     1     -16.422   7.463  37.218  1.00  0.00     0.113 C 
HETATM   11 BR1  UNL     1     -16.980   7.608  35.371  1.00  0.00    -0.094 Br
ENDBRANCH   2  10
ENDBRANCH   1   2
BRANCH   1  12
HETATM   12  N2  UNL     1     -13.696   7.417  36.504  1.00  0.00    -0.343 N 
HETATM   13  C5  UNL     1     -13.279   7.891  35.232  1.00  0.00     0.249 C 
HETATM   14  O2  UNL     1     -13.496   7.244  34.175  1.00  0.00    -0.271 OA
ATOM     15  H2  UNL     1     -13.510   7.957  37.350  1.00  0.00     0.163 HD
BRANCH  13  16
HETATM   16  C6  UNL     1     -12.563   9.188  35.131  1.00  0.00     0.278 A 
HETATM   17  C7  UNL     1     -11.556   9.218  34.002  1.00  0.00     0.070 A 
HETATM   18  C8  UNL     1     -12.368  10.302  33.342  1.00  0.00     0.236 A 
HETATM   19  N3  UNL     1     -13.304  10.228  34.447  1.00  0.00    -0.062 N 
ATOM     20  H32 UNL     1     -14.288  10.064  34.238  1.00  0.00     0.278 HD
ATOM     21  H31 UNL     1     -13.520  11.084  34.958  1.00  0.00     0.278 HD
ENDBRANCH  13  16
ENDBRANCH   1  12
BRANCH   1  22
HETATM   22  C9  UNL     1     -13.439   5.169  37.162  1.00  0.00     0.198 C 
HETATM   23  O3  UNL     1     -13.468   3.939  36.890  1.00  0.00    -0.646 OA
HETATM   24  O4  UNL     1     -12.493   5.664  38.048  1.00  0.00    -0.646 OA
ENDBRANCH   1  22
TORSDOF 7
ENDMDL
MODEL 4
REMARK VINA RESULT: -6.132728171      2.683      2.919
REMARK  7 active torsions:
REMARK  status: ('A' for Active; 'I' for Inactive)
REMARK       I    between atoms: C1_2  and  N1_3 
REMARK    1  A    between atoms: C1_2  and  C10_22 
REMARK    2  A    between atoms: N1_3  and  C2_5 
REMARK    3  A    between atoms: C2_5  and  C3_6 
REMARK    4  A    between atoms: C2_5  and  C4_8 
REMARK    5  A    between atoms: C4_8  and  N2_9 
REMARK    6  A    between atoms: C4_8  and  C9_19 
REMARK       I    between atoms: N2_9  and  C5_11 
REMARK    7  A    between atoms: C5_11  and  C6_13 
ROOT
HETATM    1  C4  UNL     1     -14.659   6.065  36.825  1.00  0.00     0.209 C 
ENDROOT
BRANCH   1   2
HETATM    2  C2  UNL     1     -14.886   7.125  35.804  1.00  0.00     0.127 C 
BRANCH   2   3
HETATM    3  N1  UNL     1     -14.916   6.633  34.448  1.00  0.00    -0.351 N 
HETATM    4  C1  UNL     1     -16.000   6.818  33.562  1.00  0.00     0.251 C 
HETATM    5  O1  UNL     1     -17.006   7.443  33.956  1.00  0.00    -0.271 OA
ATOM      6  H1  UNL     1     -14.102   6.119  34.107  1.00  0.00     0.163 HD
BRANCH   4   7
HETATM    7  C10 UNL     1     -16.007   6.305  32.182  1.00  0.00     0.269 C 
HETATM    8 CL1  UNL     1     -15.024   7.304  31.088  1.00  0.00    -0.098 Cl
HETATM    9 CL2  UNL     1     -17.644   6.220  31.500  1.00  0.00    -0.098 Cl
ENDBRANCH   4   7
ENDBRANCH   2   3
BRANCH   2  10
HETATM   10  C3  UNL     1     -13.890   8.281  35.950  1.00  0.00     0.113 C 
HETATM   11 BR1  UNL     1     -12.875   8.499  34.317  1.00  0.00    -0.094 Br
ENDBRANCH   2  10
ENDBRANCH   1   2
BRANCH   1  12
HETATM   12  N2  UNL     1     -15.481   4.892  36.639  1.00  0.00    -0.343 N 
HETATM   13  C5  UNL     1     -15.691   4.034  37.751  1.00  0.00     0.249 C 
HETATM   14  O2  UNL     1     -15.186   4.268  38.879  1.00  0.00    -0.271 OA
ATOM     15  H2  UNL     1     -15.899   4.684  35.732  1.00  0.00     0.163 HD
BRANCH  13  16
HETATM   16  C6  UNL     1     -16.531   2.819  37.592  1.00  0.00     0.278 A 
HETATM   17  C7  UNL     1     -16.596   1.981  38.849  1.00  0.00     0.070 A 
HETATM   18  C8  UNL     1     -18.075   2.259  38.925  1.00  0.00     0.236 A 
HETATM   19  N3  UNL     1     -17.954   3.055  37.721  1.00  0.00    -0.062 N 
ATOM     20  H32 UNL     1     -18.285   4.019  37.742  1.00  0.00     0.278 HD
ATOM     21  H31 UNL     1     -18.556   2.831  36.928  1.00  0.00     0.278 HD
ENDBRANCH  13  16
ENDBRANCH   1  12
BRANCH   1  22
HETATM   22  C9  UNL     1     -13.241   5.620  36.715  1.00  0.00     0.198 C 
HETATM   23  O3  UNL     1     -12.760   5.120  35.664  1.00  0.00    -0.646 OA
HETATM   24  O4  UNL     1     -12.443   5.779  37.838  1.00  0.00    -0.646 OA
ENDBRANCH   1  22
TORSDOF 7
ENDMDL
MODEL 5
REMARK VINA RESULT: -5.931388308      2.415      2.890
REMARK  7 active torsions:
REMARK  status: ('A' for Active; 'I' for Inactive)
REMARK       I    between atoms: C1_2  and  N1_3 
REMARK    1  A    between atoms: C1_2  and  C10_22 
REMARK    2  A    between atoms: N1_3  and  C2_5 
REMARK    3  A    between atoms: C2_5  and  C3_6 
REMARK    4  A    between atoms: C2_5  and  C4_8 
REMARK    5  A    between atoms: C4_8  and  N2_9 
REMARK    6  A    between atoms: C4_8  and  C9_19 
REMARK       I    between atoms: N2_9  and  C5_11 
REMARK    7  A    between atoms: C5_11  and  C6_13 
ROOT
HETATM    1  C4  UNL     1     -14.650   6.685  36.709  1.00  0.00     0.209 C 
ENDROOT
BRANCH   1   2
HETATM    2  C2  UNL     1     -15.783   7.023  35.805  1.00  0.00     0.127 C 
BRANCH   2   3
HETATM    3  N1  UNL     1     -15.389   7.736  34.614  1.00  0.00    -0.351 N 
HETATM    4  C1  UNL     1     -15.551   7.238  33.303  1.00  0.00     0.251 C 
HETATM    5  O1  UNL     1     -16.065   6.112  33.140  1.00  0.00    -0.271 OA
ATOM      6  H1  UNL     1     -14.967   8.658  34.727  1.00  0.00     0.163 HD
BRANCH   4   7
HETATM    7  C10 UNL     1     -15.140   7.984  32.102  1.00  0.00     0.269 C 
HETATM    8 CL1  UNL     1     -15.194   6.982  30.635  1.00  0.00    -0.098 Cl
HETATM    9 CL2  UNL     1     -13.495   8.638  32.241  1.00  0.00    -0.098 Cl
ENDBRANCH   4   7
ENDBRANCH   2   3
BRANCH   2  10
HETATM   10  C3  UNL     1     -16.904   7.762  36.546  1.00  0.00     0.113 C 
HETATM   11 BR1  UNL     1     -17.082   9.563  35.861  1.00  0.00    -0.094 Br
ENDBRANCH   2  10
ENDBRANCH   1   2
BRANCH   1  12
HETATM   12  N2  UNL     1     -14.701   5.338  37.228  1.00  0.00    -0.343 N 
HETATM   13  C5  UNL     1     -13.942   5.035  38.390  1.00  0.00     0.249 C 
HETATM   14  O2  UNL     1     -13.234   5.900  38.969  1.00  0.00    -0.271 OA
ATOM     15  H2  UNL     1     -15.268   4.623  36.773  1.00  0.00     0.163 HD
BRANCH  13  16
HETATM   16  C6  UNL     1     -13.973   3.660  38.949  1.00  0.00     0.278 A 
HETATM   17  C7  UNL     1     -15.249   2.918  38.617  1.00  0.00     0.070 A 
HETATM   18  C8  UNL     1     -14.435   1.929  37.823  1.00  0.00     0.236 A 
HETATM   19  N3  UNL     1     -13.245   2.681  38.168  1.00  0.00    -0.062 N 
ATOM     20  H32 UNL     1     -12.645   3.012  37.413  1.00  0.00     0.278 HD
ATOM     21  H31 UNL     1     -12.470   2.186  38.612  1.00  0.00     0.278 HD
ENDBRANCH  13  16
ENDBRANCH   1  12
BRANCH   1  22
HETATM   22  C9  UNL     1     -13.389   6.795  35.921  1.00  0.00     0.198 C 
HETATM   23  O3  UNL     1     -12.903   5.834  35.268  1.00  0.00    -0.646 OA
HETATM   24  O4  UNL     1     -12.748   8.026  35.929  1.00  0.00    -0.646 OA
ENDBRANCH   1  22
TORSDOF 7
ENDMDL
