MODEL 1
REMARK VINA RESULT: -7.652685938      0.000      0.000
REMARK  13 active torsions:
REMARK  status: ('A' for Active; 'I' for Inactive)
REMARK    1  A    between atoms: C2_2  and  C3_3 
REMARK    2  A    between atoms: C3_3  and  C4_4 
REMARK    3  A    between atoms: C4_4  and  C5_5 
REMARK    4  A    between atoms: C5_5  and  C6_6 
REMARK    5  A    between atoms: C6_6  and  C7_7 
REMARK    6  A    between atoms: C7_7  and  S1_8 
REMARK    7  A    between atoms: S1_8  and  N1_11 
REMARK    8  A    between atoms: N1_11  and  C8_13 
REMARK    9  A    between atoms: C8_13  and  C9_14 
REMARK   10  A    between atoms: C9_14  and  C10_15 
REMARK   11  A    between atoms: C10_15  and  C11_16 
REMARK   12  A    between atoms: C16_26  and  N5_27 
REMARK   13  A    between atoms: N7_33  and  N8_35 
ROOT
HETATM    1  C11 UNL     1      59.689  41.378   9.945  1.00  0.00     0.026 A 
HETATM    2  N2  UNL     1      59.499  42.652  10.439  1.00  0.00    -0.350 N 
ATOM      3  H2  UNL     1      59.177  43.363   9.783  1.00  0.00     0.166 HD
HETATM    4  C12 UNL     1      59.699  43.027  11.686  1.00  0.00     0.116 A 
HETATM    5  C13 UNL     1      59.461  44.389  12.060  1.00  0.00     0.117 C 
HETATM    6  N3  UNL     1      59.271  45.496  12.385  1.00  0.00    -0.190 NA
HETATM    7  C14 UNL     1      60.130  42.153  12.641  1.00  0.00     0.072 A 
HETATM    8  C15 UNL     1      60.344  40.854  12.231  1.00  0.00     0.068 A 
HETATM    9  N4  UNL     1      60.750  39.920  13.104  1.00  0.00    -0.191 N 
ATOM     10  H4  UNL     1      60.915  40.181  14.076  1.00  0.00     0.184 HD
HETATM   11  C16 UNL     1      60.943  38.642  12.719  1.00  0.00     0.678 A 
HETATM   12  N6  UNL     1      60.736  38.252  11.447  1.00  0.00    -0.175 N 
ATOM     13  H6  UNL     1      60.886  37.279  11.177  1.00  0.00     0.186 HD
HETATM   14  C17 UNL     1      60.323  39.167  10.517  1.00  0.00     0.149 A 
HETATM   15  N7  UNL     1      60.096  38.777   9.328  1.00  0.00    -0.291 N 
ATOM     16  H7  UNL     1      59.788  39.460   8.635  1.00  0.00     0.188 HD
HETATM   17  C18 UNL     1      60.125  40.468  10.891  1.00  0.00     0.060 A 
ENDROOT
BRANCH   1  18
HETATM   18  C10 UNL     1      59.512  41.142   8.536  1.00  0.00     0.059 C 
BRANCH  18  19
HETATM   19  C9  UNL     1      58.279  41.751   7.896  1.00  0.00     0.026 C 
BRANCH  19  20
HETATM   20  C8  UNL     1      58.512  41.972   6.420  1.00  0.00     0.132 C 
BRANCH  20  21
HETATM   21  N1  UNL     1      57.998  40.856   5.693  1.00  0.00    -0.320 N 
ATOM     22  H1  UNL     1      58.440  39.937   5.715  1.00  0.00     0.172 HD
BRANCH  21  23
HETATM   23  S1  UNL     1      56.592  41.169   4.788  1.00  0.00     0.226 S 
HETATM   24  O1  UNL     1      55.733  39.938   4.728  1.00  0.00    -0.206 OA
HETATM   25  O2  UNL     1      55.768  42.256   5.451  1.00  0.00    -0.206 OA
BRANCH  23  26
HETATM   26  C7  UNL     1      56.929  41.655   3.117  1.00  0.00     0.163 C 
BRANCH  26  27
HETATM   27  C6  UNL     1      55.741  42.523   2.682  1.00  0.00     0.017 C 
BRANCH  27  28
HETATM   28  C5  UNL     1      55.768  42.638   1.193  1.00  0.00     0.001 C 
BRANCH  28  29
HETATM   29  C4  UNL     1      56.598  41.574   0.543  1.00  0.00     0.000 C 
BRANCH  29  30
HETATM   30  C3  UNL     1      55.748  40.458  -0.032  1.00  0.00    -0.000 C 
BRANCH  30  31
HETATM   31  C2  UNL     1      56.139  39.120   0.605  1.00  0.00    -0.005 C 
HETATM   32  C1  UNL     1      55.008  38.640   1.509  1.00  0.00     0.005 C 
ENDBRANCH  30  31
ENDBRANCH  29  30
ENDBRANCH  28  29
ENDBRANCH  27  28
ENDBRANCH  26  27
ENDBRANCH  23  26
ENDBRANCH  21  23
ENDBRANCH  20  21
ENDBRANCH  19  20
ENDBRANCH  18  19
ENDBRANCH   1  18
BRANCH  11  33
HETATM   33  N5  UNL     1      61.336  37.742  13.561  1.00  0.00    -0.234 N 
ATOM     34  H52 UNL     1      60.754  37.584  14.384  1.00  0.00     0.174 HD
ATOM     35  H51 UNL     1      62.195  37.213  13.406  1.00  0.00     0.174 HD
ENDBRANCH  11  33
BRANCH  15  36
HETATM   36  N8  UNL     1      60.254  37.459   8.941  1.00  0.00    -0.344 N 
ATOM     37  H82 UNL     1      60.924  36.888   9.456  1.00  0.00     0.176 HD
ATOM     38  H81 UNL     1      59.727  37.051   8.168  1.00  0.00     0.176 HD
ENDBRANCH  15  36
TORSDOF 13
ENDMDL
MODEL 2
REMARK VINA RESULT: -7.524068786      0.956      1.398
REMARK  13 active torsions:
REMARK  status: ('A' for Active; 'I' for Inactive)
REMARK    1  A    between atoms: C2_2  and  C3_3 
REMARK    2  A    between atoms: C3_3  and  C4_4 
REMARK    3  A    between atoms: C4_4  and  C5_5 
REMARK    4  A    between atoms: C5_5  and  C6_6 
REMARK    5  A    between atoms: C6_6  and  C7_7 
REMARK    6  A    between atoms: C7_7  and  S1_8 
REMARK    7  A    between atoms: S1_8  and  N1_11 
REMARK    8  A    between atoms: N1_11  and  C8_13 
REMARK    9  A    between atoms: C8_13  and  C9_14 
REMARK   10  A    between atoms: C9_14  and  C10_15 
REMARK   11  A    between atoms: C10_15  and  C11_16 
REMARK   12  A    between atoms: C16_26  and  N5_27 
REMARK   13  A    between atoms: N7_33  and  N8_35 
ROOT
HETATM    1  C11 UNL     1      59.735  41.598   9.628  1.00  0.00     0.026 A 
HETATM    2  N2  UNL     1      59.564  42.841  10.199  1.00  0.00    -0.350 N 
ATOM      3  H2  UNL     1      59.330  43.613   9.575  1.00  0.00     0.166 HD
HETATM    4  C12 UNL     1      59.678  43.116  11.483  1.00  0.00     0.116 A 
HETATM    5  C13 UNL     1      59.472  44.458  11.938  1.00  0.00     0.117 C 
HETATM    6  N3  UNL     1      59.308  45.547  12.330  1.00  0.00    -0.190 NA
HETATM    7  C14 UNL     1      59.989  42.155  12.400  1.00  0.00     0.072 A 
HETATM    8  C15 UNL     1      60.176  40.879  11.911  1.00  0.00     0.068 A 
HETATM    9  N4  UNL     1      60.466  39.866  12.741  1.00  0.00    -0.191 N 
ATOM     10  H4  UNL     1      60.563  40.048  13.740  1.00  0.00     0.184 HD
HETATM   11  C16 UNL     1      60.632  38.610  12.277  1.00  0.00     0.678 A 
HETATM   12  N6  UNL     1      60.512  38.323  10.967  1.00  0.00    -0.175 N 
ATOM     13  H6  UNL     1      60.639  37.366  10.638  1.00  0.00     0.186 HD
HETATM   14  C17 UNL     1      60.219  39.322  10.079  1.00  0.00     0.149 A 
HETATM   15  N7  UNL     1      60.073  39.030   8.850  1.00  0.00    -0.291 N 
ATOM     16  H7  UNL     1      59.853  39.775   8.189  1.00  0.00     0.188 HD
HETATM   17  C18 UNL     1      60.050  40.601  10.534  1.00  0.00     0.060 A 
ENDROOT
BRANCH   1  18
HETATM   18  C10 UNL     1      59.663  41.473   8.195  1.00  0.00     0.059 C 
BRANCH  18  19
HETATM   19  C9  UNL     1      58.310  41.726   7.559  1.00  0.00     0.026 C 
BRANCH  19  20
HETATM   20  C8  UNL     1      58.126  40.839   6.351  1.00  0.00     0.132 C 
BRANCH  20  21
HETATM   21  N1  UNL     1      57.881  41.654   5.204  1.00  0.00    -0.320 N 
ATOM     22  H1  UNL     1      58.565  42.322   4.851  1.00  0.00     0.172 HD
BRANCH  21  23
HETATM   23  S1  UNL     1      56.363  41.429   4.471  1.00  0.00     0.226 S 
HETATM   24  O1  UNL     1      55.865  40.036   4.733  1.00  0.00    -0.206 OA
HETATM   25  O2  UNL     1      55.344  42.386   5.061  1.00  0.00    -0.206 OA
BRANCH  23  26
HETATM   26  C7  UNL     1      56.395  41.651   2.712  1.00  0.00     0.163 C 
BRANCH  26  27
HETATM   27  C6  UNL     1      55.489  40.557   2.132  1.00  0.00     0.017 C 
BRANCH  27  28
HETATM   28  C5  UNL     1      56.159  39.989   0.924  1.00  0.00     0.001 C 
BRANCH  28  29
HETATM   29  C4  UNL     1      55.840  38.541   0.709  1.00  0.00     0.000 C 
BRANCH  29  30
HETATM   30  C3  UNL     1      54.720  38.063   1.611  1.00  0.00    -0.000 C 
BRANCH  30  31
HETATM   31  C2  UNL     1      54.683  36.531   1.635  1.00  0.00    -0.005 C 
HETATM   32  C1  UNL     1      53.584  36.037   0.698  1.00  0.00     0.005 C 
ENDBRANCH  30  31
ENDBRANCH  29  30
ENDBRANCH  28  29
ENDBRANCH  27  28
ENDBRANCH  26  27
ENDBRANCH  23  26
ENDBRANCH  21  23
ENDBRANCH  20  21
ENDBRANCH  19  20
ENDBRANCH  18  19
ENDBRANCH   1  18
BRANCH  11  33
HETATM   33  N5  UNL     1      60.913  37.633  13.077  1.00  0.00    -0.234 N 
ATOM     34  H52 UNL     1      60.359  37.551  13.930  1.00  0.00     0.174 HD
ATOM     35  H51 UNL     1      61.661  36.973  12.861  1.00  0.00     0.174 HD
ENDBRANCH  11  33
BRANCH  15  36
HETATM   36  N8  UNL     1      60.201  37.737   8.378  1.00  0.00    -0.344 N 
ATOM     37  H82 UNL     1      59.437  37.355   7.821  1.00  0.00     0.176 HD
ATOM     38  H81 UNL     1      61.025  37.166   8.570  1.00  0.00     0.176 HD
ENDBRANCH  15  36
TORSDOF 13
ENDMDL
MODEL 3
REMARK VINA RESULT: -7.509557356      1.768      4.120
REMARK  13 active torsions:
REMARK  status: ('A' for Active; 'I' for Inactive)
REMARK    1  A    between atoms: C2_2  and  C3_3 
REMARK    2  A    between atoms: C3_3  and  C4_4 
REMARK    3  A    between atoms: C4_4  and  C5_5 
REMARK    4  A    between atoms: C5_5  and  C6_6 
REMARK    5  A    between atoms: C6_6  and  C7_7 
REMARK    6  A    between atoms: C7_7  and  S1_8 
REMARK    7  A    between atoms: S1_8  and  N1_11 
REMARK    8  A    between atoms: N1_11  and  C8_13 
REMARK    9  A    between atoms: C8_13  and  C9_14 
REMARK   10  A    between atoms: C9_14  and  C10_15 
REMARK   11  A    between atoms: C10_15  and  C11_16 
REMARK   12  A    between atoms: C16_26  and  N5_27 
REMARK   13  A    between atoms: N7_33  and  N8_35 
ROOT
HETATM    1  C11 UNL     1      59.883  41.896  11.227  1.00  0.00     0.026 A 
HETATM    2  N2  UNL     1      59.956  40.536  11.008  1.00  0.00    -0.350 N 
ATOM      3  H2  UNL     1      59.802  40.207  10.055  1.00  0.00     0.166 HD
HETATM    4  C12 UNL     1      60.210  39.626  11.927  1.00  0.00     0.116 A 
HETATM    5  C13 UNL     1      60.256  38.244  11.557  1.00  0.00     0.117 C 
HETATM    6  N3  UNL     1      60.299  37.110  11.275  1.00  0.00    -0.190 NA
HETATM    7  C14 UNL     1      60.429  39.961  13.231  1.00  0.00     0.072 A 
HETATM    8  C15 UNL     1      60.375  41.305  13.536  1.00  0.00     0.068 A 
HETATM    9  N4  UNL     1      60.597  41.731  14.789  1.00  0.00    -0.191 N 
ATOM     10  H4  UNL     1      60.793  41.049  15.522  1.00  0.00     0.184 HD
HETATM   11  C16 UNL     1      60.566  43.044  15.095  1.00  0.00     0.678 A 
HETATM   12  N6  UNL     1      60.313  43.978  14.159  1.00  0.00    -0.175 N 
ATOM     13  H6  UNL     1      60.296  44.966  14.412  1.00  0.00     0.186 HD
HETATM   14  C17 UNL     1      60.078  43.595  12.867  1.00  0.00     0.149 A 
HETATM   15  N7  UNL     1      59.876  44.491  11.987  1.00  0.00    -0.291 N 
ATOM     16  H7  UNL     1      59.701  44.205  11.023  1.00  0.00     0.188 HD
HETATM   17  C18 UNL     1      60.103  42.267  12.541  1.00  0.00     0.060 A 
ENDROOT
BRANCH   1  18
HETATM   18  C10 UNL     1      59.510  42.758  10.136  1.00  0.00     0.059 C 
BRANCH  18  19
HETATM   19  C9  UNL     1      60.191  42.501   8.804  1.00  0.00     0.026 C 
BRANCH  19  20
HETATM   20  C8  UNL     1      59.464  41.415   8.047  1.00  0.00     0.132 C 
BRANCH  20  21
HETATM   21  N1  UNL     1      59.149  41.889   6.737  1.00  0.00    -0.320 N 
ATOM     22  H1  UNL     1      59.777  42.495   6.209  1.00  0.00     0.172 HD
BRANCH  21  23
HETATM   23  S1  UNL     1      57.652  41.368   6.122  1.00  0.00     0.226 S 
HETATM   24  O1  UNL     1      57.630  39.870   6.019  1.00  0.00    -0.206 OA
HETATM   25  O2  UNL     1      56.528  41.766   7.060  1.00  0.00    -0.206 OA
BRANCH  23  26
HETATM   26  C7  UNL     1      57.296  42.009   4.508  1.00  0.00     0.163 C 
BRANCH  26  27
HETATM   27  C6  UNL     1      55.827  41.663   4.231  1.00  0.00     0.017 C 
BRANCH  27  28
HETATM   28  C5  UNL     1      55.751  40.984   2.902  1.00  0.00     0.001 C 
BRANCH  28  29
HETATM   29  C4  UNL     1      56.871  41.372   1.987  1.00  0.00     0.000 C 
BRANCH  29  30
HETATM   30  C3  UNL     1      56.374  41.761   0.608  1.00  0.00    -0.000 C 
BRANCH  30  31
HETATM   31  C2  UNL     1      55.310  42.858   0.725  1.00  0.00    -0.005 C 
HETATM   32  C1  UNL     1      55.942  44.115   1.316  1.00  0.00     0.005 C 
ENDBRANCH  30  31
ENDBRANCH  29  30
ENDBRANCH  28  29
ENDBRANCH  27  28
ENDBRANCH  26  27
ENDBRANCH  23  26
ENDBRANCH  21  23
ENDBRANCH  20  21
ENDBRANCH  19  20
ENDBRANCH  18  19
ENDBRANCH   1  18
BRANCH  11  33
HETATM   33  N5  UNL     1      60.779  43.454  16.304  1.00  0.00    -0.234 N 
ATOM     34  H52 UNL     1      59.964  43.689  16.870  1.00  0.00     0.174 HD
ATOM     35  H51 UNL     1      61.727  43.538  16.672  1.00  0.00     0.174 HD
ENDBRANCH  11  33
BRANCH  15  36
HETATM   36  N8  UNL     1      59.884  45.840  12.291  1.00  0.00    -0.344 N 
ATOM     37  H82 UNL     1      60.525  46.160  13.016  1.00  0.00     0.176 HD
ATOM     38  H81 UNL     1      59.278  46.509  11.817  1.00  0.00     0.176 HD
ENDBRANCH  15  36
TORSDOF 13
ENDMDL
MODEL 4
REMARK VINA RESULT: -7.494135623      3.900      6.463
REMARK  13 active torsions:
REMARK  status: ('A' for Active; 'I' for Inactive)
REMARK    1  A    between atoms: C2_2  and  C3_3 
REMARK    2  A    between atoms: C3_3  and  C4_4 
REMARK    3  A    between atoms: C4_4  and  C5_5 
REMARK    4  A    between atoms: C5_5  and  C6_6 
REMARK    5  A    between atoms: C6_6  and  C7_7 
REMARK    6  A    between atoms: C7_7  and  S1_8 
REMARK    7  A    between atoms: S1_8  and  N1_11 
REMARK    8  A    between atoms: N1_11  and  C8_13 
REMARK    9  A    between atoms: C8_13  and  C9_14 
REMARK   10  A    between atoms: C9_14  and  C10_15 
REMARK   11  A    between atoms: C10_15  and  C11_16 
REMARK   12  A    between atoms: C16_26  and  N5_27 
REMARK   13  A    between atoms: N7_33  and  N8_35 
ROOT
HETATM    1  C11 UNL     1      59.909  41.713  11.085  1.00  0.00     0.026 A 
HETATM    2  N2  UNL     1      59.901  40.351  10.872  1.00  0.00    -0.350 N 
ATOM      3  H2  UNL     1      59.740  40.028   9.918  1.00  0.00     0.166 HD
HETATM    4  C12 UNL     1      60.083  39.430  11.797  1.00  0.00     0.116 A 
HETATM    5  C13 UNL     1      60.048  38.046  11.433  1.00  0.00     0.117 C 
HETATM    6  N3  UNL     1      60.024  36.911  11.155  1.00  0.00    -0.190 NA
HETATM    7  C14 UNL     1      60.305  39.756  13.103  1.00  0.00     0.072 A 
HETATM    8  C15 UNL     1      60.331  41.103  13.403  1.00  0.00     0.068 A 
HETATM    9  N4  UNL     1      60.561  41.519  14.657  1.00  0.00    -0.191 N 
ATOM     10  H4  UNL     1      60.704  40.829  15.396  1.00  0.00     0.184 HD
HETATM   11  C16 UNL     1      60.608  42.832  14.959  1.00  0.00     0.678 A 
HETATM   12  N6  UNL     1      60.427  43.777  14.016  1.00  0.00    -0.175 N 
ATOM     13  H6  UNL     1      60.468  44.765  14.266  1.00  0.00     0.186 HD
HETATM   14  C17 UNL     1      60.187  43.404  12.722  1.00  0.00     0.149 A 
HETATM   15  N7  UNL     1      60.054  44.307  11.836  1.00  0.00    -0.291 N 
ATOM     16  H7  UNL     1      59.875  44.028  10.871  1.00  0.00     0.188 HD
HETATM   17  C18 UNL     1      60.134  42.075  12.401  1.00  0.00     0.060 A 
ENDROOT
BRANCH   1  18
HETATM   18  C10 UNL     1      59.607  42.593   9.986  1.00  0.00     0.059 C 
BRANCH  18  19
HETATM   19  C9  UNL     1      59.961  42.091   8.598  1.00  0.00     0.026 C 
BRANCH  19  20
HETATM   20  C8  UNL     1      58.707  41.896   7.778  1.00  0.00     0.132 C 
BRANCH  20  21
HETATM   21  N1  UNL     1      58.904  40.809   6.874  1.00  0.00    -0.320 N 
ATOM     22  H1  UNL     1      59.263  40.942   5.928  1.00  0.00     0.172 HD
BRANCH  21  23
HETATM   23  S1  UNL     1      58.499  39.276   7.488  1.00  0.00     0.226 S 
HETATM   24  O1  UNL     1      57.709  39.423   8.758  1.00  0.00    -0.206 OA
HETATM   25  O2  UNL     1      57.623  38.526   6.502  1.00  0.00    -0.206 OA
BRANCH  23  26
HETATM   26  C7  UNL     1      59.913  38.275   7.864  1.00  0.00     0.163 C 
BRANCH  26  27
HETATM   27  C6  UNL     1      60.174  37.427   6.612  1.00  0.00     0.017 C 
BRANCH  27  28
HETATM   28  C5  UNL     1      61.072  36.296   6.995  1.00  0.00     0.001 C 
BRANCH  28  29
HETATM   29  C4  UNL     1      61.959  36.626   8.156  1.00  0.00     0.000 C 
BRANCH  29  30
HETATM   30  C3  UNL     1      63.216  35.778   8.173  1.00  0.00    -0.000 C 
BRANCH  30  31
HETATM   31  C2  UNL     1      64.091  36.163   9.372  1.00  0.00    -0.005 C 
HETATM   32  C1  UNL     1      63.514  37.408  10.040  1.00  0.00     0.005 C 
ENDBRANCH  30  31
ENDBRANCH  29  30
ENDBRANCH  28  29
ENDBRANCH  27  28
ENDBRANCH  26  27
ENDBRANCH  23  26
ENDBRANCH  21  23
ENDBRANCH  20  21
ENDBRANCH  19  20
ENDBRANCH  18  19
ENDBRANCH   1  18
BRANCH  11  33
HETATM   33  N5  UNL     1      60.829  43.233  16.169  1.00  0.00    -0.234 N 
ATOM     34  H52 UNL     1      61.717  42.970  16.596  1.00  0.00     0.174 HD
ATOM     35  H51 UNL     1      60.139  43.791  16.674  1.00  0.00     0.174 HD
ENDBRANCH  11  33
BRANCH  15  36
HETATM   36  N8  UNL     1      60.143  45.654  12.136  1.00  0.00    -0.344 N 
ATOM     37  H82 UNL     1      60.342  45.915  13.101  1.00  0.00     0.176 HD
ATOM     38  H81 UNL     1      60.016  46.379  11.429  1.00  0.00     0.176 HD
ENDBRANCH  15  36
TORSDOF 13
ENDMDL
MODEL 5
REMARK VINA RESULT: -7.471217372      1.659      2.323
REMARK  13 active torsions:
REMARK  status: ('A' for Active; 'I' for Inactive)
REMARK    1  A    between atoms: C2_2  and  C3_3 
REMARK    2  A    between atoms: C3_3  and  C4_4 
REMARK    3  A    between atoms: C4_4  and  C5_5 
REMARK    4  A    between atoms: C5_5  and  C6_6 
REMARK    5  A    between atoms: C6_6  and  C7_7 
REMARK    6  A    between atoms: C7_7  and  S1_8 
REMARK    7  A    between atoms: S1_8  and  N1_11 
REMARK    8  A    between atoms: N1_11  and  C8_13 
REMARK    9  A    between atoms: C8_13  and  C9_14 
REMARK   10  A    between atoms: C9_14  and  C10_15 
REMARK   11  A    between atoms: C10_15  and  C11_16 
REMARK   12  A    between atoms: C16_26  and  N5_27 
REMARK   13  A    between atoms: N7_33  and  N8_35 
ROOT
HETATM    1  C11 UNL     1      59.347  41.305   8.806  1.00  0.00     0.026 A 
HETATM    2  N2  UNL     1      59.294  42.467   9.545  1.00  0.00    -0.350 N 
ATOM      3  H2  UNL     1      59.018  43.319   9.057  1.00  0.00     0.166 HD
HETATM    4  C12 UNL     1      59.570  42.571  10.830  1.00  0.00     0.116 A 
HETATM    5  C13 UNL     1      59.473  43.847  11.472  1.00  0.00     0.117 C 
HETATM    6  N3  UNL     1      59.399  44.880  12.014  1.00  0.00    -0.190 NA
HETATM    7  C14 UNL     1      59.949  41.493  11.574  1.00  0.00     0.072 A 
HETATM    8  C15 UNL     1      60.026  40.286  10.910  1.00  0.00     0.068 A 
HETATM    9  N4  UNL     1      60.372  39.167  11.564  1.00  0.00    -0.191 N 
ATOM     10  H4  UNL     1      60.593  39.216  12.559  1.00  0.00     0.184 HD
HETATM   11  C16 UNL     1      60.431  37.979  10.929  1.00  0.00     0.678 A 
HETATM   12  N6  UNL     1      60.146  37.866   9.618  1.00  0.00    -0.175 N 
ATOM     13  H6  UNL     1      60.195  36.957   9.159  1.00  0.00     0.186 HD
HETATM   14  C17 UNL     1      59.789  38.979   8.906  1.00  0.00     0.149 A 
HETATM   15  N7  UNL     1      59.487  38.852   7.677  1.00  0.00    -0.291 N 
ATOM     16  H7  UNL     1      59.221  39.681   7.146  1.00  0.00     0.188 HD
HETATM   17  C18 UNL     1      59.727  40.192   9.534  1.00  0.00     0.060 A 
ENDROOT
BRANCH   1  18
HETATM   18  C10 UNL     1      59.100  41.368   7.389  1.00  0.00     0.059 C 
BRANCH  18  19
HETATM   19  C9  UNL     1      57.692  41.734   6.960  1.00  0.00     0.026 C 
BRANCH  19  20
HETATM   20  C8  UNL     1      57.318  40.987   5.702  1.00  0.00     0.132 C 
BRANCH  20  21
HETATM   21  N1  UNL     1      57.396  41.878   4.589  1.00  0.00    -0.320 N 
ATOM     22  H1  UNL     1      58.241  42.405   4.367  1.00  0.00     0.172 HD
BRANCH  21  23
HETATM   23  S1  UNL     1      55.978  41.996   3.657  1.00  0.00     0.226 S 
HETATM   24  O1  UNL     1      54.797  42.255   4.549  1.00  0.00    -0.206 OA
HETATM   25  O2  UNL     1      56.074  43.163   2.693  1.00  0.00    -0.206 OA
BRANCH  23  26
HETATM   26  C7  UNL     1      55.623  40.526   2.732  1.00  0.00     0.163 C 
BRANCH  26  27
HETATM   27  C6  UNL     1      54.469  39.832   3.469  1.00  0.00     0.017 C 
BRANCH  27  28
HETATM   28  C5  UNL     1      53.981  38.707   2.615  1.00  0.00     0.001 C 
BRANCH  28  29
HETATM   29  C4  UNL     1      54.958  38.322   1.548  1.00  0.00     0.000 C 
BRANCH  29  30
HETATM   30  C3  UNL     1      54.864  36.851   1.191  1.00  0.00    -0.000 C 
BRANCH  30  31
HETATM   31  C2  UNL     1      53.407  36.382   1.281  1.00  0.00    -0.005 C 
HETATM   32  C1  UNL     1      53.189  35.222   0.314  1.00  0.00     0.005 C 
ENDBRANCH  30  31
ENDBRANCH  29  30
ENDBRANCH  28  29
ENDBRANCH  27  28
ENDBRANCH  26  27
ENDBRANCH  23  26
ENDBRANCH  21  23
ENDBRANCH  20  21
ENDBRANCH  19  20
ENDBRANCH  18  19
ENDBRANCH   1  18
BRANCH  11  33
HETATM   33  N5  UNL     1      60.766  36.900  11.560  1.00  0.00    -0.234 N 
ATOM     34  H52 UNL     1      61.762  36.729  11.701  1.00  0.00     0.174 HD
ATOM     35  H51 UNL     1      60.060  36.247  11.901  1.00  0.00     0.174 HD
ENDBRANCH  11  33
BRANCH  15  36
HETATM   36  N8  UNL     1      59.507  37.627   7.034  1.00  0.00    -0.344 N 
ATOM     37  H82 UNL     1      60.148  37.512   6.249  1.00  0.00     0.176 HD
ATOM     38  H81 UNL     1      58.909  36.852   7.320  1.00  0.00     0.176 HD
ENDBRANCH  15  36
TORSDOF 13
ENDMDL
