MODEL 1
REMARK VINA RESULT: -7.030841909      0.000      0.000
REMARK  17 active torsions:
REMARK  status: ('A' for Active; 'I' for Inactive)
REMARK    1  A    between atoms: C2_2  and  C3_3 
REMARK    2  A    between atoms: C3_3  and  C4_4 
REMARK    3  A    between atoms: C4_4  and  C5_5 
REMARK    4  A    between atoms: C5_5  and  C6_6 
REMARK    5  A    between atoms: C6_6  and  C7_7 
REMARK    6  A    between atoms: C7_7  and  C8_8 
REMARK    7  A    between atoms: C8_8  and  C9_9 
REMARK    8  A    between atoms: C9_9  and  C10_10 
REMARK    9  A    between atoms: C10_10  and  C11_11 
REMARK   10  A    between atoms: C12_12  and  C13_13 
REMARK   11  A    between atoms: N1_15  and  C15_16 
REMARK   12  A    between atoms: C16_18  and  C17_19 
REMARK   13  A    between atoms: C17_19  and  O2_20 
REMARK   14  A    between atoms: C18_22  and  O3_23 
REMARK   15  A    between atoms: C19_25  and  O4_26 
REMARK   16  A    between atoms: C20_28  and  N2_29 
REMARK   17  A    between atoms: C22_34  and  N4_35 
ROOT
HETATM    1  C13 UNL     1      57.014  40.498   5.531  1.00  0.00     0.078 A 
HETATM    2  C14 UNL     1      55.974  39.918   4.840  1.00  0.00     0.136 A 
HETATM    3  N1  UNL     1      55.467  40.488   3.748  1.00  0.00    -0.162 N 
HETATM    4  C20 UNL     1      55.950  41.646   3.282  1.00  0.00     0.683 A 
HETATM    5  N3  UNL     1      56.965  42.246   3.926  1.00  0.00    -0.175 N 
ATOM      6  H3  UNL     1      57.338  43.129   3.576  1.00  0.00     0.186 HD
HETATM    7  C22 UNL     1      57.486  41.691   5.022  1.00  0.00     0.135 A 
ENDROOT
BRANCH   1   8
HETATM    8  C12 UNL     1      57.548  39.882   6.694  1.00  0.00    -0.062 C 
HETATM    9  C11 UNL     1      57.995  39.372   7.691  1.00  0.00    -0.101 C 
BRANCH   9  10
HETATM   10  C10 UNL     1      58.554  38.767   8.881  1.00  0.00     0.094 C 
BRANCH  10  11
HETATM   11  C9  UNL     1      59.812  39.477   9.343  1.00  0.00     0.012 C 
BRANCH  11  12
HETATM   12  C8  UNL     1      59.547  40.890   9.780  1.00  0.00     0.001 C 
BRANCH  12  13
HETATM   13  C7  UNL     1      60.379  41.894   9.017  1.00  0.00     0.000 C 
BRANCH  13  14
HETATM   14  C6  UNL     1      60.531  43.155   9.836  1.00  0.00     0.000 C 
BRANCH  14  15
HETATM   15  C5  UNL     1      59.324  43.229  10.799  1.00  0.00     0.000 C 
BRANCH  15  16
HETATM   16  C4  UNL     1      59.787  44.065  11.947  1.00  0.00     0.000 C 
BRANCH  16  17
HETATM   17  C3  UNL     1      60.345  43.402  13.136  1.00  0.00    -0.000 C 
BRANCH  17  18
HETATM   18  C2  UNL     1      60.248  41.936  13.286  1.00  0.00    -0.005 C 
HETATM   19  C1  UNL     1      61.507  41.209  12.977  1.00  0.00     0.005 C 
ENDBRANCH  17  18
ENDBRANCH  16  17
ENDBRANCH  15  16
ENDBRANCH  14  15
ENDBRANCH  13  14
ENDBRANCH  12  13
ENDBRANCH  11  12
ENDBRANCH  10  11
ENDBRANCH   9  10
ENDBRANCH   1   8
BRANCH   7  20
HETATM   20  N4  UNL     1      58.458  42.260   5.644  1.00  0.00    -0.384 N 
ATOM     21  H42 UNL     1      59.422  41.975   5.471  1.00  0.00     0.157 HD
ATOM     22  H41 UNL     1      58.224  42.996   6.310  1.00  0.00     0.157 HD
ENDBRANCH   7  20
BRANCH   3  23
HETATM   23  C15 UNL     1      54.374  39.849   3.049  1.00  0.00     0.277 C 
HETATM   24  O1  UNL     1      54.861  39.229   1.920  1.00  0.00    -0.353 OA
HETATM   25  C16 UNL     1      55.039  37.883   2.135  1.00  0.00     0.179 C 
HETATM   26  C18 UNL     1      54.574  37.568   3.535  1.00  0.00     0.182 C 
HETATM   27  C19 UNL     1      53.687  38.770   3.808  1.00  0.00     0.199 C 
BRANCH  25  28
HETATM   28  C17 UNL     1      54.262  37.064   1.106  1.00  0.00     0.198 C 
BRANCH  28  29
HETATM   29  O2  UNL     1      54.838  35.802   0.988  1.00  0.00    -0.398 OA
ATOM     30  H2  UNL     1      54.167  35.137   1.091  1.00  0.00     0.209 HD
ENDBRANCH  28  29
ENDBRANCH  25  28
BRANCH  26  31
HETATM   31  O3  UNL     1      53.836  36.403   3.603  1.00  0.00    -0.390 OA
ATOM     32  H3  UNL     1      54.176  35.790   4.244  1.00  0.00     0.210 HD
ENDBRANCH  26  31
BRANCH  27  33
HETATM   33  O4  UNL     1      52.451  38.533   3.162  1.00  0.00    -0.388 OA
ATOM     34  H4  UNL     1      51.925  39.316   3.273  1.00  0.00     0.210 HD
ENDBRANCH  27  33
ENDBRANCH   3  23
BRANCH   4  35
HETATM   35  N2  UNL     1      55.464  42.211   2.210  1.00  0.00    -0.230 N 
HETATM   36  C21 UNL     1      55.910  43.491   1.746  1.00  0.00     0.165 C 
ATOM     37  H2  UNL     1      54.739  41.724   1.684  1.00  0.00     0.177 HD
ENDBRANCH   4  35
TORSDOF 17
ENDMDL
MODEL 2
REMARK VINA RESULT: -6.995920540      0.703      1.676
REMARK  17 active torsions:
REMARK  status: ('A' for Active; 'I' for Inactive)
REMARK    1  A    between atoms: C2_2  and  C3_3 
REMARK    2  A    between atoms: C3_3  and  C4_4 
REMARK    3  A    between atoms: C4_4  and  C5_5 
REMARK    4  A    between atoms: C5_5  and  C6_6 
REMARK    5  A    between atoms: C6_6  and  C7_7 
REMARK    6  A    between atoms: C7_7  and  C8_8 
REMARK    7  A    between atoms: C8_8  and  C9_9 
REMARK    8  A    between atoms: C9_9  and  C10_10 
REMARK    9  A    between atoms: C10_10  and  C11_11 
REMARK   10  A    between atoms: C12_12  and  C13_13 
REMARK   11  A    between atoms: N1_15  and  C15_16 
REMARK   12  A    between atoms: C16_18  and  C17_19 
REMARK   13  A    between atoms: C17_19  and  O2_20 
REMARK   14  A    between atoms: C18_22  and  O3_23 
REMARK   15  A    between atoms: C19_25  and  O4_26 
REMARK   16  A    between atoms: C20_28  and  N2_29 
REMARK   17  A    between atoms: C22_34  and  N4_35 
ROOT
HETATM    1  C13 UNL     1      56.999  40.540   5.547  1.00  0.00     0.078 A 
HETATM    2  C14 UNL     1      55.959  39.948   4.866  1.00  0.00     0.136 A 
HETATM    3  N1  UNL     1      55.448  40.503   3.768  1.00  0.00    -0.162 N 
HETATM    4  C20 UNL     1      55.928  41.655   3.286  1.00  0.00     0.683 A 
HETATM    5  N3  UNL     1      56.942  42.266   3.919  1.00  0.00    -0.175 N 
ATOM      6  H3  UNL     1      57.313  43.145   3.556  1.00  0.00     0.186 HD
HETATM    7  C22 UNL     1      57.467  41.727   5.021  1.00  0.00     0.135 A 
ENDROOT
BRANCH   1   8
HETATM    8  C12 UNL     1      57.536  39.941   6.717  1.00  0.00    -0.062 C 
HETATM    9  C11 UNL     1      57.978  39.424   7.714  1.00  0.00    -0.101 C 
BRANCH   9  10
HETATM   10  C10 UNL     1      58.504  38.825   8.921  1.00  0.00     0.094 C 
BRANCH  10  11
HETATM   11  C9  UNL     1      59.937  38.359   8.749  1.00  0.00     0.012 C 
BRANCH  11  12
HETATM   12  C8  UNL     1      60.866  38.977   9.756  1.00  0.00     0.001 C 
BRANCH  12  13
HETATM   13  C7  UNL     1      60.177  39.277  11.067  1.00  0.00     0.000 C 
BRANCH  13  14
HETATM   14  C6  UNL     1      61.059  40.168  11.911  1.00  0.00     0.000 C 
BRANCH  14  15
HETATM   15  C5  UNL     1      60.152  41.250  12.543  1.00  0.00     0.000 C 
BRANCH  15  16
HETATM   16  C4  UNL     1      60.480  42.511  11.813  1.00  0.00     0.000 C 
BRANCH  16  17
HETATM   17  C3  UNL     1      59.477  43.096  10.908  1.00  0.00    -0.000 C 
BRANCH  17  18
HETATM   18  C2  UNL     1      59.201  42.471   9.599  1.00  0.00    -0.005 C 
HETATM   19  C1  UNL     1      60.371  42.439   8.683  1.00  0.00     0.005 C 
ENDBRANCH  17  18
ENDBRANCH  16  17
ENDBRANCH  15  16
ENDBRANCH  14  15
ENDBRANCH  13  14
ENDBRANCH  12  13
ENDBRANCH  11  12
ENDBRANCH  10  11
ENDBRANCH   9  10
ENDBRANCH   1   8
BRANCH   7  20
HETATM   20  N4  UNL     1      58.439  42.306   5.634  1.00  0.00    -0.384 N 
ATOM     21  H42 UNL     1      59.154  41.755   6.109  1.00  0.00     0.157 HD
ATOM     22  H41 UNL     1      58.461  43.325   5.623  1.00  0.00     0.157 HD
ENDBRANCH   7  20
BRANCH   3  23
HETATM   23  C15 UNL     1      54.355  39.851   3.080  1.00  0.00     0.277 C 
HETATM   24  O1  UNL     1      54.836  39.240   1.944  1.00  0.00    -0.353 OA
HETATM   25  C16 UNL     1      55.033  37.896   2.155  1.00  0.00     0.179 C 
HETATM   26  C18 UNL     1      54.587  37.572   3.559  1.00  0.00     0.182 C 
HETATM   27  C19 UNL     1      53.690  38.763   3.844  1.00  0.00     0.199 C 
BRANCH  25  28
HETATM   28  C17 UNL     1      54.254  37.069   1.133  1.00  0.00     0.198 C 
BRANCH  28  29
HETATM   29  O2  UNL     1      54.853  35.820   0.994  1.00  0.00    -0.398 OA
ATOM     30  H2  UNL     1      55.731  35.926   0.646  1.00  0.00     0.209 HD
ENDBRANCH  28  29
ENDBRANCH  25  28
BRANCH  26  31
HETATM   31  O3  UNL     1      53.865  36.398   3.633  1.00  0.00    -0.390 OA
ATOM     32  H3  UNL     1      53.938  35.974   4.480  1.00  0.00     0.210 HD
ENDBRANCH  26  31
BRANCH  27  33
HETATM   33  O4  UNL     1      52.449  38.512   3.212  1.00  0.00    -0.388 OA
ATOM     34  H4  UNL     1      51.786  38.510   3.892  1.00  0.00     0.210 HD
ENDBRANCH  27  33
ENDBRANCH   3  23
BRANCH   4  35
HETATM   35  N2  UNL     1      55.438  42.205   2.207  1.00  0.00    -0.230 N 
HETATM   36  C21 UNL     1      55.825  43.511   1.766  1.00  0.00     0.165 C 
ATOM     37  H2  UNL     1      54.753  41.685   1.659  1.00  0.00     0.177 HD
ENDBRANCH   4  35
TORSDOF 17
ENDMDL
MODEL 3
REMARK VINA RESULT: -6.682567631      0.978      1.884
REMARK  17 active torsions:
REMARK  status: ('A' for Active; 'I' for Inactive)
REMARK    1  A    between atoms: C2_2  and  C3_3 
REMARK    2  A    between atoms: C3_3  and  C4_4 
REMARK    3  A    between atoms: C4_4  and  C5_5 
REMARK    4  A    between atoms: C5_5  and  C6_6 
REMARK    5  A    between atoms: C6_6  and  C7_7 
REMARK    6  A    between atoms: C7_7  and  C8_8 
REMARK    7  A    between atoms: C8_8  and  C9_9 
REMARK    8  A    between atoms: C9_9  and  C10_10 
REMARK    9  A    between atoms: C10_10  and  C11_11 
REMARK   10  A    between atoms: C12_12  and  C13_13 
REMARK   11  A    between atoms: N1_15  and  C15_16 
REMARK   12  A    between atoms: C16_18  and  C17_19 
REMARK   13  A    between atoms: C17_19  and  O2_20 
REMARK   14  A    between atoms: C18_22  and  O3_23 
REMARK   15  A    between atoms: C19_25  and  O4_26 
REMARK   16  A    between atoms: C20_28  and  N2_29 
REMARK   17  A    between atoms: C22_34  and  N4_35 
ROOT
HETATM    1  C13 UNL     1      56.965  40.449   5.502  1.00  0.00     0.078 A 
HETATM    2  C14 UNL     1      55.925  39.866   4.813  1.00  0.00     0.136 A 
HETATM    3  N1  UNL     1      55.404  40.443   3.732  1.00  0.00    -0.162 N 
HETATM    4  C20 UNL     1      55.872  41.610   3.275  1.00  0.00     0.683 A 
HETATM    5  N3  UNL     1      56.886  42.214   3.917  1.00  0.00    -0.175 N 
ATOM      6  H3  UNL     1      57.248  43.103   3.573  1.00  0.00     0.186 HD
HETATM    7  C22 UNL     1      57.421  41.651   5.002  1.00  0.00     0.135 A 
ENDROOT
BRANCH   1   8
HETATM    8  C12 UNL     1      57.514  39.826   6.654  1.00  0.00    -0.062 C 
HETATM    9  C11 UNL     1      57.990  39.289   7.623  1.00  0.00    -0.101 C 
BRANCH   9  10
HETATM   10  C10 UNL     1      58.544  38.628   8.786  1.00  0.00     0.094 C 
BRANCH  10  11
HETATM   11  C9  UNL     1      59.874  37.964   8.484  1.00  0.00     0.012 C 
BRANCH  11  12
HETATM   12  C8  UNL     1      60.667  37.676   9.727  1.00  0.00     0.001 C 
BRANCH  12  13
HETATM   13  C7  UNL     1      62.027  38.335   9.707  1.00  0.00     0.000 C 
BRANCH  13  14
HETATM   14  C6  UNL     1      61.927  39.722  10.297  1.00  0.00     0.000 C 
BRANCH  14  15
HETATM   15  C5  UNL     1      61.033  39.626  11.555  1.00  0.00     0.000 C 
BRANCH  15  16
HETATM   16  C4  UNL     1      60.183  40.854  11.527  1.00  0.00     0.000 C 
BRANCH  16  17
HETATM   17  C3  UNL     1      60.075  41.622  10.277  1.00  0.00    -0.000 C 
BRANCH  17  18
HETATM   18  C2  UNL     1      59.364  42.916  10.256  1.00  0.00    -0.005 C 
HETATM   19  C1  UNL     1      59.554  43.734  11.482  1.00  0.00     0.005 C 
ENDBRANCH  17  18
ENDBRANCH  16  17
ENDBRANCH  15  16
ENDBRANCH  14  15
ENDBRANCH  13  14
ENDBRANCH  12  13
ENDBRANCH  11  12
ENDBRANCH  10  11
ENDBRANCH   9  10
ENDBRANCH   1   8
BRANCH   7  20
HETATM   20  N4  UNL     1      58.393  42.223   5.623  1.00  0.00    -0.384 N 
ATOM     21  H42 UNL     1      59.169  41.673   5.989  1.00  0.00     0.157 HD
ATOM     22  H41 UNL     1      58.351  43.236   5.731  1.00  0.00     0.157 HD
ENDBRANCH   7  20
BRANCH   3  23
HETATM   23  C15 UNL     1      54.311  39.800   3.035  1.00  0.00     0.277 C 
HETATM   24  O1  UNL     1      54.796  39.190   1.900  1.00  0.00    -0.353 OA
HETATM   25  C16 UNL     1      54.984  37.844   2.107  1.00  0.00     0.179 C 
HETATM   26  C18 UNL     1      54.528  37.518   3.507  1.00  0.00     0.182 C 
HETATM   27  C19 UNL     1      53.635  38.713   3.791  1.00  0.00     0.199 C 
BRANCH  25  28
HETATM   28  C17 UNL     1      54.207  37.025   1.077  1.00  0.00     0.198 C 
BRANCH  28  29
HETATM   29  O2  UNL     1      54.778  35.761   0.963  1.00  0.00    -0.398 OA
ATOM     30  H2  UNL     1      54.307  35.259   0.308  1.00  0.00     0.209 HD
ENDBRANCH  28  29
ENDBRANCH  25  28
BRANCH  26  31
HETATM   31  O3  UNL     1      53.798  36.348   3.572  1.00  0.00    -0.390 OA
ATOM     32  H3  UNL     1      52.861  36.496   3.514  1.00  0.00     0.210 HD
ENDBRANCH  26  31
BRANCH  27  33
HETATM   33  O4  UNL     1      52.397  38.472   3.150  1.00  0.00    -0.388 OA
ATOM     34  H4  UNL     1      51.827  38.063   3.791  1.00  0.00     0.210 HD
ENDBRANCH  27  33
ENDBRANCH   3  23
BRANCH   4  35
HETATM   35  N2  UNL     1      55.371  42.182   2.213  1.00  0.00    -0.230 N 
HETATM   36  C21 UNL     1      55.759  43.495   1.792  1.00  0.00     0.165 C 
ATOM     37  H2  UNL     1      54.678  41.676   1.663  1.00  0.00     0.177 HD
ENDBRANCH   4  35
TORSDOF 17
ENDMDL
MODEL 4
REMARK VINA RESULT: -6.573526701      4.764      7.628
REMARK  17 active torsions:
REMARK  status: ('A' for Active; 'I' for Inactive)
REMARK    1  A    between atoms: C2_2  and  C3_3 
REMARK    2  A    between atoms: C3_3  and  C4_4 
REMARK    3  A    between atoms: C4_4  and  C5_5 
REMARK    4  A    between atoms: C5_5  and  C6_6 
REMARK    5  A    between atoms: C6_6  and  C7_7 
REMARK    6  A    between atoms: C7_7  and  C8_8 
REMARK    7  A    between atoms: C8_8  and  C9_9 
REMARK    8  A    between atoms: C9_9  and  C10_10 
REMARK    9  A    between atoms: C10_10  and  C11_11 
REMARK   10  A    between atoms: C12_12  and  C13_13 
REMARK   11  A    between atoms: N1_15  and  C15_16 
REMARK   12  A    between atoms: C16_18  and  C17_19 
REMARK   13  A    between atoms: C17_19  and  O2_20 
REMARK   14  A    between atoms: C18_22  and  O3_23 
REMARK   15  A    between atoms: C19_25  and  O4_26 
REMARK   16  A    between atoms: C20_28  and  N2_29 
REMARK   17  A    between atoms: C22_34  and  N4_35 
ROOT
HETATM    1  C13 UNL     1      62.245  39.520  10.621  1.00  0.00     0.078 A 
HETATM    2  C14 UNL     1      61.026  39.497   9.983  1.00  0.00     0.136 A 
HETATM    3  N1  UNL     1      60.136  40.473  10.159  1.00  0.00    -0.162 N 
HETATM    4  C20 UNL     1      60.395  41.512  10.962  1.00  0.00     0.683 A 
HETATM    5  N3  UNL     1      61.573  41.574  11.604  1.00  0.00    -0.175 N 
ATOM      6  H3  UNL     1      61.778  42.363  12.217  1.00  0.00     0.186 HD
HETATM    7  C22 UNL     1      62.477  40.606  11.441  1.00  0.00     0.135 A 
ENDROOT
BRANCH   1   8
HETATM    8  C12 UNL     1      63.187  38.475  10.427  1.00  0.00    -0.062 C 
HETATM    9  C11 UNL     1      63.986  37.589  10.247  1.00  0.00    -0.101 C 
BRANCH   9  10
HETATM   10  C10 UNL     1      64.926  36.510  10.032  1.00  0.00     0.094 C 
BRANCH  10  11
HETATM   11  C9  UNL     1      64.241  35.244   9.556  1.00  0.00     0.012 C 
BRANCH  11  12
HETATM   12  C8  UNL     1      63.771  35.346   8.132  1.00  0.00     0.001 C 
BRANCH  12  13
HETATM   13  C7  UNL     1      62.295  35.054   7.991  1.00  0.00     0.000 C 
BRANCH  13  14
HETATM   14  C6  UNL     1      61.536  36.350   7.825  1.00  0.00     0.000 C 
BRANCH  14  15
HETATM   15  C5  UNL     1      60.176  36.184   8.541  1.00  0.00     0.000 C 
BRANCH  15  16
HETATM   16  C4  UNL     1      60.485  35.443   9.802  1.00  0.00     0.000 C 
BRANCH  16  17
HETATM   17  C3  UNL     1      60.288  36.119  11.094  1.00  0.00    -0.000 C 
BRANCH  17  18
HETATM   18  C2  UNL     1      58.997  36.760  11.411  1.00  0.00    -0.005 C 
HETATM   19  C1  UNL     1      59.059  37.732  12.533  1.00  0.00     0.005 C 
ENDBRANCH  17  18
ENDBRANCH  16  17
ENDBRANCH  15  16
ENDBRANCH  14  15
ENDBRANCH  13  14
ENDBRANCH  12  13
ENDBRANCH  11  12
ENDBRANCH  10  11
ENDBRANCH   9  10
ENDBRANCH   1   8
BRANCH   7  20
HETATM   20  N4  UNL     1      63.608  40.657  12.053  1.00  0.00    -0.384 N 
ATOM     21  H42 UNL     1      64.256  39.871  12.012  1.00  0.00     0.157 HD
ATOM     22  H41 UNL     1      63.823  41.507  12.573  1.00  0.00     0.157 HD
ENDBRANCH   7  20
BRANCH   3  23
HETATM   23  C15 UNL     1      58.865  40.414   9.471  1.00  0.00     0.277 C 
HETATM   24  O1  UNL     1      58.749  41.505   8.639  1.00  0.00    -0.353 OA
HETATM   25  C16 UNL     1      59.061  41.171   7.343  1.00  0.00     0.179 C 
HETATM   26  C18 UNL     1      59.363  39.694   7.300  1.00  0.00     0.182 C 
HETATM   27  C19 UNL     1      58.685  39.237   8.580  1.00  0.00     0.199 C 
BRANCH  25  28
HETATM   28  C17 UNL     1      57.906  41.517   6.404  1.00  0.00     0.198 C 
BRANCH  28  29
HETATM   29  O2  UNL     1      56.794  41.891   7.153  1.00  0.00    -0.398 OA
ATOM     30  H2  UNL     1      56.255  42.485   6.644  1.00  0.00     0.209 HD
ENDBRANCH  28  29
ENDBRANCH  25  28
BRANCH  26  31
HETATM   31  O3  UNL     1      58.800  39.065   6.209  1.00  0.00    -0.390 OA
ATOM     32  H3  UNL     1      58.664  38.135   6.350  1.00  0.00     0.210 HD
ENDBRANCH  26  31
BRANCH  27  33
HETATM   33  O4  UNL     1      57.301  39.134   8.306  1.00  0.00    -0.388 OA
ATOM     34  H4  UNL     1      57.207  38.540   7.570  1.00  0.00     0.210 HD
ENDBRANCH  27  33
ENDBRANCH   3  23
BRANCH   4  35
HETATM   35  N2  UNL     1      59.532  42.476  11.137  1.00  0.00    -0.230 N 
HETATM   36  C21 UNL     1      59.931  43.830  11.375  1.00  0.00     0.165 C 
ATOM     37  H2  UNL     1      58.537  42.256  11.105  1.00  0.00     0.177 HD
ENDBRANCH   4  35
TORSDOF 17
ENDMDL
MODEL 5
REMARK VINA RESULT: -6.489312359      1.963      3.532
REMARK  17 active torsions:
REMARK  status: ('A' for Active; 'I' for Inactive)
REMARK    1  A    between atoms: C2_2  and  C3_3 
REMARK    2  A    between atoms: C3_3  and  C4_4 
REMARK    3  A    between atoms: C4_4  and  C5_5 
REMARK    4  A    between atoms: C5_5  and  C6_6 
REMARK    5  A    between atoms: C6_6  and  C7_7 
REMARK    6  A    between atoms: C7_7  and  C8_8 
REMARK    7  A    between atoms: C8_8  and  C9_9 
REMARK    8  A    between atoms: C9_9  and  C10_10 
REMARK    9  A    between atoms: C10_10  and  C11_11 
REMARK   10  A    between atoms: C12_12  and  C13_13 
REMARK   11  A    between atoms: N1_15  and  C15_16 
REMARK   12  A    between atoms: C16_18  and  C17_19 
REMARK   13  A    between atoms: C17_19  and  O2_20 
REMARK   14  A    between atoms: C18_22  and  O3_23 
REMARK   15  A    between atoms: C19_25  and  O4_26 
REMARK   16  A    between atoms: C20_28  and  N2_29 
REMARK   17  A    between atoms: C22_34  and  N4_35 
ROOT
HETATM    1  C13 UNL     1      56.959  40.448   5.517  1.00  0.00     0.078 A 
HETATM    2  C14 UNL     1      55.921  39.872   4.820  1.00  0.00     0.136 A 
HETATM    3  N1  UNL     1      55.440  40.431   3.710  1.00  0.00    -0.162 N 
HETATM    4  C20 UNL     1      55.949  41.573   3.232  1.00  0.00     0.683 A 
HETATM    5  N3  UNL     1      56.962  42.169   3.882  1.00  0.00    -0.175 N 
ATOM      6  H3  UNL     1      57.355  43.039   3.522  1.00  0.00     0.186 HD
HETATM    7  C22 UNL     1      57.457  41.624   4.995  1.00  0.00     0.135 A 
ENDROOT
BRANCH   1   8
HETATM    8  C12 UNL     1      57.464  39.845   6.699  1.00  0.00    -0.062 C 
HETATM    9  C11 UNL     1      57.881  39.340   7.712  1.00  0.00    -0.101 C 
BRANCH   9  10
HETATM   10  C10 UNL     1      58.400  38.751   8.928  1.00  0.00     0.094 C 
BRANCH  10  11
HETATM   11  C9  UNL     1      59.369  39.675   9.640  1.00  0.00     0.012 C 
BRANCH  11  12
HETATM   12  C8  UNL     1      60.525  38.934  10.252  1.00  0.00     0.001 C 
BRANCH  12  13
HETATM   13  C7  UNL     1      61.839  39.655  10.056  1.00  0.00     0.000 C 
BRANCH  13  14
HETATM   14  C6  UNL     1      62.982  38.683  10.235  1.00  0.00     0.000 C 
BRANCH  14  15
HETATM   15  C5  UNL     1      62.395  37.256  10.130  1.00  0.00     0.000 C 
BRANCH  15  16
HETATM   16  C4  UNL     1      63.136  36.609   9.005  1.00  0.00     0.000 C 
BRANCH  16  17
HETATM   17  C3  UNL     1      62.374  36.019   7.892  1.00  0.00    -0.000 C 
BRANCH  17  18
HETATM   18  C2  UNL     1      61.190  36.714   7.350  1.00  0.00    -0.005 C 
HETATM   19  C1  UNL     1      59.977  35.862   7.251  1.00  0.00     0.005 C 
ENDBRANCH  17  18
ENDBRANCH  16  17
ENDBRANCH  15  16
ENDBRANCH  14  15
ENDBRANCH  13  14
ENDBRANCH  12  13
ENDBRANCH  11  12
ENDBRANCH  10  11
ENDBRANCH   9  10
ENDBRANCH   1   8
BRANCH   7  20
HETATM   20  N4  UNL     1      58.428  42.189   5.623  1.00  0.00    -0.384 N 
ATOM     21  H42 UNL     1      58.274  43.047   6.152  1.00  0.00     0.157 HD
ATOM     22  H41 UNL     1      59.345  41.746   5.568  1.00  0.00     0.157 HD
ENDBRANCH   7  20
BRANCH   3  23
HETATM   23  C15 UNL     1      54.349  39.796   3.004  1.00  0.00     0.277 C 
HETATM   24  O1  UNL     1      54.842  39.157   1.889  1.00  0.00    -0.353 OA
HETATM   25  C16 UNL     1      55.001  37.812   2.122  1.00  0.00     0.179 C 
HETATM   26  C18 UNL     1      54.514  37.519   3.519  1.00  0.00     0.182 C 
HETATM   27  C19 UNL     1      53.639  38.735   3.767  1.00  0.00     0.199 C 
BRANCH  25  28
HETATM   28  C17 UNL     1      54.228  36.990   1.093  1.00  0.00     0.198 C 
BRANCH  28  29
HETATM   29  O2  UNL     1      54.826  35.741   0.953  1.00  0.00    -0.398 OA
ATOM     30  H2  UNL     1      55.739  35.852   0.716  1.00  0.00     0.209 HD
ENDBRANCH  28  29
ENDBRANCH  25  28
BRANCH  26  31
HETATM   31  O3  UNL     1      53.762  36.364   3.592  1.00  0.00    -0.390 OA
ATOM     32  H3  UNL     1      52.827  36.532   3.569  1.00  0.00     0.210 HD
ENDBRANCH  26  31
BRANCH  27  33
HETATM   33  O4  UNL     1      52.409  38.505   3.108  1.00  0.00    -0.388 OA
ATOM     34  H4  UNL     1      52.247  39.257   2.551  1.00  0.00     0.210 HD
ENDBRANCH  27  33
ENDBRANCH   3  23
BRANCH   4  35
HETATM   35  N2  UNL     1      55.488  42.127   2.143  1.00  0.00    -0.230 N 
HETATM   36  C21 UNL     1      55.752  43.493   1.804  1.00  0.00     0.165 C 
ATOM     37  H2  UNL     1      54.920  41.565   1.509  1.00  0.00     0.177 HD
ENDBRANCH   4  35
TORSDOF 17
ENDMDL
