MODEL 1
REMARK VINA RESULT: -7.274579942      0.000      0.000
REMARK  15 active torsions:
REMARK  status: ('A' for Active; 'I' for Inactive)
REMARK    1  A    between atoms: C2_2  and  C3_3 
REMARK    2  A    between atoms: C3_3  and  N1_4 
REMARK    3  A    between atoms: N1_4  and  C4_6 
REMARK    4  A    between atoms: C5_9  and  N3_10 
REMARK    5  A    between atoms: N3_10  and  C6_12 
REMARK    6  A    between atoms: C6_12  and  C7_13 
REMARK    7  A    between atoms: C7_13  and  C8_14 
REMARK    8  A    between atoms: C8_14  and  C9_15 
REMARK    9  A    between atoms: C9_15  and  C10_16 
REMARK   10  A    between atoms: C10_16  and  C11_17 
REMARK   11  A    between atoms: C11_17  and  C12_18 
REMARK   12  A    between atoms: C16_26  and  N6_27 
REMARK   13  A    between atoms: N7_30  and  C17_31 
REMARK   14  A    between atoms: C19_36  and  C20_37 
REMARK   15  A    between atoms: C20_37  and  O1_38 
ROOT
HETATM    1  C4  UNL     1      59.890  42.015   8.585  1.00  0.00     0.152 A 
HETATM    2  N2  UNL     1      59.386  42.385   7.362  1.00  0.00    -0.174 N 
ATOM      3  H2  UNL     1      59.665  43.293   6.991  1.00  0.00     0.186 HD
HETATM    4  C5  UNL     1      58.561  41.648   6.628  1.00  0.00     0.681 A 
HETATM    5  N4  UNL     1      58.188  40.452   7.104  1.00  0.00    -0.173 N 
ATOM      6  H4  UNL     1      57.555  39.875   6.548  1.00  0.00     0.186 HD
HETATM    7  C14 UNL     1      58.619  39.986   8.289  1.00  0.00     0.172 A 
HETATM    8  C15 UNL     1      59.488  40.782   9.047  1.00  0.00     0.139 A 
HETATM    9  N5  UNL     1      59.747  40.076  10.160  1.00  0.00    -0.184 N 
ATOM     10  H5  UNL     1      60.353  40.382  10.922  1.00  0.00     0.184 HD
HETATM   11  C16 UNL     1      59.081  38.893  10.117  1.00  0.00     0.682 A 
HETATM   12  N7  UNL     1      58.402  38.844   8.988  1.00  0.00    -0.137 N 
ENDROOT
BRANCH   4  13
HETATM   13  N3  UNL     1      58.118  42.072   5.461  1.00  0.00    -0.226 N 
ATOM     14  H3  UNL     1      58.727  42.646   4.878  1.00  0.00     0.177 HD
BRANCH  13  15
HETATM   15  C6  UNL     1      56.807  41.749   4.990  1.00  0.00     0.138 C 
BRANCH  15  16
HETATM   16  C7  UNL     1      56.921  41.573   3.470  1.00  0.00     0.020 C 
BRANCH  16  17
HETATM   17  C8  UNL     1      55.807  42.432   2.883  1.00  0.00     0.002 C 
BRANCH  17  18
HETATM   18  C9  UNL     1      56.034  42.608   1.404  1.00  0.00     0.000 C 
BRANCH  18  19
HETATM   19  C10 UNL     1      56.804  41.479   0.796  1.00  0.00     0.000 C 
BRANCH  19  20
HETATM   20  C11 UNL     1      55.883  40.470   0.164  1.00  0.00    -0.000 C 
BRANCH  20  21
HETATM   21  C12 UNL     1      56.135  39.072   0.691  1.00  0.00    -0.005 C 
HETATM   22  C13 UNL     1      54.990  38.669   1.621  1.00  0.00     0.005 C 
ENDBRANCH  20  21
ENDBRANCH  19  20
ENDBRANCH  18  19
ENDBRANCH  17  18
ENDBRANCH  16  17
ENDBRANCH  15  16
ENDBRANCH  13  15
ENDBRANCH   4  13
BRANCH   1  23
HETATM   23  N1  UNL     1      60.650  42.763   9.199  1.00  0.00    -0.350 N 
ATOM     24  H1  UNL     1      61.530  42.785   8.682  1.00  0.00     0.166 HD
BRANCH  23  25
HETATM   25  C3  UNL     1      60.803  43.577  10.287  1.00  0.00     0.089 C 
BRANCH  25  26
HETATM   26  C2  UNL     1      59.629  43.624  11.227  1.00  0.00     0.007 C 
HETATM   27  C1  UNL     1      59.655  44.494  12.210  1.00  0.00     0.012 C 
ENDBRANCH  25  26
ENDBRANCH  23  25
ENDBRANCH   1  23
BRANCH  12  28
HETATM   28  C17 UNL     1      57.547  37.805   8.483  1.00  0.00     0.276 C 
HETATM   29  C18 UNL     1      58.193  36.633   7.900  1.00  0.00     0.290 C 
HETATM   30  N8  UNL     1      58.089  35.612   8.893  1.00  0.00    -0.043 N 
HETATM   31  C19 UNL     1      56.916  35.996   9.630  1.00  0.00     0.346 C 
ATOM     32  H82 UNL     1      58.069  34.662   8.525  1.00  0.00     0.280 HD
ATOM     33  H81 UNL     1      58.927  35.485   9.460  1.00  0.00     0.280 HD
HETATM   34  O2  UNL     1      56.769  37.351   9.533  1.00  0.00    -0.329 OA
BRANCH  31  35
HETATM   35  C20 UNL     1      55.695  35.220   9.152  1.00  0.00     0.225 C 
BRANCH  35  36
HETATM   36  O1  UNL     1      54.552  35.984   9.126  1.00  0.00    -0.397 OA
ATOM     37  H1  UNL     1      53.963  35.793   9.847  1.00  0.00     0.209 HD
ENDBRANCH  35  36
ENDBRANCH  31  35
ENDBRANCH  12  28
BRANCH  11  38
HETATM   38  N6  UNL     1      59.120  38.004  11.021  1.00  0.00    -0.234 N 
ATOM     39  H62 UNL     1      58.853  38.114  11.999  1.00  0.00     0.174 HD
ATOM     40  H61 UNL     1      59.431  37.043  10.882  1.00  0.00     0.174 HD
ENDBRANCH  11  38
TORSDOF 15
ENDMDL
MODEL 2
REMARK VINA RESULT: -7.255136309      2.695      7.971
REMARK  15 active torsions:
REMARK  status: ('A' for Active; 'I' for Inactive)
REMARK    1  A    between atoms: C2_2  and  C3_3 
REMARK    2  A    between atoms: C3_3  and  N1_4 
REMARK    3  A    between atoms: N1_4  and  C4_6 
REMARK    4  A    between atoms: C5_9  and  N3_10 
REMARK    5  A    between atoms: N3_10  and  C6_12 
REMARK    6  A    between atoms: C6_12  and  C7_13 
REMARK    7  A    between atoms: C7_13  and  C8_14 
REMARK    8  A    between atoms: C8_14  and  C9_15 
REMARK    9  A    between atoms: C9_15  and  C10_16 
REMARK   10  A    between atoms: C10_16  and  C11_17 
REMARK   11  A    between atoms: C11_17  and  C12_18 
REMARK   12  A    between atoms: C16_26  and  N6_27 
REMARK   13  A    between atoms: N7_30  and  C17_31 
REMARK   14  A    between atoms: C19_36  and  C20_37 
REMARK   15  A    between atoms: C20_37  and  O1_38 
ROOT
HETATM    1  C4  UNL     1      60.701  39.830   9.661  1.00  0.00     0.152 A 
HETATM    2  N2  UNL     1      61.098  41.126   9.885  1.00  0.00    -0.174 N 
ATOM      3  H2  UNL     1      61.879  41.277  10.523  1.00  0.00     0.186 HD
HETATM    4  C5  UNL     1      60.540  42.195   9.331  1.00  0.00     0.681 A 
HETATM    5  N4  UNL     1      59.513  42.010   8.489  1.00  0.00    -0.173 N 
ATOM      6  H4  UNL     1      59.076  42.825   8.057  1.00  0.00     0.186 HD
HETATM    7  C14 UNL     1      59.040  40.786   8.195  1.00  0.00     0.172 A 
HETATM    8  C15 UNL     1      59.644  39.672   8.792  1.00  0.00     0.139 A 
HETATM    9  N5  UNL     1      58.977  38.604   8.324  1.00  0.00    -0.184 N 
ATOM     10  H5  UNL     1      59.176  37.634   8.569  1.00  0.00     0.184 HD
HETATM   11  C16 UNL     1      57.999  39.013   7.473  1.00  0.00     0.682 A 
HETATM   12  N7  UNL     1      58.041  40.329   7.400  1.00  0.00    -0.137 N 
ENDROOT
BRANCH   4  13
HETATM   13  N3  UNL     1      60.977  43.410   9.596  1.00  0.00    -0.226 N 
ATOM     14  H3  UNL     1      61.252  44.017   8.824  1.00  0.00     0.177 HD
BRANCH  13  15
HETATM   15  C6  UNL     1      61.077  43.900  10.935  1.00  0.00     0.138 C 
BRANCH  15  16
HETATM   16  C7  UNL     1      59.664  43.838  11.529  1.00  0.00     0.020 C 
BRANCH  16  17
HETATM   17  C8  UNL     1      59.624  44.937  12.585  1.00  0.00     0.002 C 
BRANCH  17  18
HETATM   18  C9  UNL     1      59.505  44.317  13.953  1.00  0.00     0.000 C 
BRANCH  18  19
HETATM   19  C10 UNL     1      60.831  43.971  14.552  1.00  0.00     0.000 C 
BRANCH  19  20
HETATM   20  C11 UNL     1      60.864  42.538  15.011  1.00  0.00    -0.000 C 
BRANCH  20  21
HETATM   21  C12 UNL     1      61.466  41.625  13.962  1.00  0.00    -0.005 C 
HETATM   22  C13 UNL     1      60.382  40.690  13.426  1.00  0.00     0.005 C 
ENDBRANCH  20  21
ENDBRANCH  19  20
ENDBRANCH  18  19
ENDBRANCH  17  18
ENDBRANCH  16  17
ENDBRANCH  15  16
ENDBRANCH  13  15
ENDBRANCH   4  13
BRANCH   1  23
HETATM   23  N1  UNL     1      61.277  38.896  10.218  1.00  0.00    -0.350 N 
ATOM     24  H1  UNL     1      61.683  39.264  11.078  1.00  0.00     0.166 HD
BRANCH  23  25
HETATM   25  C3  UNL     1      61.596  37.568  10.161  1.00  0.00     0.089 C 
BRANCH  25  26
HETATM   26  C2  UNL     1      62.498  37.171   9.023  1.00  0.00     0.007 C 
HETATM   27  C1  UNL     1      61.983  36.467   8.039  1.00  0.00     0.012 C 
ENDBRANCH  25  26
ENDBRANCH  23  25
ENDBRANCH   1  23
BRANCH  12  28
HETATM   28  C17 UNL     1      57.216  41.226   6.638  1.00  0.00     0.276 C 
HETATM   29  C18 UNL     1      57.894  42.270   5.875  1.00  0.00     0.290 C 
HETATM   30  N8  UNL     1      57.872  41.820   4.520  1.00  0.00    -0.043 N 
HETATM   31  C19 UNL     1      56.709  40.975   4.478  1.00  0.00     0.346 C 
ATOM     32  H82 UNL     1      57.881  42.566   3.825  1.00  0.00     0.280 HD
ATOM     33  H81 UNL     1      58.734  41.375   4.206  1.00  0.00     0.280 HD
HETATM   34  O2  UNL     1      56.498  40.470   5.729  1.00  0.00    -0.329 OA
BRANCH  31  35
HETATM   35  C20 UNL     1      55.508  41.730   3.920  1.00  0.00     0.225 C 
BRANCH  35  36
HETATM   36  O1  UNL     1      55.867  42.771   3.096  1.00  0.00    -0.397 OA
ATOM     37  H1  UNL     1      55.190  43.434   3.024  1.00  0.00     0.209 HD
ENDBRANCH  35  36
ENDBRANCH  31  35
ENDBRANCH  12  28
BRANCH  11  38
HETATM   38  N6  UNL     1      57.196  38.242   6.867  1.00  0.00    -0.234 N 
ATOM     39  H62 UNL     1      57.424  37.579   6.126  1.00  0.00     0.174 HD
ATOM     40  H61 UNL     1      56.193  38.185   7.046  1.00  0.00     0.174 HD
ENDBRANCH  11  38
TORSDOF 15
ENDMDL
MODEL 3
REMARK VINA RESULT: -7.242755690      0.704      1.380
REMARK  15 active torsions:
REMARK  status: ('A' for Active; 'I' for Inactive)
REMARK    1  A    between atoms: C2_2  and  C3_3 
REMARK    2  A    between atoms: C3_3  and  N1_4 
REMARK    3  A    between atoms: N1_4  and  C4_6 
REMARK    4  A    between atoms: C5_9  and  N3_10 
REMARK    5  A    between atoms: N3_10  and  C6_12 
REMARK    6  A    between atoms: C6_12  and  C7_13 
REMARK    7  A    between atoms: C7_13  and  C8_14 
REMARK    8  A    between atoms: C8_14  and  C9_15 
REMARK    9  A    between atoms: C9_15  and  C10_16 
REMARK   10  A    between atoms: C10_16  and  C11_17 
REMARK   11  A    between atoms: C11_17  and  C12_18 
REMARK   12  A    between atoms: C16_26  and  N6_27 
REMARK   13  A    between atoms: N7_30  and  C17_31 
REMARK   14  A    between atoms: C19_36  and  C20_37 
REMARK   15  A    between atoms: C20_37  and  O1_38 
ROOT
HETATM    1  C4  UNL     1      59.972  42.053   8.737  1.00  0.00     0.152 A 
HETATM    2  N2  UNL     1      59.483  42.415   7.506  1.00  0.00    -0.174 N 
ATOM      3  H2  UNL     1      59.765  43.321   7.133  1.00  0.00     0.186 HD
HETATM    4  C5  UNL     1      58.669  41.673   6.766  1.00  0.00     0.681 A 
HETATM    5  N4  UNL     1      58.291  40.478   7.244  1.00  0.00    -0.173 N 
ATOM      6  H4  UNL     1      57.666  39.898   6.684  1.00  0.00     0.186 HD
HETATM    7  C14 UNL     1      58.709  40.020   8.437  1.00  0.00     0.172 A 
HETATM    8  C15 UNL     1      59.567  40.821   9.201  1.00  0.00     0.139 A 
HETATM    9  N5  UNL     1      59.814  40.122  10.321  1.00  0.00    -0.184 N 
ATOM     10  H5  UNL     1      60.411  40.434  11.088  1.00  0.00     0.184 HD
HETATM   11  C16 UNL     1      59.150  38.937  10.277  1.00  0.00     0.682 A 
HETATM   12  N7  UNL     1      58.485  38.881   9.139  1.00  0.00    -0.137 N 
ENDROOT
BRANCH   4  13
HETATM   13  N3  UNL     1      58.239  42.089   5.592  1.00  0.00    -0.226 N 
ATOM     14  H3  UNL     1      58.883  42.585   4.976  1.00  0.00     0.177 HD
BRANCH  13  15
HETATM   15  C6  UNL     1      56.895  41.866   5.158  1.00  0.00     0.138 C 
BRANCH  15  16
HETATM   16  C7  UNL     1      56.983  41.329   3.723  1.00  0.00     0.020 C 
BRANCH  16  17
HETATM   17  C8  UNL     1      55.643  40.648   3.467  1.00  0.00     0.002 C 
BRANCH  17  18
HETATM   18  C9  UNL     1      55.493  40.371   1.994  1.00  0.00     0.000 C 
BRANCH  18  19
HETATM   19  C10 UNL     1      56.626  40.913   1.182  1.00  0.00     0.000 C 
BRANCH  19  20
HETATM   20  C11 UNL     1      56.128  41.828   0.095  1.00  0.00    -0.000 C 
BRANCH  20  21
HETATM   21  C12 UNL     1      55.212  42.903   0.641  1.00  0.00    -0.005 C 
HETATM   22  C13 UNL     1      56.049  43.958   1.367  1.00  0.00     0.005 C 
ENDBRANCH  20  21
ENDBRANCH  19  20
ENDBRANCH  18  19
ENDBRANCH  17  18
ENDBRANCH  16  17
ENDBRANCH  15  16
ENDBRANCH  13  15
ENDBRANCH   4  13
BRANCH   1  23
HETATM   23  N1  UNL     1      60.725  42.806   9.356  1.00  0.00    -0.350 N 
ATOM     24  H1  UNL     1      61.609  42.830   8.848  1.00  0.00     0.166 HD
BRANCH  23  25
HETATM   25  C3  UNL     1      60.864  43.623  10.443  1.00  0.00     0.089 C 
BRANCH  25  26
HETATM   26  C2  UNL     1      59.684  43.662  11.376  1.00  0.00     0.007 C 
HETATM   27  C1  UNL     1      59.654  44.594  12.301  1.00  0.00     0.012 C 
ENDBRANCH  25  26
ENDBRANCH  23  25
ENDBRANCH   1  23
BRANCH  12  28
HETATM   28  C17 UNL     1      57.638  37.838   8.630  1.00  0.00     0.276 C 
HETATM   29  C18 UNL     1      58.292  36.653   8.083  1.00  0.00     0.290 C 
HETATM   30  N8  UNL     1      58.159  35.650   9.089  1.00  0.00    -0.043 N 
HETATM   31  C19 UNL     1      56.969  36.051   9.791  1.00  0.00     0.346 C 
ATOM     32  H82 UNL     1      58.143  34.694   8.736  1.00  0.00     0.280 HD
ATOM     33  H81 UNL     1      58.981  35.528   9.680  1.00  0.00     0.280 HD
HETATM   34  O2  UNL     1      56.832  37.405   9.667  1.00  0.00    -0.329 OA
BRANCH  31  35
HETATM   35  C20 UNL     1      55.757  35.273   9.294  1.00  0.00     0.225 C 
BRANCH  35  36
HETATM   36  O1  UNL     1      54.605  36.024   9.291  1.00  0.00    -0.397 OA
ATOM     37  H1  UNL     1      53.848  35.537   8.986  1.00  0.00     0.209 HD
ENDBRANCH  35  36
ENDBRANCH  31  35
ENDBRANCH  12  28
BRANCH  11  38
HETATM   38  N6  UNL     1      59.180  38.054  11.186  1.00  0.00    -0.234 N 
ATOM     39  H62 UNL     1      58.381  37.660  11.682  1.00  0.00     0.174 HD
ATOM     40  H61 UNL     1      60.026  37.614  11.546  1.00  0.00     0.174 HD
ENDBRANCH  11  38
TORSDOF 15
ENDMDL
MODEL 4
REMARK VINA RESULT: -7.219000935      1.970      7.258
REMARK  15 active torsions:
REMARK  status: ('A' for Active; 'I' for Inactive)
REMARK    1  A    between atoms: C2_2  and  C3_3 
REMARK    2  A    between atoms: C3_3  and  N1_4 
REMARK    3  A    between atoms: N1_4  and  C4_6 
REMARK    4  A    between atoms: C5_9  and  N3_10 
REMARK    5  A    between atoms: N3_10  and  C6_12 
REMARK    6  A    between atoms: C6_12  and  C7_13 
REMARK    7  A    between atoms: C7_13  and  C8_14 
REMARK    8  A    between atoms: C8_14  and  C9_15 
REMARK    9  A    between atoms: C9_15  and  C10_16 
REMARK   10  A    between atoms: C10_16  and  C11_17 
REMARK   11  A    between atoms: C11_17  and  C12_18 
REMARK   12  A    between atoms: C16_26  and  N6_27 
REMARK   13  A    between atoms: N7_30  and  C17_31 
REMARK   14  A    between atoms: C19_36  and  C20_37 
REMARK   15  A    between atoms: C20_37  and  O1_38 
ROOT
HETATM    1  C4  UNL     1      57.283  41.605   4.855  1.00  0.00     0.152 A 
HETATM    2  N2  UNL     1      58.216  42.257   5.624  1.00  0.00    -0.174 N 
ATOM      3  H2  UNL     1      58.523  43.178   5.313  1.00  0.00     0.186 HD
HETATM    4  C5  UNL     1      58.745  41.776   6.741  1.00  0.00     0.681 A 
HETATM    5  N4  UNL     1      58.348  40.567   7.161  1.00  0.00    -0.173 N 
ATOM      6  H4  UNL     1      58.748  40.187   8.020  1.00  0.00     0.186 HD
HETATM    7  C14 UNL     1      57.440  39.838   6.489  1.00  0.00     0.172 A 
HETATM    8  C15 UNL     1      56.895  40.365   5.311  1.00  0.00     0.139 A 
HETATM    9  N5  UNL     1      56.034  39.437   4.864  1.00  0.00    -0.184 N 
ATOM     10  H5  UNL     1      55.469  39.519   4.017  1.00  0.00     0.184 HD
HETATM   11  C16 UNL     1      56.027  38.373   5.709  1.00  0.00     0.682 A 
HETATM   12  N7  UNL     1      56.877  38.620   6.686  1.00  0.00    -0.137 N 
ENDROOT
BRANCH   4  13
HETATM   13  N3  UNL     1      59.638  42.463   7.427  1.00  0.00    -0.226 N 
ATOM     14  H3  UNL     1      59.948  43.367   7.072  1.00  0.00     0.177 HD
BRANCH  13  15
HETATM   15  C6  UNL     1      60.184  41.974   8.654  1.00  0.00     0.138 C 
BRANCH  15  16
HETATM   16  C7  UNL     1      59.305  42.539   9.779  1.00  0.00     0.020 C 
BRANCH  16  17
HETATM   17  C8  UNL     1      60.221  43.459  10.579  1.00  0.00     0.002 C 
BRANCH  17  18
HETATM   18  C9  UNL     1      59.486  43.972  11.789  1.00  0.00     0.000 C 
BRANCH  18  19
HETATM   19  C10 UNL     1      60.322  43.950  13.030  1.00  0.00     0.000 C 
BRANCH  19  20
HETATM   20  C11 UNL     1      61.149  42.694  13.107  1.00  0.00    -0.000 C 
BRANCH  20  21
HETATM   21  C12 UNL     1      60.357  41.535  13.677  1.00  0.00    -0.005 C 
HETATM   22  C13 UNL     1      60.391  40.368  12.690  1.00  0.00     0.005 C 
ENDBRANCH  20  21
ENDBRANCH  19  20
ENDBRANCH  18  19
ENDBRANCH  17  18
ENDBRANCH  16  17
ENDBRANCH  15  16
ENDBRANCH  13  15
ENDBRANCH   4  13
BRANCH   1  23
HETATM   23  N1  UNL     1      56.844  42.127   3.830  1.00  0.00    -0.350 N 
ATOM     24  H1  UNL     1      57.648  42.442   3.287  1.00  0.00     0.166 HD
BRANCH  23  25
HETATM   25  C3  UNL     1      55.724  42.458   3.119  1.00  0.00     0.089 C 
BRANCH  25  26
HETATM   26  C2  UNL     1      55.969  42.908   1.703  1.00  0.00     0.007 C 
HETATM   27  C1  UNL     1      55.427  44.037   1.308  1.00  0.00     0.012 C 
ENDBRANCH  25  26
ENDBRANCH  23  25
ENDBRANCH   1  23
BRANCH  12  28
HETATM   28  C17 UNL     1      57.225  37.806   7.819  1.00  0.00     0.276 C 
HETATM   29  C18 UNL     1      58.469  37.046   7.738  1.00  0.00     0.290 C 
HETATM   30  N8  UNL     1      59.403  37.767   8.541  1.00  0.00    -0.043 N 
HETATM   31  C19 UNL     1      58.561  38.443   9.491  1.00  0.00     0.346 C 
ATOM     32  H82 UNL     1      60.138  37.195   8.955  1.00  0.00     0.280 HD
ATOM     33  H81 UNL     1      60.031  38.378   8.018  1.00  0.00     0.280 HD
HETATM   34  O2  UNL     1      57.336  38.637   8.918  1.00  0.00    -0.329 OA
BRANCH  31  35
HETATM   35  C20 UNL     1      58.499  37.674  10.805  1.00  0.00     0.225 C 
BRANCH  35  36
HETATM   36  O1  UNL     1      57.242  37.188  11.081  1.00  0.00    -0.397 OA
ATOM     37  H1  UNL     1      57.021  37.239  12.003  1.00  0.00     0.209 HD
ENDBRANCH  35  36
ENDBRANCH  31  35
ENDBRANCH  12  28
BRANCH  11  38
HETATM   38  N6  UNL     1      55.319  37.332   5.561  1.00  0.00    -0.234 N 
ATOM     39  H62 UNL     1      54.464  37.247   5.011  1.00  0.00     0.174 HD
ATOM     40  H61 UNL     1      55.517  36.426   5.983  1.00  0.00     0.174 HD
ENDBRANCH  11  38
TORSDOF 15
ENDMDL
MODEL 5
REMARK VINA RESULT: -7.085772776      2.900      8.593
REMARK  15 active torsions:
REMARK  status: ('A' for Active; 'I' for Inactive)
REMARK    1  A    between atoms: C2_2  and  C3_3 
REMARK    2  A    between atoms: C3_3  and  N1_4 
REMARK    3  A    between atoms: N1_4  and  C4_6 
REMARK    4  A    between atoms: C5_9  and  N3_10 
REMARK    5  A    between atoms: N3_10  and  C6_12 
REMARK    6  A    between atoms: C6_12  and  C7_13 
REMARK    7  A    between atoms: C7_13  and  C8_14 
REMARK    8  A    between atoms: C8_14  and  C9_15 
REMARK    9  A    between atoms: C9_15  and  C10_16 
REMARK   10  A    between atoms: C10_16  and  C11_17 
REMARK   11  A    between atoms: C11_17  and  C12_18 
REMARK   12  A    between atoms: C16_26  and  N6_27 
REMARK   13  A    between atoms: N7_30  and  C17_31 
REMARK   14  A    between atoms: C19_36  and  C20_37 
REMARK   15  A    between atoms: C20_37  and  O1_38 
ROOT
HETATM    1  C4  UNL     1      60.756  39.854   9.690  1.00  0.00     0.152 A 
HETATM    2  N2  UNL     1      61.129  41.152   9.939  1.00  0.00    -0.174 N 
ATOM      3  H2  UNL     1      61.903  41.305  10.586  1.00  0.00     0.186 HD
HETATM    4  C5  UNL     1      60.557  42.221   9.399  1.00  0.00     0.681 A 
HETATM    5  N4  UNL     1      59.541  42.033   8.546  1.00  0.00    -0.173 N 
ATOM      6  H4  UNL     1      59.093  42.847   8.124  1.00  0.00     0.186 HD
HETATM    7  C14 UNL     1      59.091  40.806   8.228  1.00  0.00     0.172 A 
HETATM    8  C15 UNL     1      59.709  39.692   8.810  1.00  0.00     0.139 A 
HETATM    9  N5  UNL     1      59.064  38.622   8.319  1.00  0.00    -0.184 N 
ATOM     10  H5  UNL     1      59.277  37.651   8.549  1.00  0.00     0.184 HD
HETATM   11  C16 UNL     1      58.085  39.028   7.467  1.00  0.00     0.682 A 
HETATM   12  N7  UNL     1      58.106  40.346   7.417  1.00  0.00    -0.137 N 
ENDROOT
BRANCH   4  13
HETATM   13  N3  UNL     1      60.972  43.439   9.687  1.00  0.00    -0.226 N 
ATOM     14  H3  UNL     1      61.292  44.045   8.933  1.00  0.00     0.177 HD
BRANCH  13  15
HETATM   15  C6  UNL     1      60.986  43.932  11.029  1.00  0.00     0.138 C 
BRANCH  15  16
HETATM   16  C7  UNL     1      59.531  43.914  11.516  1.00  0.00     0.020 C 
BRANCH  16  17
HETATM   17  C8  UNL     1      59.580  44.443  12.945  1.00  0.00     0.002 C 
BRANCH  17  18
HETATM   18  C9  UNL     1      60.192  43.403  13.846  1.00  0.00     0.000 C 
BRANCH  18  19
HETATM   19  C10 UNL     1      60.809  43.990  15.076  1.00  0.00     0.000 C 
BRANCH  19  20
HETATM   20  C11 UNL     1      59.787  44.728  15.899  1.00  0.00    -0.000 C 
BRANCH  20  21
HETATM   21  C12 UNL     1      59.729  44.209  17.321  1.00  0.00    -0.005 C 
HETATM   22  C13 UNL     1      59.940  45.373  18.291  1.00  0.00     0.005 C 
ENDBRANCH  20  21
ENDBRANCH  19  20
ENDBRANCH  18  19
ENDBRANCH  17  18
ENDBRANCH  16  17
ENDBRANCH  15  16
ENDBRANCH  13  15
ENDBRANCH   4  13
BRANCH   1  23
HETATM   23  N1  UNL     1      61.343  38.920  10.236  1.00  0.00    -0.350 N 
ATOM     24  H1  UNL     1      60.864  38.739  11.118  1.00  0.00     0.166 HD
BRANCH  23  25
HETATM   25  C3  UNL     1      62.373  38.025  10.149  1.00  0.00     0.089 C 
BRANCH  25  26
HETATM   26  C2  UNL     1      62.298  37.067   8.990  1.00  0.00     0.007 C 
HETATM   27  C1  UNL     1      63.315  36.261   8.784  1.00  0.00     0.012 C 
ENDBRANCH  25  26
ENDBRANCH  23  25
ENDBRANCH   1  23
BRANCH  12  28
HETATM   28  C17 UNL     1      57.272  41.242   6.664  1.00  0.00     0.276 C 
HETATM   29  C18 UNL     1      57.940  42.277   5.880  1.00  0.00     0.290 C 
HETATM   30  N8  UNL     1      57.891  41.818   4.529  1.00  0.00    -0.043 N 
HETATM   31  C19 UNL     1      56.724  40.978   4.515  1.00  0.00     0.346 C 
ATOM     32  H82 UNL     1      57.892  42.558   3.829  1.00  0.00     0.280 HD
ATOM     33  H81 UNL     1      58.745  41.366   4.203  1.00  0.00     0.280 HD
HETATM   34  O2  UNL     1      56.533  40.483   5.774  1.00  0.00    -0.329 OA
BRANCH  31  35
HETATM   35  C20 UNL     1      55.517  41.735   3.974  1.00  0.00     0.225 C 
BRANCH  35  36
HETATM   36  O1  UNL     1      54.887  42.492   4.933  1.00  0.00    -0.397 OA
ATOM     37  H1  UNL     1      53.941  42.496   4.839  1.00  0.00     0.209 HD
ENDBRANCH  35  36
ENDBRANCH  31  35
ENDBRANCH  12  28
BRANCH  11  38
HETATM   38  N6  UNL     1      57.300  38.254   6.842  1.00  0.00    -0.234 N 
ATOM     39  H62 UNL     1      56.368  38.479   6.494  1.00  0.00     0.174 HD
ATOM     40  H61 UNL     1      57.504  37.285   6.600  1.00  0.00     0.174 HD
ENDBRANCH  11  38
TORSDOF 15
ENDMDL
