MODEL 1
REMARK VINA RESULT: -7.111504766      0.000      0.000
REMARK  16 active torsions:
REMARK  status: ('A' for Active; 'I' for Inactive)
REMARK    1  A    between atoms: N1_1  and  C1_5 
REMARK    2  A    between atoms: C1_5  and  C2_6 
REMARK       I    between atoms: C2_6  and  N2_8 
REMARK    3  A    between atoms: N2_8  and  C3_10 
REMARK    4  A    between atoms: C10_19  and  O3_20 
REMARK    5  A    between atoms: C12_23  and  C13_24 
REMARK    6  A    between atoms: C13_24  and  C14_25 
REMARK    7  A    between atoms: C14_25  and  C15_26 
REMARK    8  A    between atoms: C15_26  and  C16_27 
REMARK    9  A    between atoms: C16_27  and  C17_28 
REMARK   10  A    between atoms: C17_28  and  C18_29 
REMARK   11  A    between atoms: C18_29  and  C19_30 
REMARK   12  A    between atoms: C19_30  and  N5_35 
REMARK   13  A    between atoms: N4_31  and  O4_33 
REMARK   14  A    between atoms: N5_35  and  C20_37 
REMARK   15  A    between atoms: C20_37  and  C21_38 
REMARK   16  A    between atoms: C21_38  and  O5_39 
ROOT
HETATM    1  C3  UNL     1      11.310  41.924  -8.288  1.00  0.00     0.216 C 
HETATM    2  C4  UNL     1      10.937  42.356  -9.645  1.00  0.00     0.120 C 
HETATM    3  C5  UNL     1      10.135  43.659  -9.546  1.00  0.00     0.038 C 
HETATM    4  C6  UNL     1      10.133  44.249  -8.189  1.00  0.00     0.105 C 
HETATM    5  C7  UNL     1      11.454  44.191  -7.508  1.00  0.00     0.225 C 
HETATM    6  O2  UNL     1      11.931  45.156  -6.858  1.00  0.00    -0.273 OA
HETATM    7  N3  UNL     1      12.142  42.922  -7.662  1.00  0.00    -0.304 N 
HETATM    8  C8  UNL     1      13.461  42.829  -7.185  1.00  0.00     0.095 C 
HETATM    9  C9  UNL     1      14.618  42.928  -8.061  1.00  0.00     0.022 C 
HETATM   10  C10 UNL     1      14.692  43.894  -9.163  1.00  0.00     0.144 C 
HETATM   11  C11 UNL     1      13.771  43.807 -10.302  1.00  0.00     0.060 C 
HETATM   12  C12 UNL     1      13.207  42.458 -10.603  1.00  0.00     0.079 C 
HETATM   13  N6  UNL     1      11.823  42.472 -10.687  1.00  0.00    -0.409 N 
ATOM     14  H6  UNL     1      11.422  42.579 -11.619  1.00  0.00     0.154 HD
ENDROOT
BRANCH  12  15
HETATM   15  C13 UNL     1      13.721  41.959 -11.974  1.00  0.00     0.025 C 
BRANCH  15  16
HETATM   16  C14 UNL     1      13.979  40.470 -11.912  1.00  0.00     0.002 C 
BRANCH  16  17
HETATM   17  C15 UNL     1      14.735  40.191 -10.620  1.00  0.00     0.000 C 
BRANCH  17  18
HETATM   18  C16 UNL     1      14.141  38.968  -9.971  1.00  0.00     0.000 C 
BRANCH  18  19
HETATM   19  C17 UNL     1      13.316  38.156 -10.928  1.00  0.00     0.007 C 
BRANCH  19  20
HETATM   20  C18 UNL     1      13.577  36.686 -10.770  1.00  0.00     0.078 C 
BRANCH  20  21
HETATM   21  C19 UNL     1      14.540  36.124 -11.722  1.00  0.00     0.097 C 
HETATM   22  N4  UNL     1      14.127  35.110 -12.435  1.00  0.00    -0.257 N 
ATOM     23  H4  UNL     1      14.775  34.698 -13.106  1.00  0.00     0.195 HD
BRANCH  22  24
HETATM   24  O4  UNL     1      12.877  34.573 -12.333  1.00  0.00    -0.288 OA
ATOM     25  H4  UNL     1      12.106  34.954 -12.735  1.00  0.00     0.244 HD
ENDBRANCH  22  24
BRANCH  21  26
HETATM   26  N5  UNL     1      15.860  36.576 -11.936  1.00  0.00    -0.376 N 
ATOM     27  H5  UNL     1      16.586  36.192 -11.331  1.00  0.00     0.160 HD
BRANCH  26  28
HETATM   28  C20 UNL     1      16.272  37.523 -12.921  1.00  0.00     0.147 C 
BRANCH  28  29
HETATM   29  C21 UNL     1      17.030  36.817 -14.051  1.00  0.00     0.183 C 
BRANCH  29  30
HETATM   30  O5  UNL     1      16.150  35.990 -14.742  1.00  0.00    -0.399 OA
ATOM     31  H5  UNL     1      16.424  35.086 -14.635  1.00  0.00     0.209 HD
ENDBRANCH  29  30
ENDBRANCH  28  29
ENDBRANCH  26  28
ENDBRANCH  21  26
ENDBRANCH  20  21
ENDBRANCH  19  20
ENDBRANCH  18  19
ENDBRANCH  17  18
ENDBRANCH  16  17
ENDBRANCH  15  16
ENDBRANCH  12  15
BRANCH  10  32
HETATM   32  O3  UNL     1      14.741  45.245  -8.738  1.00  0.00    -0.392 OA
ATOM     33  H3  UNL     1      15.440  45.429  -8.123  1.00  0.00     0.210 HD
ENDBRANCH  10  32
BRANCH   1  34
HETATM   34  N2  UNL     1      11.736  40.574  -8.107  1.00  0.00    -0.336 N 
HETATM   35  C2  UNL     1      11.366  39.809  -6.968  1.00  0.00     0.244 C 
HETATM   36  O1  UNL     1      10.639  40.296  -6.058  1.00  0.00    -0.272 OA
ATOM     37  H2  UNL     1      12.325  40.143  -8.819  1.00  0.00     0.164 HD
BRANCH  35  38
HETATM   38  C1  UNL     1      11.808  38.406  -6.781  1.00  0.00     0.332 C 
BRANCH  38  39
HETATM   39  N1  UNL     1      11.786  38.134  -5.349  1.00  0.00    -0.071 N 
ATOM     40  H13 UNL     1      12.623  37.651  -5.022  1.00  0.00     0.274 HD
ATOM     41  H12 UNL     1      11.889  38.975  -4.781  1.00  0.00     0.274 HD
ATOM     42  H11 UNL     1      10.927  37.621  -5.152  1.00  0.00     0.274 HD
ENDBRANCH  38  39
ENDBRANCH  35  38
ENDBRANCH   1  34
TORSDOF 16
ENDMDL
MODEL 2
REMARK VINA RESULT: -6.830501201      1.385      1.788
REMARK  16 active torsions:
REMARK  status: ('A' for Active; 'I' for Inactive)
REMARK    1  A    between atoms: N1_1  and  C1_5 
REMARK    2  A    between atoms: C1_5  and  C2_6 
REMARK       I    between atoms: C2_6  and  N2_8 
REMARK    3  A    between atoms: N2_8  and  C3_10 
REMARK    4  A    between atoms: C10_19  and  O3_20 
REMARK    5  A    between atoms: C12_23  and  C13_24 
REMARK    6  A    between atoms: C13_24  and  C14_25 
REMARK    7  A    between atoms: C14_25  and  C15_26 
REMARK    8  A    between atoms: C15_26  and  C16_27 
REMARK    9  A    between atoms: C16_27  and  C17_28 
REMARK   10  A    between atoms: C17_28  and  C18_29 
REMARK   11  A    between atoms: C18_29  and  C19_30 
REMARK   12  A    between atoms: C19_30  and  N5_35 
REMARK   13  A    between atoms: N4_31  and  O4_33 
REMARK   14  A    between atoms: N5_35  and  C20_37 
REMARK   15  A    between atoms: C20_37  and  C21_38 
REMARK   16  A    between atoms: C21_38  and  O5_39 
ROOT
HETATM    1  C3  UNL     1      11.161  42.026  -8.264  1.00  0.00     0.216 C 
HETATM    2  C4  UNL     1      10.786  42.483  -9.612  1.00  0.00     0.120 C 
HETATM    3  C5  UNL     1       9.908  43.734  -9.484  1.00  0.00     0.038 C 
HETATM    4  C6  UNL     1       9.849  44.275  -8.108  1.00  0.00     0.105 C 
HETATM    5  C7  UNL     1      11.159  44.269  -7.405  1.00  0.00     0.225 C 
HETATM    6  O2  UNL     1      11.568  45.236  -6.714  1.00  0.00    -0.273 OA
HETATM    7  N3  UNL     1      11.922  43.048  -7.589  1.00  0.00    -0.304 N 
HETATM    8  C8  UNL     1      13.236  43.014  -7.090  1.00  0.00     0.095 C 
HETATM    9  C9  UNL     1      14.401  43.210  -7.940  1.00  0.00     0.022 C 
HETATM   10  C10 UNL     1      14.437  44.216  -9.007  1.00  0.00     0.144 C 
HETATM   11  C11 UNL     1      13.542  44.116 -10.166  1.00  0.00     0.060 C 
HETATM   12  C12 UNL     1      13.062  42.749 -10.523  1.00  0.00     0.079 C 
HETATM   13  N6  UNL     1      11.682  42.686 -10.633  1.00  0.00    -0.409 N 
ATOM     14  H6  UNL     1      11.291  42.802 -11.568  1.00  0.00     0.154 HD
ENDROOT
BRANCH  12  15
HETATM   15  C13 UNL     1      13.628  42.329 -11.900  1.00  0.00     0.025 C 
BRANCH  15  16
HETATM   16  C14 UNL     1      15.103  42.022 -11.776  1.00  0.00     0.002 C 
BRANCH  16  17
HETATM   17  C15 UNL     1      15.232  40.645 -11.139  1.00  0.00     0.000 C 
BRANCH  17  18
HETATM   18  C16 UNL     1      15.360  39.619 -12.235  1.00  0.00     0.000 C 
BRANCH  18  19
HETATM   19  C17 UNL     1      14.065  38.909 -12.508  1.00  0.00     0.007 C 
BRANCH  19  20
HETATM   20  C18 UNL     1      13.530  38.245 -11.274  1.00  0.00     0.078 C 
BRANCH  20  21
HETATM   21  C19 UNL     1      14.125  36.940 -10.968  1.00  0.00     0.097 C 
HETATM   22  N4  UNL     1      14.664  36.810  -9.786  1.00  0.00    -0.257 N 
ATOM     23  H4  UNL     1      15.087  35.913  -9.545  1.00  0.00     0.195 HD
BRANCH  22  24
HETATM   24  O4  UNL     1      14.695  37.807  -8.855  1.00  0.00    -0.288 OA
ATOM     25  H4  UNL     1      15.284  37.813  -8.110  1.00  0.00     0.244 HD
ENDBRANCH  22  24
BRANCH  21  26
HETATM   26  N5  UNL     1      14.164  35.821 -11.829  1.00  0.00    -0.376 N 
ATOM     27  H5  UNL     1      15.029  35.280 -11.847  1.00  0.00     0.160 HD
BRANCH  26  28
HETATM   28  C20 UNL     1      13.105  35.379 -12.676  1.00  0.00     0.147 C 
BRANCH  28  29
HETATM   29  C21 UNL     1      13.355  35.830 -14.119  1.00  0.00     0.183 C 
BRANCH  29  30
HETATM   30  O5  UNL     1      12.766  34.919 -14.990  1.00  0.00    -0.399 OA
ATOM     31  H5  UNL     1      13.437  34.345 -15.341  1.00  0.00     0.209 HD
ENDBRANCH  29  30
ENDBRANCH  28  29
ENDBRANCH  26  28
ENDBRANCH  21  26
ENDBRANCH  20  21
ENDBRANCH  19  20
ENDBRANCH  18  19
ENDBRANCH  17  18
ENDBRANCH  16  17
ENDBRANCH  15  16
ENDBRANCH  12  15
BRANCH  10  32
HETATM   32  O3  UNL     1      14.400  45.552  -8.536  1.00  0.00    -0.392 OA
ATOM     33  H3  UNL     1      15.253  45.967  -8.491  1.00  0.00     0.210 HD
ENDBRANCH  10  32
BRANCH   1  34
HETATM   34  N2  UNL     1      11.661  40.697  -8.120  1.00  0.00    -0.336 N 
HETATM   35  C2  UNL     1      11.355  39.889  -6.993  1.00  0.00     0.244 C 
HETATM   36  O1  UNL     1      10.619  40.317  -6.060  1.00  0.00    -0.272 OA
ATOM     37  H2  UNL     1      12.259  40.314  -8.852  1.00  0.00     0.164 HD
BRANCH  35  38
HETATM   38  C1  UNL     1      11.874  38.509  -6.845  1.00  0.00     0.332 C 
BRANCH  38  39
HETATM   39  N1  UNL     1      11.788  38.164  -5.431  1.00  0.00    -0.071 N 
ATOM     40  H13 UNL     1      12.167  38.887  -4.820  1.00  0.00     0.274 HD
ATOM     41  H12 UNL     1      10.833  38.177  -5.075  1.00  0.00     0.274 HD
ATOM     42  H11 UNL     1      12.247  37.261  -5.312  1.00  0.00     0.274 HD
ENDBRANCH  38  39
ENDBRANCH  35  38
ENDBRANCH   1  34
TORSDOF 16
ENDMDL
MODEL 3
REMARK VINA RESULT: -6.747608805      7.333     10.304
REMARK  16 active torsions:
REMARK  status: ('A' for Active; 'I' for Inactive)
REMARK    1  A    between atoms: N1_1  and  C1_5 
REMARK    2  A    between atoms: C1_5  and  C2_6 
REMARK       I    between atoms: C2_6  and  N2_8 
REMARK    3  A    between atoms: N2_8  and  C3_10 
REMARK    4  A    between atoms: C10_19  and  O3_20 
REMARK    5  A    between atoms: C12_23  and  C13_24 
REMARK    6  A    between atoms: C13_24  and  C14_25 
REMARK    7  A    between atoms: C14_25  and  C15_26 
REMARK    8  A    between atoms: C15_26  and  C16_27 
REMARK    9  A    between atoms: C16_27  and  C17_28 
REMARK   10  A    between atoms: C17_28  and  C18_29 
REMARK   11  A    between atoms: C18_29  and  C19_30 
REMARK   12  A    between atoms: C19_30  and  N5_35 
REMARK   13  A    between atoms: N4_31  and  O4_33 
REMARK   14  A    between atoms: N5_35  and  C20_37 
REMARK   15  A    between atoms: C20_37  and  C21_38 
REMARK   16  A    between atoms: C21_38  and  O5_39 
ROOT
HETATM    1  C3  UNL     1       4.342  43.894  -1.702  1.00  0.00     0.216 C 
HETATM    2  C4  UNL     1       4.881  42.530  -1.566  1.00  0.00     0.120 C 
HETATM    3  C5  UNL     1       3.856  41.536  -2.127  1.00  0.00     0.038 C 
HETATM    4  C6  UNL     1       2.733  42.185  -2.839  1.00  0.00     0.105 C 
HETATM    5  C7  UNL     1       3.148  43.320  -3.706  1.00  0.00     0.225 C 
HETATM    6  O2  UNL     1       2.694  43.498  -4.864  1.00  0.00    -0.273 OA
HETATM    7  N3  UNL     1       4.124  44.204  -3.094  1.00  0.00    -0.304 N 
HETATM    8  C8  UNL     1       4.689  45.213  -3.893  1.00  0.00     0.095 C 
HETATM    9  C9  UNL     1       6.006  45.087  -4.496  1.00  0.00     0.022 C 
HETATM   10  C10 UNL     1       6.484  43.833  -5.092  1.00  0.00     0.144 C 
HETATM   11  C11 UNL     1       6.690  42.639  -4.265  1.00  0.00     0.060 C 
HETATM   12  C12 UNL     1       6.977  42.869  -2.819  1.00  0.00     0.079 C 
HETATM   13  N6  UNL     1       6.130  42.150  -1.991  1.00  0.00    -0.409 N 
ATOM     14  H6  UNL     1       6.468  41.245  -1.663  1.00  0.00     0.154 HD
ENDROOT
BRANCH  12  15
HETATM   15  C13 UNL     1       8.413  42.404  -2.480  1.00  0.00     0.025 C 
BRANCH  15  16
HETATM   16  C14 UNL     1       8.476  41.945  -1.040  1.00  0.00     0.002 C 
BRANCH  16  17
HETATM   17  C15 UNL     1       9.895  41.457  -0.778  1.00  0.00     0.000 C 
BRANCH  17  18
HETATM   18  C16 UNL     1       9.838  40.003  -0.388  1.00  0.00     0.000 C 
BRANCH  18  19
HETATM   19  C17 UNL     1      10.846  39.172  -1.131  1.00  0.00     0.007 C 
BRANCH  19  20
HETATM   20  C18 UNL     1      10.184  38.264  -2.125  1.00  0.00     0.078 C 
BRANCH  20  21
HETATM   21  C19 UNL     1      10.092  38.801  -3.487  1.00  0.00     0.097 C 
HETATM   22  N4  UNL     1       8.905  39.167  -3.888  1.00  0.00    -0.257 N 
ATOM     23  H4  UNL     1       8.810  39.544  -4.831  1.00  0.00     0.195 HD
BRANCH  22  24
HETATM   24  O4  UNL     1       7.783  39.072  -3.116  1.00  0.00    -0.288 OA
ATOM     25  H4  UNL     1       7.218  39.809  -2.917  1.00  0.00     0.244 HD
ENDBRANCH  22  24
BRANCH  21  26
HETATM   26  N5  UNL     1      11.164  38.958  -4.393  1.00  0.00    -0.376 N 
ATOM     27  H5  UNL     1      12.080  38.629  -4.089  1.00  0.00     0.160 HD
BRANCH  26  28
HETATM   28  C20 UNL     1      11.081  39.535  -5.695  1.00  0.00     0.147 C 
BRANCH  28  29
HETATM   29  C21 UNL     1      11.903  38.713  -6.694  1.00  0.00     0.183 C 
BRANCH  29  30
HETATM   30  O5  UNL     1      11.042  38.095  -7.594  1.00  0.00    -0.399 OA
ATOM     31  H5  UNL     1      10.156  38.130  -7.252  1.00  0.00     0.209 HD
ENDBRANCH  29  30
ENDBRANCH  28  29
ENDBRANCH  26  28
ENDBRANCH  21  26
ENDBRANCH  20  21
ENDBRANCH  19  20
ENDBRANCH  18  19
ENDBRANCH  17  18
ENDBRANCH  16  17
ENDBRANCH  15  16
ENDBRANCH  12  15
BRANCH  10  32
HETATM   32  O3  UNL     1       5.776  43.446  -6.257  1.00  0.00    -0.392 OA
ATOM     33  H3  UNL     1       5.941  44.001  -7.009  1.00  0.00     0.210 HD
ENDBRANCH  10  32
BRANCH   1  34
HETATM   34  N2  UNL     1       4.946  44.933  -0.932  1.00  0.00    -0.336 N 
HETATM   35  C2  UNL     1       4.516  45.250   0.385  1.00  0.00     0.244 C 
HETATM   36  O1  UNL     1       3.572  44.618   0.936  1.00  0.00    -0.272 OA
ATOM     37  H2  UNL     1       5.712  45.468  -1.341  1.00  0.00     0.164 HD
BRANCH  35  38
HETATM   38  C1  UNL     1       5.144  46.329   1.183  1.00  0.00     0.332 C 
BRANCH  38  39
HETATM   39  N1  UNL     1       4.119  46.859   2.074  1.00  0.00    -0.071 N 
ATOM     40  H13 UNL     1       3.187  46.499   1.870  1.00  0.00     0.274 HD
ATOM     41  H12 UNL     1       4.194  46.501   3.026  1.00  0.00     0.274 HD
ATOM     42  H11 UNL     1       4.173  47.876   2.025  1.00  0.00     0.274 HD
ENDBRANCH  38  39
ENDBRANCH  35  38
ENDBRANCH   1  34
TORSDOF 16
ENDMDL
MODEL 4
REMARK VINA RESULT: -6.739660982      1.307      1.404
REMARK  16 active torsions:
REMARK  status: ('A' for Active; 'I' for Inactive)
REMARK    1  A    between atoms: N1_1  and  C1_5 
REMARK    2  A    between atoms: C1_5  and  C2_6 
REMARK       I    between atoms: C2_6  and  N2_8 
REMARK    3  A    between atoms: N2_8  and  C3_10 
REMARK    4  A    between atoms: C10_19  and  O3_20 
REMARK    5  A    between atoms: C12_23  and  C13_24 
REMARK    6  A    between atoms: C13_24  and  C14_25 
REMARK    7  A    between atoms: C14_25  and  C15_26 
REMARK    8  A    between atoms: C15_26  and  C16_27 
REMARK    9  A    between atoms: C16_27  and  C17_28 
REMARK   10  A    between atoms: C17_28  and  C18_29 
REMARK   11  A    between atoms: C18_29  and  C19_30 
REMARK   12  A    between atoms: C19_30  and  N5_35 
REMARK   13  A    between atoms: N4_31  and  O4_33 
REMARK   14  A    between atoms: N5_35  and  C20_37 
REMARK   15  A    between atoms: C20_37  and  C21_38 
REMARK   16  A    between atoms: C21_38  and  O5_39 
ROOT
HETATM    1  C3  UNL     1      11.247  42.008  -8.266  1.00  0.00     0.216 C 
HETATM    2  C4  UNL     1      10.786  42.457  -9.590  1.00  0.00     0.120 C 
HETATM    3  C5  UNL     1      10.046  43.790  -9.430  1.00  0.00     0.038 C 
HETATM    4  C6  UNL     1      10.174  44.377  -8.077  1.00  0.00     0.105 C 
HETATM    5  C7  UNL     1      11.541  44.267  -7.502  1.00  0.00     0.225 C 
HETATM    6  O2  UNL     1      12.105  45.210  -6.893  1.00  0.00    -0.273 OA
HETATM    7  N3  UNL     1      12.164  42.972  -7.708  1.00  0.00    -0.304 N 
HETATM    8  C8  UNL     1      13.512  42.826  -7.336  1.00  0.00     0.095 C 
HETATM    9  C9  UNL     1      14.600  42.881  -8.300  1.00  0.00     0.022 C 
HETATM   10  C10 UNL     1      14.625  43.845  -9.406  1.00  0.00     0.144 C 
HETATM   11  C11 UNL     1      13.615  43.796 -10.469  1.00  0.00     0.060 C 
HETATM   12  C12 UNL     1      12.976  42.472 -10.723  1.00  0.00     0.079 C 
HETATM   13  N6  UNL     1      11.592  42.540 -10.699  1.00  0.00    -0.409 N 
ATOM     14  H6  UNL     1      11.123  42.665 -11.597  1.00  0.00     0.154 HD
ENDROOT
BRANCH  12  15
HETATM   15  C13 UNL     1      13.361  41.956 -12.130  1.00  0.00     0.025 C 
BRANCH  15  16
HETATM   16  C14 UNL     1      14.240  40.732 -12.003  1.00  0.00     0.002 C 
BRANCH  16  17
HETATM   17  C15 UNL     1      13.946  40.096 -10.650  1.00  0.00     0.000 C 
BRANCH  17  18
HETATM   18  C16 UNL     1      13.480  38.681 -10.875  1.00  0.00     0.000 C 
BRANCH  18  19
HETATM   19  C17 UNL     1      13.792  38.189 -12.260  1.00  0.00     0.007 C 
BRANCH  19  20
HETATM   20  C18 UNL     1      14.552  36.897 -12.227  1.00  0.00     0.078 C 
BRANCH  20  21
HETATM   21  C19 UNL     1      14.330  36.020 -13.382  1.00  0.00     0.097 C 
HETATM   22  N4  UNL     1      13.333  35.181 -13.291  1.00  0.00    -0.257 N 
ATOM     23  H4  UNL     1      13.155  34.558 -14.079  1.00  0.00     0.195 HD
BRANCH  22  24
HETATM   24  O4  UNL     1      12.516  35.093 -12.202  1.00  0.00    -0.288 OA
ATOM     25  H4  UNL     1      12.777  34.696 -11.379  1.00  0.00     0.244 HD
ENDBRANCH  22  24
BRANCH  21  26
HETATM   26  N5  UNL     1      15.091  36.002 -14.571  1.00  0.00    -0.376 N 
ATOM     27  H5  UNL     1      16.073  35.737 -14.490  1.00  0.00     0.160 HD
BRANCH  26  28
HETATM   28  C20 UNL     1      14.612  36.321 -15.877  1.00  0.00     0.147 C 
BRANCH  28  29
HETATM   29  C21 UNL     1      14.457  35.045 -16.712  1.00  0.00     0.183 C 
BRANCH  29  30
HETATM   30  O5  UNL     1      13.361  34.325 -16.246  1.00  0.00    -0.399 OA
ATOM     31  H5  UNL     1      13.664  33.643 -15.658  1.00  0.00     0.209 HD
ENDBRANCH  29  30
ENDBRANCH  28  29
ENDBRANCH  26  28
ENDBRANCH  21  26
ENDBRANCH  20  21
ENDBRANCH  19  20
ENDBRANCH  18  19
ENDBRANCH  17  18
ENDBRANCH  16  17
ENDBRANCH  15  16
ENDBRANCH  12  15
BRANCH  10  32
HETATM   32  O3  UNL     1      14.760  45.192  -8.988  1.00  0.00    -0.392 OA
ATOM     33  H3  UNL     1      15.539  45.622  -9.322  1.00  0.00     0.210 HD
ENDBRANCH  10  32
BRANCH   1  34
HETATM   34  N2  UNL     1      11.632  40.642  -8.117  1.00  0.00    -0.336 N 
HETATM   35  C2  UNL     1      11.321  39.889  -6.953  1.00  0.00     0.244 C 
HETATM   36  O1  UNL     1      10.684  40.402  -5.991  1.00  0.00    -0.272 OA
ATOM     37  H2  UNL     1      12.149  40.190  -8.872  1.00  0.00     0.164 HD
BRANCH  35  38
HETATM   38  C1  UNL     1      11.721  38.470  -6.800  1.00  0.00     0.332 C 
BRANCH  38  39
HETATM   39  N1  UNL     1      11.757  38.183  -5.371  1.00  0.00    -0.071 N 
ATOM     40  H13 UNL     1      11.776  39.024  -4.796  1.00  0.00     0.274 HD
ATOM     41  H12 UNL     1      10.879  37.802  -5.019  1.00  0.00     0.274 HD
ATOM     42  H11 UNL     1      12.554  37.568  -5.206  1.00  0.00     0.274 HD
ENDBRANCH  38  39
ENDBRANCH  35  38
ENDBRANCH   1  34
TORSDOF 16
ENDMDL
MODEL 5
REMARK VINA RESULT: -6.651298035      2.217      4.599
REMARK  16 active torsions:
REMARK  status: ('A' for Active; 'I' for Inactive)
REMARK    1  A    between atoms: N1_1  and  C1_5 
REMARK    2  A    between atoms: C1_5  and  C2_6 
REMARK       I    between atoms: C2_6  and  N2_8 
REMARK    3  A    between atoms: N2_8  and  C3_10 
REMARK    4  A    between atoms: C10_19  and  O3_20 
REMARK    5  A    between atoms: C12_23  and  C13_24 
REMARK    6  A    between atoms: C13_24  and  C14_25 
REMARK    7  A    between atoms: C14_25  and  C15_26 
REMARK    8  A    between atoms: C15_26  and  C16_27 
REMARK    9  A    between atoms: C16_27  and  C17_28 
REMARK   10  A    between atoms: C17_28  and  C18_29 
REMARK   11  A    between atoms: C18_29  and  C19_30 
REMARK   12  A    between atoms: C19_30  and  N5_35 
REMARK   13  A    between atoms: N4_31  and  O4_33 
REMARK   14  A    between atoms: N5_35  and  C20_37 
REMARK   15  A    between atoms: C20_37  and  C21_38 
REMARK   16  A    between atoms: C21_38  and  O5_39 
ROOT
HETATM    1  C3  UNL     1      13.895  43.739  -9.634  1.00  0.00     0.216 C 
HETATM    2  C4  UNL     1      14.891  42.656  -9.685  1.00  0.00     0.120 C 
HETATM    3  C5  UNL     1      15.981  42.938  -8.644  1.00  0.00     0.038 C 
HETATM    4  C6  UNL     1      15.653  44.059  -7.735  1.00  0.00     0.105 C 
HETATM    5  C7  UNL     1      14.238  44.067  -7.279  1.00  0.00     0.225 C 
HETATM    6  O2  UNL     1      13.903  44.298  -6.090  1.00  0.00    -0.273 OA
HETATM    7  N3  UNL     1      13.278  43.784  -8.331  1.00  0.00    -0.304 N 
HETATM    8  C8  UNL     1      11.931  43.618  -7.964  1.00  0.00     0.095 C 
HETATM    9  C9  UNL     1      11.316  42.308  -7.816  1.00  0.00     0.022 C 
HETATM   10  C10 UNL     1      12.011  41.178  -7.190  1.00  0.00     0.144 C 
HETATM   11  C11 UNL     1      13.214  40.602  -7.802  1.00  0.00     0.060 C 
HETATM   12  C12 UNL     1      13.357  40.768  -9.278  1.00  0.00     0.079 C 
HETATM   13  N6  UNL     1      14.578  41.320  -9.632  1.00  0.00    -0.409 N 
ATOM     14  H6  UNL     1      15.322  40.666  -9.879  1.00  0.00     0.154 HD
ENDROOT
BRANCH  12  15
HETATM   15  C13 UNL     1      13.282  39.391  -9.979  1.00  0.00     0.025 C 
BRANCH  15  16
HETATM   16  C14 UNL     1      13.943  38.341  -9.114  1.00  0.00     0.002 C 
BRANCH  16  17
HETATM   17  C15 UNL     1      14.199  37.123  -9.992  1.00  0.00     0.000 C 
BRANCH  17  18
HETATM   18  C16 UNL     1      13.052  36.975 -10.957  1.00  0.00     0.000 C 
BRANCH  18  19
HETATM   19  C17 UNL     1      13.489  36.425 -12.285  1.00  0.00     0.007 C 
BRANCH  19  20
HETATM   20  C18 UNL     1      14.598  37.242 -12.881  1.00  0.00     0.078 C 
BRANCH  20  21
HETATM   21  C19 UNL     1      15.515  36.498 -13.750  1.00  0.00     0.097 C 
HETATM   22  N4  UNL     1      16.776  36.512 -13.411  1.00  0.00    -0.257 N 
ATOM     23  H4  UNL     1      17.438  36.003 -13.997  1.00  0.00     0.195 HD
BRANCH  22  24
HETATM   24  O4  UNL     1      17.257  37.169 -12.317  1.00  0.00    -0.288 OA
ATOM     25  H4  UNL     1      17.840  36.774 -11.679  1.00  0.00     0.244 HD
ENDBRANCH  22  24
BRANCH  21  26
HETATM   26  N5  UNL     1      15.160  35.773 -14.909  1.00  0.00    -0.376 N 
ATOM     27  H5  UNL     1      15.261  34.759 -14.871  1.00  0.00     0.160 HD
BRANCH  26  28
HETATM   28  C20 UNL     1      14.672  36.331 -16.128  1.00  0.00     0.147 C 
BRANCH  28  29
HETATM   29  C21 UNL     1      13.291  35.754 -16.461  1.00  0.00     0.183 C 
BRANCH  29  30
HETATM   30  O5  UNL     1      12.918  34.861 -15.462  1.00  0.00    -0.399 OA
ATOM     31  H5  UNL     1      12.779  34.003 -15.846  1.00  0.00     0.209 HD
ENDBRANCH  29  30
ENDBRANCH  28  29
ENDBRANCH  26  28
ENDBRANCH  21  26
ENDBRANCH  20  21
ENDBRANCH  19  20
ENDBRANCH  18  19
ENDBRANCH  17  18
ENDBRANCH  16  17
ENDBRANCH  15  16
ENDBRANCH  12  15
BRANCH  10  32
HETATM   32  O3  UNL     1      12.262  41.354  -5.807  1.00  0.00    -0.392 OA
ATOM     33  H3  UNL     1      11.747  40.787  -5.247  1.00  0.00     0.210 HD
ENDBRANCH  10  32
BRANCH   1  34
HETATM   34  N2  UNL     1      13.001  43.881 -10.738  1.00  0.00    -0.336 N 
HETATM   35  C2  UNL     1      13.301  44.708 -11.854  1.00  0.00     0.244 C 
HETATM   36  O1  UNL     1      14.381  45.358 -11.918  1.00  0.00    -0.272 OA
ATOM     37  H2  UNL     1      12.118  43.372 -10.725  1.00  0.00     0.164 HD
BRANCH  35  38
HETATM   38  C1  UNL     1      12.372  44.854 -13.000  1.00  0.00     0.332 C 
BRANCH  38  39
HETATM   39  N1  UNL     1      12.291  43.556 -13.659  1.00  0.00    -0.071 N 
ATOM     40  H13 UNL     1      12.236  43.627 -14.675  1.00  0.00     0.274 HD
ATOM     41  H12 UNL     1      13.162  43.029 -13.610  1.00  0.00     0.274 HD
ATOM     42  H11 UNL     1      11.500  43.059 -13.251  1.00  0.00     0.274 HD
ENDBRANCH  38  39
ENDBRANCH  35  38
ENDBRANCH   1  34
TORSDOF 16
ENDMDL
