MODEL 1
REMARK VINA RESULT: -6.187595680      0.000      0.000
REMARK  16 active torsions:
REMARK  status: ('A' for Active; 'I' for Inactive)
REMARK    1  A    between atoms: C2_2  and  C4_4 
REMARK    2  A    between atoms: C13_13  and  N1_14 
REMARK    3  A    between atoms: N1_14  and  C14_15 
REMARK    4  A    between atoms: N1_14  and  C15_17 
REMARK    5  A    between atoms: C15_17  and  C16_18 
REMARK    6  A    between atoms: C16_18  and  O2_19 
REMARK    7  A    between atoms: C16_18  and  C17_21 
REMARK    8  A    between atoms: C17_21  and  C18_22 
REMARK    9  A    between atoms: C18_22  and  N2_23 
REMARK   10  A    between atoms: N2_23  and  C19_26 
REMARK   11  A    between atoms: C19_26  and  C20_27 
REMARK   12  A    between atoms: C20_27  and  C21_28 
REMARK   13  A    between atoms: C21_28  and  N3_29 
REMARK   14  A    between atoms: C22_33  and  O3_34 
REMARK   15  A    between atoms: C23_36  and  O4_37 
REMARK   16  A    between atoms: C24_39  and  O5_40 
ROOT
HETATM    1  C4  UNL     1      15.995  42.079 -13.242  1.00  0.00    -0.002 C 
HETATM    2  C5  UNL     1      16.420  40.850 -14.003  1.00  0.00     0.018 C 
HETATM    3  C6  UNL     1      16.443  39.787 -12.948  1.00  0.00    -0.005 C 
HETATM    4  C7  UNL     1      16.107  40.484 -11.619  1.00  0.00     0.022 C 
HETATM    5  C8  UNL     1      15.146  41.556 -12.176  1.00  0.00    -0.039 C 
HETATM    6  C9  UNL     1      14.858  42.557 -11.082  1.00  0.00     0.015 C 
HETATM    7  C10 UNL     1      13.907  40.827 -12.518  1.00  0.00     0.010 C 
HETATM    8  C11 UNL     1      14.039  39.633 -13.387  1.00  0.00     0.008 C 
HETATM    9  C12 UNL     1      15.314  38.853 -13.209  1.00  0.00     0.022 C 
HETATM   10  C13 UNL     1      15.548  37.908 -14.342  1.00  0.00     0.122 C 
HETATM   11  C22 UNL     1      16.933  37.548 -14.672  1.00  0.00     0.172 C 
HETATM   12  C23 UNL     1      18.055  38.200 -13.968  1.00  0.00     0.178 C 
HETATM   13  C24 UNL     1      17.766  39.107 -12.841  1.00  0.00     0.158 C 
ENDROOT
BRANCH  10  14
HETATM   14  N1  UNL     1      14.731  36.692 -14.187  1.00  0.00    -0.349 N 
BRANCH  14  15
HETATM   15  C14 UNL     1      14.123  36.120 -15.317  1.00  0.00     0.351 C 
HETATM   16  O1  UNL     1      14.676  35.341 -16.130  1.00  0.00    -0.284 OA
ENDBRANCH  14  15
BRANCH  14  17
HETATM   17  C15 UNL     1      14.570  36.097 -12.906  1.00  0.00     0.157 C 
BRANCH  17  18
HETATM   18  C16 UNL     1      13.221  36.050 -12.311  1.00  0.00     0.137 C 
BRANCH  18  19
HETATM   19  O2  UNL     1      12.733  34.751 -12.198  1.00  0.00    -0.394 OA
ATOM     20  H2  UNL     1      11.889  34.641 -12.622  1.00  0.00     0.210 HD
ENDBRANCH  18  19
BRANCH  18  21
HETATM   21  C17 UNL     1      13.094  36.826 -11.043  1.00  0.00     0.060 C 
BRANCH  21  22
HETATM   22  C18 UNL     1      14.377  36.777 -10.219  1.00  0.00     0.235 C 
BRANCH  22  23
HETATM   23  N2  UNL     1      14.472  37.921  -9.340  1.00  0.00    -0.075 N 
ATOM     24  H22 UNL     1      14.569  37.638  -8.365  1.00  0.00     0.277 HD
ATOM     25  H21 UNL     1      15.361  38.408  -9.450  1.00  0.00     0.277 HD
BRANCH  23  26
HETATM   26  C19 UNL     1      13.357  38.805  -9.527  1.00  0.00     0.233 C 
BRANCH  26  27
HETATM   27  C20 UNL     1      12.908  39.438  -8.231  1.00  0.00     0.055 C 
BRANCH  27  28
HETATM   28  C21 UNL     1      12.097  38.392  -7.474  1.00  0.00     0.231 C 
BRANCH  28  29
HETATM   29  N3  UNL     1      12.475  38.367  -6.063  1.00  0.00    -0.079 N 
ATOM     30  H33 UNL     1      13.392  38.786  -5.910  1.00  0.00     0.274 HD
ATOM     31  H32 UNL     1      11.916  39.017  -5.511  1.00  0.00     0.274 HD
ATOM     32  H31 UNL     1      12.426  37.417  -5.693  1.00  0.00     0.274 HD
ENDBRANCH  28  29
ENDBRANCH  27  28
ENDBRANCH  26  27
ENDBRANCH  23  26
ENDBRANCH  22  23
ENDBRANCH  21  22
ENDBRANCH  18  21
ENDBRANCH  17  18
ENDBRANCH  14  17
ENDBRANCH  10  14
BRANCH  11  33
HETATM   33  O3  UNL     1      17.079  36.145 -14.503  1.00  0.00    -0.391 OA
ATOM     34  H3  UNL     1      17.987  35.919 -14.671  1.00  0.00     0.210 HD
ENDBRANCH  11  33
BRANCH  12  35
HETATM   35  O4  UNL     1      18.858  38.851 -14.949  1.00  0.00    -0.390 OA
ATOM     36  H4  UNL     1      19.751  38.864 -14.626  1.00  0.00     0.210 HD
ENDBRANCH  12  35
BRANCH  13  37
HETATM   37  O5  UNL     1      18.746  40.122 -12.745  1.00  0.00    -0.392 OA
ATOM     38  H5  UNL     1      19.519  39.726 -12.361  1.00  0.00     0.210 HD
ENDBRANCH  13  37
BRANCH   1  39
HETATM   39  C2  UNL     1      15.533  43.201 -14.067  1.00  0.00    -0.018 C 
HETATM   40  C1  UNL     1      15.047  42.909 -15.433  1.00  0.00     0.010 C 
HETATM   41  C3  UNL     1      16.657  44.223 -14.174  1.00  0.00     0.010 C 
ENDBRANCH   1  39
TORSDOF 16
ENDMDL
MODEL 2
REMARK VINA RESULT: -6.171552535      2.713      5.807
REMARK  16 active torsions:
REMARK  status: ('A' for Active; 'I' for Inactive)
REMARK    1  A    between atoms: C2_2  and  C4_4 
REMARK    2  A    between atoms: C13_13  and  N1_14 
REMARK    3  A    between atoms: N1_14  and  C14_15 
REMARK    4  A    between atoms: N1_14  and  C15_17 
REMARK    5  A    between atoms: C15_17  and  C16_18 
REMARK    6  A    between atoms: C16_18  and  O2_19 
REMARK    7  A    between atoms: C16_18  and  C17_21 
REMARK    8  A    between atoms: C17_21  and  C18_22 
REMARK    9  A    between atoms: C18_22  and  N2_23 
REMARK   10  A    between atoms: N2_23  and  C19_26 
REMARK   11  A    between atoms: C19_26  and  C20_27 
REMARK   12  A    between atoms: C20_27  and  C21_28 
REMARK   13  A    between atoms: C21_28  and  N3_29 
REMARK   14  A    between atoms: C22_33  and  O3_34 
REMARK   15  A    between atoms: C23_36  and  O4_37 
REMARK   16  A    between atoms: C24_39  and  O5_40 
ROOT
HETATM    1  C4  UNL     1      15.265  41.331 -10.958  1.00  0.00    -0.002 C 
HETATM    2  C5  UNL     1      15.474  39.840 -11.006  1.00  0.00     0.018 C 
HETATM    3  C6  UNL     1      14.291  39.356 -11.786  1.00  0.00    -0.005 C 
HETATM    4  C7  UNL     1      13.423  40.592 -12.076  1.00  0.00     0.022 C 
HETATM    5  C8  UNL     1      14.560  41.628 -12.201  1.00  0.00    -0.039 C 
HETATM    6  C9  UNL     1      13.949  43.008 -12.240  1.00  0.00     0.015 C 
HETATM    7  C10 UNL     1      15.209  41.338 -13.497  1.00  0.00     0.010 C 
HETATM    8  C11 UNL     1      15.641  39.942 -13.742  1.00  0.00     0.008 C 
HETATM    9  C12 UNL     1      14.774  38.884 -13.113  1.00  0.00     0.022 C 
HETATM   10  C13 UNL     1      15.455  37.555 -13.081  1.00  0.00     0.122 C 
HETATM   11  C22 UNL     1      15.085  36.610 -12.020  1.00  0.00     0.172 C 
HETATM   12  C23 UNL     1      14.150  37.022 -10.955  1.00  0.00     0.178 C 
HETATM   13  C24 UNL     1      13.489  38.337 -11.049  1.00  0.00     0.158 C 
ENDROOT
BRANCH  10  14
HETATM   14  N1  UNL     1      15.378  36.896 -14.397  1.00  0.00    -0.349 N 
BRANCH  14  15
HETATM   15  C14 UNL     1      16.510  36.239 -14.908  1.00  0.00     0.351 C 
HETATM   16  O1  UNL     1      17.115  36.538 -15.964  1.00  0.00    -0.284 OA
ENDBRANCH  14  15
BRANCH  14  17
HETATM   17  C15 UNL     1      14.164  36.915 -15.136  1.00  0.00     0.157 C 
BRANCH  17  18
HETATM   18  C16 UNL     1      13.729  35.681 -15.817  1.00  0.00     0.137 C 
BRANCH  18  19
HETATM   19  O2  UNL     1      12.783  34.971 -15.083  1.00  0.00    -0.394 OA
ATOM     20  H2  UNL     1      11.915  35.017 -15.468  1.00  0.00     0.210 HD
ENDBRANCH  18  19
BRANCH  18  21
HETATM   21  C17 UNL     1      13.320  35.886 -17.238  1.00  0.00     0.060 C 
BRANCH  21  22
HETATM   22  C18 UNL     1      13.765  34.729 -18.126  1.00  0.00     0.235 C 
BRANCH  22  23
HETATM   23  N2  UNL     1      13.895  33.509 -17.360  1.00  0.00    -0.075 N 
ATOM     24  H22 UNL     1      13.873  33.692 -16.357  1.00  0.00     0.277 HD
ATOM     25  H21 UNL     1      13.059  32.929 -17.431  1.00  0.00     0.277 HD
BRANCH  23  26
HETATM   26  C19 UNL     1      15.075  32.787 -17.742  1.00  0.00     0.233 C 
BRANCH  26  27
HETATM   27  C20 UNL     1      16.265  33.697 -17.929  1.00  0.00     0.055 C 
BRANCH  27  28
HETATM   28  C21 UNL     1      17.504  32.913 -17.510  1.00  0.00     0.231 C 
BRANCH  28  29
HETATM   29  N3  UNL     1      18.374  33.732 -16.670  1.00  0.00    -0.079 N 
ATOM     30  H33 UNL     1      19.224  34.007 -17.162  1.00  0.00     0.274 HD
ATOM     31  H32 UNL     1      17.982  34.660 -16.511  1.00  0.00     0.274 HD
ATOM     32  H31 UNL     1      18.582  33.254 -15.793  1.00  0.00     0.274 HD
ENDBRANCH  28  29
ENDBRANCH  27  28
ENDBRANCH  26  27
ENDBRANCH  23  26
ENDBRANCH  22  23
ENDBRANCH  21  22
ENDBRANCH  18  21
ENDBRANCH  17  18
ENDBRANCH  14  17
ENDBRANCH  10  14
BRANCH  11  33
HETATM   33  O3  UNL     1      14.552  35.443 -12.631  1.00  0.00    -0.391 OA
ATOM     34  H3  UNL     1      13.604  35.495 -12.594  1.00  0.00     0.210 HD
ENDBRANCH  11  33
BRANCH  12  35
HETATM   35  O4  UNL     1      14.828  36.884  -9.710  1.00  0.00    -0.390 OA
ATOM     36  H4  UNL     1      14.258  37.229  -9.032  1.00  0.00     0.210 HD
ENDBRANCH  12  35
BRANCH  13  37
HETATM   37  O5  UNL     1      13.231  38.867  -9.763  1.00  0.00    -0.392 OA
ATOM     38  H5  UNL     1      13.430  38.181  -9.136  1.00  0.00     0.210 HD
ENDBRANCH  13  37
BRANCH   1  39
HETATM   39  C2  UNL     1      16.443  42.119 -10.574  1.00  0.00    -0.018 C 
HETATM   40  C1  UNL     1      17.755  41.439 -10.537  1.00  0.00     0.010 C 
HETATM   41  C3  UNL     1      16.192  42.734  -9.204  1.00  0.00     0.010 C 
ENDBRANCH   1  39
TORSDOF 16
ENDMDL
MODEL 3
REMARK VINA RESULT: -6.164511548      3.593      6.753
REMARK  16 active torsions:
REMARK  status: ('A' for Active; 'I' for Inactive)
REMARK    1  A    between atoms: C2_2  and  C4_4 
REMARK    2  A    between atoms: C13_13  and  N1_14 
REMARK    3  A    between atoms: N1_14  and  C14_15 
REMARK    4  A    between atoms: N1_14  and  C15_17 
REMARK    5  A    between atoms: C15_17  and  C16_18 
REMARK    6  A    between atoms: C16_18  and  O2_19 
REMARK    7  A    between atoms: C16_18  and  C17_21 
REMARK    8  A    between atoms: C17_21  and  C18_22 
REMARK    9  A    between atoms: C18_22  and  N2_23 
REMARK   10  A    between atoms: N2_23  and  C19_26 
REMARK   11  A    between atoms: C19_26  and  C20_27 
REMARK   12  A    between atoms: C20_27  and  C21_28 
REMARK   13  A    between atoms: C21_28  and  N3_29 
REMARK   14  A    between atoms: C22_33  and  O3_34 
REMARK   15  A    between atoms: C23_36  and  O4_37 
REMARK   16  A    between atoms: C24_39  and  O5_40 
ROOT
HETATM    1  C4  UNL     1      14.931  43.642  -9.958  1.00  0.00    -0.002 C 
HETATM    2  C5  UNL     1      14.019  43.071  -8.904  1.00  0.00     0.018 C 
HETATM    3  C6  UNL     1      13.099  42.190  -9.691  1.00  0.00    -0.005 C 
HETATM    4  C7  UNL     1      13.483  42.367 -11.169  1.00  0.00     0.022 C 
HETATM    5  C8  UNL     1      14.997  42.594 -10.972  1.00  0.00    -0.039 C 
HETATM    6  C9  UNL     1      15.589  43.053 -12.283  1.00  0.00     0.015 C 
HETATM    7  C10 UNL     1      15.546  41.268 -10.619  1.00  0.00     0.010 C 
HETATM    8  C11 UNL     1      14.898  40.542  -9.500  1.00  0.00     0.008 C 
HETATM    9  C12 UNL     1      13.418  40.775  -9.359  1.00  0.00     0.022 C 
HETATM   10  C13 UNL     1      12.910  40.326  -8.028  1.00  0.00     0.122 C 
HETATM   11  C22 UNL     1      11.725  40.995  -7.476  1.00  0.00     0.172 C 
HETATM   12  C23 UNL     1      11.134  42.152  -8.175  1.00  0.00     0.178 C 
HETATM   13  C24 UNL     1      11.660  42.536  -9.499  1.00  0.00     0.158 C 
ENDROOT
BRANCH  10  14
HETATM   14  N1  UNL     1      12.726  38.865  -8.003  1.00  0.00    -0.349 N 
BRANCH  14  15
HETATM   15  C14 UNL     1      12.671  38.197  -6.768  1.00  0.00     0.351 C 
HETATM   16  O1  UNL     1      11.653  37.658  -6.272  1.00  0.00    -0.284 OA
ENDBRANCH  14  15
BRANCH  14  17
HETATM   17  C15 UNL     1      12.593  38.140  -9.218  1.00  0.00     0.157 C 
BRANCH  17  18
HETATM   18  C16 UNL     1      13.815  37.691  -9.914  1.00  0.00     0.137 C 
BRANCH  18  19
HETATM   19  O2  UNL     1      14.617  36.883  -9.114  1.00  0.00    -0.394 OA
ATOM     20  H2  UNL     1      15.183  37.386  -8.539  1.00  0.00     0.210 HD
ENDBRANCH  18  19
BRANCH  18  21
HETATM   21  C17 UNL     1      13.561  37.099 -11.260  1.00  0.00     0.060 C 
BRANCH  21  22
HETATM   22  C18 UNL     1      14.426  35.868 -11.508  1.00  0.00     0.235 C 
BRANCH  22  23
HETATM   23  N2  UNL     1      13.879  35.056 -12.572  1.00  0.00    -0.075 N 
ATOM     24  H22 UNL     1      14.577  34.421 -12.958  1.00  0.00     0.277 HD
ATOM     25  H21 UNL     1      13.220  34.364 -12.216  1.00  0.00     0.277 HD
BRANCH  23  26
HETATM   26  C19 UNL     1      13.286  35.876 -13.590  1.00  0.00     0.233 C 
BRANCH  26  27
HETATM   27  C20 UNL     1      14.209  36.077 -14.768  1.00  0.00     0.055 C 
BRANCH  27  28
HETATM   28  C21 UNL     1      13.403  35.783 -16.029  1.00  0.00     0.231 C 
BRANCH  28  29
HETATM   29  N3  UNL     1      13.576  34.392 -16.440  1.00  0.00    -0.079 N 
ATOM     30  H33 UNL     1      14.266  33.911 -15.864  1.00  0.00     0.274 HD
ATOM     31  H32 UNL     1      12.761  33.825 -16.209  1.00  0.00     0.274 HD
ATOM     32  H31 UNL     1      13.807  34.336 -17.433  1.00  0.00     0.274 HD
ENDBRANCH  28  29
ENDBRANCH  27  28
ENDBRANCH  26  27
ENDBRANCH  23  26
ENDBRANCH  22  23
ENDBRANCH  21  22
ENDBRANCH  18  21
ENDBRANCH  17  18
ENDBRANCH  14  17
ENDBRANCH  10  14
BRANCH  11  33
HETATM   33  O3  UNL     1      10.701  40.022  -7.316  1.00  0.00    -0.391 OA
ATOM     34  H3  UNL     1      10.227  40.219  -6.516  1.00  0.00     0.210 HD
ENDBRANCH  11  33
BRANCH  12  35
HETATM   35  O4  UNL     1      11.162  43.258  -7.278  1.00  0.00    -0.390 OA
ATOM     36  H4  UNL     1      10.412  43.179  -6.701  1.00  0.00     0.210 HD
ENDBRANCH  12  35
BRANCH  13  37
HETATM   37  O5  UNL     1      11.540  43.930  -9.706  1.00  0.00    -0.392 OA
ATOM     38  H5  UNL     1      10.616  44.115  -9.821  1.00  0.00     0.210 HD
ENDBRANCH  13  37
BRANCH   1  39
HETATM   39  C2  UNL     1      16.164  44.259  -9.455  1.00  0.00    -0.018 C 
HETATM   40  C1  UNL     1      16.515  44.058  -8.034  1.00  0.00     0.010 C 
HETATM   41  C3  UNL     1      16.103  45.757  -9.718  1.00  0.00     0.010 C 
ENDBRANCH   1  39
TORSDOF 16
ENDMDL
MODEL 4
REMARK VINA RESULT: -6.106842639      3.639      6.261
REMARK  16 active torsions:
REMARK  status: ('A' for Active; 'I' for Inactive)
REMARK    1  A    between atoms: C2_2  and  C4_4 
REMARK    2  A    between atoms: C13_13  and  N1_14 
REMARK    3  A    between atoms: N1_14  and  C14_15 
REMARK    4  A    between atoms: N1_14  and  C15_17 
REMARK    5  A    between atoms: C15_17  and  C16_18 
REMARK    6  A    between atoms: C16_18  and  O2_19 
REMARK    7  A    between atoms: C16_18  and  C17_21 
REMARK    8  A    between atoms: C17_21  and  C18_22 
REMARK    9  A    between atoms: C18_22  and  N2_23 
REMARK   10  A    between atoms: N2_23  and  C19_26 
REMARK   11  A    between atoms: C19_26  and  C20_27 
REMARK   12  A    between atoms: C20_27  and  C21_28 
REMARK   13  A    between atoms: C21_28  and  N3_29 
REMARK   14  A    between atoms: C22_33  and  O3_34 
REMARK   15  A    between atoms: C23_36  and  O4_37 
REMARK   16  A    between atoms: C24_39  and  O5_40 
ROOT
HETATM    1  C4  UNL     1      15.649  42.553 -12.401  1.00  0.00    -0.002 C 
HETATM    2  C5  UNL     1      14.652  43.153 -11.444  1.00  0.00     0.018 C 
HETATM    3  C6  UNL     1      13.555  42.133 -11.412  1.00  0.00    -0.005 C 
HETATM    4  C7  UNL     1      13.947  41.039 -12.419  1.00  0.00     0.022 C 
HETATM    5  C8  UNL     1      15.478  41.114 -12.233  1.00  0.00    -0.039 C 
HETATM    6  C9  UNL     1      16.134  40.292 -13.316  1.00  0.00     0.015 C 
HETATM    7  C10 UNL     1      15.739  40.495 -10.916  1.00  0.00     0.010 C 
HETATM    8  C11 UNL     1      14.969  41.010  -9.759  1.00  0.00     0.008 C 
HETATM    9  C12 UNL     1      13.573  41.476 -10.077  1.00  0.00     0.022 C 
HETATM   10  C13 UNL     1      13.002  42.308  -8.976  1.00  0.00     0.122 C 
HETATM   11  C22 UNL     1      11.993  43.317  -9.320  1.00  0.00     0.172 C 
HETATM   12  C23 UNL     1      11.649  43.570 -10.732  1.00  0.00     0.178 C 
HETATM   13  C24 UNL     1      12.226  42.703 -11.778  1.00  0.00     0.158 C 
ENDROOT
BRANCH  10  14
HETATM   14  N1  UNL     1      12.514  41.456  -7.876  1.00  0.00    -0.349 N 
BRANCH  14  15
HETATM   15  C14 UNL     1      12.843  41.784  -6.551  1.00  0.00     0.351 C 
HETATM   16  O1  UNL     1      13.605  42.715  -6.194  1.00  0.00    -0.284 OA
ENDBRANCH  14  15
BRANCH  14  17
HETATM   17  C15 UNL     1      11.706  40.320  -8.156  1.00  0.00     0.157 C 
BRANCH  17  18
HETATM   18  C16 UNL     1      11.873  39.111  -7.327  1.00  0.00     0.137 C 
BRANCH  18  19
HETATM   19  O2  UNL     1      10.716  38.339  -7.272  1.00  0.00    -0.394 OA
ATOM     20  H2  UNL     1      10.728  37.716  -6.554  1.00  0.00     0.210 HD
ENDBRANCH  18  19
BRANCH  18  21
HETATM   21  C17 UNL     1      13.086  38.309  -7.666  1.00  0.00     0.060 C 
BRANCH  21  22
HETATM   22  C18 UNL     1      13.128  37.949  -9.148  1.00  0.00     0.235 C 
BRANCH  22  23
HETATM   23  N2  UNL     1      14.420  37.413  -9.513  1.00  0.00    -0.075 N 
ATOM     24  H22 UNL     1      15.113  38.152  -9.636  1.00  0.00     0.277 HD
ATOM     25  H21 UNL     1      14.857  36.920  -8.735  1.00  0.00     0.277 HD
BRANCH  23  26
HETATM   26  C19 UNL     1      14.320  36.581 -10.678  1.00  0.00     0.233 C 
BRANCH  26  27
HETATM   27  C20 UNL     1      13.536  37.244 -11.786  1.00  0.00     0.055 C 
BRANCH  27  28
HETATM   28  C21 UNL     1      13.519  36.279 -12.967  1.00  0.00     0.231 C 
BRANCH  28  29
HETATM   29  N3  UNL     1      13.678  34.901 -12.511  1.00  0.00    -0.079 N 
ATOM     30  H33 UNL     1      14.584  34.752 -12.067  1.00  0.00     0.274 HD
ATOM     31  H32 UNL     1      13.080  34.696 -11.710  1.00  0.00     0.274 HD
ATOM     32  H31 UNL     1      13.519  34.246 -13.277  1.00  0.00     0.274 HD
ENDBRANCH  28  29
ENDBRANCH  27  28
ENDBRANCH  26  27
ENDBRANCH  23  26
ENDBRANCH  22  23
ENDBRANCH  21  22
ENDBRANCH  18  21
ENDBRANCH  17  18
ENDBRANCH  14  17
ENDBRANCH  10  14
BRANCH  11  33
HETATM   33  O3  UNL     1      10.789  42.993  -8.637  1.00  0.00    -0.391 OA
ATOM     34  H3  UNL     1      10.600  43.690  -8.021  1.00  0.00     0.210 HD
ENDBRANCH  11  33
BRANCH  12  35
HETATM   35  O4  UNL     1      11.924  44.941 -11.004  1.00  0.00    -0.390 OA
ATOM     36  H4  UNL     1      11.802  45.080 -11.936  1.00  0.00     0.210 HD
ENDBRANCH  12  35
BRANCH  13  37
HETATM   37  O5  UNL     1      12.400  43.415 -12.986  1.00  0.00    -0.392 OA
ATOM     38  H5  UNL     1      12.469  44.335 -12.759  1.00  0.00     0.210 HD
ENDBRANCH  13  37
BRANCH   1  39
HETATM   39  C2  UNL     1      16.992  43.144 -12.362  1.00  0.00    -0.018 C 
HETATM   40  C1  UNL     1      17.461  43.727 -11.087  1.00  0.00     0.010 C 
HETATM   41  C3  UNL     1      17.082  44.222 -13.434  1.00  0.00     0.010 C 
ENDBRANCH   1  39
TORSDOF 16
ENDMDL
MODEL 5
REMARK VINA RESULT: -6.058156539      3.488      6.292
REMARK  16 active torsions:
REMARK  status: ('A' for Active; 'I' for Inactive)
REMARK    1  A    between atoms: C2_2  and  C4_4 
REMARK    2  A    between atoms: C13_13  and  N1_14 
REMARK    3  A    between atoms: N1_14  and  C14_15 
REMARK    4  A    between atoms: N1_14  and  C15_17 
REMARK    5  A    between atoms: C15_17  and  C16_18 
REMARK    6  A    between atoms: C16_18  and  O2_19 
REMARK    7  A    between atoms: C16_18  and  C17_21 
REMARK    8  A    between atoms: C17_21  and  C18_22 
REMARK    9  A    between atoms: C18_22  and  N2_23 
REMARK   10  A    between atoms: N2_23  and  C19_26 
REMARK   11  A    between atoms: C19_26  and  C20_27 
REMARK   12  A    between atoms: C20_27  and  C21_28 
REMARK   13  A    between atoms: C21_28  and  N3_29 
REMARK   14  A    between atoms: C22_33  and  O3_34 
REMARK   15  A    between atoms: C23_36  and  O4_37 
REMARK   16  A    between atoms: C24_39  and  O5_40 
ROOT
HETATM    1  C4  UNL     1      15.201  43.614 -10.092  1.00  0.00    -0.002 C 
HETATM    2  C5  UNL     1      14.194  43.072  -9.112  1.00  0.00     0.018 C 
HETATM    3  C6  UNL     1      13.351  42.166  -9.956  1.00  0.00    -0.005 C 
HETATM    4  C7  UNL     1      13.873  42.302 -11.396  1.00  0.00     0.022 C 
HETATM    5  C8  UNL     1      15.362  42.538 -11.064  1.00  0.00    -0.039 C 
HETATM    6  C9  UNL     1      16.074  42.960 -12.327  1.00  0.00     0.015 C 
HETATM    7  C10 UNL     1      15.874  41.224 -10.623  1.00  0.00     0.010 C 
HETATM    8  C11 UNL     1      15.124  40.528  -9.550  1.00  0.00     0.008 C 
HETATM    9  C12 UNL     1      13.637  40.762  -9.556  1.00  0.00     0.022 C 
HETATM   10  C13 UNL     1      13.006  40.351  -8.266  1.00  0.00     0.122 C 
HETATM   11  C22 UNL     1      11.775  41.032  -7.846  1.00  0.00     0.172 C 
HETATM   12  C23 UNL     1      11.253  42.168  -8.631  1.00  0.00     0.178 C 
HETATM   13  C24 UNL     1      11.901  42.515  -9.910  1.00  0.00     0.158 C 
ENDROOT
BRANCH  10  14
HETATM   14  N1  UNL     1      12.820  38.890  -8.216  1.00  0.00    -0.349 N 
BRANCH  14  15
HETATM   15  C14 UNL     1      12.818  38.236  -6.973  1.00  0.00     0.351 C 
HETATM   16  O1  UNL     1      11.811  37.761  -6.397  1.00  0.00    -0.284 OA
ENDBRANCH  14  15
BRANCH  14  17
HETATM   17  C15 UNL     1      12.632  38.152  -9.416  1.00  0.00     0.157 C 
BRANCH  17  18
HETATM   18  C16 UNL     1      13.800  37.500 -10.039  1.00  0.00     0.137 C 
BRANCH  18  19
HETATM   19  O2  UNL     1      14.641  36.906  -9.102  1.00  0.00    -0.394 OA
ATOM     20  H2  UNL     1      14.189  36.684  -8.296  1.00  0.00     0.210 HD
ENDBRANCH  18  19
BRANCH  18  21
HETATM   21  C17 UNL     1      13.452  36.584 -11.164  1.00  0.00     0.060 C 
BRANCH  21  22
HETATM   22  C18 UNL     1      14.666  35.794 -11.645  1.00  0.00     0.235 C 
BRANCH  22  23
HETATM   23  N2  UNL     1      15.826  36.650 -11.762  1.00  0.00    -0.075 N 
ATOM     24  H22 UNL     1      15.816  37.394 -11.065  1.00  0.00     0.277 HD
ATOM     25  H21 UNL     1      16.677  36.172 -11.467  1.00  0.00     0.277 HD
BRANCH  23  26
HETATM   26  C19 UNL     1      15.946  37.172 -13.093  1.00  0.00     0.233 C 
BRANCH  26  27
HETATM   27  C20 UNL     1      16.414  38.608 -13.102  1.00  0.00     0.055 C 
BRANCH  27  28
HETATM   28  C21 UNL     1      15.406  39.407 -13.920  1.00  0.00     0.231 C 
BRANCH  28  29
HETATM   29  N3  UNL     1      14.082  39.353 -13.306  1.00  0.00    -0.079 N 
ATOM     30  H33 UNL     1      13.345  39.259 -14.004  1.00  0.00     0.274 HD
ATOM     31  H32 UNL     1      13.933  38.475 -12.808  1.00  0.00     0.274 HD
ATOM     32  H31 UNL     1      13.932  40.161 -12.702  1.00  0.00     0.274 HD
ENDBRANCH  28  29
ENDBRANCH  27  28
ENDBRANCH  26  27
ENDBRANCH  23  26
ENDBRANCH  22  23
ENDBRANCH  21  22
ENDBRANCH  18  21
ENDBRANCH  17  18
ENDBRANCH  14  17
ENDBRANCH  10  14
BRANCH  11  33
HETATM   33  O3  UNL     1      10.740  40.062  -7.755  1.00  0.00    -0.391 OA
ATOM     34  H3  UNL     1       9.937  40.453  -8.079  1.00  0.00     0.210 HD
ENDBRANCH  11  33
BRANCH  12  35
HETATM   35  O4  UNL     1      11.198  43.299  -7.767  1.00  0.00    -0.390 OA
ATOM     36  H4  UNL     1      12.023  43.342  -7.298  1.00  0.00     0.210 HD
ENDBRANCH  12  35
BRANCH  13  37
HETATM   37  O5  UNL     1      11.802  43.902 -10.166  1.00  0.00    -0.392 OA
ATOM     38  H5  UNL     1      11.460  43.997 -11.047  1.00  0.00     0.210 HD
ENDBRANCH  13  37
BRANCH   1  39
HETATM   39  C2  UNL     1      16.382  44.247  -9.493  1.00  0.00    -0.018 C 
HETATM   40  C1  UNL     1      16.584  44.111  -8.035  1.00  0.00     0.010 C 
HETATM   41  C3  UNL     1      16.362  45.733  -9.829  1.00  0.00     0.010 C 
ENDBRANCH   1  39
TORSDOF 16
ENDMDL
