MODEL 1
REMARK VINA RESULT: -6.497547505      0.000      0.000
REMARK  0 active torsions:
REMARK  status: ('A' for Active; 'I' for Inactive)
REMARK       I    between atoms: C1_2  and  N2_4 
ROOT
HETATM    1  N1  UNL     1      29.397  16.152  47.122  1.00  0.00    -0.040 NA
HETATM    2  C1  UNL     1      28.190  16.308  46.417  1.00  0.00     0.334 C 
HETATM    3  O1  UNL     1      28.172  16.466  45.147  1.00  0.00    -0.251 OA
HETATM    4  N2  UNL     1      26.952  16.298  47.070  1.00  0.00    -0.291 N 
ATOM      5  H2  UNL     1      26.479  15.405  47.209  1.00  0.00     0.172 HD
HETATM    6  C2  UNL     1      26.390  17.368  47.500  1.00  0.00     0.193 A 
HETATM    7  N3  UNL     1      25.179  17.259  48.127  1.00  0.00    -0.277 N 
ATOM      8  H3  UNL     1      24.747  16.341  48.240  1.00  0.00     0.189 HD
HETATM    9  N4  UNL     1      24.568  18.327  48.583  1.00  0.00    -0.250 N 
ATOM     10  H4  UNL     1      23.667  18.206  49.045  1.00  0.00     0.192 HD
HETATM   11  C3  UNL     1      25.065  19.572  48.474  1.00  0.00     0.341 A 
HETATM   12  O2  UNL     1      24.456  20.589  48.923  1.00  0.00    -0.245 OA
HETATM   13  N5  UNL     1      26.254  19.736  47.866  1.00  0.00    -0.271 N 
ATOM     14  H5  UNL     1      26.661  20.666  47.767  1.00  0.00     0.174 HD
HETATM   15  C4  UNL     1      26.906  18.637  47.384  1.00  0.00     0.295 A 
HETATM   16  O3  UNL     1      28.006  18.795  46.822  1.00  0.00    -0.264 OA
ENDROOT
TORSDOF 0
ENDMDL
MODEL 2
REMARK VINA RESULT: -6.145040778      3.157      4.696
REMARK  0 active torsions:
REMARK  status: ('A' for Active; 'I' for Inactive)
REMARK       I    between atoms: C1_2  and  N2_4 
ROOT
HETATM    1  N1  UNL     1      26.469  16.770  47.569  1.00  0.00    -0.040 NA
HETATM    2  C1  UNL     1      27.759  16.534  47.063  1.00  0.00     0.334 C 
HETATM    3  O1  UNL     1      28.800  16.660  47.796  1.00  0.00    -0.251 OA
HETATM    4  N2  UNL     1      27.967  16.151  45.733  1.00  0.00    -0.291 N 
ATOM      5  H2  UNL     1      27.953  15.157  45.501  1.00  0.00     0.172 HD
HETATM    6  C2  UNL     1      28.173  17.000  44.794  1.00  0.00     0.193 A 
HETATM    7  N3  UNL     1      28.365  16.531  43.523  1.00  0.00    -0.277 N 
ATOM      8  H3  UNL     1      28.343  15.527  43.345  1.00  0.00     0.189 HD
HETATM    9  N4  UNL     1      28.579  17.364  42.532  1.00  0.00    -0.250 N 
ATOM     10  H4  UNL     1      28.717  16.977  41.599  1.00  0.00     0.192 HD
HETATM   11  C3  UNL     1      28.626  18.700  42.680  1.00  0.00     0.341 A 
HETATM   12  O2  UNL     1      28.834  19.485  41.707  1.00  0.00    -0.245 OA
HETATM   13  N5  UNL     1      28.443  19.215  43.909  1.00  0.00    -0.271 N 
ATOM     14  H5  UNL     1      28.471  20.224  44.058  1.00  0.00     0.174 HD
HETATM   15  C4  UNL     1      28.219  18.365  44.954  1.00  0.00     0.295 A 
HETATM   16  O3  UNL     1      28.050  18.848  46.090  1.00  0.00    -0.264 OA
ENDROOT
TORSDOF 0
ENDMDL
MODEL 3
REMARK VINA RESULT: -6.072596329      2.364      2.662
REMARK  0 active torsions:
REMARK  status: ('A' for Active; 'I' for Inactive)
REMARK       I    between atoms: C1_2  and  N2_4 
ROOT
HETATM    1  N1  UNL     1      28.763  16.468  47.366  1.00  0.00    -0.040 NA
HETATM    2  C1  UNL     1      28.399  17.759  46.944  1.00  0.00     0.334 C 
HETATM    3  O1  UNL     1      28.862  18.806  47.517  1.00  0.00    -0.251 OA
HETATM    4  N2  UNL     1      27.512  17.961  45.881  1.00  0.00    -0.291 N 
ATOM      5  H2  UNL     1      27.887  18.017  44.933  1.00  0.00     0.172 HD
HETATM    6  C2  UNL     1      26.246  18.078  46.050  1.00  0.00     0.193 A 
HETATM    7  N3  UNL     1      25.458  18.273  44.949  1.00  0.00    -0.277 N 
ATOM      8  H3  UNL     1      25.883  18.323  44.023  1.00  0.00     0.189 HD
HETATM    9  N4  UNL     1      24.158  18.398  45.075  1.00  0.00    -0.250 N 
ATOM     10  H4  UNL     1      23.603  18.542  44.232  1.00  0.00     0.192 HD
HETATM   11  C3  UNL     1      23.517  18.347  46.257  1.00  0.00     0.341 A 
HETATM   12  O2  UNL     1      22.259  18.471  46.354  1.00  0.00    -0.245 OA
HETATM   13  N5  UNL     1      24.244  18.157  47.373  1.00  0.00    -0.271 N 
ATOM     14  H5  UNL     1      23.791  18.112  48.285  1.00  0.00     0.174 HD
HETATM   15  C4  UNL     1      25.599  18.025  47.262  1.00  0.00     0.295 A 
HETATM   16  O3  UNL     1      26.267  17.849  48.299  1.00  0.00    -0.264 OA
ENDROOT
TORSDOF 0
ENDMDL
MODEL 4
REMARK VINA RESULT: -6.048525710      3.235      4.015
REMARK  0 active torsions:
REMARK  status: ('A' for Active; 'I' for Inactive)
REMARK       I    between atoms: C1_2  and  N2_4 
ROOT
HETATM    1  N1  UNL     1      28.490  19.909  42.565  1.00  0.00    -0.040 NA
HETATM    2  C1  UNL     1      28.062  18.569  42.536  1.00  0.00     0.334 C 
HETATM    3  O1  UNL     1      27.235  18.150  41.654  1.00  0.00    -0.251 OA
HETATM    4  N2  UNL     1      28.520  17.632  43.469  1.00  0.00    -0.291 N 
ATOM      5  H2  UNL     1      29.375  17.114  43.265  1.00  0.00     0.172 HD
HETATM    6  C2  UNL     1      27.907  17.400  44.572  1.00  0.00     0.193 A 
HETATM    7  N3  UNL     1      28.431  16.465  45.423  1.00  0.00    -0.277 N 
ATOM      8  H3  UNL     1      29.289  15.975  45.170  1.00  0.00     0.189 HD
HETATM    9  N4  UNL     1      27.837  16.196  46.561  1.00  0.00    -0.250 N 
ATOM     10  H4  UNL     1      28.257  15.494  47.170  1.00  0.00     0.192 HD
HETATM   11  C3  UNL     1      26.704  16.795  46.969  1.00  0.00     0.341 A 
HETATM   12  O2  UNL     1      26.148  16.518  48.075  1.00  0.00    -0.245 OA
HETATM   13  N5  UNL     1      26.146  17.722  46.171  1.00  0.00    -0.271 N 
ATOM     14  H5  UNL     1      25.287  18.197  46.449  1.00  0.00     0.174 HD
HETATM   15  C4  UNL     1      26.748  18.017  44.981  1.00  0.00     0.295 A 
HETATM   16  O3  UNL     1      26.227  18.877  44.246  1.00  0.00    -0.264 OA
ENDROOT
TORSDOF 0
ENDMDL
MODEL 5
REMARK VINA RESULT: -6.025224057      2.108      4.570
REMARK  0 active torsions:
REMARK  status: ('A' for Active; 'I' for Inactive)
REMARK       I    between atoms: C1_2  and  N2_4 
ROOT
HETATM    1  N1  UNL     1      24.792  18.722  47.660  1.00  0.00    -0.040 NA
HETATM    2  C1  UNL     1      25.833  19.146  46.814  1.00  0.00     0.334 C 
HETATM    3  O1  UNL     1      25.665  19.263  45.551  1.00  0.00    -0.251 OA
HETATM    4  N2  UNL     1      27.103  19.457  47.314  1.00  0.00    -0.291 N 
ATOM      5  H2  UNL     1      27.288  20.412  47.624  1.00  0.00     0.172 HD
HETATM    6  C2  UNL     1      28.044  18.589  47.398  1.00  0.00     0.193 A 
HETATM    7  N3  UNL     1      29.253  18.987  47.901  1.00  0.00    -0.277 N 
ATOM      8  H3  UNL     1      29.385  19.954  48.196  1.00  0.00     0.189 HD
HETATM    9  N4  UNL     1      30.243  18.132  48.005  1.00  0.00    -0.250 N 
ATOM     10  H4  UNL     1      31.129  18.465  48.385  1.00  0.00     0.192 HD
HETATM   11  C3  UNL     1      30.153  16.841  47.638  1.00  0.00     0.341 A 
HETATM   12  O2  UNL     1      31.125  16.034  47.749  1.00  0.00    -0.245 OA
HETATM   13  N5  UNL     1      28.987  16.396  47.138  1.00  0.00    -0.271 N 
ATOM     14  H5  UNL     1      28.883  15.423  46.851  1.00  0.00     0.174 HD
HETATM   15  C4  UNL     1      27.943  17.270  47.021  1.00  0.00     0.295 A 
HETATM   16  O3  UNL     1      26.865  16.853  46.556  1.00  0.00    -0.264 OA
ENDROOT
TORSDOF 0
ENDMDL
