MODEL 1
REMARK VINA RESULT: -5.756082963      0.000      0.000
REMARK  4 active torsions:
REMARK  status: ('A' for Active; 'I' for Inactive)
REMARK    1  A    between atoms: N1_1  and  C1_4 
REMARK    2  A    between atoms: C4_11  and  N4_12 
REMARK    3  A    between atoms: N4_12  and  N5_14 
REMARK    4  A    between atoms: C5_17  and  C6_18 
ROOT
HETATM    1  C1  UNL     1      29.290  18.874  47.430  1.00  0.00     0.677 A 
HETATM    2  N2  UNL     1      28.690  18.780  46.227  1.00  0.00    -0.189 N 
ATOM      3  H2  UNL     1      29.150  18.851  45.319  1.00  0.00     0.184 HD
HETATM    4  C2  UNL     1      27.379  18.576  46.434  1.00  0.00     0.094 A 
HETATM    5  C3  UNL     1      27.158  18.543  47.800  1.00  0.00     0.106 A 
HETATM    6  N3  UNL     1      28.328  18.726  48.389  1.00  0.00    -0.187 N 
ATOM      7  H3  UNL     1      28.487  18.751  49.396  1.00  0.00     0.184 HD
HETATM    8  C4  UNL     1      25.841  18.338  47.620  1.00  0.00     0.092 A 
HETATM    9  C5  UNL     1      26.096  18.376  46.186  1.00  0.00     0.062 A 
ENDROOT
BRANCH   8  10
HETATM   10  N4  UNL     1      24.731  18.166  48.499  1.00  0.00    -0.304 N 
ATOM     11  H4  UNL     1      24.884  17.641  49.360  1.00  0.00     0.186 HD
BRANCH  10  12
HETATM   12  N5  UNL     1      23.465  18.661  48.265  1.00  0.00    -0.345 N 
ATOM     13  H52 UNL     1      22.905  18.175  47.565  1.00  0.00     0.176 HD
ATOM     14  H51 UNL     1      23.063  19.469  48.742  1.00  0.00     0.176 HD
ENDBRANCH  10  12
ENDBRANCH   8  10
BRANCH   9  15
HETATM   15  C6  UNL     1      25.284  18.249  44.988  1.00  0.00     0.274 C 
HETATM   16  O1  UNL     1      24.021  18.165  45.095  1.00  0.00    -0.301 OA
ENDBRANCH   9  15
BRANCH   1  17
HETATM   17  N1  UNL     1      30.554  19.071  47.647  1.00  0.00    -0.234 N 
ATOM     18  H12 UNL     1      31.251  19.307  46.940  1.00  0.00     0.174 HD
ATOM     19  H11 UNL     1      31.029  19.017  48.548  1.00  0.00     0.174 HD
ENDBRANCH   1  17
TORSDOF 4
ENDMDL
MODEL 2
REMARK VINA RESULT: -5.688089223      2.636      4.654
REMARK  4 active torsions:
REMARK  status: ('A' for Active; 'I' for Inactive)
REMARK    1  A    between atoms: N1_1  and  C1_4 
REMARK    2  A    between atoms: C4_11  and  N4_12 
REMARK    3  A    between atoms: N4_12  and  N5_14 
REMARK    4  A    between atoms: C5_17  and  C6_18 
ROOT
HETATM    1  C1  UNL     1      24.997  18.549  47.941  1.00  0.00     0.677 A 
HETATM    2  N2  UNL     1      26.136  18.954  48.538  1.00  0.00    -0.189 N 
ATOM      3  H2  UNL     1      26.211  19.385  49.459  1.00  0.00     0.184 HD
HETATM    4  C2  UNL     1      27.155  18.690  47.704  1.00  0.00     0.094 A 
HETATM    5  C3  UNL     1      26.637  18.106  46.561  1.00  0.00     0.106 A 
HETATM    6  N3  UNL     1      25.326  18.028  46.722  1.00  0.00    -0.187 N 
ATOM      7  H3  UNL     1      24.668  17.642  46.046  1.00  0.00     0.184 HD
HETATM    8  C4  UNL     1      27.862  17.998  46.017  1.00  0.00     0.092 A 
HETATM    9  C5  UNL     1      28.387  18.613  47.228  1.00  0.00     0.062 A 
ENDROOT
BRANCH   8  10
HETATM   10  N4  UNL     1      28.361  17.489  44.780  1.00  0.00    -0.304 N 
ATOM     11  H4  UNL     1      28.575  16.493  44.729  1.00  0.00     0.186 HD
BRANCH  10  12
HETATM   12  N5  UNL     1      28.572  18.251  43.650  1.00  0.00    -0.345 N 
ATOM     13  H52 UNL     1      29.166  19.073  43.757  1.00  0.00     0.176 HD
ATOM     14  H51 UNL     1      28.178  18.045  42.732  1.00  0.00     0.176 HD
ENDBRANCH  10  12
ENDBRANCH   8  10
BRANCH   9  15
HETATM   15  C6  UNL     1      29.704  18.987  47.711  1.00  0.00     0.274 C 
HETATM   16  O1  UNL     1      30.494  18.086  48.133  1.00  0.00    -0.301 OA
ENDBRANCH   9  15
BRANCH   1  17
HETATM   17  N1  UNL     1      23.799  18.635  48.432  1.00  0.00    -0.234 N 
ATOM     18  H12 UNL     1      23.546  19.078  49.315  1.00  0.00     0.174 HD
ATOM     19  H11 UNL     1      22.944  18.274  48.007  1.00  0.00     0.174 HD
ENDBRANCH   1  17
TORSDOF 4
ENDMDL
MODEL 3
REMARK VINA RESULT: -5.571990640      1.873      4.260
REMARK  4 active torsions:
REMARK  status: ('A' for Active; 'I' for Inactive)
REMARK    1  A    between atoms: N1_1  and  C1_4 
REMARK    2  A    between atoms: C4_11  and  N4_12 
REMARK    3  A    between atoms: N4_12  and  N5_14 
REMARK    4  A    between atoms: C5_17  and  C6_18 
ROOT
HETATM    1  C1  UNL     1      24.752  18.571  48.091  1.00  0.00     0.677 A 
HETATM    2  N2  UNL     1      25.203  17.503  47.405  1.00  0.00    -0.189 N 
ATOM      3  H2  UNL     1      24.638  16.724  47.067  1.00  0.00     0.184 HD
HETATM    4  C2  UNL     1      26.528  17.645  47.245  1.00  0.00     0.094 A 
HETATM    5  C3  UNL     1      26.912  18.831  47.847  1.00  0.00     0.106 A 
HETATM    6  N3  UNL     1      25.820  19.380  48.356  1.00  0.00    -0.187 N 
ATOM      7  H3  UNL     1      25.783  20.264  48.862  1.00  0.00     0.184 HD
HETATM    8  C4  UNL     1      28.196  18.635  47.502  1.00  0.00     0.092 A 
HETATM    9  C5  UNL     1      27.773  17.391  46.874  1.00  0.00     0.062 A 
ENDROOT
BRANCH   8  10
HETATM   10  N4  UNL     1      29.403  19.370  47.700  1.00  0.00    -0.304 N 
ATOM     11  H4  UNL     1      29.348  20.389  47.672  1.00  0.00     0.186 HD
BRANCH  10  12
HETATM   12  N5  UNL     1      30.638  18.799  47.926  1.00  0.00    -0.345 N 
ATOM     13  H52 UNL     1      30.878  17.987  47.357  1.00  0.00     0.176 HD
ATOM     14  H51 UNL     1      31.312  19.134  48.614  1.00  0.00     0.176 HD
ENDBRANCH  10  12
ENDBRANCH   8  10
BRANCH   9  15
HETATM   15  C6  UNL     1      28.435  16.321  46.149  1.00  0.00     0.274 C 
HETATM   16  O1  UNL     1      28.265  16.218  44.895  1.00  0.00    -0.301 OA
ENDBRANCH   9  15
BRANCH   1  17
HETATM   17  N1  UNL     1      23.523  18.797  48.442  1.00  0.00    -0.234 N 
ATOM     18  H12 UNL     1      22.795  19.190  47.845  1.00  0.00     0.174 HD
ATOM     19  H11 UNL     1      23.112  18.617  49.359  1.00  0.00     0.174 HD
ENDBRANCH   1  17
TORSDOF 4
ENDMDL
MODEL 4
REMARK VINA RESULT: -5.563056610      2.210      2.787
REMARK  4 active torsions:
REMARK  status: ('A' for Active; 'I' for Inactive)
REMARK    1  A    between atoms: N1_1  and  C1_4 
REMARK    2  A    between atoms: C4_11  and  N4_12 
REMARK    3  A    between atoms: N4_12  and  N5_14 
REMARK    4  A    between atoms: C5_17  and  C6_18 
ROOT
HETATM    1  C1  UNL     1      28.085  18.286  43.766  1.00  0.00     0.677 A 
HETATM    2  N2  UNL     1      26.813  18.703  43.612  1.00  0.00    -0.189 N 
ATOM      3  H2  UNL     1      26.444  19.222  42.816  1.00  0.00     0.184 HD
HETATM    4  C2  UNL     1      26.119  18.315  44.693  1.00  0.00     0.094 A 
HETATM    5  C3  UNL     1      26.980  17.640  45.541  1.00  0.00     0.106 A 
HETATM    6  N3  UNL     1      28.169  17.631  44.962  1.00  0.00    -0.187 N 
ATOM      7  H3  UNL     1      29.012  17.205  45.346  1.00  0.00     0.184 HD
HETATM    8  C4  UNL     1      25.996  17.428  46.433  1.00  0.00     0.092 A 
HETATM    9  C5  UNL     1      25.106  18.142  45.527  1.00  0.00     0.062 A 
ENDROOT
BRANCH   8  10
HETATM   10  N4  UNL     1      25.925  16.777  47.701  1.00  0.00    -0.304 N 
ATOM     11  H4  UNL     1      26.670  16.123  47.941  1.00  0.00     0.186 HD
BRANCH  10  12
HETATM   12  N5  UNL     1      24.919  16.971  48.623  1.00  0.00    -0.345 N 
ATOM     13  H52 UNL     1      24.652  16.164  49.187  1.00  0.00     0.176 HD
ATOM     14  H51 UNL     1      24.436  17.857  48.774  1.00  0.00     0.176 HD
ENDBRANCH  10  12
ENDBRANCH   8  10
BRANCH   9  15
HETATM   15  C6  UNL     1      23.701  18.509  45.534  1.00  0.00     0.274 C 
HETATM   16  O1  UNL     1      23.112  18.705  46.642  1.00  0.00    -0.301 OA
ENDBRANCH   9  15
BRANCH   1  17
HETATM   17  N1  UNL     1      29.062  18.469  42.930  1.00  0.00    -0.234 N 
ATOM     18  H12 UNL     1      30.052  18.511  43.171  1.00  0.00     0.174 HD
ATOM     19  H11 UNL     1      28.980  18.595  41.922  1.00  0.00     0.174 HD
ENDBRANCH   1  17
TORSDOF 4
ENDMDL
MODEL 5
REMARK VINA RESULT: -5.469251115      3.014      3.994
REMARK  4 active torsions:
REMARK  status: ('A' for Active; 'I' for Inactive)
REMARK    1  A    between atoms: N1_1  and  C1_4 
REMARK    2  A    between atoms: C4_11  and  N4_12 
REMARK    3  A    between atoms: N4_12  and  N5_14 
REMARK    4  A    between atoms: C5_17  and  C6_18 
ROOT
HETATM    1  C1  UNL     1      25.226  19.044  43.888  1.00  0.00     0.677 A 
HETATM    2  N2  UNL     1      26.510  18.663  44.033  1.00  0.00    -0.189 N 
ATOM      3  H2  UNL     1      27.280  18.895  43.405  1.00  0.00     0.184 HD
HETATM    4  C2  UNL     1      26.597  17.923  45.150  1.00  0.00     0.094 A 
HETATM    5  C3  UNL     1      25.335  17.842  45.714  1.00  0.00     0.106 A 
HETATM    6  N3  UNL     1      24.516  18.528  44.934  1.00  0.00    -0.187 N 
ATOM      7  H3  UNL     1      23.515  18.652  45.090  1.00  0.00     0.184 HD
HETATM    8  C4  UNL     1      25.795  17.087  46.727  1.00  0.00     0.092 A 
HETATM    9  C5  UNL     1      27.115  17.185  46.118  1.00  0.00     0.062 A 
ENDROOT
BRANCH   8  10
HETATM   10  N4  UNL     1      25.194  16.483  47.872  1.00  0.00    -0.304 N 
ATOM     11  H4  UNL     1      25.101  15.468  47.878  1.00  0.00     0.186 HD
BRANCH  10  12
HETATM   12  N5  UNL     1      24.731  17.178  48.969  1.00  0.00    -0.345 N 
ATOM     13  H52 UNL     1      25.377  17.280  49.752  1.00  0.00     0.176 HD
ATOM     14  H51 UNL     1      23.800  17.588  49.043  1.00  0.00     0.176 HD
ENDBRANCH  10  12
ENDBRANCH   8  10
BRANCH   9  15
HETATM   15  C6  UNL     1      28.440  16.683  46.436  1.00  0.00     0.274 C 
HETATM   16  O1  UNL     1      28.771  16.517  47.651  1.00  0.00    -0.301 OA
ENDBRANCH   9  15
BRANCH   1  17
HETATM   17  N1  UNL     1      24.742  19.771  42.927  1.00  0.00    -0.234 N 
ATOM     18  H12 UNL     1      24.631  19.479  41.956  1.00  0.00     0.174 HD
ATOM     19  H11 UNL     1      24.407  20.731  43.006  1.00  0.00     0.174 HD
ENDBRANCH   1  17
TORSDOF 4
ENDMDL
