MODEL 1
REMARK VINA RESULT: -5.350784232      0.000      0.000
REMARK  3 active torsions:
REMARK  status: ('A' for Active; 'I' for Inactive)
REMARK       I    between atoms: C1_4  and  N2_5 
REMARK       I    between atoms: C1_4  and  N4_10 
REMARK    1  A    between atoms: N2_5  and  N3_7 
REMARK    2  A    between atoms: N4_10  and  S1_12 
REMARK    3  A    between atoms: S1_12  and  N5_13 
ROOT
HETATM    1  N1  UNL     1      25.341  17.382  48.625  1.00  0.00    -0.233 N 
ATOM      2  H11 UNL     1      25.475  16.628  47.952  1.00  0.00     0.174 HD
ATOM      3  H12 UNL     1      24.713  17.306  49.425  1.00  0.00     0.174 HD
HETATM    4  C1  UNL     1      25.994  18.483  48.463  1.00  0.00     0.700 C 
HETATM    5  N2  UNL     1      25.807  19.530  49.399  1.00  0.00    -0.138 N 
ATOM      6  H2  UNL     1      26.432  19.563  50.204  1.00  0.00     0.205 HD
HETATM    7  N4  UNL     1      26.870  18.588  47.349  1.00  0.00    -0.099 N 
ATOM      8  H4  UNL     1      27.147  19.513  47.020  1.00  0.00     0.199 HD
ENDROOT
BRANCH   5   9
HETATM    9  N3  UNL     1      24.832  20.515  49.295  1.00  0.00    -0.331 N 
ATOM     10  H32 UNL     1      24.292  20.536  48.430  1.00  0.00     0.177 HD
ATOM     11  H31 UNL     1      24.627  21.205  50.018  1.00  0.00     0.177 HD
ENDBRANCH   5   9
BRANCH   7  12
HETATM   12  S1  UNL     1      27.474  17.191  46.540  1.00  0.00     0.330 S 
HETATM   13  O1  UNL     1      28.319  16.365  47.468  1.00  0.00    -0.182 OA
HETATM   14  O2  UNL     1      26.319  16.369  46.107  1.00  0.00    -0.182 OA
BRANCH  12  15
HETATM   15  N5  UNL     1      28.388  17.684  45.164  1.00  0.00    -0.311 N 
ATOM     16  H52 UNL     1      29.067  18.445  45.162  1.00  0.00     0.170 HD
ATOM     17  H51 UNL     1      28.139  17.097  44.368  1.00  0.00     0.170 HD
ENDBRANCH  12  15
ENDBRANCH   7  12
TORSDOF 3
ENDMDL
MODEL 2
REMARK VINA RESULT: -5.196392325      1.948      2.131
REMARK  3 active torsions:
REMARK  status: ('A' for Active; 'I' for Inactive)
REMARK       I    between atoms: C1_4  and  N2_5 
REMARK       I    between atoms: C1_4  and  N4_10 
REMARK    1  A    between atoms: N2_5  and  N3_7 
REMARK    2  A    between atoms: N4_10  and  S1_12 
REMARK    3  A    between atoms: S1_12  and  N5_13 
ROOT
HETATM    1  N1  UNL     1      25.970  16.922  46.920  1.00  0.00    -0.233 N 
ATOM      2  H11 UNL     1      26.779  16.913  46.299  1.00  0.00     0.174 HD
ATOM      3  H12 UNL     1      25.170  16.302  46.797  1.00  0.00     0.174 HD
HETATM    4  C1  UNL     1      25.954  17.754  47.906  1.00  0.00     0.700 C 
HETATM    5  N2  UNL     1      24.830  17.766  48.768  1.00  0.00    -0.138 N 
ATOM      6  H2  UNL     1      24.857  17.166  49.592  1.00  0.00     0.205 HD
HETATM    7  N4  UNL     1      27.069  18.618  48.076  1.00  0.00    -0.099 N 
ATOM      8  H4  UNL     1      26.959  19.470  48.626  1.00  0.00     0.199 HD
ENDROOT
BRANCH   5   9
HETATM    9  N3  UNL     1      23.692  18.540  48.568  1.00  0.00    -0.331 N 
ATOM     10  H32 UNL     1      23.565  18.936  47.637  1.00  0.00     0.177 HD
ATOM     11  H31 UNL     1      22.990  18.732  49.283  1.00  0.00     0.177 HD
ENDBRANCH   5   9
BRANCH   7  12
HETATM   12  S1  UNL     1      28.603  18.261  47.376  1.00  0.00     0.330 S 
HETATM   13  O1  UNL     1      28.991  16.835  47.647  1.00  0.00    -0.182 OA
HETATM   14  O2  UNL     1      28.498  18.442  45.909  1.00  0.00    -0.182 OA
BRANCH  12  15
HETATM   15  N5  UNL     1      29.783  19.343  48.015  1.00  0.00    -0.311 N 
ATOM     16  H52 UNL     1      30.120  20.180  47.538  1.00  0.00     0.170 HD
ATOM     17  H51 UNL     1      30.081  19.011  48.932  1.00  0.00     0.170 HD
ENDBRANCH  12  15
ENDBRANCH   7  12
TORSDOF 3
ENDMDL
MODEL 3
REMARK VINA RESULT: -5.048075018      1.423      1.553
REMARK  3 active torsions:
REMARK  status: ('A' for Active; 'I' for Inactive)
REMARK       I    between atoms: C1_4  and  N2_5 
REMARK       I    between atoms: C1_4  and  N4_10 
REMARK    1  A    between atoms: N2_5  and  N3_7 
REMARK    2  A    between atoms: N4_10  and  S1_12 
REMARK    3  A    between atoms: S1_12  and  N5_13 
ROOT
HETATM    1  N1  UNL     1      25.182  16.412  48.179  1.00  0.00    -0.233 N 
ATOM      2  H11 UNL     1      25.846  15.717  47.837  1.00  0.00     0.174 HD
ATOM      3  H12 UNL     1      24.529  16.228  48.940  1.00  0.00     0.174 HD
HETATM    4  C1  UNL     1      25.164  17.578  47.626  1.00  0.00     0.700 C 
HETATM    5  N2  UNL     1      24.241  18.542  48.100  1.00  0.00    -0.138 N 
ATOM      6  H2  UNL     1      24.550  19.168  48.843  1.00  0.00     0.205 HD
HETATM    7  N4  UNL     1      26.074  17.834  46.565  1.00  0.00    -0.099 N 
ATOM      8  H4  UNL     1      25.882  18.599  45.919  1.00  0.00     0.199 HD
ENDROOT
BRANCH   5   9
HETATM    9  N3  UNL     1      22.944  18.694  47.622  1.00  0.00    -0.331 N 
ATOM     10  H32 UNL     1      22.701  19.608  47.242  1.00  0.00     0.177 HD
ATOM     11  H31 UNL     1      22.235  17.960  47.630  1.00  0.00     0.177 HD
ENDBRANCH   5   9
BRANCH   7  12
HETATM   12  S1  UNL     1      27.495  16.883  46.345  1.00  0.00     0.330 S 
HETATM   13  O1  UNL     1      28.287  16.809  47.620  1.00  0.00    -0.182 OA
HETATM   14  O2  UNL     1      27.081  15.509  45.974  1.00  0.00    -0.182 OA
BRANCH  12  15
HETATM   15  N5  UNL     1      28.444  17.568  45.079  1.00  0.00    -0.311 N 
ATOM     16  H52 UNL     1      28.515  17.185  44.136  1.00  0.00     0.170 HD
ATOM     17  H51 UNL     1      28.915  18.403  45.427  1.00  0.00     0.170 HD
ENDBRANCH  12  15
ENDBRANCH   7  12
TORSDOF 3
ENDMDL
MODEL 4
REMARK VINA RESULT: -4.960170479      1.675      2.031
REMARK  3 active torsions:
REMARK  status: ('A' for Active; 'I' for Inactive)
REMARK       I    between atoms: C1_4  and  N2_5 
REMARK       I    between atoms: C1_4  and  N4_10 
REMARK    1  A    between atoms: N2_5  and  N3_7 
REMARK    2  A    between atoms: N4_10  and  S1_12 
REMARK    3  A    between atoms: S1_12  and  N5_13 
ROOT
HETATM    1  N1  UNL     1      26.035  16.748  47.070  1.00  0.00    -0.233 N 
ATOM      2  H11 UNL     1      26.837  16.678  46.444  1.00  0.00     0.174 HD
ATOM      3  H12 UNL     1      25.265  16.079  47.063  1.00  0.00     0.174 HD
HETATM    4  C1  UNL     1      25.987  17.726  47.911  1.00  0.00     0.700 C 
HETATM    5  N2  UNL     1      24.872  17.823  48.780  1.00  0.00    -0.138 N 
ATOM      6  H2  UNL     1      24.939  17.366  49.689  1.00  0.00     0.205 HD
HETATM    7  N4  UNL     1      27.058  18.659  47.920  1.00  0.00    -0.099 N 
ATOM      8  H4  UNL     1      26.911  19.582  48.329  1.00  0.00     0.199 HD
ENDROOT
BRANCH   5   9
HETATM    9  N3  UNL     1      23.695  18.499  48.479  1.00  0.00    -0.331 N 
ATOM     10  H32 UNL     1      23.679  19.024  47.605  1.00  0.00     0.177 HD
ATOM     11  H31 UNL     1      22.863  18.501  49.069  1.00  0.00     0.177 HD
ENDBRANCH   5   9
BRANCH   7  12
HETATM   12  S1  UNL     1      28.601  18.268  47.258  1.00  0.00     0.330 S 
HETATM   13  O1  UNL     1      29.675  19.120  47.877  1.00  0.00    -0.182 OA
HETATM   14  O2  UNL     1      28.896  16.850  47.571  1.00  0.00    -0.182 OA
BRANCH  12  15
HETATM   15  N5  UNL     1      28.559  18.493  45.549  1.00  0.00    -0.311 N 
ATOM     16  H52 UNL     1      27.905  18.026  44.920  1.00  0.00     0.170 HD
ATOM     17  H51 UNL     1      29.283  19.158  45.280  1.00  0.00     0.170 HD
ENDBRANCH  12  15
ENDBRANCH   7  12
TORSDOF 3
ENDMDL
MODEL 5
REMARK VINA RESULT: -4.934537728      2.137      3.773
REMARK  3 active torsions:
REMARK  status: ('A' for Active; 'I' for Inactive)
REMARK       I    between atoms: C1_4  and  N2_5 
REMARK       I    between atoms: C1_4  and  N4_10 
REMARK    1  A    between atoms: N2_5  and  N3_7 
REMARK    2  A    between atoms: N4_10  and  S1_12 
REMARK    3  A    between atoms: S1_12  and  N5_13 
ROOT
HETATM    1  N1  UNL     1      28.423  18.208  45.722  1.00  0.00    -0.233 N 
ATOM      2  H11 UNL     1      27.655  17.616  45.406  1.00  0.00     0.174 HD
ATOM      3  H12 UNL     1      29.149  18.555  45.096  1.00  0.00     0.174 HD
HETATM    4  C1  UNL     1      28.482  18.536  46.969  1.00  0.00     0.700 C 
HETATM    5  N2  UNL     1      29.549  19.358  47.406  1.00  0.00    -0.138 N 
ATOM      6  H2  UNL     1      29.404  20.368  47.399  1.00  0.00     0.205 HD
HETATM    7  N4  UNL     1      27.470  18.052  47.841  1.00  0.00    -0.099 N 
ATOM      8  H4  UNL     1      27.649  18.025  48.844  1.00  0.00     0.199 HD
ENDROOT
BRANCH   5   9
HETATM    9  N3  UNL     1      30.781  18.884  47.845  1.00  0.00    -0.331 N 
ATOM     10  H32 UNL     1      30.826  18.550  48.808  1.00  0.00     0.177 HD
ATOM     11  H31 UNL     1      31.625  18.852  47.274  1.00  0.00     0.177 HD
ENDBRANCH   5   9
BRANCH   7  12
HETATM   12  S1  UNL     1      25.947  17.511  47.244  1.00  0.00     0.330 S 
HETATM   13  O1  UNL     1      25.337  18.541  46.334  1.00  0.00    -0.182 OA
HETATM   14  O2  UNL     1      26.168  16.272  46.460  1.00  0.00    -0.182 OA
BRANCH  12  15
HETATM   15  N5  UNL     1      24.901  17.181  48.574  1.00  0.00    -0.311 N 
ATOM     16  H52 UNL     1      24.576  17.880  49.243  1.00  0.00     0.170 HD
ATOM     17  H51 UNL     1      24.666  16.189  48.578  1.00  0.00     0.170 HD
ENDBRANCH  12  15
ENDBRANCH   7  12
TORSDOF 3
ENDMDL
