MODEL 1
REMARK VINA RESULT: -7.480912406      0.000      0.000
REMARK  12 active torsions:
REMARK  status: ('A' for Active; 'I' for Inactive)
REMARK    1  A    between atoms: C2_2  and  N1_3 
REMARK    2  A    between atoms: C3_4  and  N2_5 
REMARK    3  A    between atoms: C5_13  and  C6_14 
REMARK    4  A    between atoms: C6_14  and  O1_15 
REMARK    5  A    between atoms: C6_14  and  N5_17 
REMARK    6  A    between atoms: N5_17  and  N6_19 
REMARK    7  A    between atoms: N7_22  and  N8_23 
REMARK    8  A    between atoms: C8_26  and  N9_27 
REMARK    9  A    between atoms: C11_33  and  N11_34 
REMARK   10  A    between atoms: N11_34  and  C12_36 
REMARK   11  A    between atoms: C12_36  and  O3_37 
REMARK   12  A    between atoms: N12_39  and  O4_41 
ROOT
HETATM    1  N1  UNL     1      35.317  28.364  24.025  1.00  0.00    -0.147 N 
HETATM    2  C3  UNL     1      34.966  28.490  25.304  1.00  0.00     0.682 A 
HETATM    3  N3  UNL     1      34.489  29.684  25.697  1.00  0.00    -0.176 N 
ATOM      4  H3  UNL     1      34.207  29.824  26.667  1.00  0.00     0.186 HD
HETATM    5  C4  UNL     1      34.383  30.690  24.821  1.00  0.00     0.139 A 
HETATM    6  N4  UNL     1      33.906  31.877  25.227  1.00  0.00    -0.341 N 
ATOM      7  H4  UNL     1      33.634  31.984  26.204  1.00  0.00     0.167 HD
HETATM    8  C5  UNL     1      33.770  32.940  24.398  1.00  0.00     0.063 A 
HETATM    9  C10 UNL     1      34.128  32.825  23.085  1.00  0.00     0.060 A 
HETATM   10  C11 UNL     1      34.637  31.609  22.588  1.00  0.00     0.057 A 
HETATM   11  C13 UNL     1      34.750  30.573  23.471  1.00  0.00     0.104 A 
HETATM   12  C14 UNL     1      35.227  29.357  23.098  1.00  0.00     0.278 A 
HETATM   13  O5  UNL     1      35.584  29.138  21.926  1.00  0.00    -0.266 OA
ENDROOT
BRANCH   8  14
HETATM   14  C6  UNL     1      33.233  34.199  24.994  1.00  0.00     0.285 C 
BRANCH  14  15
HETATM   15  O1  UNL     1      32.140  33.922  25.807  1.00  0.00    -0.370 OA
ATOM     16  H1  UNL     1      31.703  34.727  26.059  1.00  0.00     0.212 HD
ENDBRANCH  14  15
BRANCH  14  17
HETATM   17  N5  UNL     1      34.260  34.860  25.760  1.00  0.00    -0.276 N 
ATOM     18  H5  UNL     1      35.165  34.391  25.801  1.00  0.00     0.185 HD
BRANCH  17  19
HETATM   19  N6  UNL     1      34.157  36.051  26.441  1.00  0.00    -0.125 N 
HETATM   20  C7  UNL     1      34.148  37.334  26.063  1.00  0.00     0.397 A 
HETATM   21  O2  UNL     1      34.253  37.748  24.886  1.00  0.00    -0.240 OA
HETATM   22  N7  UNL     1      34.009  38.154  27.132  1.00  0.00    -0.034 N 
HETATM   23  C8  UNL     1      33.931  37.364  28.195  1.00  0.00     0.719 A 
HETATM   24  N10 UNL     1      34.020  36.105  27.778  1.00  0.00    -0.101 N 
HETATM   25  C9  UNL     1      33.971  34.976  28.709  1.00  0.00     0.200 C 
BRANCH  22  26
HETATM   26  N8  UNL     1      33.957  39.545  27.130  1.00  0.00    -0.320 N 
ATOM     27  H82 UNL     1      34.427  40.168  26.473  1.00  0.00     0.178 HD
ATOM     28  H81 UNL     1      33.447  40.147  27.776  1.00  0.00     0.178 HD
ENDBRANCH  22  26
BRANCH  23  29
HETATM   29  N9  UNL     1      33.790  37.781  29.429  1.00  0.00    -0.231 N 
ATOM     30  H92 UNL     1      33.960  37.250  30.283  1.00  0.00     0.174 HD
ATOM     31  H91 UNL     1      33.481  38.716  29.695  1.00  0.00     0.174 HD
ENDBRANCH  23  29
ENDBRANCH  17  19
ENDBRANCH  14  17
ENDBRANCH   8  14
BRANCH  10  32
HETATM   32  N11 UNL     1      34.986  31.559  21.223  1.00  0.00    -0.320 N 
ATOM     33  H11 UNL     1      34.333  31.154  20.551  1.00  0.00     0.169 HD
BRANCH  32  34
HETATM   34  C12 UNL     1      36.243  32.069  20.769  1.00  0.00     0.241 C 
HETATM   35  N12 UNL     1      36.262  32.884  19.798  1.00  0.00    -0.233 N 
ATOM     36  H12 UNL     1      35.389  33.166  19.352  1.00  0.00     0.198 HD
BRANCH  34  37
HETATM   37  O3  UNL     1      37.391  31.670  21.388  1.00  0.00    -0.331 OA
ATOM     38  H3  UNL     1      37.788  30.842  21.144  1.00  0.00     0.221 HD
ENDBRANCH  34  37
BRANCH  35  39
HETATM   39  O4  UNL     1      37.453  33.385  19.347  1.00  0.00    -0.287 OA
ATOM     40  H4  UNL     1      37.919  32.946  18.645  1.00  0.00     0.244 HD
ENDBRANCH  35  39
ENDBRANCH  32  34
ENDBRANCH  10  32
BRANCH   2  41
HETATM   41  N2  UNL     1      35.075  27.525  26.188  1.00  0.00    -0.234 N 
ATOM     42  H22 UNL     1      34.829  27.715  27.160  1.00  0.00     0.174 HD
ATOM     43  H21 UNL     1      35.406  26.586  25.964  1.00  0.00     0.174 HD
ENDBRANCH   2  41
BRANCH   1  44
HETATM   44  C2  UNL     1      35.825  27.084  23.531  1.00  0.00     0.146 C 
HETATM   45  C1  UNL     1      36.979  26.637  24.376  1.00  0.00     0.027 C 
ENDBRANCH   1  44
TORSDOF 12
ENDMDL
MODEL 2
REMARK VINA RESULT: -7.213621234      4.706      8.420
REMARK  12 active torsions:
REMARK  status: ('A' for Active; 'I' for Inactive)
REMARK    1  A    between atoms: C2_2  and  N1_3 
REMARK    2  A    between atoms: C3_4  and  N2_5 
REMARK    3  A    between atoms: C5_13  and  C6_14 
REMARK    4  A    between atoms: C6_14  and  O1_15 
REMARK    5  A    between atoms: C6_14  and  N5_17 
REMARK    6  A    between atoms: N5_17  and  N6_19 
REMARK    7  A    between atoms: N7_22  and  N8_23 
REMARK    8  A    between atoms: C8_26  and  N9_27 
REMARK    9  A    between atoms: C11_33  and  N11_34 
REMARK   10  A    between atoms: N11_34  and  C12_36 
REMARK   11  A    between atoms: C12_36  and  O3_37 
REMARK   12  A    between atoms: N12_39  and  O4_41 
ROOT
HETATM    1  N1  UNL     1      33.749  34.204  26.424  1.00  0.00    -0.147 N 
HETATM    2  C3  UNL     1      32.875  34.611  27.342  1.00  0.00     0.682 A 
HETATM    3  N3  UNL     1      31.844  33.792  27.617  1.00  0.00    -0.176 N 
ATOM      4  H3  UNL     1      31.152  34.064  28.315  1.00  0.00     0.186 HD
HETATM    5  C4  UNL     1      31.723  32.622  26.979  1.00  0.00     0.139 A 
HETATM    6  N4  UNL     1      30.688  31.815  27.261  1.00  0.00    -0.341 N 
ATOM      7  H4  UNL     1      30.013  32.117  27.963  1.00  0.00     0.167 HD
HETATM    8  C5  UNL     1      30.501  30.618  26.657  1.00  0.00     0.063 A 
HETATM    9  C10 UNL     1      31.390  30.189  25.712  1.00  0.00     0.060 A 
HETATM   10  C11 UNL     1      32.499  30.984  25.363  1.00  0.00     0.057 A 
HETATM   11  C13 UNL     1      32.635  32.181  26.007  1.00  0.00     0.104 A 
HETATM   12  C14 UNL     1      33.668  33.024  25.749  1.00  0.00     0.278 A 
HETATM   13  O5  UNL     1      34.538  32.737  24.906  1.00  0.00    -0.266 OA
ENDROOT
BRANCH   8  14
HETATM   14  C6  UNL     1      29.300  29.832  27.069  1.00  0.00     0.285 C 
BRANCH  14  15
HETATM   15  O1  UNL     1      28.240  30.080  26.205  1.00  0.00    -0.370 OA
ATOM     16  H1  UNL     1      27.861  29.263  25.904  1.00  0.00     0.212 HD
ENDBRANCH  14  15
BRANCH  14  17
HETATM   17  N5  UNL     1      29.610  28.424  27.075  1.00  0.00    -0.276 N 
ATOM     18  H5  UNL     1      30.120  28.070  26.265  1.00  0.00     0.185 HD
BRANCH  17  19
HETATM   19  N6  UNL     1      29.295  27.504  28.048  1.00  0.00    -0.125 N 
HETATM   20  C7  UNL     1      29.223  27.558  29.383  1.00  0.00     0.397 A 
HETATM   21  O2  UNL     1      29.464  28.567  30.085  1.00  0.00    -0.240 OA
HETATM   22  N7  UNL     1      28.848  26.363  29.898  1.00  0.00    -0.034 N 
HETATM   23  C8  UNL     1      28.687  25.550  28.862  1.00  0.00     0.719 A 
HETATM   24  N10 UNL     1      28.955  26.236  27.755  1.00  0.00    -0.101 N 
HETATM   25  C9  UNL     1      28.872  25.626  26.427  1.00  0.00     0.200 C 
BRANCH  22  26
HETATM   26  N8  UNL     1      28.668  26.040  31.239  1.00  0.00    -0.320 N 
ATOM     27  H82 UNL     1      28.080  26.536  31.909  1.00  0.00     0.178 HD
ATOM     28  H81 UNL     1      29.090  25.266  31.753  1.00  0.00     0.178 HD
ENDBRANCH  22  26
BRANCH  23  29
HETATM   29  N9  UNL     1      28.323  24.294  28.947  1.00  0.00    -0.231 N 
ATOM     30  H92 UNL     1      27.741  23.868  29.668  1.00  0.00     0.174 HD
ATOM     31  H91 UNL     1      28.586  23.566  28.283  1.00  0.00     0.174 HD
ENDBRANCH  23  29
ENDBRANCH  17  19
ENDBRANCH  14  17
ENDBRANCH   8  14
BRANCH  10  32
HETATM   32  N11 UNL     1      33.377  30.482  24.381  1.00  0.00    -0.320 N 
ATOM     33  H11 UNL     1      33.204  30.689  23.397  1.00  0.00     0.169 HD
BRANCH  32  34
HETATM   34  C12 UNL     1      34.507  29.684  24.747  1.00  0.00     0.241 C 
HETATM   35  N12 UNL     1      34.469  28.433  24.547  1.00  0.00    -0.233 N 
ATOM     36  H12 UNL     1      33.639  28.009  24.130  1.00  0.00     0.198 HD
BRANCH  34  37
HETATM   37  O3  UNL     1      35.598  30.284  25.302  1.00  0.00    -0.331 OA
ATOM     38  H3  UNL     1      36.056  29.853  26.014  1.00  0.00     0.221 HD
ENDBRANCH  34  37
BRANCH  35  39
HETATM   39  O4  UNL     1      35.538  27.651  24.888  1.00  0.00    -0.287 OA
ATOM     40  H4  UNL     1      36.361  27.741  24.423  1.00  0.00     0.244 HD
ENDBRANCH  35  39
ENDBRANCH  32  34
ENDBRANCH  10  32
BRANCH   2  41
HETATM   41  N2  UNL     1      32.961  35.760  27.972  1.00  0.00    -0.234 N 
ATOM     42  H22 UNL     1      32.124  36.337  28.066  1.00  0.00     0.174 HD
ATOM     43  H21 UNL     1      33.827  36.125  28.370  1.00  0.00     0.174 HD
ENDBRANCH   2  41
BRANCH   1  44
HETATM   44  C2  UNL     1      34.903  35.042  26.095  1.00  0.00     0.146 C 
HETATM   45  C1  UNL     1      34.451  36.247  25.329  1.00  0.00     0.027 C 
ENDBRANCH   1  44
TORSDOF 12
ENDMDL
MODEL 3
REMARK VINA RESULT: -7.201904423      4.585      8.044
REMARK  12 active torsions:
REMARK  status: ('A' for Active; 'I' for Inactive)
REMARK    1  A    between atoms: C2_2  and  N1_3 
REMARK    2  A    between atoms: C3_4  and  N2_5 
REMARK    3  A    between atoms: C5_13  and  C6_14 
REMARK    4  A    between atoms: C6_14  and  O1_15 
REMARK    5  A    between atoms: C6_14  and  N5_17 
REMARK    6  A    between atoms: N5_17  and  N6_19 
REMARK    7  A    between atoms: N7_22  and  N8_23 
REMARK    8  A    between atoms: C8_26  and  N9_27 
REMARK    9  A    between atoms: C11_33  and  N11_34 
REMARK   10  A    between atoms: N11_34  and  C12_36 
REMARK   11  A    between atoms: C12_36  and  O3_37 
REMARK   12  A    between atoms: N12_39  and  O4_41 
ROOT
HETATM    1  N1  UNL     1      34.856  31.225  24.178  1.00  0.00    -0.147 N 
HETATM    2  C3  UNL     1      34.727  29.902  24.269  1.00  0.00     0.682 A 
HETATM    3  N3  UNL     1      33.608  29.431  24.846  1.00  0.00    -0.176 N 
ATOM      4  H3  UNL     1      33.467  28.425  24.935  1.00  0.00     0.186 HD
HETATM    5  C4  UNL     1      32.676  30.277  25.303  1.00  0.00     0.139 A 
HETATM    6  N4  UNL     1      31.564  29.792  25.878  1.00  0.00    -0.341 N 
ATOM      7  H4  UNL     1      31.456  28.781  25.953  1.00  0.00     0.167 HD
HETATM    8  C5  UNL     1      30.580  30.586  26.363  1.00  0.00     0.063 A 
HETATM    9  C10 UNL     1      30.701  31.944  26.277  1.00  0.00     0.060 A 
HETATM   10  C11 UNL     1      31.841  32.524  25.687  1.00  0.00     0.057 A 
HETATM   11  C13 UNL     1      32.800  31.672  25.216  1.00  0.00     0.104 A 
HETATM   12  C14 UNL     1      33.938  32.123  24.628  1.00  0.00     0.278 A 
HETATM   13  O5  UNL     1      34.154  33.342  24.496  1.00  0.00    -0.266 OA
ENDROOT
BRANCH   8  14
HETATM   14  C6  UNL     1      29.405  29.905  26.982  1.00  0.00     0.285 C 
BRANCH  14  15
HETATM   15  O1  UNL     1      28.243  30.219  26.288  1.00  0.00    -0.370 OA
ATOM     16  H1  UNL     1      27.488  29.830  26.714  1.00  0.00     0.212 HD
ENDBRANCH  14  15
BRANCH  14  17
HETATM   17  N5  UNL     1      29.606  28.478  26.985  1.00  0.00    -0.276 N 
ATOM     18  H5  UNL     1      30.037  28.081  26.150  1.00  0.00     0.185 HD
BRANCH  17  19
HETATM   19  N6  UNL     1      29.282  27.591  27.986  1.00  0.00    -0.125 N 
HETATM   20  C7  UNL     1      29.222  27.682  29.319  1.00  0.00     0.397 A 
HETATM   21  O2  UNL     1      29.488  28.705  29.991  1.00  0.00    -0.240 OA
HETATM   22  N7  UNL     1      28.829  26.509  29.869  1.00  0.00    -0.034 N 
HETATM   23  C8  UNL     1      28.644  25.671  28.857  1.00  0.00     0.719 A 
HETATM   24  N10 UNL     1      28.915  26.322  27.730  1.00  0.00    -0.101 N 
HETATM   25  C9  UNL     1      28.810  25.678  26.420  1.00  0.00     0.200 C 
BRANCH  22  26
HETATM   26  N8  UNL     1      28.654  26.225  31.220  1.00  0.00    -0.320 N 
ATOM     27  H82 UNL     1      29.054  26.740  32.004  1.00  0.00     0.178 HD
ATOM     28  H81 UNL     1      28.104  25.469  31.629  1.00  0.00     0.178 HD
ENDBRANCH  22  26
BRANCH  23  29
HETATM   29  N9  UNL     1      28.257  24.426  28.978  1.00  0.00    -0.231 N 
ATOM     30  H92 UNL     1      27.304  24.086  29.110  1.00  0.00     0.174 HD
ATOM     31  H91 UNL     1      28.879  23.618  28.958  1.00  0.00     0.174 HD
ENDBRANCH  23  29
ENDBRANCH  17  19
ENDBRANCH  14  17
ENDBRANCH   8  14
BRANCH  10  32
HETATM   32  N11 UNL     1      31.901  33.931  25.631  1.00  0.00    -0.320 N 
ATOM     33  H11 UNL     1      31.524  34.419  24.818  1.00  0.00     0.169 HD
BRANCH  32  34
HETATM   34  C12 UNL     1      32.484  34.683  26.699  1.00  0.00     0.241 C 
HETATM   35  N12 UNL     1      33.145  35.730  26.426  1.00  0.00    -0.233 N 
ATOM     36  H12 UNL     1      33.255  36.024  25.456  1.00  0.00     0.198 HD
BRANCH  34  37
HETATM   37  O3  UNL     1      32.317  34.261  27.985  1.00  0.00    -0.331 OA
ATOM     38  H3  UNL     1      33.046  34.313  28.591  1.00  0.00     0.221 HD
ENDBRANCH  34  37
BRANCH  35  39
HETATM   39  O4  UNL     1      33.710  36.465  27.432  1.00  0.00    -0.287 OA
ATOM     40  H4  UNL     1      33.218  36.647  28.223  1.00  0.00     0.244 HD
ENDBRANCH  35  39
ENDBRANCH  32  34
ENDBRANCH  10  32
BRANCH   2  41
HETATM   41  N2  UNL     1      35.632  29.050  23.843  1.00  0.00    -0.234 N 
ATOM     42  H22 UNL     1      36.531  29.002  24.323  1.00  0.00     0.174 HD
ATOM     43  H21 UNL     1      35.495  28.431  23.044  1.00  0.00     0.174 HD
ENDBRANCH   2  41
BRANCH   1  44
HETATM   44  C2  UNL     1      36.043  31.799  23.543  1.00  0.00     0.146 C 
HETATM   45  C1  UNL     1      35.917  31.702  22.053  1.00  0.00     0.027 C 
ENDBRANCH   1  44
TORSDOF 12
ENDMDL
MODEL 4
REMARK VINA RESULT: -7.179410024      1.029      1.770
REMARK  12 active torsions:
REMARK  status: ('A' for Active; 'I' for Inactive)
REMARK    1  A    between atoms: C2_2  and  N1_3 
REMARK    2  A    between atoms: C3_4  and  N2_5 
REMARK    3  A    between atoms: C5_13  and  C6_14 
REMARK    4  A    between atoms: C6_14  and  O1_15 
REMARK    5  A    between atoms: C6_14  and  N5_17 
REMARK    6  A    between atoms: N5_17  and  N6_19 
REMARK    7  A    between atoms: N7_22  and  N8_23 
REMARK    8  A    between atoms: C8_26  and  N9_27 
REMARK    9  A    between atoms: C11_33  and  N11_34 
REMARK   10  A    between atoms: N11_34  and  C12_36 
REMARK   11  A    between atoms: C12_36  and  O3_37 
REMARK   12  A    between atoms: N12_39  and  O4_41 
ROOT
HETATM    1  N1  UNL     1      35.237  28.469  24.104  1.00  0.00    -0.147 N 
HETATM    2  C3  UNL     1      34.831  28.639  25.361  1.00  0.00     0.682 A 
HETATM    3  N3  UNL     1      34.330  29.843  25.689  1.00  0.00    -0.176 N 
ATOM      4  H3  UNL     1      34.007  30.016  26.641  1.00  0.00     0.186 HD
HETATM    5  C4  UNL     1      34.254  30.815  24.772  1.00  0.00     0.139 A 
HETATM    6  N4  UNL     1      33.753  32.012  25.114  1.00  0.00    -0.341 N 
ATOM      7  H4  UNL     1      33.439  32.153  26.074  1.00  0.00     0.167 HD
HETATM    8  C5  UNL     1      33.644  33.042  24.241  1.00  0.00     0.063 A 
HETATM    9  C10 UNL     1      34.057  32.881  22.948  1.00  0.00     0.060 A 
HETATM   10  C11 UNL     1      34.595  31.652  22.519  1.00  0.00     0.057 A 
HETATM   11  C13 UNL     1      34.678  30.650  23.445  1.00  0.00     0.104 A 
HETATM   12  C14 UNL     1      35.179  29.426  23.138  1.00  0.00     0.278 A 
HETATM   13  O5  UNL     1      35.586  29.166  21.990  1.00  0.00    -0.266 OA
ENDROOT
BRANCH   8  14
HETATM   14  C6  UNL     1      33.074  34.318  24.766  1.00  0.00     0.285 C 
BRANCH  14  15
HETATM   15  O1  UNL     1      31.931  34.065  25.515  1.00  0.00    -0.370 OA
ATOM     16  H1  UNL     1      31.665  34.846  25.985  1.00  0.00     0.212 HD
ENDBRANCH  14  15
BRANCH  14  17
HETATM   17  N5  UNL     1      34.052  34.999  25.576  1.00  0.00    -0.276 N 
ATOM     18  H5  UNL     1      34.936  35.228  25.120  1.00  0.00     0.185 HD
BRANCH  17  19
HETATM   19  N6  UNL     1      33.930  35.375  26.894  1.00  0.00    -0.125 N 
HETATM   20  C7  UNL     1      33.750  34.700  28.035  1.00  0.00     0.397 A 
HETATM   21  O2  UNL     1      33.635  33.457  28.136  1.00  0.00    -0.240 OA
HETATM   22  N7  UNL     1      33.706  35.542  29.095  1.00  0.00    -0.034 N 
HETATM   23  C8  UNL     1      33.860  36.764  28.602  1.00  0.00     0.719 A 
HETATM   24  N10 UNL     1      33.994  36.661  27.283  1.00  0.00    -0.101 N 
HETATM   25  C9  UNL     1      34.181  37.835  26.430  1.00  0.00     0.200 C 
BRANCH  22  26
HETATM   26  N8  UNL     1      33.534  35.206  30.435  1.00  0.00    -0.320 N 
ATOM     27  H82 UNL     1      33.623  35.833  31.234  1.00  0.00     0.178 HD
ATOM     28  H81 UNL     1      33.295  34.291  30.819  1.00  0.00     0.178 HD
ENDBRANCH  22  26
BRANCH  23  29
HETATM   29  N9  UNL     1      33.875  37.862  29.316  1.00  0.00    -0.231 N 
ATOM     30  H92 UNL     1      34.186  37.965  30.282  1.00  0.00     0.174 HD
ATOM     31  H91 UNL     1      33.568  38.776  28.985  1.00  0.00     0.174 HD
ENDBRANCH  23  29
ENDBRANCH  17  19
ENDBRANCH  14  17
ENDBRANCH   8  14
BRANCH  10  32
HETATM   32  N11 UNL     1      35.001  31.554  21.173  1.00  0.00    -0.320 N 
ATOM     33  H11 UNL     1      34.383  31.113  20.491  1.00  0.00     0.169 HD
BRANCH  32  34
HETATM   34  C12 UNL     1      36.268  32.066  20.750  1.00  0.00     0.241 C 
HETATM   35  N12 UNL     1      36.311  32.888  19.787  1.00  0.00    -0.233 N 
ATOM     36  H12 UNL     1      35.448  33.174  19.323  1.00  0.00     0.198 HD
BRANCH  34  37
HETATM   37  O3  UNL     1      37.402  31.661  21.392  1.00  0.00    -0.331 OA
ATOM     38  H3  UNL     1      37.811  30.840  21.142  1.00  0.00     0.221 HD
ENDBRANCH  34  37
BRANCH  35  39
HETATM   39  O4  UNL     1      37.511  33.391  19.367  1.00  0.00    -0.287 OA
ATOM     40  H4  UNL     1      37.606  33.721  18.481  1.00  0.00     0.244 HD
ENDBRANCH  35  39
ENDBRANCH  32  34
ENDBRANCH  10  32
BRANCH   2  41
HETATM   41  N2  UNL     1      34.909  27.708  26.285  1.00  0.00    -0.234 N 
ATOM     42  H22 UNL     1      35.344  26.815  26.052  1.00  0.00     0.174 HD
ATOM     43  H21 UNL     1      34.547  27.818  27.232  1.00  0.00     0.174 HD
ENDBRANCH   2  41
BRANCH   1  44
HETATM   44  C2  UNL     1      35.773  27.175  23.680  1.00  0.00     0.146 C 
HETATM   45  C1  UNL     1      36.938  26.802  24.546  1.00  0.00     0.027 C 
ENDBRANCH   1  44
TORSDOF 12
ENDMDL
MODEL 5
REMARK VINA RESULT: -7.119101165      2.608      4.323
REMARK  12 active torsions:
REMARK  status: ('A' for Active; 'I' for Inactive)
REMARK    1  A    between atoms: C2_2  and  N1_3 
REMARK    2  A    between atoms: C3_4  and  N2_5 
REMARK    3  A    between atoms: C5_13  and  C6_14 
REMARK    4  A    between atoms: C6_14  and  O1_15 
REMARK    5  A    between atoms: C6_14  and  N5_17 
REMARK    6  A    between atoms: N5_17  and  N6_19 
REMARK    7  A    between atoms: N7_22  and  N8_23 
REMARK    8  A    between atoms: C8_26  and  N9_27 
REMARK    9  A    between atoms: C11_33  and  N11_34 
REMARK   10  A    between atoms: N11_34  and  C12_36 
REMARK   11  A    between atoms: C12_36  and  O3_37 
REMARK   12  A    between atoms: N12_39  and  O4_41 
ROOT
HETATM    1  N1  UNL     1      34.840  28.897  24.278  1.00  0.00    -0.147 N 
HETATM    2  C3  UNL     1      35.213  29.714  23.294  1.00  0.00     0.682 A 
HETATM    3  N3  UNL     1      34.780  30.986  23.354  1.00  0.00    -0.176 N 
ATOM      4  H3  UNL     1      35.042  31.647  22.622  1.00  0.00     0.186 HD
HETATM    5  C4  UNL     1      34.006  31.389  24.369  1.00  0.00     0.139 A 
HETATM    6  N4  UNL     1      33.579  32.661  24.415  1.00  0.00    -0.341 N 
ATOM      7  H4  UNL     1      33.859  33.295  23.667  1.00  0.00     0.167 HD
HETATM    8  C5  UNL     1      32.795  33.139  25.409  1.00  0.00     0.063 A 
HETATM    9  C10 UNL     1      32.405  32.311  26.423  1.00  0.00     0.060 A 
HETATM   10  C11 UNL     1      32.813  30.963  26.440  1.00  0.00     0.057 A 
HETATM   11  C13 UNL     1      33.604  30.538  25.410  1.00  0.00     0.104 A 
HETATM   12  C14 UNL     1      34.056  29.260  25.329  1.00  0.00     0.278 A 
HETATM   13  O5  UNL     1      33.762  28.418  26.197  1.00  0.00    -0.266 OA
ENDROOT
BRANCH   8  14
HETATM   14  C6  UNL     1      32.393  34.575  25.323  1.00  0.00     0.285 C 
BRANCH  14  15
HETATM   15  O1  UNL     1      31.445  34.871  26.295  1.00  0.00    -0.370 OA
ATOM     16  H1  UNL     1      30.569  34.739  25.953  1.00  0.00     0.212 HD
ENDBRANCH  14  15
BRANCH  14  17
HETATM   17  N5  UNL     1      33.547  35.422  25.488  1.00  0.00    -0.276 N 
ATOM     18  H5  UNL     1      34.341  35.228  24.878  1.00  0.00     0.185 HD
BRANCH  17  19
HETATM   19  N6  UNL     1      33.700  36.462  26.376  1.00  0.00    -0.125 N 
HETATM   20  C7  UNL     1      33.707  37.794  26.247  1.00  0.00     0.397 A 
HETATM   21  O2  UNL     1      33.572  38.422  25.172  1.00  0.00    -0.240 OA
HETATM   22  N7  UNL     1      33.883  38.397  27.447  1.00  0.00    -0.034 N 
HETATM   23  C8  UNL     1      33.989  37.420  28.338  1.00  0.00     0.719 A 
HETATM   24  N10 UNL     1      33.878  36.262  27.694  1.00  0.00    -0.101 N 
HETATM   25  C9  UNL     1      33.953  34.978  28.392  1.00  0.00     0.200 C 
BRANCH  22  26
HETATM   26  N8  UNL     1      33.944  39.763  27.705  1.00  0.00    -0.320 N 
ATOM     27  H82 UNL     1      34.209  40.494  27.045  1.00  0.00     0.178 HD
ATOM     28  H81 UNL     1      33.735  40.238  28.584  1.00  0.00     0.178 HD
ENDBRANCH  22  26
BRANCH  23  29
HETATM   29  N9  UNL     1      34.168  37.597  29.624  1.00  0.00    -0.231 N 
ATOM     30  H92 UNL     1      34.473  38.450  30.092  1.00  0.00     0.174 HD
ATOM     31  H91 UNL     1      34.021  36.882  30.336  1.00  0.00     0.174 HD
ENDBRANCH  23  29
ENDBRANCH  17  19
ENDBRANCH  14  17
ENDBRANCH   8  14
BRANCH  10  32
HETATM   32  N11 UNL     1      32.375  30.164  27.516  1.00  0.00    -0.320 N 
ATOM     33  H11 UNL     1      33.024  29.933  28.269  1.00  0.00     0.169 HD
BRANCH  32  34
HETATM   34  C12 UNL     1      31.032  29.673  27.565  1.00  0.00     0.241 C 
HETATM   35  N12 UNL     1      30.146  30.231  26.851  1.00  0.00    -0.233 N 
ATOM     36  H12 UNL     1      30.395  31.020  26.254  1.00  0.00     0.198 HD
BRANCH  34  37
HETATM   37  O3  UNL     1      30.734  28.618  28.375  1.00  0.00    -0.331 OA
ATOM     38  H3  UNL     1      29.995  28.060  28.161  1.00  0.00     0.221 HD
ENDBRANCH  34  37
BRANCH  35  39
HETATM   39  O4  UNL     1      28.856  29.778  26.882  1.00  0.00    -0.287 OA
ATOM     40  H4  UNL     1      28.599  29.113  27.509  1.00  0.00     0.244 HD
ENDBRANCH  35  39
ENDBRANCH  32  34
ENDBRANCH  10  32
BRANCH   2  41
HETATM   41  N2  UNL     1      35.958  29.342  22.279  1.00  0.00    -0.234 N 
ATOM     42  H22 UNL     1      35.871  28.389  21.925  1.00  0.00     0.174 HD
ATOM     43  H21 UNL     1      36.638  29.950  21.822  1.00  0.00     0.174 HD
ENDBRANCH   2  41
BRANCH   1  44
HETATM   44  C2  UNL     1      35.295  27.506  24.280  1.00  0.00     0.146 C 
HETATM   45  C1  UNL     1      36.682  27.428  24.841  1.00  0.00     0.027 C 
ENDBRANCH   1  44
TORSDOF 12
ENDMDL
