MODEL 1
REMARK VINA RESULT: -10.732029172      0.000      0.000
REMARK  9 active torsions:
REMARK  status: ('A' for Active; 'I' for Inactive)
REMARK    1  A    between atoms: N1_1  and  C1_4 
REMARK    2  A    between atoms: N3_8  and  O1_10 
REMARK    3  A    between atoms: C3_14  and  N5_15 
REMARK    4  A    between atoms: C6_20  and  C7_21 
REMARK    5  A    between atoms: C8_25  and  C9_26 
REMARK    6  A    between atoms: N13_38  and  C10_39 
REMARK    7  A    between atoms: C10_39  and  C11_40 
REMARK    8  A    between atoms: C11_40  and  O3_41 
REMARK    9  A    between atoms: C11_40  and  C12_43 
ROOT
HETATM    1  C1  UNL     1      32.652  31.335  24.441  1.00  0.00     0.130 C 
HETATM    2  N2  UNL     1      33.756  30.985  23.696  1.00  0.00    -0.174 N 
ATOM      3  H2  UNL     1      33.654  30.165  23.098  1.00  0.00     0.186 HD
HETATM    4  C2  UNL     1      34.968  31.602  23.662  1.00  0.00     0.705 C 
HETATM    5  N3  UNL     1      35.851  31.074  22.855  1.00  0.00    -0.098 N 
ATOM      6  H3  UNL     1      36.782  31.484  22.778  1.00  0.00     0.213 HD
HETATM    7  N4  UNL     1      35.392  32.702  24.354  1.00  0.00    -0.173 N 
ATOM      8  H4  UNL     1      36.302  33.072  24.080  1.00  0.00     0.186 HD
HETATM    9  C3  UNL     1      34.772  33.361  25.346  1.00  0.00     0.144 C 
HETATM   10  C4  UNL     1      33.731  32.877  26.099  1.00  0.00     0.111 A 
HETATM   11  C5  UNL     1      32.784  31.928  25.690  1.00  0.00     0.072 A 
HETATM   12  C6  UNL     1      31.953  31.732  26.750  1.00  0.00     0.110 A 
HETATM   13  N12 UNL     1      32.426  32.558  27.724  1.00  0.00    -0.293 N 
ATOM     14  H12 UNL     1      31.998  32.633  28.647  1.00  0.00     0.187 HD
HETATM   15  N13 UNL     1      33.480  33.246  27.362  1.00  0.00    -0.284 N 
ENDROOT
BRANCH  12  16
HETATM   16  C7  UNL     1      30.803  30.849  26.879  1.00  0.00     0.157 A 
HETATM   17  N6  UNL     1      29.580  30.789  26.438  1.00  0.00    -0.241 N 
HETATM   18  O2  UNL     1      28.965  29.766  26.914  1.00  0.00    -0.214 OA
ATOM     19  H6  UNL     1      29.165  31.466  25.798  1.00  0.00     0.196 HD
HETATM   20  C8  UNL     1      29.760  29.086  27.708  1.00  0.00     0.218 A 
HETATM   21  N11 UNL     1      30.905  29.744  27.698  1.00  0.00    -0.315 N 
ATOM     22  H11 UNL     1      31.740  29.475  28.219  1.00  0.00     0.169 HD
BRANCH  20  23
HETATM   23  C9  UNL     1      29.430  27.869  28.436  1.00  0.00     0.188 A 
HETATM   24  N7  UNL     1      28.532  27.752  29.439  1.00  0.00    -0.268 N 
HETATM   25  N8  UNL     1      28.503  26.504  29.852  1.00  0.00    -0.225 N 
ATOM     26  H7  UNL     1      27.966  28.512  29.816  1.00  0.00     0.190 HD
HETATM   27  N9  UNL     1      29.360  25.781  29.151  1.00  0.00    -0.005 NA
ATOM     28  H8  UNL     1      27.909  26.147  30.601  1.00  0.00     0.205 HD
HETATM   29  N10 UNL     1      29.927  26.631  28.280  1.00  0.00    -0.263 N 
ATOM     30  H10 UNL     1      30.638  26.372  27.595  1.00  0.00     0.186 HD
ENDBRANCH  20  23
ENDBRANCH  12  16
BRANCH   1  31
HETATM   31  N1  UNL     1      31.539  31.163  23.998  1.00  0.00    -0.384 N 
ATOM     32  H12 UNL     1      31.166  30.214  23.973  1.00  0.00     0.157 HD
ATOM     33  H11 UNL     1      30.981  31.959  23.688  1.00  0.00     0.157 HD
ENDBRANCH   1  31
BRANCH  15  34
HETATM   34  C10 UNL     1      34.178  34.167  28.213  1.00  0.00     0.192 C 
BRANCH  34  35
HETATM   35  C11 UNL     1      33.319  35.262  28.803  1.00  0.00     0.238 C 
BRANCH  35  36
HETATM   36  O3  UNL     1      33.179  35.297  30.152  1.00  0.00    -0.383 OA
ATOM     37  H3  UNL     1      32.328  35.076  30.514  1.00  0.00     0.210 HD
ENDBRANCH  35  36
BRANCH  35  38
HETATM   38  C12 UNL     1      33.834  36.538  28.225  1.00  0.00     0.204 C 
HETATM   39  O4  UNL     1      34.224  37.419  29.026  1.00  0.00    -0.646 OA
HETATM   40  O5  UNL     1      33.910  36.805  26.872  1.00  0.00    -0.646 OA
ENDBRANCH  35  38
ENDBRANCH  34  35
ENDBRANCH  15  34
BRANCH   9  41
HETATM   41  N5  UNL     1      35.140  34.533  25.647  1.00  0.00    -0.383 N 
ATOM     42  H52 UNL     1      34.509  35.271  25.332  1.00  0.00     0.157 HD
ATOM     43  H51 UNL     1      36.008  34.675  26.162  1.00  0.00     0.157 HD
ENDBRANCH   9  41
BRANCH   5  44
HETATM   44  O1  UNL     1      35.528  29.977  22.120  1.00  0.00    -0.276 OA
ATOM     45  H1  UNL     1      35.999  29.163  22.250  1.00  0.00     0.245 HD
ENDBRANCH   5  44
TORSDOF 9
ENDMDL
MODEL 2
REMARK VINA RESULT: -10.309811418      0.871      1.150
REMARK  9 active torsions:
REMARK  status: ('A' for Active; 'I' for Inactive)
REMARK    1  A    between atoms: N1_1  and  C1_4 
REMARK    2  A    between atoms: N3_8  and  O1_10 
REMARK    3  A    between atoms: C3_14  and  N5_15 
REMARK    4  A    between atoms: C6_20  and  C7_21 
REMARK    5  A    between atoms: C8_25  and  C9_26 
REMARK    6  A    between atoms: N13_38  and  C10_39 
REMARK    7  A    between atoms: C10_39  and  C11_40 
REMARK    8  A    between atoms: C11_40  and  O3_41 
REMARK    9  A    between atoms: C11_40  and  C12_43 
ROOT
HETATM    1  C1  UNL     1      32.355  31.070  24.504  1.00  0.00     0.130 C 
HETATM    2  N2  UNL     1      33.611  30.787  24.014  1.00  0.00    -0.174 N 
ATOM      3  H2  UNL     1      33.745  29.849  23.638  1.00  0.00     0.186 HD
HETATM    4  C2  UNL     1      34.693  31.609  23.974  1.00  0.00     0.705 C 
HETATM    5  N3  UNL     1      35.774  31.097  23.444  1.00  0.00    -0.098 N 
ATOM      6  H3  UNL     1      36.625  31.656  23.379  1.00  0.00     0.213 HD
HETATM    7  N4  UNL     1      34.809  32.900  24.409  1.00  0.00    -0.173 N 
ATOM      8  H4  UNL     1      35.680  33.371  24.163  1.00  0.00     0.186 HD
HETATM    9  C3  UNL     1      33.933  33.630  25.115  1.00  0.00     0.144 C 
HETATM   10  C4  UNL     1      32.873  33.133  25.833  1.00  0.00     0.111 A 
HETATM   11  C5  UNL     1      32.176  31.947  25.566  1.00  0.00     0.072 A 
HETATM   12  C6  UNL     1      31.222  31.836  26.531  1.00  0.00     0.110 A 
HETATM   13  N12 UNL     1      31.383  32.940  27.312  1.00  0.00    -0.293 N 
ATOM     14  H12 UNL     1      30.800  33.137  28.125  1.00  0.00     0.187 HD
HETATM   15  N13 UNL     1      32.357  33.723  26.919  1.00  0.00    -0.284 N 
ENDROOT
BRANCH  12  16
HETATM   16  C7  UNL     1      30.226  30.795  26.739  1.00  0.00     0.157 A 
HETATM   17  N6  UNL     1      29.014  30.529  26.346  1.00  0.00    -0.241 N 
HETATM   18  O2  UNL     1      28.579  29.447  26.886  1.00  0.00    -0.214 OA
ATOM     19  H6  UNL     1      28.480  31.104  25.694  1.00  0.00     0.196 HD
HETATM   20  C8  UNL     1      29.493  28.934  27.677  1.00  0.00     0.218 A 
HETATM   21  N11 UNL     1      30.522  29.758  27.598  1.00  0.00    -0.315 N 
ATOM     22  H11 UNL     1      31.404  29.643  28.097  1.00  0.00     0.169 HD
BRANCH  20  23
HETATM   23  C9  UNL     1      29.377  27.715  28.465  1.00  0.00     0.188 A 
HETATM   24  N7  UNL     1      28.578  27.527  29.539  1.00  0.00    -0.268 N 
HETATM   25  N8  UNL     1      28.740  26.303  29.991  1.00  0.00    -0.225 N 
ATOM     26  H7  UNL     1      27.948  28.224  29.935  1.00  0.00     0.190 HD
HETATM   27  N9  UNL     1      29.630  25.666  29.249  1.00  0.00    -0.005 NA
ATOM     28  H8  UNL     1      28.253  25.905  30.795  1.00  0.00     0.205 HD
HETATM   29  N10 UNL     1      30.017  26.544  28.310  1.00  0.00    -0.263 N 
ATOM     30  H10 UNL     1      30.703  26.350  27.580  1.00  0.00     0.186 HD
ENDBRANCH  20  23
ENDBRANCH  12  16
BRANCH   1  31
HETATM   31  N1  UNL     1      31.375  30.583  23.986  1.00  0.00    -0.384 N 
ATOM     32  H12 UNL     1      31.340  29.571  23.867  1.00  0.00     0.157 HD
ATOM     33  H11 UNL     1      30.593  31.176  23.706  1.00  0.00     0.157 HD
ENDBRANCH   1  31
BRANCH  15  34
HETATM   34  C10 UNL     1      32.742  34.934  27.585  1.00  0.00     0.192 C 
BRANCH  34  35
HETATM   35  C11 UNL     1      33.879  34.783  28.570  1.00  0.00     0.238 C 
BRANCH  35  36
HETATM   36  O3  UNL     1      35.140  34.724  28.074  1.00  0.00    -0.383 OA
ATOM     37  H3  UNL     1      35.786  35.318  28.437  1.00  0.00     0.210 HD
ENDBRANCH  35  36
BRANCH  35  38
HETATM   38  C12 UNL     1      33.686  35.866  29.580  1.00  0.00     0.204 C 
HETATM   39  O4  UNL     1      33.137  35.554  30.662  1.00  0.00    -0.646 OA
HETATM   40  O5  UNL     1      34.074  37.178  29.398  1.00  0.00    -0.646 OA
ENDBRANCH  35  38
ENDBRANCH  34  35
ENDBRANCH  15  34
BRANCH   9  41
HETATM   41  N5  UNL     1      34.049  34.890  25.149  1.00  0.00    -0.383 N 
ATOM     42  H52 UNL     1      34.699  35.276  24.464  1.00  0.00     0.157 HD
ATOM     43  H51 UNL     1      33.514  35.429  25.829  1.00  0.00     0.157 HD
ENDBRANCH   9  41
BRANCH   5  44
HETATM   44  O1  UNL     1      35.762  29.820  22.978  1.00  0.00    -0.276 OA
ATOM     45  H1  UNL     1      35.521  29.646  22.077  1.00  0.00     0.245 HD
ENDBRANCH   5  44
TORSDOF 9
ENDMDL
MODEL 3
REMARK VINA RESULT: -10.204273807      1.869      4.991
REMARK  9 active torsions:
REMARK  status: ('A' for Active; 'I' for Inactive)
REMARK    1  A    between atoms: N1_1  and  C1_4 
REMARK    2  A    between atoms: N3_8  and  O1_10 
REMARK    3  A    between atoms: C3_14  and  N5_15 
REMARK    4  A    between atoms: C6_20  and  C7_21 
REMARK    5  A    between atoms: C8_25  and  C9_26 
REMARK    6  A    between atoms: N13_38  and  C10_39 
REMARK    7  A    between atoms: C10_39  and  C11_40 
REMARK    8  A    between atoms: C11_40  and  O3_41 
REMARK    9  A    between atoms: C11_40  and  C12_43 
ROOT
HETATM    1  C1  UNL     1      32.301  33.083  26.698  1.00  0.00     0.130 C 
HETATM    2  N2  UNL     1      32.587  34.369  26.296  1.00  0.00    -0.174 N 
ATOM      3  H2  UNL     1      31.868  35.068  26.481  1.00  0.00     0.186 HD
HETATM    4  C2  UNL     1      33.713  34.818  25.680  1.00  0.00     0.705 C 
HETATM    5  N3  UNL     1      33.741  36.098  25.412  1.00  0.00    -0.098 N 
ATOM      6  H3  UNL     1      34.555  36.505  24.951  1.00  0.00     0.213 HD
HETATM    7  N4  UNL     1      34.825  34.116  25.303  1.00  0.00    -0.173 N 
ATOM      8  H4  UNL     1      35.609  34.678  24.969  1.00  0.00     0.186 HD
HETATM    9  C3  UNL     1      35.024  32.789  25.312  1.00  0.00     0.144 C 
HETATM   10  C4  UNL     1      34.041  31.834  25.392  1.00  0.00     0.111 A 
HETATM   11  C5  UNL     1      32.787  31.984  26.000  1.00  0.00     0.072 A 
HETATM   12  C6  UNL     1      32.133  30.803  25.831  1.00  0.00     0.110 A 
HETATM   13  N12 UNL     1      33.007  30.012  25.150  1.00  0.00    -0.293 N 
ATOM     14  H12 UNL     1      32.796  29.052  24.878  1.00  0.00     0.187 HD
HETATM   15  N13 UNL     1      34.145  30.602  24.877  1.00  0.00    -0.284 N 
ENDROOT
BRANCH  12  16
HETATM   16  C7  UNL     1      30.797  30.410  26.256  1.00  0.00     0.157 A 
HETATM   17  N6  UNL     1      29.582  30.868  26.162  1.00  0.00    -0.241 N 
HETATM   18  O2  UNL     1      28.750  30.103  26.773  1.00  0.00    -0.214 OA
ATOM     19  H6  UNL     1      29.325  31.722  25.667  1.00  0.00     0.196 HD
HETATM   20  C8  UNL     1      29.380  29.085  27.313  1.00  0.00     0.218 A 
HETATM   21  N11 UNL     1      30.652  29.259  27.002  1.00  0.00    -0.315 N 
ATOM     22  H11 UNL     1      31.412  28.636  27.273  1.00  0.00     0.169 HD
BRANCH  20  23
HETATM   23  C9  UNL     1      28.785  28.004  28.087  1.00  0.00     0.188 A 
HETATM   24  N7  UNL     1      29.033  27.715  29.383  1.00  0.00    -0.268 N 
HETATM   25  N8  UNL     1      28.314  26.672  29.740  1.00  0.00    -0.225 N 
ATOM     26  H7  UNL     1      29.676  28.224  29.989  1.00  0.00     0.190 HD
HETATM   27  N9  UNL     1      27.592  26.256  28.715  1.00  0.00    -0.005 NA
ATOM     28  H8  UNL     1      28.315  26.250  30.669  1.00  0.00     0.205 HD
HETATM   29  N10 UNL     1      27.888  27.082  27.699  1.00  0.00    -0.263 N 
ATOM     30  H10 UNL     1      27.488  27.019  26.763  1.00  0.00     0.186 HD
ENDBRANCH  20  23
ENDBRANCH  12  16
BRANCH   1  31
HETATM   31  N1  UNL     1      31.646  32.889  27.697  1.00  0.00    -0.384 N 
ATOM     32  H12 UNL     1      30.630  32.867  27.617  1.00  0.00     0.157 HD
ATOM     33  H11 UNL     1      32.110  32.720  28.590  1.00  0.00     0.157 HD
ENDBRANCH   1  31
BRANCH  15  34
HETATM   34  C10 UNL     1      35.220  29.991  24.150  1.00  0.00     0.192 C 
BRANCH  34  35
HETATM   35  C11 UNL     1      35.734  28.698  24.742  1.00  0.00     0.238 C 
BRANCH  35  36
HETATM   36  O3  UNL     1      35.018  28.136  25.747  1.00  0.00    -0.383 OA
ATOM     37  H3  UNL     1      35.472  27.945  26.560  1.00  0.00     0.210 HD
ENDBRANCH  35  36
BRANCH  35  38
HETATM   38  C12 UNL     1      35.957  27.783  23.584  1.00  0.00     0.204 C 
HETATM   39  O4  UNL     1      35.674  28.217  22.443  1.00  0.00    -0.646 OA
HETATM   40  O5  UNL     1      36.452  26.498  23.691  1.00  0.00    -0.646 OA
ENDBRANCH  35  38
ENDBRANCH  34  35
ENDBRANCH  15  34
BRANCH   9  41
HETATM   41  N5  UNL     1      36.201  32.330  25.249  1.00  0.00    -0.383 N 
ATOM     42  H52 UNL     1      36.883  32.964  24.831  1.00  0.00     0.157 HD
ATOM     43  H51 UNL     1      36.399  31.394  25.600  1.00  0.00     0.157 HD
ENDBRANCH   9  41
BRANCH   5  44
HETATM   44  O1  UNL     1      32.685  36.885  25.748  1.00  0.00    -0.276 OA
ATOM     45  H1  UNL     1      32.774  37.527  26.442  1.00  0.00     0.245 HD
ENDBRANCH   5  44
TORSDOF 9
ENDMDL
MODEL 4
REMARK VINA RESULT: -9.938637154      1.304      1.540
REMARK  9 active torsions:
REMARK  status: ('A' for Active; 'I' for Inactive)
REMARK    1  A    between atoms: N1_1  and  C1_4 
REMARK    2  A    between atoms: N3_8  and  O1_10 
REMARK    3  A    between atoms: C3_14  and  N5_15 
REMARK    4  A    between atoms: C6_20  and  C7_21 
REMARK    5  A    between atoms: C8_25  and  C9_26 
REMARK    6  A    between atoms: N13_38  and  C10_39 
REMARK    7  A    between atoms: C10_39  and  C11_40 
REMARK    8  A    between atoms: C11_40  and  O3_41 
REMARK    9  A    between atoms: C11_40  and  C12_43 
ROOT
HETATM    1  C1  UNL     1      33.010  31.213  24.503  1.00  0.00     0.130 C 
HETATM    2  N2  UNL     1      33.872  31.184  23.430  1.00  0.00    -0.174 N 
ATOM      3  H2  UNL     1      33.932  30.300  22.926  1.00  0.00     0.186 HD
HETATM    4  C2  UNL     1      34.653  32.194  22.961  1.00  0.00     0.705 C 
HETATM    5  N3  UNL     1      35.379  31.909  21.911  1.00  0.00    -0.098 N 
ATOM      6  H3  UNL     1      35.988  32.619  21.504  1.00  0.00     0.213 HD
HETATM    7  N4  UNL     1      34.784  33.470  23.435  1.00  0.00    -0.173 N 
ATOM      8  H4  UNL     1      35.332  34.103  22.851  1.00  0.00     0.186 HD
HETATM    9  C3  UNL     1      34.290  34.002  24.563  1.00  0.00     0.144 C 
HETATM   10  C4  UNL     1      33.823  33.295  25.643  1.00  0.00     0.111 A 
HETATM   11  C5  UNL     1      33.268  32.009  25.614  1.00  0.00     0.072 A 
HETATM   12  C6  UNL     1      32.960  31.692  26.900  1.00  0.00     0.110 A 
HETATM   13  N12 UNL     1      33.331  32.781  27.629  1.00  0.00    -0.293 N 
ATOM     14  H12 UNL     1      33.218  32.841  28.640  1.00  0.00     0.187 HD
HETATM   15  N13 UNL     1      33.847  33.744  26.905  1.00  0.00    -0.284 N 
ENDROOT
BRANCH  12  16
HETATM   16  C7  UNL     1      32.369  30.477  27.445  1.00  0.00     0.157 A 
HETATM   17  N6  UNL     1      32.774  29.381  28.017  1.00  0.00    -0.241 N 
HETATM   18  O2  UNL     1      31.787  28.601  28.276  1.00  0.00    -0.214 OA
ATOM     19  H6  UNL     1      33.749  29.170  28.231  1.00  0.00     0.196 HD
HETATM   20  C8  UNL     1      30.660  29.147  27.881  1.00  0.00     0.218 A 
HETATM   21  N11 UNL     1      31.002  30.313  27.363  1.00  0.00    -0.315 N 
ATOM     22  H11 UNL     1      30.353  30.990  26.962  1.00  0.00     0.169 HD
BRANCH  20  23
HETATM   23  C9  UNL     1      29.326  28.574  27.999  1.00  0.00     0.188 A 
HETATM   24  N7  UNL     1      28.745  28.123  29.133  1.00  0.00    -0.268 N 
HETATM   25  N8  UNL     1      27.540  27.676  28.853  1.00  0.00    -0.225 N 
ATOM     26  H7  UNL     1      29.173  28.128  30.058  1.00  0.00     0.190 HD
HETATM   27  N9  UNL     1      27.299  27.815  27.561  1.00  0.00    -0.005 NA
ATOM     28  H8  UNL     1      26.889  27.281  29.533  1.00  0.00     0.205 HD
HETATM   29  N10 UNL     1      28.406  28.370  27.042  1.00  0.00    -0.263 N 
ATOM     30  H10 UNL     1      28.532  28.604  26.057  1.00  0.00     0.186 HD
ENDBRANCH  20  23
ENDBRANCH  12  16
BRANCH   1  31
HETATM   31  N1  UNL     1      31.986  30.569  24.480  1.00  0.00    -0.384 N 
ATOM     32  H12 UNL     1      31.099  31.067  24.409  1.00  0.00     0.157 HD
ATOM     33  H11 UNL     1      32.020  29.549  24.499  1.00  0.00     0.157 HD
ENDBRANCH   1  31
BRANCH  15  34
HETATM   34  C10 UNL     1      34.336  34.984  27.436  1.00  0.00     0.192 C 
BRANCH  34  35
HETATM   35  C11 UNL     1      33.438  35.632  28.466  1.00  0.00     0.238 C 
BRANCH  35  36
HETATM   36  O3  UNL     1      33.192  34.946  29.609  1.00  0.00    -0.383 OA
ATOM     37  H3  UNL     1      32.307  34.965  29.955  1.00  0.00     0.210 HD
ENDBRANCH  35  36
BRANCH  35  38
HETATM   38  C12 UNL     1      34.005  36.993  28.698  1.00  0.00     0.204 C 
HETATM   39  O4  UNL     1      34.619  37.187  29.773  1.00  0.00    -0.646 OA
HETATM   40  O5  UNL     1      33.897  38.044  27.809  1.00  0.00    -0.646 OA
ENDBRANCH  35  38
ENDBRANCH  34  35
ENDBRANCH  15  34
BRANCH   9  41
HETATM   41  N5  UNL     1      34.223  35.259  24.687  1.00  0.00    -0.383 N 
ATOM     42  H52 UNL     1      34.786  35.643  25.447  1.00  0.00     0.157 HD
ATOM     43  H51 UNL     1      33.634  35.800  24.054  1.00  0.00     0.157 HD
ENDBRANCH   9  41
BRANCH   5  44
HETATM   44  O1  UNL     1      35.319  30.667  21.361  1.00  0.00    -0.276 OA
ATOM     45  H1  UNL     1      35.945  30.413  20.694  1.00  0.00     0.245 HD
ENDBRANCH   5  44
TORSDOF 9
ENDMDL
MODEL 5
REMARK VINA RESULT: -9.789616106      2.378      7.004
REMARK  9 active torsions:
REMARK  status: ('A' for Active; 'I' for Inactive)
REMARK    1  A    between atoms: N1_1  and  C1_4 
REMARK    2  A    between atoms: N3_8  and  O1_10 
REMARK    3  A    between atoms: C3_14  and  N5_15 
REMARK    4  A    between atoms: C6_20  and  C7_21 
REMARK    5  A    between atoms: C8_25  and  C9_26 
REMARK    6  A    between atoms: N13_38  and  C10_39 
REMARK    7  A    between atoms: C10_39  and  C11_40 
REMARK    8  A    between atoms: C11_40  and  O3_41 
REMARK    9  A    between atoms: C11_40  and  C12_43 
ROOT
HETATM    1  C1  UNL     1      33.293  30.973  25.555  1.00  0.00     0.130 C 
HETATM    2  N2  UNL     1      32.096  30.422  25.956  1.00  0.00    -0.174 N 
ATOM      3  H2  UNL     1      31.884  29.494  25.591  1.00  0.00     0.186 HD
HETATM    4  C2  UNL     1      31.162  30.968  26.781  1.00  0.00     0.705 C 
HETATM    5  N3  UNL     1      30.109  30.228  27.014  1.00  0.00    -0.098 N 
ATOM      6  H3  UNL     1      29.368  30.573  27.624  1.00  0.00     0.213 HD
HETATM    7  N4  UNL     1      31.171  32.185  27.403  1.00  0.00    -0.173 N 
ATOM      8  H4  UNL     1      30.424  32.340  28.081  1.00  0.00     0.186 HD
HETATM    9  C3  UNL     1      32.030  33.205  27.243  1.00  0.00     0.144 C 
HETATM   10  C4  UNL     1      32.887  33.368  26.183  1.00  0.00     0.111 A 
HETATM   11  C5  UNL     1      33.437  32.346  25.397  1.00  0.00     0.072 A 
HETATM   12  C6  UNL     1      34.210  32.956  24.458  1.00  0.00     0.110 A 
HETATM   13  N12 UNL     1      34.098  34.288  24.721  1.00  0.00    -0.293 N 
ATOM     14  H12 UNL     1      34.575  35.006  24.178  1.00  0.00     0.187 HD
HETATM   15  N13 UNL     1      33.317  34.556  25.739  1.00  0.00    -0.284 N 
ENDROOT
BRANCH  12  16
HETATM   16  C7  UNL     1      35.003  32.374  23.384  1.00  0.00     0.157 A 
HETATM   17  N6  UNL     1      36.097  31.682  23.261  1.00  0.00    -0.241 N 
HETATM   18  O2  UNL     1      36.366  31.454  22.025  1.00  0.00    -0.214 OA
ATOM     19  H6  UNL     1      36.668  31.361  24.044  1.00  0.00     0.196 HD
HETATM   20  C8  UNL     1      35.450  31.995  21.254  1.00  0.00     0.218 A 
HETATM   21  N11 UNL     1      34.596  32.570  22.081  1.00  0.00    -0.315 N 
ATOM     22  H11 UNL     1      33.760  33.082  21.798  1.00  0.00     0.169 HD
BRANCH  20  23
HETATM   23  C9  UNL     1      35.404  31.956  19.799  1.00  0.00     0.188 A 
HETATM   24  N7  UNL     1      36.001  32.825  18.955  1.00  0.00    -0.268 N 
HETATM   25  N8  UNL     1      35.739  32.474  17.714  1.00  0.00    -0.225 N 
ATOM     26  H7  UNL     1      36.567  33.626  19.234  1.00  0.00     0.190 HD
HETATM   27  N9  UNL     1      34.979  31.392  17.707  1.00  0.00    -0.005 NA
ATOM     28  H8  UNL     1      36.072  32.964  16.883  1.00  0.00     0.205 HD
HETATM   29  N10 UNL     1      34.777  31.080  18.997  1.00  0.00    -0.263 N 
ATOM     30  H10 UNL     1      34.224  30.287  19.323  1.00  0.00     0.186 HD
ENDBRANCH  20  23
ENDBRANCH  12  16
BRANCH   1  31
HETATM   31  N1  UNL     1      34.257  30.266  25.369  1.00  0.00    -0.384 N 
ATOM     32  H12 UNL     1      34.127  29.389  24.866  1.00  0.00     0.157 HD
ATOM     33  H11 UNL     1      35.181  30.563  25.685  1.00  0.00     0.157 HD
ENDBRANCH   1  31
BRANCH  15  34
HETATM   34  C10 UNL     1      33.017  35.880  26.202  1.00  0.00     0.192 C 
BRANCH  34  35
HETATM   35  C11 UNL     1      34.188  36.838  26.191  1.00  0.00     0.238 C 
BRANCH  35  36
HETATM   36  O3  UNL     1      34.455  37.495  25.036  1.00  0.00    -0.383 OA
ATOM     37  H3  UNL     1      33.803  37.459  24.345  1.00  0.00     0.210 HD
ENDBRANCH  35  36
BRANCH  35  38
HETATM   38  C12 UNL     1      33.980  37.745  27.358  1.00  0.00     0.204 C 
HETATM   39  O4  UNL     1      33.820  37.213  28.481  1.00  0.00    -0.646 OA
HETATM   40  O5  UNL     1      33.955  39.124  27.278  1.00  0.00    -0.646 OA
ENDBRANCH  35  38
ENDBRANCH  34  35
ENDBRANCH  15  34
BRANCH   9  41
HETATM   41  N5  UNL     1      32.094  34.115  28.119  1.00  0.00    -0.383 N 
ATOM     42  H52 UNL     1      31.487  33.972  28.926  1.00  0.00     0.157 HD
ATOM     43  H51 UNL     1      32.719  34.909  27.979  1.00  0.00     0.157 HD
ENDBRANCH   9  41
BRANCH   5  44
HETATM   44  O1  UNL     1      30.004  28.998  26.444  1.00  0.00    -0.276 OA
ATOM     45  H1  UNL     1      29.400  28.360  26.802  1.00  0.00     0.245 HD
ENDBRANCH   5  44
TORSDOF 9
ENDMDL
