MODEL 1
REMARK VINA RESULT: -8.931324458      0.000      0.000
REMARK  11 active torsions:
REMARK  status: ('A' for Active; 'I' for Inactive)
REMARK    1  A    between atoms: N1_1  and  C1_4 
REMARK    2  A    between atoms: C3_14  and  C4_15 
REMARK    3  A    between atoms: C5_18  and  C6_19 
REMARK    4  A    between atoms: C7_22  and  C8_23 
REMARK    5  A    between atoms: C8_23  and  O3_24 
REMARK    6  A    between atoms: C8_23  and  O4_26 
REMARK    7  A    between atoms: N7_28  and  C9_29 
REMARK    8  A    between atoms: C11_31  and  C12_32 
REMARK    9  A    between atoms: C12_32  and  O5_33 
REMARK   10  A    between atoms: C12_32  and  O6_35 
REMARK   11  A    between atoms: C13_41  and  N10_42 
ROOT
HETATM    1  C4  UNL     1      32.183  33.398  26.337  1.00  0.00     0.162 A 
HETATM    2  N6  UNL     1      31.060  32.919  26.863  1.00  0.00    -0.332 N 
ATOM      3  H6  UNL     1      30.380  33.483  27.374  1.00  0.00     0.168 HD
HETATM    4  C5  UNL     1      30.931  31.574  26.632  1.00  0.00     0.139 A 
HETATM    5  C7  UNL     1      32.048  31.220  25.924  1.00  0.00     0.107 A 
HETATM    6  N7  UNL     1      32.795  32.352  25.757  1.00  0.00    -0.287 N 
ENDROOT
BRANCH   1   7
HETATM    7  C3  UNL     1      32.687  34.784  26.362  1.00  0.00     0.206 A 
HETATM    8  N5  UNL     1      32.844  35.613  25.328  1.00  0.00    -0.266 N 
HETATM    9  N4  UNL     1      33.319  36.773  25.725  1.00  0.00    -0.127 N 
ATOM     10  H5  UNL     1      32.626  35.378  24.360  1.00  0.00     0.189 HD
HETATM   11  C2  UNL     1      33.481  36.711  27.054  1.00  0.00     0.735 A 
ATOM     12  H4  UNL     1      33.527  37.575  25.129  1.00  0.00     0.206 HD
HETATM   13  N3  UNL     1      33.929  37.612  27.937  1.00  0.00    -0.115 N 
HETATM   14  N11 UNL     1      33.087  35.470  27.446  1.00  0.00    -0.048 N 
HETATM   15  N2  UNL     1      34.006  37.333  29.219  1.00  0.00    -0.117 N 
ATOM     16  H3  UNL     1      34.216  38.534  27.608  1.00  0.00     0.206 HD
HETATM   17  C1  UNL     1      33.617  36.101  29.626  1.00  0.00     0.706 A 
ATOM     18  H2  UNL     1      34.349  38.023  29.886  1.00  0.00     0.206 HD
HETATM   19  N12 UNL     1      33.167  35.205  28.726  1.00  0.00    -0.108 N 
ATOM     20  H12 UNL     1      32.878  34.284  29.055  1.00  0.00     0.207 HD
BRANCH  17  21
HETATM   21  N1  UNL     1      33.694  35.832  30.889  1.00  0.00    -0.232 N 
ATOM     22  H12 UNL     1      33.068  36.253  31.575  1.00  0.00     0.174 HD
ATOM     23  H11 UNL     1      34.412  35.173  31.192  1.00  0.00     0.174 HD
ENDBRANCH  17  21
ENDBRANCH   1   7
BRANCH   6  24
HETATM   24  C9  UNL     1      34.034  32.418  25.074  1.00  0.00     0.088 A 
HETATM   25  C10 UNL     1      34.091  32.173  23.702  1.00  0.00     0.065 A 
HETATM   26  C11 UNL     1      35.318  32.254  23.096  1.00  0.00     0.082 A 
HETATM   27  N8  UNL     1      36.427  32.559  23.794  1.00  0.00    -0.298 N 
HETATM   28  N9  UNL     1      36.405  32.794  25.086  1.00  0.00    -0.284 N 
ATOM     29  H8  UNL     1      37.319  32.609  23.301  1.00  0.00     0.187 HD
HETATM   30  C13 UNL     1      35.210  32.726  25.738  1.00  0.00     0.141 A 
ATOM     31  H9  UNL     1      37.261  33.024  25.589  1.00  0.00     0.188 HD
BRANCH  26  32
HETATM   32  C12 UNL     1      35.466  32.004  21.620  1.00  0.00     0.306 C 
BRANCH  32  33
HETATM   33  O5  UNL     1      36.795  31.695  21.388  1.00  0.00    -0.366 OA
ATOM     34  H5  UNL     1      36.931  31.722  20.448  1.00  0.00     0.213 HD
ENDBRANCH  32  33
BRANCH  32  35
HETATM   35  O6  UNL     1      34.583  31.035  21.203  1.00  0.00    -0.366 OA
ATOM     36  H6  UNL     1      34.942  30.549  20.470  1.00  0.00     0.213 HD
ENDBRANCH  32  35
ENDBRANCH  26  32
BRANCH  30  37
HETATM   37  N10 UNL     1      35.157  32.954  26.997  1.00  0.00    -0.383 N 
ATOM     38 2H10 UNL     1      35.080  33.912  27.338  1.00  0.00     0.157 HD
ATOM     39 1H10 UNL     1      35.193  32.159  27.635  1.00  0.00     0.157 HD
ENDBRANCH  30  37
ENDBRANCH   6  24
BRANCH   4  40
HETATM   40  C6  UNL     1      29.787  30.777  27.080  1.00  0.00     0.229 C 
HETATM   41  O1  UNL     1      28.811  30.665  26.251  1.00  0.00    -0.643 OA
HETATM   42  O2  UNL     1      29.701  30.162  28.293  1.00  0.00    -0.643 OA
ENDBRANCH   4  40
BRANCH   5  43
HETATM   43  C8  UNL     1      32.394  29.856  25.459  1.00  0.00     0.308 C 
BRANCH  43  44
HETATM   44  O3  UNL     1      33.669  29.448  25.772  1.00  0.00    -0.366 OA
ATOM     45  H3  UNL     1      33.907  28.593  25.433  1.00  0.00     0.213 HD
ENDBRANCH  43  44
BRANCH  43  46
HETATM   46  O4  UNL     1      32.071  29.639  24.125  1.00  0.00    -0.366 OA
ATOM     47  H4  UNL     1      31.684  28.785  23.971  1.00  0.00     0.213 HD
ENDBRANCH  43  46
ENDBRANCH   5  43
TORSDOF 11
ENDMDL
MODEL 2
REMARK VINA RESULT: -8.580930718      3.146      6.425
REMARK  11 active torsions:
REMARK  status: ('A' for Active; 'I' for Inactive)
REMARK    1  A    between atoms: N1_1  and  C1_4 
REMARK    2  A    between atoms: C3_14  and  C4_15 
REMARK    3  A    between atoms: C5_18  and  C6_19 
REMARK    4  A    between atoms: C7_22  and  C8_23 
REMARK    5  A    between atoms: C8_23  and  O3_24 
REMARK    6  A    between atoms: C8_23  and  O4_26 
REMARK    7  A    between atoms: N7_28  and  C9_29 
REMARK    8  A    between atoms: C11_31  and  C12_32 
REMARK    9  A    between atoms: C12_32  and  O5_33 
REMARK   10  A    between atoms: C12_32  and  O6_35 
REMARK   11  A    between atoms: C13_41  and  N10_42 
ROOT
HETATM    1  C4  UNL     1      34.132  33.948  24.688  1.00  0.00     0.162 A 
HETATM    2  N6  UNL     1      34.577  35.175  24.936  1.00  0.00    -0.332 N 
ATOM      3  H6  UNL     1      35.306  35.642  24.395  1.00  0.00     0.168 HD
HETATM    4  C5  UNL     1      33.935  35.734  26.011  1.00  0.00     0.139 A 
HETATM    5  C7  UNL     1      33.048  34.782  26.438  1.00  0.00     0.107 A 
HETATM    6  N7  UNL     1      33.188  33.701  25.613  1.00  0.00    -0.287 N 
ENDROOT
BRANCH   1   7
HETATM    7  C3  UNL     1      34.558  33.016  23.627  1.00  0.00     0.206 A 
HETATM    8  N5  UNL     1      34.723  33.281  22.329  1.00  0.00    -0.266 N 
HETATM    9  N4  UNL     1      35.112  32.207  21.677  1.00  0.00    -0.127 N 
ATOM     10  H5  UNL     1      34.569  34.193  21.900  1.00  0.00     0.189 HD
HETATM   11  C2  UNL     1      35.206  31.206  22.564  1.00  0.00     0.735 A 
ATOM     12  H4  UNL     1      35.307  32.146  20.677  1.00  0.00     0.206 HD
HETATM   13  N3  UNL     1      35.557  29.923  22.422  1.00  0.00    -0.115 N 
HETATM   14  N11 UNL     1      34.859  31.716  23.777  1.00  0.00    -0.048 N 
HETATM   15  N2  UNL     1      35.580  29.102  23.448  1.00  0.00    -0.117 N 
ATOM     16  H3  UNL     1      35.812  29.575  21.498  1.00  0.00     0.206 HD
HETATM   17  C1  UNL     1      35.238  29.593  24.663  1.00  0.00     0.706 A 
ATOM     18  H2  UNL     1      35.848  28.125  23.333  1.00  0.00     0.206 HD
HETATM   19  N12 UNL     1      34.888  30.888  24.792  1.00  0.00    -0.108 N 
ATOM     20  H12 UNL     1      34.635  31.237  25.716  1.00  0.00     0.207 HD
BRANCH  17  21
HETATM   21  N1  UNL     1      35.263  28.782  25.670  1.00  0.00    -0.232 N 
ATOM     22  H12 UNL     1      34.650  28.897  26.477  1.00  0.00     0.174 HD
ATOM     23  H11 UNL     1      35.924  28.006  25.639  1.00  0.00     0.174 HD
ENDBRANCH  17  21
ENDBRANCH   1   7
BRANCH   6  24
HETATM   24  C9  UNL     1      32.450  32.498  25.714  1.00  0.00     0.088 A 
HETATM   25  C10 UNL     1      32.699  31.609  26.760  1.00  0.00     0.065 A 
HETATM   26  C11 UNL     1      31.949  30.462  26.806  1.00  0.00     0.082 A 
HETATM   27  N8  UNL     1      31.008  30.200  25.881  1.00  0.00    -0.298 N 
HETATM   28  N9  UNL     1      30.751  31.017  24.886  1.00  0.00    -0.284 N 
ATOM     29  H8  UNL     1      30.474  29.334  25.957  1.00  0.00     0.187 HD
HETATM   30  C13 UNL     1      31.468  32.172  24.792  1.00  0.00     0.141 A 
ATOM     31  H9  UNL     1      30.031  30.793  24.199  1.00  0.00     0.188 HD
BRANCH  26  32
HETATM   32  C12 UNL     1      32.156  29.451  27.901  1.00  0.00     0.306 C 
BRANCH  32  33
HETATM   33  O5  UNL     1      30.946  28.809  28.100  1.00  0.00    -0.366 OA
ATOM     34  H5  UNL     1      31.057  27.906  27.827  1.00  0.00     0.213 HD
ENDBRANCH  32  33
BRANCH  32  35
HETATM   35  O6  UNL     1      33.196  28.606  27.588  1.00  0.00    -0.366 OA
ATOM     36  H6  UNL     1      33.863  29.066  27.093  1.00  0.00     0.213 HD
ENDBRANCH  32  35
ENDBRANCH  26  32
BRANCH  30  37
HETATM   37  N10 UNL     1      31.237  32.990  23.833  1.00  0.00    -0.383 N 
ATOM     38 2H10 UNL     1      31.465  33.978  23.942  1.00  0.00     0.157 HD
ATOM     39 1H10 UNL     1      30.828  32.625  22.974  1.00  0.00     0.157 HD
ENDBRANCH  30  37
ENDBRANCH   6  24
BRANCH   4  40
HETATM   40  C6  UNL     1      34.206  37.085  26.509  1.00  0.00     0.229 C 
HETATM   41  O1  UNL     1      34.389  37.994  25.619  1.00  0.00    -0.643 OA
HETATM   42  O2  UNL     1      34.272  37.423  27.827  1.00  0.00    -0.643 OA
ENDBRANCH   4  40
BRANCH   5  43
HETATM   43  C8  UNL     1      32.135  34.895  27.599  1.00  0.00     0.308 C 
BRANCH  43  44
HETATM   44  O3  UNL     1      32.742  34.753  28.824  1.00  0.00    -0.366 OA
ATOM     45  H3  UNL     1      32.145  34.615  29.550  1.00  0.00     0.213 HD
ENDBRANCH  43  44
BRANCH  43  46
HETATM   46  O4  UNL     1      30.993  34.113  27.470  1.00  0.00    -0.366 OA
ATOM     47  H4  UNL     1      30.593  33.900  28.305  1.00  0.00     0.213 HD
ENDBRANCH  43  46
ENDBRANCH   5  43
TORSDOF 11
ENDMDL
MODEL 3
REMARK VINA RESULT: -6.774399884      3.171      6.211
REMARK  11 active torsions:
REMARK  status: ('A' for Active; 'I' for Inactive)
REMARK    1  A    between atoms: N1_1  and  C1_4 
REMARK    2  A    between atoms: C3_14  and  C4_15 
REMARK    3  A    between atoms: C5_18  and  C6_19 
REMARK    4  A    between atoms: C7_22  and  C8_23 
REMARK    5  A    between atoms: C8_23  and  O3_24 
REMARK    6  A    between atoms: C8_23  and  O4_26 
REMARK    7  A    between atoms: N7_28  and  C9_29 
REMARK    8  A    between atoms: C11_31  and  C12_32 
REMARK    9  A    between atoms: C12_32  and  O5_33 
REMARK   10  A    between atoms: C12_32  and  O6_35 
REMARK   11  A    between atoms: C13_41  and  N10_42 
ROOT
HETATM    1  C4  UNL     1      33.006  30.563  25.662  1.00  0.00     0.162 A 
HETATM    2  N6  UNL     1      33.456  29.423  25.151  1.00  0.00    -0.332 N 
ATOM      3  H6  UNL     1      32.977  28.526  25.235  1.00  0.00     0.168 HD
HETATM    4  C5  UNL     1      34.647  29.603  24.495  1.00  0.00     0.139 A 
HETATM    5  C7  UNL     1      34.932  30.936  24.623  1.00  0.00     0.107 A 
HETATM    6  N7  UNL     1      33.913  31.500  25.339  1.00  0.00    -0.287 N 
ENDROOT
BRANCH   1   7
HETATM    7  C3  UNL     1      31.769  30.796  26.432  1.00  0.00     0.206 A 
HETATM    8  N5  UNL     1      31.119  31.949  26.602  1.00  0.00    -0.266 N 
HETATM    9  N4  UNL     1      30.051  31.781  27.350  1.00  0.00    -0.127 N 
ATOM     10  H5  UNL     1      31.411  32.842  26.204  1.00  0.00     0.189 HD
HETATM   11  C2  UNL     1      29.992  30.484  27.685  1.00  0.00     0.735 A 
ATOM     12  H4  UNL     1      29.387  32.505  27.626  1.00  0.00     0.206 HD
HETATM   13  N3  UNL     1      29.114  29.797  28.425  1.00  0.00    -0.115 N 
HETATM   14  N11 UNL     1      31.064  29.875  27.111  1.00  0.00    -0.048 N 
HETATM   15  N2  UNL     1      29.252  28.506  28.628  1.00  0.00    -0.117 N 
ATOM     16  H3  UNL     1      28.320  30.286  28.840  1.00  0.00     0.206 HD
HETATM   17  C1  UNL     1      30.315  27.884  28.063  1.00  0.00     0.706 A 
ATOM     18  H2  UNL     1      28.580  27.988  29.193  1.00  0.00     0.206 HD
HETATM   19  N12 UNL     1      31.190  28.588  27.319  1.00  0.00    -0.108 N 
ATOM     20  H12 UNL     1      31.982  28.099  26.903  1.00  0.00     0.207 HD
BRANCH  17  21
HETATM   21  N1  UNL     1      30.446  26.613  28.265  1.00  0.00    -0.232 N 
ATOM     22  H12 UNL     1      29.820  26.092  28.878  1.00  0.00     0.174 HD
ATOM     23  H11 UNL     1      31.207  26.132  27.786  1.00  0.00     0.174 HD
ENDBRANCH  17  21
ENDBRANCH   1   7
BRANCH   6  24
HETATM   24  C9  UNL     1      33.824  32.868  25.691  1.00  0.00     0.088 A 
HETATM   25  C10 UNL     1      34.093  33.274  26.999  1.00  0.00     0.065 A 
HETATM   26  C11 UNL     1      33.994  34.613  27.277  1.00  0.00     0.082 A 
HETATM   27  N8  UNL     1      33.651  35.504  26.330  1.00  0.00    -0.298 N 
HETATM   28  N9  UNL     1      33.392  35.152  25.091  1.00  0.00    -0.284 N 
ATOM     29  H8  UNL     1      33.590  36.490  26.583  1.00  0.00     0.187 HD
HETATM   30  C13 UNL     1      33.476  33.833  24.760  1.00  0.00     0.141 A 
ATOM     31  H9  UNL     1      33.134  35.850  24.393  1.00  0.00     0.188 HD
BRANCH  26  32
HETATM   32  C12 UNL     1      34.267  35.133  28.662  1.00  0.00     0.306 C 
BRANCH  32  33
HETATM   33  O5  UNL     1      34.673  36.450  28.533  1.00  0.00    -0.366 OA
ATOM     34  H5  UNL     1      34.248  36.945  29.223  1.00  0.00     0.213 HD
ENDBRANCH  32  33
BRANCH  32  35
HETATM   35  O6  UNL     1      33.166  34.961  29.469  1.00  0.00    -0.366 OA
ATOM     36  H6  UNL     1      33.335  35.297  30.341  1.00  0.00     0.213 HD
ENDBRANCH  32  35
ENDBRANCH  26  32
BRANCH  30  37
HETATM   37  N10 UNL     1      33.231  33.460  23.559  1.00  0.00    -0.383 N 
ATOM     38 2H10 UNL     1      32.660  32.632  23.390  1.00  0.00     0.157 HD
ATOM     39 1H10 UNL     1      33.618  34.010  22.793  1.00  0.00     0.157 HD
ENDBRANCH  30  37
ENDBRANCH   6  24
BRANCH   4  40
HETATM   40  C6  UNL     1      35.375  28.527  23.818  1.00  0.00     0.229 C 
HETATM   41  O1  UNL     1      35.670  28.729  22.583  1.00  0.00    -0.643 OA
HETATM   42  O2  UNL     1      35.750  27.358  24.408  1.00  0.00    -0.643 OA
ENDBRANCH   4  40
BRANCH   5  43
HETATM   43  C8  UNL     1      36.138  31.627  24.109  1.00  0.00     0.308 C 
BRANCH  43  44
HETATM   44  O3  UNL     1      36.576  32.673  24.885  1.00  0.00    -0.366 OA
ATOM     45  H3  UNL     1      35.970  33.401  24.950  1.00  0.00     0.213 HD
ENDBRANCH  43  44
BRANCH  43  46
HETATM   46  O4  UNL     1      36.042  31.958  22.763  1.00  0.00    -0.366 OA
ATOM     47  H4  UNL     1      35.397  31.439  22.298  1.00  0.00     0.213 HD
ENDBRANCH  43  46
ENDBRANCH   5  43
TORSDOF 11
ENDMDL
MODEL 4
REMARK VINA RESULT: -6.028545953      1.450      5.179
REMARK  11 active torsions:
REMARK  status: ('A' for Active; 'I' for Inactive)
REMARK    1  A    between atoms: N1_1  and  C1_4 
REMARK    2  A    between atoms: C3_14  and  C4_15 
REMARK    3  A    between atoms: C5_18  and  C6_19 
REMARK    4  A    between atoms: C7_22  and  C8_23 
REMARK    5  A    between atoms: C8_23  and  O3_24 
REMARK    6  A    between atoms: C8_23  and  O4_26 
REMARK    7  A    between atoms: N7_28  and  C9_29 
REMARK    8  A    between atoms: C11_31  and  C12_32 
REMARK    9  A    between atoms: C12_32  and  O5_33 
REMARK   10  A    between atoms: C12_32  and  O6_35 
REMARK   11  A    between atoms: C13_41  and  N10_42 
ROOT
HETATM    1  C4  UNL     1      34.106  33.197  26.120  1.00  0.00     0.162 A 
HETATM    2  N6  UNL     1      35.036  33.292  25.175  1.00  0.00    -0.332 N 
ATOM      3  H6  UNL     1      35.811  33.955  25.197  1.00  0.00     0.168 HD
HETATM    4  C5  UNL     1      34.821  32.387  24.167  1.00  0.00     0.139 A 
HETATM    5  C7  UNL     1      33.689  31.706  24.528  1.00  0.00     0.107 A 
HETATM    6  N7  UNL     1      33.273  32.220  25.724  1.00  0.00    -0.287 N 
ENDROOT
BRANCH   1   7
HETATM    7  C3  UNL     1      33.979  33.983  27.362  1.00  0.00     0.206 A 
HETATM    8  N5  UNL     1      33.880  33.522  28.611  1.00  0.00    -0.266 N 
HETATM    9  N4  UNL     1      33.783  34.513  29.471  1.00  0.00    -0.127 N 
ATOM     10  H5  UNL     1      33.880  32.534  28.865  1.00  0.00     0.189 HD
HETATM   11  C2  UNL     1      33.817  35.658  28.774  1.00  0.00     0.735 A 
ATOM     12  H4  UNL     1      33.696  34.426  30.484  1.00  0.00     0.206 HD
HETATM   13  N3  UNL     1      33.754  36.936  29.163  1.00  0.00    -0.115 N 
HETATM   14  N11 UNL     1      33.939  35.321  27.461  1.00  0.00    -0.048 N 
HETATM   15  N2  UNL     1      33.807  37.919  28.293  1.00  0.00    -0.117 N 
ATOM     16  H3  UNL     1      33.664  37.152  30.156  1.00  0.00     0.206 HD
HETATM   17  C1  UNL     1      33.929  37.603  26.981  1.00  0.00     0.706 A 
ATOM     18  H2  UNL     1      33.758  38.892  28.596  1.00  0.00     0.206 HD
HETATM   19  N12 UNL     1      33.993  36.311  26.604  1.00  0.00    -0.108 N 
ATOM     20  H12 UNL     1      34.085  36.095  25.612  1.00  0.00     0.207 HD
BRANCH  17  21
HETATM   21  N1  UNL     1      33.982  38.574  26.129  1.00  0.00    -0.232 N 
ATOM     22  H12 UNL     1      34.866  38.950  25.786  1.00  0.00     0.174 HD
ATOM     23  H11 UNL     1      33.100  38.966  25.800  1.00  0.00     0.174 HD
ENDBRANCH  17  21
ENDBRANCH   1   7
BRANCH   6  24
HETATM   24  C9  UNL     1      32.133  31.788  26.444  1.00  0.00     0.088 A 
HETATM   25  C10 UNL     1      31.995  30.446  26.799  1.00  0.00     0.065 A 
HETATM   26  C11 UNL     1      30.871  30.090  27.498  1.00  0.00     0.082 A 
HETATM   27  N8  UNL     1      29.933  30.996  27.831  1.00  0.00    -0.298 N 
HETATM   28  N9  UNL     1      30.035  32.266  27.510  1.00  0.00    -0.284 N 
ATOM     29  H8  UNL     1      29.114  30.685  28.351  1.00  0.00     0.187 HD
HETATM   30  C13 UNL     1      31.134  32.674  26.815  1.00  0.00     0.141 A 
ATOM     31  H9  UNL     1      29.310  32.931  27.776  1.00  0.00     0.188 HD
BRANCH  26  32
HETATM   32  C12 UNL     1      30.646  28.663  27.919  1.00  0.00     0.306 C 
BRANCH  32  33
HETATM   33  O5  UNL     1      30.185  28.688  29.223  1.00  0.00    -0.366 OA
ATOM     34  H5  UNL     1      30.932  28.865  29.783  1.00  0.00     0.213 HD
ENDBRANCH  32  33
BRANCH  32  35
HETATM   35  O6  UNL     1      29.803  28.026  27.037  1.00  0.00    -0.366 OA
ATOM     36  H6  UNL     1      29.242  27.412  27.496  1.00  0.00     0.213 HD
ENDBRANCH  32  35
ENDBRANCH  26  32
BRANCH  30  37
HETATM   37  N10 UNL     1      31.261  33.906  26.490  1.00  0.00    -0.383 N 
ATOM     38 2H10 UNL     1      30.433  34.469  26.295  1.00  0.00     0.157 HD
ATOM     39 1H10 UNL     1      32.201  34.299  26.436  1.00  0.00     0.157 HD
ENDBRANCH  30  37
ENDBRANCH   6  24
BRANCH   4  40
HETATM   40  C6  UNL     1      35.692  32.250  22.998  1.00  0.00     0.229 C 
HETATM   41  O1  UNL     1      36.781  31.588  23.174  1.00  0.00    -0.643 OA
HETATM   42  O2  UNL     1      35.420  32.766  21.767  1.00  0.00    -0.643 OA
ENDBRANCH   4  40
BRANCH   5  43
HETATM   43  C8  UNL     1      33.025  30.637  23.746  1.00  0.00     0.308 C 
BRANCH  43  44
HETATM   44  O3  UNL     1      31.690  30.851  23.498  1.00  0.00    -0.366 OA
ATOM     45  H3  UNL     1      31.496  31.199  22.635  1.00  0.00     0.213 HD
ENDBRANCH  43  44
BRANCH  43  46
HETATM   46  O4  UNL     1      33.284  29.364  24.237  1.00  0.00    -0.366 OA
ATOM     47  H4  UNL     1      32.545  28.774  24.147  1.00  0.00     0.213 HD
ENDBRANCH  43  46
ENDBRANCH   5  43
TORSDOF 11
ENDMDL
MODEL 5
REMARK VINA RESULT: -5.462863590      3.238      7.099
REMARK  11 active torsions:
REMARK  status: ('A' for Active; 'I' for Inactive)
REMARK    1  A    between atoms: N1_1  and  C1_4 
REMARK    2  A    between atoms: C3_14  and  C4_15 
REMARK    3  A    between atoms: C5_18  and  C6_19 
REMARK    4  A    between atoms: C7_22  and  C8_23 
REMARK    5  A    between atoms: C8_23  and  O3_24 
REMARK    6  A    between atoms: C8_23  and  O4_26 
REMARK    7  A    between atoms: N7_28  and  C9_29 
REMARK    8  A    between atoms: C11_31  and  C12_32 
REMARK    9  A    between atoms: C12_32  and  O5_33 
REMARK   10  A    between atoms: C12_32  and  O6_35 
REMARK   11  A    between atoms: C13_41  and  N10_42 
ROOT
HETATM    1  C4  UNL     1      34.109  32.404  25.556  1.00  0.00     0.162 A 
HETATM    2  N6  UNL     1      34.762  33.557  25.650  1.00  0.00    -0.332 N 
ATOM      3  H6  UNL     1      35.724  33.700  25.342  1.00  0.00     0.168 HD
HETATM    4  C5  UNL     1      33.979  34.532  26.214  1.00  0.00     0.139 A 
HETATM    5  C7  UNL     1      32.780  33.926  26.477  1.00  0.00     0.107 A 
HETATM    6  N7  UNL     1      32.886  32.627  26.065  1.00  0.00    -0.287 N 
ENDROOT
BRANCH   1   7
HETATM    7  C3  UNL     1      34.591  31.121  25.010  1.00  0.00     0.206 A 
HETATM    8  N5  UNL     1      34.796  29.980  25.671  1.00  0.00    -0.266 N 
HETATM    9  N4  UNL     1      35.230  29.039  24.861  1.00  0.00    -0.127 N 
ATOM     10  H5  UNL     1      34.637  29.853  26.670  1.00  0.00     0.189 HD
HETATM   11  C2  UNL     1      35.316  29.571  23.633  1.00  0.00     0.735 A 
ATOM     12  H4  UNL     1      35.460  28.079  25.119  1.00  0.00     0.206 HD
HETATM   13  N3  UNL     1      35.699  29.046  22.463  1.00  0.00    -0.115 N 
HETATM   14  N11 UNL     1      34.917  30.868  23.732  1.00  0.00    -0.048 N 
HETATM   15  N2  UNL     1      35.706  29.764  21.362  1.00  0.00    -0.117 N 
ATOM     16  H3  UNL     1      35.991  28.070  22.425  1.00  0.00     0.206 HD
HETATM   17  C1  UNL     1      35.311  31.057  21.442  1.00  0.00     0.706 A 
ATOM     18  H2  UNL     1      35.999  29.358  20.473  1.00  0.00     0.206 HD
HETATM   19  N12 UNL     1      34.927  31.571  22.627  1.00  0.00    -0.108 N 
ATOM     20  H12 UNL     1      34.633  32.547  22.664  1.00  0.00     0.207 HD
BRANCH  17  21
HETATM   21  N1  UNL     1      35.319  31.758  20.355  1.00  0.00    -0.232 N 
ATOM     22  H12 UNL     1      34.624  32.480  20.168  1.00  0.00     0.174 HD
ATOM     23  H11 UNL     1      36.053  31.569  19.673  1.00  0.00     0.174 HD
ENDBRANCH  17  21
ENDBRANCH   1   7
BRANCH   6  24
HETATM   24  C9  UNL     1      31.859  31.656  26.160  1.00  0.00     0.088 A 
HETATM   25  C10 UNL     1      31.758  30.852  27.295  1.00  0.00     0.065 A 
HETATM   26  C11 UNL     1      30.742  29.933  27.329  1.00  0.00     0.082 A 
HETATM   27  N8  UNL     1      29.873  29.807  26.310  1.00  0.00    -0.298 N 
HETATM   28  N9  UNL     1      29.943  30.550  25.229  1.00  0.00    -0.284 N 
ATOM     29  H8  UNL     1      29.132  29.110  26.380  1.00  0.00     0.187 HD
HETATM   30  C13 UNL     1      30.935  31.480  25.142  1.00  0.00     0.141 A 
ATOM     31  H9  UNL     1      29.270  30.433  24.471  1.00  0.00     0.188 HD
BRANCH  26  32
HETATM   32  C12 UNL     1      30.563  29.026  28.517  1.00  0.00     0.306 C 
BRANCH  32  33
HETATM   33  O5  UNL     1      29.431  29.451  29.190  1.00  0.00    -0.366 OA
ATOM     34  H5  UNL     1      29.369  30.392  29.071  1.00  0.00     0.213 HD
ENDBRANCH  32  33
BRANCH  32  35
HETATM   35  O6  UNL     1      30.519  27.710  28.119  1.00  0.00    -0.366 OA
ATOM     36  H6  UNL     1      29.643  27.475  27.838  1.00  0.00     0.213 HD
ENDBRANCH  32  35
ENDBRANCH  26  32
BRANCH  30  37
HETATM   37  N10 UNL     1      31.027  32.220  24.101  1.00  0.00    -0.383 N 
ATOM     38 2H10 UNL     1      31.839  32.823  23.977  1.00  0.00     0.157 HD
ATOM     39 1H10 UNL     1      30.275  32.184  23.414  1.00  0.00     0.157 HD
ENDBRANCH  30  37
ENDBRANCH   6  24
BRANCH   4  40
HETATM   40  C6  UNL     1      34.425  35.910  26.432  1.00  0.00     0.229 C 
HETATM   41  O1  UNL     1      34.658  36.247  27.651  1.00  0.00    -0.643 OA
HETATM   42  O2  UNL     1      34.604  36.830  25.443  1.00  0.00    -0.643 OA
ENDBRANCH   4  40
BRANCH   5  43
HETATM   43  C8  UNL     1      31.603  34.556  27.121  1.00  0.00     0.308 C 
BRANCH  43  44
HETATM   44  O3  UNL     1      30.759  33.679  27.761  1.00  0.00    -0.366 OA
ATOM     45  H3  UNL     1      31.190  32.932  28.160  1.00  0.00     0.213 HD
ENDBRANCH  43  44
BRANCH  43  46
HETATM   46  O4  UNL     1      30.930  35.435  26.282  1.00  0.00    -0.366 OA
ATOM     47  H4  UNL     1      31.142  36.345  26.452  1.00  0.00     0.213 HD
ENDBRANCH  43  46
ENDBRANCH   5  43
TORSDOF 11
ENDMDL
