MODEL 1
REMARK VINA RESULT: -8.703399877      0.000      0.000
REMARK  8 active torsions:
REMARK  status: ('A' for Active; 'I' for Inactive)
REMARK    1  A    between atoms: C2_2  and  C3_3 
REMARK       I    between atoms: C3_3  and  N1_5 
REMARK    2  A    between atoms: N1_5  and  C4_7 
REMARK    3  A    between atoms: C4_7  and  C5_8 
REMARK    4  A    between atoms: N2_9  and  C6_11 
REMARK    5  A    between atoms: C8_22  and  C9_23 
REMARK    6  A    between atoms: C10_27  and  C11_28 
REMARK    7  A    between atoms: C13_40  and  C14_41 
REMARK    8  A    between atoms: C14_41  and  O4_42 
ROOT
HETATM    1  C6  UNL     1      29.892  29.286  28.040  1.00  0.00     0.695 C 
HETATM    2  N3  UNL     1      30.794  30.200  28.065  1.00  0.00    -0.151 N 
ATOM      3  H3  UNL     1      31.441  30.229  28.853  1.00  0.00     0.184 HD
HETATM    4  C7  UNL     1      30.932  31.207  27.001  1.00  0.00     0.418 C 
HETATM    5  N4  UNL     1      29.672  31.304  26.254  1.00  0.00    -0.037 NA
HETATM    6  N5  UNL     1      29.390  29.995  25.787  1.00  0.00    -0.010 NA
HETATM    7  N6  UNL     1      29.002  29.265  26.931  1.00  0.00    -0.119 N 
ATOM      8  H6  UNL     1      28.123  28.746  26.961  1.00  0.00     0.202 HD
HETATM    9  N7  UNL     1      31.959  30.856  26.071  1.00  0.00     0.008 N 
ATOM     10  H71 UNL     1      31.652  30.885  25.100  1.00  0.00     0.286 HD
ATOM     11  H72 UNL     1      32.207  29.867  26.096  1.00  0.00     0.286 HD
HETATM   12  C8  UNL     1      33.060  31.724  26.344  1.00  0.00     0.293 C 
HETATM   13  C13 UNL     1      32.476  32.844  27.126  1.00  0.00     0.190 C 
HETATM   14  O5  UNL     1      31.286  32.384  27.607  1.00  0.00    -0.313 OA
ENDROOT
BRANCH   1  15
HETATM   15  N2  UNL     1      29.735  28.307  29.044  1.00  0.00    -0.203 N 
HETATM   16  C5  UNL     1      28.932  27.327  28.994  1.00  0.00     0.098 C 
ATOM     17  H2  UNL     1      30.315  28.395  29.878  1.00  0.00     0.183 HD
BRANCH  16  18
HETATM   18  C4  UNL     1      28.844  26.359  30.098  1.00  0.00     0.167 C 
BRANCH  18  19
HETATM   19  N1  UNL     1      29.031  24.992  29.669  1.00  0.00    -0.356 N 
HETATM   20  C3  UNL     1      27.908  24.147  29.560  1.00  0.00     0.217 C 
HETATM   21  O1  UNL     1      26.748  24.542  29.823  1.00  0.00    -0.274 OA
ATOM     22  H1  UNL     1      29.963  24.643  29.447  1.00  0.00     0.162 HD
BRANCH  20  23
HETATM   23  C2  UNL     1      28.095  22.748  29.121  1.00  0.00     0.098 C 
HETATM   24  C1  UNL     1      28.548  22.673  27.679  1.00  0.00     0.014 C 
ENDBRANCH  20  23
ENDBRANCH  18  19
ENDBRANCH  16  18
ENDBRANCH   1  15
BRANCH  12  25
HETATM   25  C9  UNL     1      33.630  32.284  25.074  1.00  0.00     0.138 A 
HETATM   26  N8  UNL     1      33.760  33.610  24.780  1.00  0.00    -0.244 N 
HETATM   27  O2  UNL     1      34.293  33.730  23.592  1.00  0.00    -0.214 OA
ATOM     28  H8  UNL     1      33.486  34.383  25.387  1.00  0.00     0.196 HD
HETATM   29  C10 UNL     1      34.523  32.544  23.085  1.00  0.00     0.225 A 
HETATM   30  N12 UNL     1      34.115  31.647  23.995  1.00  0.00    -0.318 N 
ATOM     31  H12 UNL     1      34.166  30.634  23.885  1.00  0.00     0.169 HD
BRANCH  29  32
HETATM   32  C11 UNL     1      35.115  32.301  21.767  1.00  0.00     0.220 A 
HETATM   33  N9  UNL     1      35.108  31.150  21.082  1.00  0.00    -0.273 N 
HETATM   34  N10 UNL     1      35.742  31.324  19.934  1.00  0.00    -0.263 N 
ATOM     35  H9  UNL     1      34.682  30.279  21.395  1.00  0.00     0.189 HD
HETATM   36  C12 UNL     1      36.161  32.623  19.891  1.00  0.00     0.238 A 
ATOM     37  H10 UNL     1      35.890  30.618  19.213  1.00  0.00     0.190 HD
HETATM   38  N11 UNL     1      36.820  33.181  18.925  1.00  0.00    -0.364 N 
HETATM   39  O3  UNL     1      35.759  33.162  21.014  1.00  0.00    -0.255 OA
ATOM     40 2H11 UNL     1      37.133  32.761  18.050  1.00  0.00     0.159 HD
ATOM     41 1H11 UNL     1      37.134  34.151  18.893  1.00  0.00     0.159 HD
ENDBRANCH  29  32
ENDBRANCH  12  25
BRANCH  13  42
HETATM   42  C14 UNL     1      33.440  33.250  28.223  1.00  0.00     0.198 C 
BRANCH  42  43
HETATM   43  O4  UNL     1      34.654  33.691  27.706  1.00  0.00    -0.398 OA
ATOM     44  H4  UNL     1      35.384  33.179  28.035  1.00  0.00     0.209 HD
ENDBRANCH  42  43
ENDBRANCH  13  42
TORSDOF 8
ENDMDL
MODEL 2
REMARK VINA RESULT: -8.701600757      5.557     10.387
REMARK  8 active torsions:
REMARK  status: ('A' for Active; 'I' for Inactive)
REMARK    1  A    between atoms: C2_2  and  C3_3 
REMARK       I    between atoms: C3_3  and  N1_5 
REMARK    2  A    between atoms: N1_5  and  C4_7 
REMARK    3  A    between atoms: C4_7  and  C5_8 
REMARK    4  A    between atoms: N2_9  and  C6_11 
REMARK    5  A    between atoms: C8_22  and  C9_23 
REMARK    6  A    between atoms: C10_27  and  C11_28 
REMARK    7  A    between atoms: C13_40  and  C14_41 
REMARK    8  A    between atoms: C14_41  and  O4_42 
ROOT
HETATM    1  C6  UNL     1      33.776  37.111  26.706  1.00  0.00     0.695 C 
HETATM    2  N3  UNL     1      33.199  36.211  25.994  1.00  0.00    -0.151 N 
ATOM      3  H3  UNL     1      32.882  36.456  25.056  1.00  0.00     0.184 HD
HETATM    4  C7  UNL     1      32.978  34.840  26.479  1.00  0.00     0.418 C 
HETATM    5  N4  UNL     1      33.045  34.824  27.946  1.00  0.00    -0.037 NA
HETATM    6  N5  UNL     1      34.309  35.367  28.287  1.00  0.00    -0.010 NA
HETATM    7  N6  UNL     1      34.210  36.748  28.011  1.00  0.00    -0.119 N 
ATOM      8  H6  UNL     1      34.438  37.451  28.713  1.00  0.00     0.202 HD
HETATM    9  N7  UNL     1      33.975  33.940  25.992  1.00  0.00     0.008 N 
ATOM     10  H71 UNL     1      34.413  33.385  26.726  1.00  0.00     0.286 HD
ATOM     11  H72 UNL     1      34.821  34.409  25.667  1.00  0.00     0.286 HD
HETATM   12  C8  UNL     1      33.343  33.149  24.984  1.00  0.00     0.293 C 
HETATM   13  C13 UNL     1      31.887  33.314  25.229  1.00  0.00     0.190 C 
HETATM   14  O5  UNL     1      31.762  34.435  25.995  1.00  0.00    -0.313 OA
ENDROOT
BRANCH   1  15
HETATM   15  N2  UNL     1      34.003  38.434  26.269  1.00  0.00    -0.203 N 
HETATM   16  C5  UNL     1      34.132  39.444  27.025  1.00  0.00     0.098 C 
ATOM     17  H2  UNL     1      34.069  38.590  25.264  1.00  0.00     0.183 HD
BRANCH  16  18
HETATM   18  C4  UNL     1      34.366  40.785  26.468  1.00  0.00     0.167 C 
BRANCH  18  19
HETATM   19  N1  UNL     1      34.015  41.848  27.381  1.00  0.00    -0.356 N 
HETATM   20  C3  UNL     1      33.649  43.107  26.863  1.00  0.00     0.217 C 
HETATM   21  O1  UNL     1      33.617  43.337  25.631  1.00  0.00    -0.274 OA
ATOM     22  H1  UNL     1      34.032  41.689  28.389  1.00  0.00     0.162 HD
BRANCH  20  23
HETATM   23  C2  UNL     1      33.289  44.196  27.795  1.00  0.00     0.098 C 
HETATM   24  C1  UNL     1      31.986  43.910  28.509  1.00  0.00     0.014 C 
ENDBRANCH  20  23
ENDBRANCH  18  19
ENDBRANCH  16  18
ENDBRANCH   1  15
BRANCH  12  25
HETATM   25  C9  UNL     1      33.686  31.697  25.146  1.00  0.00     0.138 A 
HETATM   26  N8  UNL     1      33.195  30.869  26.114  1.00  0.00    -0.244 N 
HETATM   27  O2  UNL     1      33.708  29.678  25.952  1.00  0.00    -0.214 OA
ATOM     28  H8  UNL     1      32.535  31.136  26.845  1.00  0.00     0.196 HD
HETATM   29  C10 UNL     1      34.517  29.678  24.921  1.00  0.00     0.225 A 
HETATM   30  N12 UNL     1      34.508  30.921  24.420  1.00  0.00    -0.318 N 
ATOM     31  H12 UNL     1      35.044  31.232  23.609  1.00  0.00     0.169 HD
BRANCH  29  32
HETATM   32  C11 UNL     1      35.266  28.510  24.449  1.00  0.00     0.220 A 
HETATM   33  N9  UNL     1      35.308  28.033  23.198  1.00  0.00    -0.273 N 
HETATM   34  N10 UNL     1      36.091  26.968  23.166  1.00  0.00    -0.263 N 
ATOM     35  H9  UNL     1      34.814  28.427  22.398  1.00  0.00     0.189 HD
HETATM   36  C12 UNL     1      36.560  26.766  24.432  1.00  0.00     0.238 A 
ATOM     37  H10 UNL     1      36.307  26.401  22.345  1.00  0.00     0.190 HD
HETATM   38  N11 UNL     1      37.359  25.818  24.809  1.00  0.00    -0.364 N 
HETATM   39  O3  UNL     1      36.034  27.718  25.160  1.00  0.00    -0.255 OA
ATOM     40 2H11 UNL     1      37.769  25.076  24.242  1.00  0.00     0.159 HD
ATOM     41 1H11 UNL     1      37.709  25.666  25.755  1.00  0.00     0.159 HD
ENDBRANCH  29  32
ENDBRANCH  12  25
BRANCH  13  42
HETATM   42  C14 UNL     1      31.160  33.418  23.904  1.00  0.00     0.198 C 
BRANCH  42  43
HETATM   43  O4  UNL     1      30.528  32.226  23.566  1.00  0.00    -0.398 OA
ATOM     44  H4  UNL     1      29.587  32.333  23.495  1.00  0.00     0.209 HD
ENDBRANCH  42  43
ENDBRANCH  13  42
TORSDOF 8
ENDMDL
MODEL 3
REMARK VINA RESULT: -8.513531501      1.794      2.500
REMARK  8 active torsions:
REMARK  status: ('A' for Active; 'I' for Inactive)
REMARK    1  A    between atoms: C2_2  and  C3_3 
REMARK       I    between atoms: C3_3  and  N1_5 
REMARK    2  A    between atoms: N1_5  and  C4_7 
REMARK    3  A    between atoms: C4_7  and  C5_8 
REMARK    4  A    between atoms: N2_9  and  C6_11 
REMARK    5  A    between atoms: C8_22  and  C9_23 
REMARK    6  A    between atoms: C10_27  and  C11_28 
REMARK    7  A    between atoms: C13_40  and  C14_41 
REMARK    8  A    between atoms: C14_41  and  O4_42 
ROOT
HETATM    1  C6  UNL     1      30.716  30.753  26.810  1.00  0.00     0.695 C 
HETATM    2  N3  UNL     1      31.898  31.245  26.708  1.00  0.00    -0.151 N 
ATOM      3  H3  UNL     1      32.541  31.143  27.493  1.00  0.00     0.184 HD
HETATM    4  C7  UNL     1      32.360  31.951  25.503  1.00  0.00     0.418 C 
HETATM    5  N4  UNL     1      31.200  32.409  24.729  1.00  0.00    -0.037 NA
HETATM    6  N5  UNL     1      30.422  31.253  24.467  1.00  0.00    -0.010 NA
HETATM    7  N6  UNL     1      29.836  30.908  25.703  1.00  0.00    -0.119 N 
ATOM      8  H6  UNL     1      28.829  30.775  25.799  1.00  0.00     0.202 HD
HETATM    9  N7  UNL     1      33.135  31.099  24.657  1.00  0.00     0.008 N 
ATOM     10  H71 UNL     1      32.819  31.097  23.687  1.00  0.00     0.286 HD
ATOM     11  H72 UNL     1      32.989  30.106  24.838  1.00  0.00     0.286 HD
HETATM   12  C8  UNL     1      34.494  31.511  24.809  1.00  0.00     0.293 C 
HETATM   13  C13 UNL     1      34.415  32.873  25.398  1.00  0.00     0.190 C 
HETATM   14  O5  UNL     1      33.161  32.980  25.925  1.00  0.00    -0.313 OA
ENDROOT
BRANCH   1  15
HETATM   15  N2  UNL     1      30.242  30.070  27.951  1.00  0.00    -0.203 N 
HETATM   16  C5  UNL     1      29.509  29.036  27.936  1.00  0.00     0.098 C 
ATOM     17  H2  UNL     1      30.513  30.440  28.862  1.00  0.00     0.183 HD
BRANCH  16  18
HETATM   18  C4  UNL     1      29.068  28.399  29.187  1.00  0.00     0.167 C 
BRANCH  18  19
HETATM   19  N1  UNL     1      28.223  27.248  28.968  1.00  0.00    -0.356 N 
HETATM   20  C3  UNL     1      28.805  26.039  28.535  1.00  0.00     0.217 C 
HETATM   21  O1  UNL     1      30.037  25.928  28.332  1.00  0.00    -0.274 OA
ATOM     22  H1  UNL     1      27.217  27.309  29.126  1.00  0.00     0.162 HD
BRANCH  20  23
HETATM   23  C2  UNL     1      27.943  24.860  28.311  1.00  0.00     0.098 C 
HETATM   24  C1  UNL     1      28.520  23.941  27.256  1.00  0.00     0.014 C 
ENDBRANCH  20  23
ENDBRANCH  18  19
ENDBRANCH  16  18
ENDBRANCH   1  15
BRANCH  12  25
HETATM   25  C9  UNL     1      35.177  31.613  23.477  1.00  0.00     0.138 A 
HETATM   26  N8  UNL     1      36.527  31.616  23.276  1.00  0.00    -0.244 N 
HETATM   27  O2  UNL     1      36.764  31.719  21.994  1.00  0.00    -0.214 OA
ATOM     28  H8  UNL     1      37.236  31.549  24.006  1.00  0.00     0.196 HD
HETATM   29  C10 UNL     1      35.633  31.785  21.337  1.00  0.00     0.225 A 
HETATM   30  N12 UNL     1      34.649  31.720  22.246  1.00  0.00    -0.318 N 
ATOM     31  H12 UNL     1      33.651  31.747  22.035  1.00  0.00     0.169 HD
BRANCH  29  32
HETATM   32  C11 UNL     1      35.521  31.906  19.880  1.00  0.00     0.220 A 
HETATM   33  N9  UNL     1      35.907  32.945  19.127  1.00  0.00    -0.273 N 
HETATM   34  N10 UNL     1      35.643  32.683  17.859  1.00  0.00    -0.263 N 
ATOM     35  H9  UNL     1      36.336  33.801  19.477  1.00  0.00     0.189 HD
HETATM   36  C12 UNL     1      35.074  31.443  17.806  1.00  0.00     0.238 A 
ATOM     37  H10 UNL     1      35.830  33.296  17.064  1.00  0.00     0.190 HD
HETATM   38  N11 UNL     1      34.674  30.831  16.736  1.00  0.00    -0.364 N 
HETATM   39  O3  UNL     1      35.025  31.023  19.045  1.00  0.00    -0.255 OA
ATOM     40 2H11 UNL     1      34.712  31.158  15.771  1.00  0.00     0.159 HD
ATOM     41 1H11 UNL     1      34.248  29.905  16.697  1.00  0.00     0.159 HD
ENDBRANCH  29  32
ENDBRANCH  12  25
BRANCH  13  42
HETATM   42  C14 UNL     1      35.508  33.039  26.434  1.00  0.00     0.198 C 
BRANCH  42  43
HETATM   43  O4  UNL     1      35.027  33.622  27.603  1.00  0.00    -0.398 OA
ATOM     44  H4  UNL     1      34.827  32.972  28.266  1.00  0.00     0.209 HD
ENDBRANCH  42  43
ENDBRANCH  13  42
TORSDOF 8
ENDMDL
MODEL 4
REMARK VINA RESULT: -8.413563083      1.549      1.744
REMARK  8 active torsions:
REMARK  status: ('A' for Active; 'I' for Inactive)
REMARK    1  A    between atoms: C2_2  and  C3_3 
REMARK       I    between atoms: C3_3  and  N1_5 
REMARK    2  A    between atoms: N1_5  and  C4_7 
REMARK    3  A    between atoms: C4_7  and  C5_8 
REMARK    4  A    between atoms: N2_9  and  C6_11 
REMARK    5  A    between atoms: C8_22  and  C9_23 
REMARK    6  A    between atoms: C10_27  and  C11_28 
REMARK    7  A    between atoms: C13_40  and  C14_41 
REMARK    8  A    between atoms: C14_41  and  O4_42 
ROOT
HETATM    1  C6  UNL     1      30.286  30.086  27.407  1.00  0.00     0.695 C 
HETATM    2  N3  UNL     1      31.336  30.825  27.386  1.00  0.00    -0.151 N 
ATOM      3  H3  UNL     1      31.896  30.905  28.235  1.00  0.00     0.184 HD
HETATM    4  C7  UNL     1      31.764  31.560  26.186  1.00  0.00     0.418 C 
HETATM    5  N4  UNL     1      30.623  31.711  25.274  1.00  0.00    -0.037 NA
HETATM    6  N5  UNL     1      30.148  30.400  25.017  1.00  0.00    -0.010 NA
HETATM    7  N6  UNL     1      29.520  29.990  26.212  1.00  0.00    -0.119 N 
ATOM      8  H6  UNL     1      28.561  29.640  26.219  1.00  0.00     0.202 HD
HETATM    9  N7  UNL     1      32.793  30.865  25.479  1.00  0.00     0.008 N 
ATOM     10  H71 UNL     1      32.593  30.748  24.486  1.00  0.00     0.286 HD
ATOM     11  H72 UNL     1      32.847  29.874  25.714  1.00  0.00     0.286 HD
HETATM   12  C8  UNL     1      34.005  31.576  25.733  1.00  0.00     0.293 C 
HETATM   13  C13 UNL     1      33.568  32.911  26.217  1.00  0.00     0.190 C 
HETATM   14  O5  UNL     1      32.271  32.760  26.611  1.00  0.00    -0.313 OA
ENDROOT
BRANCH   1  15
HETATM   15  N2  UNL     1      29.850  29.368  28.541  1.00  0.00    -0.203 N 
HETATM   16  C5  UNL     1      29.407  28.180  28.533  1.00  0.00     0.098 C 
ATOM     17  H2  UNL     1      29.895  29.845  29.442  1.00  0.00     0.183 HD
BRANCH  16  18
HETATM   18  C4  UNL     1      28.977  27.520  29.775  1.00  0.00     0.167 C 
BRANCH  18  19
HETATM   19  N1  UNL     1      28.576  26.146  29.577  1.00  0.00    -0.356 N 
HETATM   20  C3  UNL     1      28.641  25.249  30.663  1.00  0.00     0.217 C 
HETATM   21  O1  UNL     1      29.035  25.604  31.799  1.00  0.00    -0.274 OA
ATOM     22  H1  UNL     1      28.251  25.830  28.664  1.00  0.00     0.162 HD
BRANCH  20  23
HETATM   23  C2  UNL     1      28.232  23.843  30.464  1.00  0.00     0.098 C 
HETATM   24  C1  UNL     1      29.278  23.062  29.699  1.00  0.00     0.014 C 
ENDBRANCH  20  23
ENDBRANCH  18  19
ENDBRANCH  16  18
ENDBRANCH   1  15
BRANCH  12  25
HETATM   25  C9  UNL     1      34.791  31.767  24.470  1.00  0.00     0.138 A 
HETATM   26  N8  UNL     1      36.127  32.038  24.400  1.00  0.00    -0.244 N 
HETATM   27  O2  UNL     1      36.473  32.141  23.143  1.00  0.00    -0.214 OA
ATOM     28  H8  UNL     1      36.754  32.143  25.198  1.00  0.00     0.196 HD
HETATM   29  C10 UNL     1      35.428  31.950  22.377  1.00  0.00     0.225 A 
HETATM   30  N12 UNL     1      34.386  31.720  23.190  1.00  0.00    -0.318 N 
ATOM     31  H12 UNL     1      33.431  31.536  22.882  1.00  0.00     0.169 HD
BRANCH  29  32
HETATM   32  C11 UNL     1      35.449  31.994  20.912  1.00  0.00     0.220 A 
HETATM   33  N9  UNL     1      36.090  32.883  20.143  1.00  0.00    -0.273 N 
HETATM   34  N10 UNL     1      35.872  32.595  18.871  1.00  0.00    -0.263 N 
ATOM     35  H9  UNL     1      36.657  33.659  20.483  1.00  0.00     0.189 HD
HETATM   36  C12 UNL     1      35.070  31.491  18.834  1.00  0.00     0.238 A 
ATOM     37  H10 UNL     1      36.236  33.104  18.065  1.00  0.00     0.190 HD
HETATM   38  N11 UNL     1      34.632  30.899  17.767  1.00  0.00    -0.364 N 
HETATM   39  O3  UNL     1      34.847  31.173  20.084  1.00  0.00    -0.255 OA
ATOM     40 2H11 UNL     1      34.806  31.147  16.793  1.00  0.00     0.159 HD
ATOM     41 1H11 UNL     1      34.032  30.075  17.739  1.00  0.00     0.159 HD
ENDBRANCH  29  32
ENDBRANCH  12  25
BRANCH  13  42
HETATM   42  C14 UNL     1      34.478  33.365  27.340  1.00  0.00     0.198 C 
BRANCH  42  43
HETATM   43  O4  UNL     1      33.924  33.107  28.590  1.00  0.00    -0.398 OA
ATOM     44  H4  UNL     1      34.282  33.680  29.259  1.00  0.00     0.209 HD
ENDBRANCH  42  43
ENDBRANCH  13  42
TORSDOF 8
ENDMDL
MODEL 5
REMARK VINA RESULT: -7.689668354      1.933      9.789
REMARK  8 active torsions:
REMARK  status: ('A' for Active; 'I' for Inactive)
REMARK    1  A    between atoms: C2_2  and  C3_3 
REMARK       I    between atoms: C3_3  and  N1_5 
REMARK    2  A    between atoms: N1_5  and  C4_7 
REMARK    3  A    between atoms: C4_7  and  C5_8 
REMARK    4  A    between atoms: N2_9  and  C6_11 
REMARK    5  A    between atoms: C8_22  and  C9_23 
REMARK    6  A    between atoms: C10_27  and  C11_28 
REMARK    7  A    between atoms: C13_40  and  C14_41 
REMARK    8  A    between atoms: C14_41  and  O4_42 
ROOT
HETATM    1  C6  UNL     1      34.976  31.622  23.052  1.00  0.00     0.695 C 
HETATM    2  N3  UNL     1      34.184  32.053  23.967  1.00  0.00    -0.151 N 
ATOM      3  H3  UNL     1      33.889  33.029  23.940  1.00  0.00     0.184 HD
HETATM    4  C7  UNL     1      33.685  31.194  25.052  1.00  0.00     0.418 C 
HETATM    5  N4  UNL     1      34.568  30.029  25.197  1.00  0.00    -0.037 NA
HETATM    6  N5  UNL     1      34.604  29.403  23.926  1.00  0.00    -0.010 NA
HETATM    7  N6  UNL     1      35.374  30.258  23.109  1.00  0.00    -0.119 N 
ATOM      8  H6  UNL     1      36.179  29.914  22.584  1.00  0.00     0.202 HD
HETATM    9  N7  UNL     1      32.370  30.708  24.779  1.00  0.00     0.008 N 
ATOM     10  H71 UNL     1      32.283  29.697  24.879  1.00  0.00     0.286 HD
ATOM     11  H72 UNL     1      32.116  30.759  23.792  1.00  0.00     0.286 HD
HETATM   12  C8  UNL     1      31.488  31.440  25.630  1.00  0.00     0.293 C 
HETATM   13  C13 UNL     1      32.364  32.012  26.685  1.00  0.00     0.190 C 
HETATM   14  O5  UNL     1      33.631  31.967  26.182  1.00  0.00    -0.313 OA
ENDROOT
BRANCH   1  15
HETATM   15  N2  UNL     1      35.471  32.420  21.999  1.00  0.00    -0.203 N 
HETATM   16  C5  UNL     1      36.313  32.046  21.128  1.00  0.00     0.098 C 
ATOM     17  H2  UNL     1      35.122  33.376  21.933  1.00  0.00     0.183 HD
BRANCH  16  18
HETATM   18  C4  UNL     1      36.766  32.959  20.067  1.00  0.00     0.167 C 
BRANCH  18  19
HETATM   19  N1  UNL     1      36.105  32.731  18.803  1.00  0.00    -0.356 N 
HETATM   20  C3  UNL     1      35.204  31.654  18.684  1.00  0.00     0.217 C 
HETATM   21  O1  UNL     1      34.954  30.884  19.641  1.00  0.00    -0.274 OA
ATOM     22  H1  UNL     1      36.289  33.342  18.007  1.00  0.00     0.162 HD
BRANCH  20  23
HETATM   23  C2  UNL     1      34.526  31.417  17.392  1.00  0.00     0.098 C 
HETATM   24  C1  UNL     1      35.320  30.478  16.510  1.00  0.00     0.014 C 
ENDBRANCH  20  23
ENDBRANCH  18  19
ENDBRANCH  16  18
ENDBRANCH   1  15
BRANCH  12  25
HETATM   25  C9  UNL     1      30.495  30.526  26.288  1.00  0.00     0.138 A 
HETATM   26  N8  UNL     1      29.138  30.657  26.234  1.00  0.00    -0.244 N 
HETATM   27  O2  UNL     1      28.591  29.688  26.919  1.00  0.00    -0.214 OA
ATOM     28  H8  UNL     1      28.632  31.392  25.738  1.00  0.00     0.196 HD
HETATM   29  C10 UNL     1      29.523  28.919  27.425  1.00  0.00     0.225 A 
HETATM   30  N12 UNL     1      30.701  29.432  27.040  1.00  0.00    -0.318 N 
ATOM     31  H12 UNL     1      31.616  29.048  27.281  1.00  0.00     0.169 HD
BRANCH  29  32
HETATM   32  C11 UNL     1      29.271  27.735  28.252  1.00  0.00     0.220 A 
HETATM   33  N9  UNL     1      28.644  27.699  29.435  1.00  0.00    -0.273 N 
HETATM   34  N10 UNL     1      28.610  26.452  29.871  1.00  0.00    -0.263 N 
ATOM     35  H9  UNL     1      28.255  28.506  29.923  1.00  0.00     0.189 HD
HETATM   36  C12 UNL     1      29.232  25.675  28.936  1.00  0.00     0.238 A 
ATOM     37  H10 UNL     1      28.195  26.128  30.745  1.00  0.00     0.190 HD
HETATM   38  N11 UNL     1      29.403  24.392  28.999  1.00  0.00    -0.364 N 
HETATM   39  O3  UNL     1      29.609  26.495  27.988  1.00  0.00    -0.255 OA
ATOM     40 2H11 UNL     1      29.110  23.753  29.738  1.00  0.00     0.159 HD
ATOM     41 1H11 UNL     1      29.868  23.812  28.301  1.00  0.00     0.159 HD
ENDBRANCH  29  32
ENDBRANCH  12  25
BRANCH  13  42
HETATM   42  C14 UNL     1      31.907  33.419  27.012  1.00  0.00     0.198 C 
BRANCH  42  43
HETATM   43  O4  UNL     1      30.632  33.432  27.568  1.00  0.00    -0.398 OA
ATOM     44  H4  UNL     1      30.044  34.005  27.090  1.00  0.00     0.209 HD
ENDBRANCH  42  43
ENDBRANCH  13  42
TORSDOF 8
ENDMDL
