MODEL 1
REMARK VINA RESULT: -7.877225674      0.000      0.000
REMARK  5 active torsions:
REMARK  status: ('A' for Active; 'I' for Inactive)
REMARK    1  A    between atoms: O1_2  and  C2_3 
REMARK    2  A    between atoms: C4_5  and  C5_6 
REMARK    3  A    between atoms: C17_21  and  O5_22 
REMARK    4  A    between atoms: C18_24  and  O6_25 
REMARK    5  A    between atoms: O6_25  and  C19_26 
ROOT
HETATM    1  C2  UNL     1      21.065  69.617  20.994  1.00  0.00     0.195 C 
HETATM    2  C3  UNL     1      20.352  70.923  20.530  1.00  0.00     0.083 C 
HETATM    3  C4  UNL     1      21.146  72.037  20.031  1.00  0.00    -0.064 C 
HETATM    4  C8  UNL     1      21.551  71.821  18.782  1.00  0.00     0.019 C 
HETATM    5  C9  UNL     1      21.039  70.553  18.453  1.00  0.00     0.017 C 
HETATM    6  C10 UNL     1      21.110  69.880  17.201  1.00  0.00     0.162 C 
HETATM    7  O2  UNL     1      21.510  70.438  16.235  1.00  0.00    -0.292 OA
HETATM    8  C11 UNL     1      20.715  68.458  16.937  1.00  0.00     0.118 C 
HETATM    9  C12 UNL     1      19.759  67.954  18.057  1.00  0.00     0.164 C 
HETATM   10  O3  UNL     1      19.935  68.347  19.220  1.00  0.00    -0.344 OA
HETATM   11  C13 UNL     1      20.427  68.379  20.388  1.00  0.00     0.191 C 
HETATM   12  C14 UNL     1      21.446  67.249  20.555  1.00  0.00     0.073 C 
HETATM   13  C15 UNL     1      20.520  66.066  20.738  1.00  0.00     0.032 C 
HETATM   14  C16 UNL     1      19.236  66.663  21.190  1.00  0.00     0.171 C 
HETATM   15  O4  UNL     1      19.404  68.025  21.323  1.00  0.00    -0.353 OA
HETATM   16  C17 UNL     1      18.406  68.262  17.469  1.00  0.00     0.180 C 
HETATM   17  C18 UNL     1      17.922  69.687  17.605  1.00  0.00     0.176 C 
HETATM   18  C24 UNL     1      18.521  70.162  18.954  1.00  0.00     0.016 C 
HETATM   19  C25 UNL     1      19.753  70.499  19.229  1.00  0.00    -0.035 C 
ENDROOT
BRANCH  17  20
HETATM   20  O6  UNL     1      18.231  70.588  16.672  1.00  0.00    -0.374 OA
BRANCH  20  21
HETATM   21  C19 UNL     1      17.348  71.606  16.451  1.00  0.00     0.122 C 
HETATM   22  C20 UNL     1      17.798  72.403  15.253  1.00  0.00     0.032 C 
HETATM   23  C21 UNL     1      19.005  73.147  15.816  1.00  0.00     0.002 C 
HETATM   24  C22 UNL     1      18.496  73.627  17.143  1.00  0.00     0.002 C 
HETATM   25  C23 UNL     1      17.397  72.668  17.548  1.00  0.00     0.032 C 
ENDBRANCH  20  21
ENDBRANCH  17  20
BRANCH  16  26
HETATM   26  O5  UNL     1      18.384  67.908  16.147  1.00  0.00    -0.390 OA
ATOM     27  H5  UNL     1      17.837  68.514  15.661  1.00  0.00     0.210 HD
ENDBRANCH  16  26
BRANCH   1  28
HETATM   28  O1  UNL     1      20.896  69.572  22.396  1.00  0.00    -0.384 OA
HETATM   29  C1  UNL     1      22.030  69.888  23.108  1.00  0.00     0.202 C 
ENDBRANCH   1  28
BRANCH   3  30
HETATM   30  C5  UNL     1      21.518  73.320  20.762  1.00  0.00     0.007 C 
HETATM   31  C6  UNL     1      21.236  74.520  19.869  1.00  0.00     0.014 C 
HETATM   32  C7  UNL     1      22.962  73.355  21.128  1.00  0.00     0.014 C 
ENDBRANCH   3  30
TORSDOF 5
ENDMDL
MODEL 2
REMARK VINA RESULT: -7.739988126      2.208      3.400
REMARK  5 active torsions:
REMARK  status: ('A' for Active; 'I' for Inactive)
REMARK    1  A    between atoms: O1_2  and  C2_3 
REMARK    2  A    between atoms: C4_5  and  C5_6 
REMARK    3  A    between atoms: C17_21  and  O5_22 
REMARK    4  A    between atoms: C18_24  and  O6_25 
REMARK    5  A    between atoms: O6_25  and  C19_26 
ROOT
HETATM    1  C2  UNL     1      20.610  72.173  19.685  1.00  0.00     0.195 C 
HETATM    2  C3  UNL     1      19.861  73.537  19.614  1.00  0.00     0.083 C 
HETATM    3  C4  UNL     1      20.593  74.740  19.239  1.00  0.00    -0.064 C 
HETATM    4  C8  UNL     1      20.798  74.791  17.926  1.00  0.00     0.019 C 
HETATM    5  C9  UNL     1      20.218  73.612  17.425  1.00  0.00     0.017 C 
HETATM    6  C10 UNL     1      20.083  73.213  16.065  1.00  0.00     0.162 C 
HETATM    7  O2  UNL     1      20.343  73.963  15.186  1.00  0.00    -0.292 OA
HETATM    8  C11 UNL     1      19.624  71.871  15.579  1.00  0.00     0.118 C 
HETATM    9  C12 UNL     1      18.839  71.136  16.704  1.00  0.00     0.164 C 
HETATM   10  O3  UNL     1      19.198  71.282  17.882  1.00  0.00    -0.344 OA
HETATM   11  C13 UNL     1      19.863  71.079  18.942  1.00  0.00     0.191 C 
HETATM   12  C14 UNL     1      20.872  69.950  18.716  1.00  0.00     0.073 C 
HETATM   13  C15 UNL     1      19.962  68.745  18.791  1.00  0.00     0.032 C 
HETATM   14  C16 UNL     1      18.773  69.220  19.547  1.00  0.00     0.171 C 
HETATM   15  O4  UNL     1      18.987  70.528  19.930  1.00  0.00    -0.353 OA
HETATM   16  C17 UNL     1      17.419  71.542  16.406  1.00  0.00     0.180 C 
HETATM   17  C18 UNL     1      16.991  72.902  16.904  1.00  0.00     0.176 C 
HETATM   18  C24 UNL     1      17.797  73.096  18.214  1.00  0.00     0.016 C 
HETATM   19  C25 UNL     1      19.063  73.384  18.361  1.00  0.00    -0.035 C 
ENDROOT
BRANCH  17  20
HETATM   20  O6  UNL     1      17.172  73.981  16.140  1.00  0.00    -0.374 OA
BRANCH  20  21
HETATM   21  C19 UNL     1      16.237  74.973  16.205  1.00  0.00     0.122 C 
HETATM   22  C20 UNL     1      14.896  74.420  15.796  1.00  0.00     0.032 C 
HETATM   23  C21 UNL     1      15.079  74.255  14.290  1.00  0.00     0.002 C 
HETATM   24  C22 UNL     1      15.735  75.546  13.902  1.00  0.00     0.002 C 
HETATM   25  C23 UNL     1      16.453  76.046  15.138  1.00  0.00     0.032 C 
ENDBRANCH  20  21
ENDBRANCH  17  20
BRANCH  16  26
HETATM   26  O5  UNL     1      17.190  71.468  15.059  1.00  0.00    -0.390 OA
ATOM     27  H5  UNL     1      17.384  72.305  14.653  1.00  0.00     0.210 HD
ENDBRANCH  16  26
BRANCH   1  28
HETATM   28  O1  UNL     1      20.655  71.837  21.057  1.00  0.00    -0.384 OA
HETATM   29  C1  UNL     1      21.911  71.923  21.613  1.00  0.00     0.202 C 
ENDBRANCH   1  28
BRANCH   3  30
HETATM   30  C5  UNL     1      21.097  75.849  20.153  1.00  0.00     0.007 C 
HETATM   31  C6  UNL     1      20.074  76.975  20.206  1.00  0.00     0.014 C 
HETATM   32  C7  UNL     1      22.384  76.426  19.671  1.00  0.00     0.014 C 
ENDBRANCH   3  30
TORSDOF 5
ENDMDL
MODEL 3
REMARK VINA RESULT: -7.584412410      2.680      6.715
REMARK  5 active torsions:
REMARK  status: ('A' for Active; 'I' for Inactive)
REMARK    1  A    between atoms: O1_2  and  C2_3 
REMARK    2  A    between atoms: C4_5  and  C5_6 
REMARK    3  A    between atoms: C17_21  and  O5_22 
REMARK    4  A    between atoms: C18_24  and  O6_25 
REMARK    5  A    between atoms: O6_25  and  C19_26 
ROOT
HETATM    1  C2  UNL     1      18.632  75.861  17.012  1.00  0.00     0.195 C 
HETATM    2  C3  UNL     1      17.696  74.617  16.942  1.00  0.00     0.083 C 
HETATM    3  C4  UNL     1      17.507  73.930  15.672  1.00  0.00    -0.064 C 
HETATM    4  C8  UNL     1      18.549  73.156  15.382  1.00  0.00     0.019 C 
HETATM    5  C9  UNL     1      19.442  73.339  16.453  1.00  0.00     0.017 C 
HETATM    6  C10 UNL     1      20.680  72.674  16.682  1.00  0.00     0.162 C 
HETATM    7  O2  UNL     1      21.005  71.751  16.014  1.00  0.00    -0.292 OA
HETATM    8  C11 UNL     1      21.689  73.024  17.734  1.00  0.00     0.118 C 
HETATM    9  C12 UNL     1      21.019  73.864  18.859  1.00  0.00     0.164 C 
HETATM   10  O3  UNL     1      20.129  74.673  18.556  1.00  0.00    -0.344 OA
HETATM   11  C13 UNL     1      19.616  75.764  18.165  1.00  0.00     0.191 C 
HETATM   12  C14 UNL     1      20.721  76.782  17.870  1.00  0.00     0.073 C 
HETATM   13  C15 UNL     1      21.092  77.204  19.275  1.00  0.00     0.032 C 
HETATM   14  C16 UNL     1      19.900  76.860  20.095  1.00  0.00     0.171 C 
HETATM   15  O4  UNL     1      18.920  76.360  19.264  1.00  0.00    -0.353 OA
HETATM   16  C17 UNL     1      20.614  72.796  19.842  1.00  0.00     0.180 C 
HETATM   17  C18 UNL     1      19.333  72.055  19.539  1.00  0.00     0.176 C 
HETATM   18  C24 UNL     1      18.441  73.113  18.839  1.00  0.00     0.016 C 
HETATM   19  C25 UNL     1      18.523  73.574  17.619  1.00  0.00    -0.035 C 
ENDROOT
BRANCH  17  20
HETATM   20  O6  UNL     1      19.358  70.961  18.776  1.00  0.00    -0.374 OA
BRANCH  20  21
HETATM   21  C19 UNL     1      18.250  70.164  18.767  1.00  0.00     0.122 C 
HETATM   22  C20 UNL     1      18.600  68.820  19.353  1.00  0.00     0.032 C 
HETATM   23  C21 UNL     1      19.441  68.208  18.238  1.00  0.00     0.002 C 
HETATM   24  C22 UNL     1      18.637  68.532  17.014  1.00  0.00     0.002 C 
HETATM   25  C23 UNL     1      17.830  69.768  17.352  1.00  0.00     0.032 C 
ENDBRANCH  20  21
ENDBRANCH  17  20
BRANCH  16  26
HETATM   26  O5  UNL     1      21.629  71.890  19.985  1.00  0.00    -0.390 OA
ATOM     27  H5  UNL     1      21.349  71.039  19.667  1.00  0.00     0.210 HD
ENDBRANCH  16  26
BRANCH   1  28
HETATM   28  O1  UNL     1      17.779  76.964  17.239  1.00  0.00    -0.384 OA
HETATM   29  C1  UNL     1      17.206  77.474  16.096  1.00  0.00     0.202 C 
ENDBRANCH   1  28
BRANCH   3  30
HETATM   30  C5  UNL     1      16.314  74.020  14.730  1.00  0.00     0.007 C 
HETATM   31  C6  UNL     1      15.064  74.384  15.519  1.00  0.00     0.014 C 
HETATM   32  C7  UNL     1      16.053  72.728  14.036  1.00  0.00     0.014 C 
ENDBRANCH   3  30
TORSDOF 5
ENDMDL
MODEL 4
REMARK VINA RESULT: -7.231216480      1.659      5.109
REMARK  5 active torsions:
REMARK  status: ('A' for Active; 'I' for Inactive)
REMARK    1  A    between atoms: O1_2  and  C2_3 
REMARK    2  A    between atoms: C4_5  and  C5_6 
REMARK    3  A    between atoms: C17_21  and  O5_22 
REMARK    4  A    between atoms: C18_24  and  O6_25 
REMARK    5  A    between atoms: O6_25  and  C19_26 
ROOT
HETATM    1  C2  UNL     1      19.557  73.254  18.708  1.00  0.00     0.195 C 
HETATM    2  C3  UNL     1      20.907  72.543  19.023  1.00  0.00     0.083 C 
HETATM    3  C4  UNL     1      21.250  72.229  20.403  1.00  0.00    -0.064 C 
HETATM    4  C8  UNL     1      20.590  71.156  20.832  1.00  0.00     0.019 C 
HETATM    5  C9  UNL     1      19.795  70.763  19.742  1.00  0.00     0.017 C 
HETATM    6  C10 UNL     1      18.957  69.616  19.639  1.00  0.00     0.162 C 
HETATM    7  O2  UNL     1      18.979  68.774  20.472  1.00  0.00    -0.292 OA
HETATM    8  C11 UNL     1      17.987  69.326  18.534  1.00  0.00     0.118 C 
HETATM    9  C12 UNL     1      18.353  70.159  17.270  1.00  0.00     0.164 C 
HETATM   10  O3  UNL     1      18.808  71.303  17.416  1.00  0.00    -0.344 OA
HETATM   11  C13 UNL     1      18.799  72.558  17.590  1.00  0.00     0.191 C 
HETATM   12  C14 UNL     1      17.356  73.061  17.676  1.00  0.00     0.073 C 
HETATM   13  C15 UNL     1      16.967  73.039  16.214  1.00  0.00     0.032 C 
HETATM   14  C16 UNL     1      18.261  73.083  15.483  1.00  0.00     0.171 C 
HETATM   15  O4  UNL     1      19.285  73.187  16.400  1.00  0.00    -0.353 OA
HETATM   16  C17 UNL     1      19.238  69.201  16.516  1.00  0.00     0.180 C 
HETATM   17  C18 UNL     1      20.679  69.123  16.964  1.00  0.00     0.176 C 
HETATM   18  C24 UNL     1      21.002  70.560  17.450  1.00  0.00     0.016 C 
HETATM   19  C25 UNL     1      20.636  71.150  18.557  1.00  0.00    -0.035 C 
ENDROOT
BRANCH  17  20
HETATM   20  O6  UNL     1      21.034  68.269  17.924  1.00  0.00    -0.374 OA
BRANCH  20  21
HETATM   21  C19 UNL     1      22.271  67.695  17.843  1.00  0.00     0.122 C 
HETATM   22  C20 UNL     1      22.541  66.918  19.106  1.00  0.00     0.032 C 
HETATM   23  C21 UNL     1      22.777  68.039  20.112  1.00  0.00     0.002 C 
HETATM   24  C22 UNL     1      23.678  68.967  19.355  1.00  0.00     0.002 C 
HETATM   25  C23 UNL     1      23.396  68.729  17.886  1.00  0.00     0.032 C 
ENDBRANCH  20  21
ENDBRANCH  17  20
BRANCH  16  26
HETATM   26  O5  UNL     1      18.694  67.946  16.546  1.00  0.00    -0.390 OA
ATOM     27  H5  UNL     1      19.251  67.342  16.068  1.00  0.00     0.210 HD
ENDBRANCH  16  26
BRANCH   1  28
HETATM   28  O1  UNL     1      19.905  74.553  18.276  1.00  0.00    -0.384 OA
HETATM   29  C1  UNL     1      19.649  75.539  19.201  1.00  0.00     0.202 C 
ENDBRANCH   1  28
BRANCH   3  30
HETATM   30  C5  UNL     1      22.219  72.968  21.317  1.00  0.00     0.007 C 
HETATM   31  C6  UNL     1      22.840  74.138  20.566  1.00  0.00     0.014 C 
HETATM   32  C7  UNL     1      23.326  72.088  21.783  1.00  0.00     0.014 C 
ENDBRANCH   3  30
TORSDOF 5
ENDMDL
MODEL 5
REMARK VINA RESULT: -6.820181379      1.874      5.335
REMARK  5 active torsions:
REMARK  status: ('A' for Active; 'I' for Inactive)
REMARK    1  A    between atoms: O1_2  and  C2_3 
REMARK    2  A    between atoms: C4_5  and  C5_6 
REMARK    3  A    between atoms: C17_21  and  O5_22 
REMARK    4  A    between atoms: C18_24  and  O6_25 
REMARK    5  A    between atoms: O6_25  and  C19_26 
ROOT
HETATM    1  C2  UNL     1      19.436  73.829  17.723  1.00  0.00     0.195 C 
HETATM    2  C3  UNL     1      20.851  73.224  17.969  1.00  0.00     0.083 C 
HETATM    3  C4  UNL     1      21.421  73.248  19.309  1.00  0.00    -0.064 C 
HETATM    4  C8  UNL     1      20.888  72.299  20.076  1.00  0.00     0.019 C 
HETATM    5  C9  UNL     1      19.951  71.653  19.251  1.00  0.00     0.017 C 
HETATM    6  C10 UNL     1      19.163  70.507  19.554  1.00  0.00     0.162 C 
HETATM    7  O2  UNL     1      19.355  69.885  20.543  1.00  0.00    -0.292 OA
HETATM    8  C11 UNL     1      18.045  69.957  18.719  1.00  0.00     0.118 C 
HETATM    9  C12 UNL     1      18.168  70.472  17.256  1.00  0.00     0.164 C 
HETATM   10  O3  UNL     1      18.587  71.622  17.057  1.00  0.00    -0.344 OA
HETATM   11  C13 UNL     1      18.546  72.883  16.936  1.00  0.00     0.191 C 
HETATM   12  C14 UNL     1      17.112  73.379  17.139  1.00  0.00     0.073 C 
HETATM   13  C15 UNL     1      16.500  73.010  15.805  1.00  0.00     0.032 C 
HETATM   14  C16 UNL     1      17.659  72.893  14.882  1.00  0.00     0.171 C 
HETATM   15  O4  UNL     1      18.808  73.219  15.570  1.00  0.00    -0.353 OA
HETATM   16  C17 UNL     1      18.968  69.372  16.608  1.00  0.00     0.180 C 
HETATM   17  C18 UNL     1      20.464  69.414  16.820  1.00  0.00     0.176 C 
HETATM   18  C24 UNL     1      20.791  70.928  16.902  1.00  0.00     0.016 C 
HETATM   19  C25 UNL     1      20.576  71.759  17.888  1.00  0.00    -0.035 C 
ENDROOT
BRANCH  17  20
HETATM   20  O6  UNL     1      21.006  68.813  17.880  1.00  0.00    -0.374 OA
BRANCH  20  21
HETATM   21  C19 UNL     1      22.179  68.139  17.700  1.00  0.00     0.122 C 
HETATM   22  C20 UNL     1      22.818  67.888  19.043  1.00  0.00     0.032 C 
HETATM   23  C21 UNL     1      23.308  69.283  19.415  1.00  0.00     0.002 C 
HETATM   24  C22 UNL     1      23.933  69.757  18.138  1.00  0.00     0.002 C 
HETATM   25  C23 UNL     1      23.246  68.998  17.022  1.00  0.00     0.032 C 
ENDBRANCH  20  21
ENDBRANCH  17  20
BRANCH  16  26
HETATM   26  O5  UNL     1      18.495  68.154  17.015  1.00  0.00    -0.390 OA
ATOM     27  H5  UNL     1      18.734  67.488  16.381  1.00  0.00     0.210 HD
ENDBRANCH  16  26
BRANCH   1  28
HETATM   28  O1  UNL     1      19.651  74.994  16.953  1.00  0.00    -0.384 OA
HETATM   29  C1  UNL     1      19.409  76.167  17.630  1.00  0.00     0.202 C 
ENDBRANCH   1  28
BRANCH   3  30
HETATM   30  C5  UNL     1      22.485  74.189  19.855  1.00  0.00     0.007 C 
HETATM   31  C6  UNL     1      23.119  73.580  21.099  1.00  0.00     0.014 C 
HETATM   32  C7  UNL     1      21.917  75.512  20.236  1.00  0.00     0.014 C 
ENDBRANCH   3  30
TORSDOF 5
ENDMDL
