MODEL 1
REMARK VINA RESULT: -8.537193777      0.000      0.000
REMARK  5 active torsions:
REMARK  status: ('A' for Active; 'I' for Inactive)
REMARK    1  A    between atoms: C3_3  and  O1_4 
REMARK    2  A    between atoms: O1_4  and  S1_5 
REMARK    3  A    between atoms: C17_21  and  O4_22 
REMARK    4  A    between atoms: C19_25  and  C20_26 
REMARK    5  A    between atoms: C20_26  and  O6_27 
ROOT
HETATM    1  C1  UNL     1      14.852  75.160  15.888  1.00  0.00     0.017 C 
HETATM    2  C2  UNL     1      15.725  74.267  15.507  1.00  0.00    -0.055 C 
HETATM    3  C3  UNL     1      15.586  73.597  14.198  1.00  0.00     0.171 C 
HETATM    4  C5  UNL     1      15.878  72.122  14.244  1.00  0.00     0.038 C 
HETATM    5  C6  UNL     1      17.056  71.772  15.119  1.00  0.00     0.009 C 
HETATM    6  C7  UNL     1      16.860  72.380  16.470  1.00  0.00    -0.002 C 
HETATM    7  C8  UNL     1      16.863  73.911  16.376  1.00  0.00     0.021 C 
HETATM    8  C9  UNL     1      18.168  74.363  15.789  1.00  0.00     0.010 C 
HETATM    9  C10 UNL     1      19.335  73.718  16.453  1.00  0.00     0.006 C 
HETATM   10  C11 UNL     1      18.974  72.954  17.712  1.00  0.00    -0.005 C 
HETATM   11  C12 UNL     1      17.855  71.977  17.499  1.00  0.00    -0.005 C 
HETATM   12  C13 UNL     1      18.376  70.582  17.233  1.00  0.00     0.006 C 
HETATM   13  C14 UNL     1      19.235  70.069  18.327  1.00  0.00     0.015 C 
HETATM   14  C15 UNL     1      19.978  71.114  19.095  1.00  0.00     0.010 C 
HETATM   15  C16 UNL     1      19.174  71.506  20.316  1.00  0.00     0.020 C 
HETATM   16  C17 UNL     1      21.309  70.562  19.545  1.00  0.00     0.268 C 
HETATM   17  O5  UNL     1      22.377  71.354  19.199  1.00  0.00    -0.353 OA
HETATM   18  C19 UNL     1      22.529  71.579  17.857  1.00  0.00     0.148 C 
HETATM   19  C21 UNL     1      21.301  72.167  17.232  1.00  0.00     0.040 C 
HETATM   20  C22 UNL     1      20.210  72.366  18.288  1.00  0.00     0.005 C 
ENDROOT
BRANCH   3  21
HETATM   21  O1  UNL     1      14.262  73.727  13.726  1.00  0.00    -0.266 OA
BRANCH  21  22
HETATM   22  S1  UNL     1      14.069  73.102  12.203  1.00  0.00     0.262 S 
HETATM   23  C4  UNL     1      13.977  71.331  12.311  1.00  0.00     0.194 C 
HETATM   24  O2  UNL     1      15.198  73.468  11.283  1.00  0.00    -0.199 OA
HETATM   25  O3  UNL     1      12.798  73.573  11.536  1.00  0.00    -0.199 OA
ENDBRANCH  21  22
ENDBRANCH   3  21
BRANCH  16  26
HETATM   26  O4  UNL     1      21.369  70.321  20.907  1.00  0.00    -0.365 OA
HETATM   27  C18 UNL     1      21.918  69.092  21.230  1.00  0.00     0.204 C 
ENDBRANCH  16  26
BRANCH  18  28
HETATM   28  C20 UNL     1      22.976  70.341  17.095  1.00  0.00     0.196 C 
BRANCH  28  29
HETATM   29  O6  UNL     1      22.005  70.001  16.165  1.00  0.00    -0.398 OA
ATOM     30  H6  UNL     1      21.222  69.714  16.620  1.00  0.00     0.209 HD
ENDBRANCH  28  29
ENDBRANCH  18  28
TORSDOF 5
ENDMDL
MODEL 2
REMARK VINA RESULT: -8.157943508      1.036      1.073
REMARK  5 active torsions:
REMARK  status: ('A' for Active; 'I' for Inactive)
REMARK    1  A    between atoms: C3_3  and  O1_4 
REMARK    2  A    between atoms: O1_4  and  S1_5 
REMARK    3  A    between atoms: C17_21  and  O4_22 
REMARK    4  A    between atoms: C19_25  and  C20_26 
REMARK    5  A    between atoms: C20_26  and  O6_27 
ROOT
HETATM    1  C1  UNL     1      16.201  75.560  15.290  1.00  0.00     0.017 C 
HETATM    2  C2  UNL     1      16.608  74.330  15.127  1.00  0.00    -0.055 C 
HETATM    3  C3  UNL     1      16.055  73.497  14.041  1.00  0.00     0.171 C 
HETATM    4  C5  UNL     1      15.763  72.082  14.457  1.00  0.00     0.038 C 
HETATM    5  C6  UNL     1      16.822  71.493  15.358  1.00  0.00     0.009 C 
HETATM    6  C7  UNL     1      17.051  72.416  16.510  1.00  0.00    -0.002 C 
HETATM    7  C8  UNL     1      17.627  73.752  16.024  1.00  0.00     0.021 C 
HETATM    8  C9  UNL     1      18.917  73.495  15.302  1.00  0.00     0.010 C 
HETATM    9  C10 UNL     1      19.825  72.602  16.074  1.00  0.00     0.006 C 
HETATM   10  C11 UNL     1      19.366  72.353  17.498  1.00  0.00    -0.005 C 
HETATM   11  C12 UNL     1      17.941  71.889  17.578  1.00  0.00    -0.005 C 
HETATM   12  C13 UNL     1      17.851  70.381  17.666  1.00  0.00     0.006 C 
HETATM   13  C14 UNL     1      18.583  69.826  18.830  1.00  0.00     0.015 C 
HETATM   14  C15 UNL     1      19.763  70.627  19.280  1.00  0.00     0.010 C 
HETATM   15  C16 UNL     1      19.335  71.573  20.381  1.00  0.00     0.020 C 
HETATM   16  C17 UNL     1      20.827  69.702  19.817  1.00  0.00     0.268 C 
HETATM   17  O5  UNL     1      22.062  69.898  19.246  1.00  0.00    -0.353 OA
HETATM   18  C19 UNL     1      22.112  69.734  17.888  1.00  0.00     0.148 C 
HETATM   19  C21 UNL     1      21.132  70.609  17.169  1.00  0.00     0.040 C 
HETATM   20  C22 UNL     1      20.348  71.463  18.170  1.00  0.00     0.005 C 
ENDROOT
BRANCH   3  21
HETATM   21  O1  UNL     1      14.831  74.040  13.590  1.00  0.00    -0.266 OA
BRANCH  21  22
HETATM   22  S1  UNL     1      14.287  73.310  12.205  1.00  0.00     0.262 S 
HETATM   23  C4  UNL     1      14.099  71.569  12.502  1.00  0.00     0.194 C 
HETATM   24  O2  UNL     1      15.225  73.500  11.047  1.00  0.00    -0.199 OA
HETATM   25  O3  UNL     1      12.942  73.833  11.760  1.00  0.00    -0.199 OA
ENDBRANCH  21  22
ENDBRANCH   3  21
BRANCH  16  26
HETATM   26  O4  UNL     1      20.968  69.771  21.192  1.00  0.00    -0.365 OA
HETATM   27  C18 UNL     1      20.934  68.536  21.816  1.00  0.00     0.204 C 
ENDBRANCH  16  26
BRANCH  18  28
HETATM   28  C20 UNL     1      21.949  68.284  17.459  1.00  0.00     0.196 C 
BRANCH  28  29
HETATM   29  O6  UNL     1      20.842  68.174  16.630  1.00  0.00    -0.398 OA
ATOM     30  H6  UNL     1      20.111  67.826  17.128  1.00  0.00     0.209 HD
ENDBRANCH  28  29
ENDBRANCH  18  28
TORSDOF 5
ENDMDL
MODEL 3
REMARK VINA RESULT: -7.819644403      2.531      4.384
REMARK  5 active torsions:
REMARK  status: ('A' for Active; 'I' for Inactive)
REMARK    1  A    between atoms: C3_3  and  O1_4 
REMARK    2  A    between atoms: O1_4  and  S1_5 
REMARK    3  A    between atoms: C17_21  and  O4_22 
REMARK    4  A    between atoms: C19_25  and  C20_26 
REMARK    5  A    between atoms: C20_26  and  O6_27 
ROOT
HETATM    1  C1  UNL     1      17.321  72.752  14.121  1.00  0.00     0.017 C 
HETATM    2  C2  UNL     1      17.606  72.686  15.393  1.00  0.00    -0.055 C 
HETATM    3  C3  UNL     1      17.425  73.866  16.262  1.00  0.00     0.171 C 
HETATM    4  C5  UNL     1      18.547  74.069  17.242  1.00  0.00     0.038 C 
HETATM    5  C6  UNL     1      19.046  72.784  17.856  1.00  0.00     0.009 C 
HETATM    6  C7  UNL     1      19.377  71.817  16.765  1.00  0.00    -0.002 C 
HETATM    7  C8  UNL     1      18.115  71.433  15.984  1.00  0.00     0.021 C 
HETATM    8  C9  UNL     1      17.121  70.825  16.929  1.00  0.00     0.010 C 
HETATM    9  C10 UNL     1      17.734  69.777  17.792  1.00  0.00     0.006 C 
HETATM   10  C11 UNL     1      19.136  69.385  17.368  1.00  0.00    -0.005 C 
HETATM   11  C12 UNL     1      20.048  70.566  17.207  1.00  0.00    -0.005 C 
HETATM   12  C13 UNL     1      20.877  70.804  18.451  1.00  0.00     0.006 C 
HETATM   13  C14 UNL     1      21.703  69.631  18.826  1.00  0.00     0.015 C 
HETATM   14  C15 UNL     1      21.140  68.304  18.429  1.00  0.00     0.010 C 
HETATM   15  C16 UNL     1      21.712  67.898  17.087  1.00  0.00     0.020 C 
HETATM   16  C17 UNL     1      21.521  67.265  19.455  1.00  0.00     0.268 C 
HETATM   17  O5  UNL     1      20.450  66.553  19.939  1.00  0.00    -0.353 OA
HETATM   18  C19 UNL     1      19.475  67.300  20.544  1.00  0.00     0.148 C 
HETATM   19  C21 UNL     1      18.942  68.378  19.652  1.00  0.00     0.040 C 
HETATM   20  C22 UNL     1      19.640  68.333  18.289  1.00  0.00     0.005 C 
ENDROOT
BRANCH   3  21
HETATM   21  O1  UNL     1      17.363  75.039  15.478  1.00  0.00    -0.266 OA
BRANCH  21  22
HETATM   22  S1  UNL     1      15.812  75.592  15.288  1.00  0.00     0.262 S 
HETATM   23  C4  UNL     1      15.695  77.233  15.957  1.00  0.00     0.194 C 
HETATM   24  O2  UNL     1      14.801  74.720  15.977  1.00  0.00    -0.199 OA
HETATM   25  O3  UNL     1      15.395  75.672  13.838  1.00  0.00    -0.199 OA
ENDBRANCH  21  22
ENDBRANCH   3  21
BRANCH  16  26
HETATM   26  O4  UNL     1      22.470  66.367  18.999  1.00  0.00    -0.365 OA
HETATM   27  C18 UNL     1      23.132  65.695  20.011  1.00  0.00     0.204 C 
ENDBRANCH  16  26
BRANCH  18  28
HETATM   28  C20 UNL     1      19.916  67.879  21.879  1.00  0.00     0.196 C 
BRANCH  28  29
HETATM   29  O6  UNL     1      19.000  67.521  22.858  1.00  0.00    -0.398 OA
ATOM     30  H6  UNL     1      18.132  67.806  22.594  1.00  0.00     0.209 HD
ENDBRANCH  28  29
ENDBRANCH  18  28
TORSDOF 5
ENDMDL
MODEL 4
REMARK VINA RESULT: -7.644433072      1.634      2.342
REMARK  5 active torsions:
REMARK  status: ('A' for Active; 'I' for Inactive)
REMARK    1  A    between atoms: C3_3  and  O1_4 
REMARK    2  A    between atoms: O1_4  and  S1_5 
REMARK    3  A    between atoms: C17_21  and  O4_22 
REMARK    4  A    between atoms: C19_25  and  C20_26 
REMARK    5  A    between atoms: C20_26  and  O6_27 
ROOT
HETATM    1  C1  UNL     1      17.615  75.142  16.240  1.00  0.00     0.017 C 
HETATM    2  C2  UNL     1      17.867  73.873  16.070  1.00  0.00    -0.055 C 
HETATM    3  C3  UNL     1      16.951  73.027  15.280  1.00  0.00     0.171 C 
HETATM    4  C5  UNL     1      16.707  71.673  15.887  1.00  0.00     0.038 C 
HETATM    5  C6  UNL     1      17.949  71.049  16.474  1.00  0.00     0.009 C 
HETATM    6  C7  UNL     1      18.585  72.017  17.418  1.00  0.00    -0.002 C 
HETATM    7  C8  UNL     1      19.072  73.261  16.665  1.00  0.00     0.021 C 
HETATM    8  C9  UNL     1      20.055  72.843  15.612  1.00  0.00     0.010 C 
HETATM    9  C10 UNL     1      21.095  71.921  16.150  1.00  0.00     0.006 C 
HETATM   10  C11 UNL     1      21.082  71.805  17.662  1.00  0.00    -0.005 C 
HETATM   11  C12 UNL     1      19.723  71.479  18.209  1.00  0.00    -0.005 C 
HETATM   12  C13 UNL     1      19.561  69.994  18.453  1.00  0.00     0.006 C 
HETATM   13  C14 UNL     1      20.578  69.449  19.385  1.00  0.00     0.015 C 
HETATM   14  C15 UNL     1      21.890  70.165  19.385  1.00  0.00     0.010 C 
HETATM   15  C16 UNL     1      21.888  71.214  20.476  1.00  0.00     0.020 C 
HETATM   16  C17 UNL     1      23.003  69.183  19.655  1.00  0.00     0.268 C 
HETATM   17  O5  UNL     1      24.012  69.228  18.722  1.00  0.00    -0.353 OA
HETATM   18  C19 UNL     1      23.629  68.975  17.433  1.00  0.00     0.148 C 
HETATM   19  C21 UNL     1      22.537  69.890  16.969  1.00  0.00     0.040 C 
HETATM   20  C22 UNL     1      22.159  70.873  18.082  1.00  0.00     0.005 C 
ENDROOT
BRANCH   3  21
HETATM   21  O1  UNL     1      15.688  73.650  15.174  1.00  0.00    -0.266 OA
BRANCH  21  22
HETATM   22  S1  UNL     1      15.240  73.910  13.600  1.00  0.00     0.262 S 
HETATM   23  C4  UNL     1      16.030  72.703  12.565  1.00  0.00     0.194 C 
HETATM   24  O2  UNL     1      15.619  75.280  13.112  1.00  0.00    -0.199 OA
HETATM   25  O3  UNL     1      13.751  73.773  13.386  1.00  0.00    -0.199 OA
ENDBRANCH  21  22
ENDBRANCH   3  21
BRANCH  16  26
HETATM   26  O4  UNL     1      23.565  69.324  20.912  1.00  0.00    -0.365 OA
HETATM   27  C18 UNL     1      24.289  68.219  21.324  1.00  0.00     0.204 C 
ENDBRANCH  16  26
BRANCH  18  28
HETATM   28  C20 UNL     1      23.244  67.522  17.202  1.00  0.00     0.196 C 
BRANCH  28  29
HETATM   29  O6  UNL     1      21.928  67.462  16.767  1.00  0.00    -0.398 OA
ATOM     30  H6  UNL     1      21.612  68.343  16.602  1.00  0.00     0.209 HD
ENDBRANCH  28  29
ENDBRANCH  18  28
TORSDOF 5
ENDMDL
MODEL 5
REMARK VINA RESULT: -7.501939881      3.368      8.155
REMARK  5 active torsions:
REMARK  status: ('A' for Active; 'I' for Inactive)
REMARK    1  A    between atoms: C3_3  and  O1_4 
REMARK    2  A    between atoms: O1_4  and  S1_5 
REMARK    3  A    between atoms: C17_21  and  O4_22 
REMARK    4  A    between atoms: C19_25  and  C20_26 
REMARK    5  A    between atoms: C20_26  and  O6_27 
ROOT
HETATM    1  C1  UNL     1      20.891  69.510  21.784  1.00  0.00     0.017 C 
HETATM    2  C2  UNL     1      20.687  69.499  20.494  1.00  0.00    -0.055 C 
HETATM    3  C3  UNL     1      21.314  68.466  19.646  1.00  0.00     0.171 C 
HETATM    4  C5  UNL     1      21.859  69.000  18.351  1.00  0.00     0.038 C 
HETATM    5  C6  UNL     1      20.963  70.027  17.703  1.00  0.00     0.009 C 
HETATM    6  C7  UNL     1      20.644  71.095  18.698  1.00  0.00    -0.002 C 
HETATM    7  C8  UNL     1      19.828  70.519  19.862  1.00  0.00     0.021 C 
HETATM    8  C9  UNL     1      18.563  69.918  19.323  1.00  0.00     0.010 C 
HETATM    9  C10 UNL     1      17.859  70.839  18.386  1.00  0.00     0.006 C 
HETATM   10  C11 UNL     1      18.427  72.244  18.374  1.00  0.00    -0.005 C 
HETATM   11  C12 UNL     1      19.912  72.270  18.156  1.00  0.00    -0.005 C 
HETATM   12  C13 UNL     1      20.258  72.502  16.701  1.00  0.00     0.006 C 
HETATM   13  C14 UNL     1      19.691  73.765  16.168  1.00  0.00     0.015 C 
HETATM   14  C15 UNL     1      18.420  74.213  16.813  1.00  0.00     0.010 C 
HETATM   15  C16 UNL     1      18.740  75.182  17.932  1.00  0.00     0.020 C 
HETATM   16  C17 UNL     1      17.554  74.914  15.794  1.00  0.00     0.268 C 
HETATM   17  O5  UNL     1      16.276  74.414  15.724  1.00  0.00    -0.353 OA
HETATM   18  C19 UNL     1      16.183  73.086  15.406  1.00  0.00     0.148 C 
HETATM   19  C21 UNL     1      16.963  72.216  16.343  1.00  0.00     0.040 C 
HETATM   20  C22 UNL     1      17.645  73.069  17.417  1.00  0.00     0.005 C 
ENDROOT
BRANCH   3  21
HETATM   21  O1  UNL     1      22.404  67.879  20.326  1.00  0.00    -0.266 OA
BRANCH  21  22
HETATM   22  S1  UNL     1      22.208  66.248  20.547  1.00  0.00     0.262 S 
HETATM   23  C4  UNL     1      22.378  65.873  22.275  1.00  0.00     0.194 C 
HETATM   24  O2  UNL     1      23.213  65.437  19.780  1.00  0.00    -0.199 OA
HETATM   25  O3  UNL     1      20.844  65.761  20.119  1.00  0.00    -0.199 OA
ENDBRANCH  21  22
ENDBRANCH   3  21
BRANCH  16  26
HETATM   26  O4  UNL     1      17.477  76.282  15.990  1.00  0.00    -0.365 OA
HETATM   27  C18 UNL     1      16.338  76.856  15.454  1.00  0.00     0.204 C 
ENDBRANCH  16  26
BRANCH  18  28
HETATM   28  C20 UNL     1      16.563  72.794  13.963  1.00  0.00     0.196 C 
BRANCH  28  29
HETATM   29  O6  UNL     1      16.146  71.513  13.630  1.00  0.00    -0.398 OA
ATOM     30  H6  UNL     1      16.585  70.885  14.192  1.00  0.00     0.209 HD
ENDBRANCH  28  29
ENDBRANCH  18  28
TORSDOF 5
ENDMDL
