MODEL 1
REMARK VINA RESULT: -4.766817842      0.000      0.000
REMARK  2 active torsions:
REMARK  status: ('A' for Active; 'I' for Inactive)
REMARK    1  A    between atoms: N2_6  and  C5_7 
REMARK    2  A    between atoms: C5_7  and  C6_8 
ROOT
HETATM    1  N1  UNL     1     -21.969 -10.896  -4.382  1.00  0.00    -0.194 NA
HETATM    2  C1  UNL     1     -21.940 -11.405  -3.346  1.00  0.00     0.095 C 
HETATM    3  C2  UNL     1     -21.907 -12.059  -2.000  1.00  0.00     0.254 C 
HETATM    4  C3  UNL     1     -23.261 -12.160  -1.447  1.00  0.00     0.036 C 
HETATM    5  C4  UNL     1     -23.604 -11.377  -0.431  1.00  0.00     0.087 C 
HETATM    6  N2  UNL     1     -22.604 -10.492   0.041  1.00  0.00    -0.368 N 
HETATM    7  C7  UNL     1     -21.243 -11.049   0.012  1.00  0.00     0.294 C 
HETATM    8  O1  UNL     1     -20.972 -11.412  -1.269  1.00  0.00    -0.349 OA
ENDROOT
BRANCH   6   9
HETATM    9  C5  UNL     1     -22.924  -9.173   0.508  1.00  0.00     0.135 C 
BRANCH   9  10
HETATM   10  C6  UNL     1     -24.361  -9.009   0.953  1.00  0.00     0.105 C 
HETATM   11 BR1  UNL     1     -24.929  -7.242   0.396  1.00  0.00    -0.095 Br
ENDBRANCH   9  10
ENDBRANCH   6   9
TORSDOF 2
ENDMDL
MODEL 2
REMARK VINA RESULT: -4.576972647      1.910      2.588
REMARK  2 active torsions:
REMARK  status: ('A' for Active; 'I' for Inactive)
REMARK    1  A    between atoms: N2_6  and  C5_7 
REMARK    2  A    between atoms: C5_7  and  C6_8 
ROOT
HETATM    1  N1  UNL     1     -22.765 -11.973  -1.994  1.00  0.00    -0.194 NA
HETATM    2  C1  UNL     1     -22.659 -11.485  -0.953  1.00  0.00     0.095 C 
HETATM    3  C2  UNL     1     -22.527 -10.849   0.396  1.00  0.00     0.254 C 
HETATM    4  C3  UNL     1     -23.825 -10.818   1.076  1.00  0.00     0.036 C 
HETATM    5  C4  UNL     1     -24.454  -9.656   1.215  1.00  0.00     0.087 C 
HETATM    6  N2  UNL     1     -23.795  -8.521   0.681  1.00  0.00    -0.368 N 
HETATM    7  C7  UNL     1     -22.331  -8.550   0.826  1.00  0.00     0.294 C 
HETATM    8  O1  UNL     1     -21.878  -9.677   0.218  1.00  0.00    -0.349 OA
ENDROOT
BRANCH   6   9
HETATM    9  C5  UNL     1     -24.522  -7.448   0.065  1.00  0.00     0.135 C 
BRANCH   9  10
HETATM   10  C6  UNL     1     -25.576  -6.827   0.955  1.00  0.00     0.105 C 
HETATM   11 BR1  UNL     1     -27.276  -7.032   0.050  1.00  0.00    -0.095 Br
ENDBRANCH   9  10
ENDBRANCH   6   9
TORSDOF 2
ENDMDL
MODEL 3
REMARK VINA RESULT: -4.522921510      2.774      3.845
REMARK  2 active torsions:
REMARK  status: ('A' for Active; 'I' for Inactive)
REMARK    1  A    between atoms: N2_6  and  C5_7 
REMARK    2  A    between atoms: C5_7  and  C6_8 
ROOT
HETATM    1  N1  UNL     1     -22.040 -10.875  -1.029  1.00  0.00    -0.194 NA
HETATM    2  C1  UNL     1     -22.550 -10.443  -0.088  1.00  0.00     0.095 C 
HETATM    3  C2  UNL     1     -23.218  -9.883   1.130  1.00  0.00     0.254 C 
HETATM    4  C3  UNL     1     -24.435 -10.639   1.439  1.00  0.00     0.036 C 
HETATM    5  C4  UNL     1     -25.618 -10.075   1.223  1.00  0.00     0.087 C 
HETATM    6  N2  UNL     1     -25.597  -8.758   0.703  1.00  0.00    -0.368 N 
HETATM    7  C7  UNL     1     -24.504  -7.921   1.222  1.00  0.00     0.294 C 
HETATM    8  O1  UNL     1     -23.333  -8.550   0.940  1.00  0.00    -0.349 OA
ENDROOT
BRANCH   6   9
HETATM    9  C5  UNL     1     -26.576  -8.305  -0.243  1.00  0.00     0.135 C 
BRANCH   9  10
HETATM   10  C6  UNL     1     -27.645  -9.328  -0.562  1.00  0.00     0.105 C 
HETATM   11 BR1  UNL     1     -28.806  -8.539  -1.896  1.00  0.00    -0.095 Br
ENDBRANCH   9  10
ENDBRANCH   6   9
TORSDOF 2
ENDMDL
MODEL 4
REMARK VINA RESULT: -4.470223094      2.264      3.193
REMARK  2 active torsions:
REMARK  status: ('A' for Active; 'I' for Inactive)
REMARK    1  A    between atoms: N2_6  and  C5_7 
REMARK    2  A    between atoms: C5_7  and  C6_8 
ROOT
HETATM    1  N1  UNL     1     -22.165 -11.291  -1.508  1.00  0.00    -0.194 NA
HETATM    2  C1  UNL     1     -22.493 -10.885  -0.478  1.00  0.00     0.095 C 
HETATM    3  C2  UNL     1     -22.924 -10.356   0.855  1.00  0.00     0.254 C 
HETATM    4  C3  UNL     1     -24.256 -10.862   1.199  1.00  0.00     0.036 C 
HETATM    5  C4  UNL     1     -25.291 -10.030   1.167  1.00  0.00     0.087 C 
HETATM    6  N2  UNL     1     -25.006  -8.693   0.797  1.00  0.00    -0.368 N 
HETATM    7  C7  UNL     1     -23.715  -8.191   1.294  1.00  0.00     0.294 C 
HETATM    8  O1  UNL     1     -22.744  -9.017   0.827  1.00  0.00    -0.349 OA
ENDROOT
BRANCH   6   9
HETATM    9  C5  UNL     1     -25.922  -7.917   0.010  1.00  0.00     0.135 C 
BRANCH   9  10
HETATM   10  C6  UNL     1     -25.633  -6.431   0.015  1.00  0.00     0.105 C 
HETATM   11 BR1  UNL     1     -26.871  -5.617   1.262  1.00  0.00    -0.095 Br
ENDBRANCH   9  10
ENDBRANCH   6   9
TORSDOF 2
ENDMDL
MODEL 5
REMARK VINA RESULT: -4.130445927      5.707      6.478
REMARK  2 active torsions:
REMARK  status: ('A' for Active; 'I' for Inactive)
REMARK    1  A    between atoms: N2_6  and  C5_7 
REMARK    2  A    between atoms: C5_7  and  C6_8 
ROOT
HETATM    1  N1  UNL     1     -28.805 -14.253  -2.109  1.00  0.00    -0.194 NA
HETATM    2  C1  UNL     1     -29.195 -13.169  -2.039  1.00  0.00     0.095 C 
HETATM    3  C2  UNL     1     -29.695 -11.761  -1.945  1.00  0.00     0.254 C 
HETATM    4  C3  UNL     1     -28.687 -10.826  -2.451  1.00  0.00     0.036 C 
HETATM    5  C4  UNL     1     -28.034 -10.052  -1.591  1.00  0.00     0.087 C 
HETATM    6  N2  UNL     1     -28.383 -10.203  -0.226  1.00  0.00    -0.368 N 
HETATM    7  C7  UNL     1     -29.812 -10.462   0.006  1.00  0.00     0.294 C 
HETATM    8  O1  UNL     1     -30.145 -11.585  -0.683  1.00  0.00    -0.349 OA
ENDROOT
BRANCH   6   9
HETATM    9  C5  UNL     1     -27.404 -10.098   0.818  1.00  0.00     0.135 C 
BRANCH   9  10
HETATM   10  C6  UNL     1     -26.256  -9.167   0.496  1.00  0.00     0.105 C 
HETATM   11 BR1  UNL     1     -24.620 -10.119   0.906  1.00  0.00    -0.095 Br
ENDBRANCH   9  10
ENDBRANCH   6   9
TORSDOF 2
ENDMDL
