MODEL 1
REMARK VINA RESULT: -5.549447848      0.000      0.000
REMARK  3 active torsions:
REMARK  status: ('A' for Active; 'I' for Inactive)
REMARK    1  A    between atoms: C6_7  and  O1_8 
REMARK    2  A    between atoms: O1_8  and  C7_9 
REMARK    3  A    between atoms: C7_9  and  C8_10 
ROOT
HETATM    1  C1  UNL     1     -27.304 -10.148   0.821  1.00  0.00     0.158 C 
HETATM    2  N1  UNL     1     -26.596  -8.937   0.569  1.00  0.00    -0.342 N 
HETATM    3  C2  UNL     1     -27.284  -7.855   0.170  1.00  0.00     0.092 A 
HETATM    4  C3  UNL     1     -26.703  -6.645  -0.097  1.00  0.00     0.017 A 
HETATM    5  C4  UNL     1     -25.341  -6.515   0.045  1.00  0.00     0.006 A 
HETATM    6  C5  UNL     1     -24.642  -7.645   0.460  1.00  0.00     0.056 A 
HETATM    7  C6  UNL     1     -25.258  -8.841   0.719  1.00  0.00     0.144 A 
ENDROOT
BRANCH   7   8
HETATM    8  O1  UNL     1     -24.549  -9.919   1.120  1.00  0.00    -0.331 OA
BRANCH   8   9
HETATM    9  C7  UNL     1     -23.193 -10.148   1.199  1.00  0.00     0.222 C 
BRANCH   9  10
HETATM   10  C8  UNL     1     -22.763 -10.977   0.040  1.00  0.00     0.095 C 
HETATM   11  N2  UNL     1     -23.661 -11.671  -0.554  1.00  0.00    -0.335 N 
HETATM   12 BR1  UNL     1     -23.281 -12.766  -2.027  1.00  0.00     0.046 Br
ATOM     13  H2  UNL     1     -24.621 -11.626  -0.213  1.00  0.00     0.172 HD
ENDBRANCH   9  10
ENDBRANCH   8   9
ENDBRANCH   7   8
TORSDOF 3
ENDMDL
MODEL 2
REMARK VINA RESULT: -5.238497285      1.006      1.006
REMARK  3 active torsions:
REMARK  status: ('A' for Active; 'I' for Inactive)
REMARK    1  A    between atoms: C6_7  and  O1_8 
REMARK    2  A    between atoms: O1_8  and  C7_9 
REMARK    3  A    between atoms: C7_9  and  C8_10 
ROOT
HETATM    1  C1  UNL     1     -27.245 -10.171   0.804  1.00  0.00     0.158 C 
HETATM    2  N1  UNL     1     -26.578  -8.935   0.559  1.00  0.00    -0.342 N 
HETATM    3  C2  UNL     1     -27.292  -7.892   0.105  1.00  0.00     0.092 A 
HETATM    4  C3  UNL     1     -26.751  -6.664  -0.161  1.00  0.00     0.017 A 
HETATM    5  C4  UNL     1     -25.404  -6.472   0.040  1.00  0.00     0.006 A 
HETATM    6  C5  UNL     1     -24.677  -7.562   0.511  1.00  0.00     0.056 A 
HETATM    7  C6  UNL     1     -25.253  -8.778   0.767  1.00  0.00     0.144 A 
ENDROOT
BRANCH   7   8
HETATM    8  O1  UNL     1     -24.519  -9.816   1.224  1.00  0.00    -0.331 OA
BRANCH   8   9
HETATM    9  C7  UNL     1     -23.158 -10.026   1.273  1.00  0.00     0.222 C 
BRANCH   9  10
HETATM   10  C8  UNL     1     -22.753 -10.915   0.150  1.00  0.00     0.095 C 
HETATM   11  N2  UNL     1     -21.516 -10.921  -0.181  1.00  0.00    -0.335 N 
HETATM   12 BR1  UNL     1     -20.847 -11.984  -1.571  1.00  0.00     0.046 Br
ATOM     13  H2  UNL     1     -20.868 -10.323   0.333  1.00  0.00     0.172 HD
ENDBRANCH   9  10
ENDBRANCH   8   9
ENDBRANCH   7   8
TORSDOF 3
ENDMDL
MODEL 3
REMARK VINA RESULT: -4.946234294      2.622      3.853
REMARK  3 active torsions:
REMARK  status: ('A' for Active; 'I' for Inactive)
REMARK    1  A    between atoms: C6_7  and  O1_8 
REMARK    2  A    between atoms: O1_8  and  C7_9 
REMARK    3  A    between atoms: C7_9  and  C8_10 
ROOT
HETATM    1  C1  UNL     1     -24.521 -10.285   1.045  1.00  0.00     0.158 C 
HETATM    2  N1  UNL     1     -25.231  -9.105   0.676  1.00  0.00    -0.342 N 
HETATM    3  C2  UNL     1     -24.545  -7.965   0.500  1.00  0.00     0.092 A 
HETATM    4  C3  UNL     1     -25.129  -6.778   0.146  1.00  0.00     0.017 A 
HETATM    5  C4  UNL     1     -26.490  -6.736  -0.043  1.00  0.00     0.006 A 
HETATM    6  C5  UNL     1     -27.188  -7.926   0.143  1.00  0.00     0.056 A 
HETATM    7  C6  UNL     1     -26.570  -9.097   0.498  1.00  0.00     0.144 A 
ENDROOT
BRANCH   7   8
HETATM    8  O1  UNL     1     -27.276 -10.235   0.671  1.00  0.00    -0.331 OA
BRANCH   8   9
HETATM    9  C7  UNL     1     -28.625 -10.499   0.586  1.00  0.00     0.222 C 
BRANCH   9  10
HETATM   10  C8  UNL     1     -28.922 -11.147  -0.720  1.00  0.00     0.095 C 
HETATM   11  N2  UNL     1     -29.222 -12.393  -0.706  1.00  0.00    -0.335 N 
HETATM   12 BR1  UNL     1     -29.621 -13.354  -2.265  1.00  0.00     0.046 Br
ATOM     13  H2  UNL     1     -29.243 -12.882   0.189  1.00  0.00     0.172 HD
ENDBRANCH   9  10
ENDBRANCH   8   9
ENDBRANCH   7   8
TORSDOF 3
ENDMDL
MODEL 4
REMARK VINA RESULT: -4.932167896      0.696      2.105
REMARK  3 active torsions:
REMARK  status: ('A' for Active; 'I' for Inactive)
REMARK    1  A    between atoms: C6_7  and  O1_8 
REMARK    2  A    between atoms: O1_8  and  C7_9 
REMARK    3  A    between atoms: C7_9  and  C8_10 
ROOT
HETATM    1  C1  UNL     1     -25.086  -6.722   0.024  1.00  0.00     0.158 C 
HETATM    2  N1  UNL     1     -25.953  -7.829   0.258  1.00  0.00    -0.342 N 
HETATM    3  C2  UNL     1     -27.266  -7.685   0.017  1.00  0.00     0.092 A 
HETATM    4  C3  UNL     1     -28.183  -8.683   0.207  1.00  0.00     0.017 A 
HETATM    5  C4  UNL     1     -27.752  -9.904   0.670  1.00  0.00     0.006 A 
HETATM    6  C5  UNL     1     -26.388 -10.038   0.914  1.00  0.00     0.056 A 
HETATM    7  C6  UNL     1     -25.498  -9.016   0.712  1.00  0.00     0.144 A 
ENDROOT
BRANCH   7   8
HETATM    8  O1  UNL     1     -24.180  -9.179   0.959  1.00  0.00    -0.331 OA
BRANCH   8   9
HETATM    9  C7  UNL     1     -23.430 -10.302   1.233  1.00  0.00     0.222 C 
BRANCH   9  10
HETATM   10  C8  UNL     1     -22.973 -10.916  -0.043  1.00  0.00     0.095 C 
HETATM   11  N2  UNL     1     -23.710 -11.831  -0.554  1.00  0.00    -0.335 N 
HETATM   12 BR1  UNL     1     -23.274 -12.702  -2.154  1.00  0.00     0.046 Br
ATOM     13  H2  UNL     1     -24.569 -12.096  -0.071  1.00  0.00     0.172 HD
ENDBRANCH   9  10
ENDBRANCH   8   9
ENDBRANCH   7   8
TORSDOF 3
ENDMDL
MODEL 5
REMARK VINA RESULT: -4.776534476      2.444      3.531
REMARK  3 active torsions:
REMARK  status: ('A' for Active; 'I' for Inactive)
REMARK    1  A    between atoms: C6_7  and  O1_8 
REMARK    2  A    between atoms: O1_8  and  C7_9 
REMARK    3  A    between atoms: C7_9  and  C8_10 
ROOT
HETATM    1  C1  UNL     1     -21.457  -8.437   0.578  1.00  0.00     0.158 C 
HETATM    2  N1  UNL     1     -22.744  -9.039   0.686  1.00  0.00    -0.342 N 
HETATM    3  C2  UNL     1     -23.807  -8.255   0.932  1.00  0.00     0.092 A 
HETATM    4  C3  UNL     1     -25.085  -8.730   1.054  1.00  0.00     0.017 A 
HETATM    5  C4  UNL     1     -25.309 -10.080   0.920  1.00  0.00     0.006 A 
HETATM    6  C5  UNL     1     -24.198 -10.880   0.665  1.00  0.00     0.056 A 
HETATM    7  C6  UNL     1     -22.931 -10.369   0.549  1.00  0.00     0.144 A 
ENDROOT
BRANCH   7   8
HETATM    8  O1  UNL     1     -21.874 -11.172   0.301  1.00  0.00    -0.331 OA
BRANCH   8   9
HETATM    9  C7  UNL     1     -21.649 -12.114  -0.678  1.00  0.00     0.222 C 
BRANCH   9  10
HETATM   10  C8  UNL     1     -22.349 -11.708  -1.927  1.00  0.00     0.095 C 
HETATM   11  N2  UNL     1     -21.626 -11.469  -2.958  1.00  0.00    -0.335 N 
HETATM   12 BR1  UNL     1     -22.355 -10.947  -4.603  1.00  0.00     0.046 Br
ATOM     13  H2  UNL     1     -20.614 -11.566  -2.879  1.00  0.00     0.172 HD
ENDBRANCH   9  10
ENDBRANCH   8   9
ENDBRANCH   7   8
TORSDOF 3
ENDMDL
