MODEL 1
REMARK VINA RESULT: -5.751445511      0.000      0.000
REMARK  2 active torsions:
REMARK  status: ('A' for Active; 'I' for Inactive)
REMARK    1  A    between atoms: C2_4  and  C3_5 
REMARK    2  A    between atoms: N1_6  and  N2_8 
ROOT
HETATM    1  C3  UNL     1     -24.788  -9.399   0.407  1.00  0.00     0.093 C 
HETATM    2  N1  UNL     1     -24.492 -10.651   0.475  1.00  0.00    -0.317 N 
ATOM      3  H1  UNL     1     -25.164 -11.271   0.928  1.00  0.00     0.185 HD
ENDROOT
BRANCH   1   4
HETATM    4  C2  UNL     1     -26.075  -8.996   0.995  1.00  0.00     0.138 C 
HETATM    5  C1  UNL     1     -26.556  -7.651   0.428  1.00  0.00     0.446 C 
HETATM    6  F1  UNL     1     -25.631  -7.105  -0.405  1.00  0.00    -0.172 F 
HETATM    7  F2  UNL     1     -26.951  -6.840   1.445  1.00  0.00    -0.172 F 
HETATM    8  N3  UNL     1     -27.752  -8.093  -0.303  1.00  0.00     0.162 N 
HETATM    9  C9  UNL     1     -28.374  -9.001   0.683  1.00  0.00     0.287 C 
HETATM   10  C10 UNL     1     -27.309  -9.339  -0.960  1.00  0.00     0.287 C 
HETATM   11  C8  UNL     1     -27.155  -9.871   0.424  1.00  0.00     0.059 C 
ENDBRANCH   1   4
BRANCH   2  12
HETATM   12  N2  UNL     1     -23.344 -11.213  -0.016  1.00  0.00    -0.324 N 
HETATM   13  C4  UNL     1     -23.451 -12.241  -1.038  1.00  0.00     0.168 C 
HETATM   14  C5  UNL     1     -22.648 -11.736  -2.219  1.00  0.00     0.189 C 
HETATM   15  O1  UNL     1     -21.390 -11.319  -1.897  1.00  0.00    -0.388 OA
HETATM   16  C6  UNL     1     -21.020 -11.467  -0.593  1.00  0.00     0.189 C 
HETATM   17  C7  UNL     1     -21.997 -10.873   0.395  1.00  0.00     0.168 C 
ENDBRANCH   2  12
TORSDOF 2
ENDMDL
MODEL 2
REMARK VINA RESULT: -5.660017171      2.090      2.587
REMARK  2 active torsions:
REMARK  status: ('A' for Active; 'I' for Inactive)
REMARK    1  A    between atoms: C2_4  and  C3_5 
REMARK    2  A    between atoms: N1_6  and  N2_8 
ROOT
HETATM    1  C3  UNL     1     -26.702  -9.859   0.568  1.00  0.00     0.093 C 
HETATM    2  N1  UNL     1     -25.710  -9.044   0.676  1.00  0.00    -0.317 N 
ATOM      3  H1  UNL     1     -25.919  -8.046   0.686  1.00  0.00     0.185 HD
ENDROOT
BRANCH   1   4
HETATM    4  C2  UNL     1     -28.040  -9.255   0.471  1.00  0.00     0.138 C 
HETATM    5  C1  UNL     1     -28.577  -9.304  -0.968  1.00  0.00     0.446 C 
HETATM    6  F1  UNL     1     -27.648  -9.800  -1.827  1.00  0.00    -0.172 F 
HETATM    7  F2  UNL     1     -29.074  -8.086  -1.313  1.00  0.00    -0.172 F 
HETATM    8  N3  UNL     1     -29.704 -10.230  -0.791  1.00  0.00     0.162 N 
HETATM    9  C9  UNL     1     -30.316  -9.709   0.448  1.00  0.00     0.287 C 
HETATM   10  C10 UNL     1     -29.150 -11.277   0.091  1.00  0.00     0.287 C 
HETATM   11  C8  UNL     1     -29.032 -10.190   1.104  1.00  0.00     0.059 C 
ENDBRANCH   1   4
BRANCH   2  12
HETATM   12  N2  UNL     1     -24.397  -9.418   0.778  1.00  0.00    -0.324 N 
HETATM   13  C4  UNL     1     -24.083 -10.829   0.937  1.00  0.00     0.168 C 
HETATM   14  C5  UNL     1     -23.166 -11.182  -0.216  1.00  0.00     0.189 C 
HETATM   15  O1  UNL     1     -22.110 -10.331  -0.365  1.00  0.00    -0.388 OA
HETATM   16  C6  UNL     1     -22.000  -9.337   0.562  1.00  0.00     0.189 C 
HETATM   17  C7  UNL     1     -23.260  -8.522   0.743  1.00  0.00     0.168 C 
ENDBRANCH   2  12
TORSDOF 2
ENDMDL
MODEL 3
REMARK VINA RESULT: -5.508910648      3.570      4.699
REMARK  2 active torsions:
REMARK  status: ('A' for Active; 'I' for Inactive)
REMARK    1  A    between atoms: C2_4  and  C3_5 
REMARK    2  A    between atoms: N1_6  and  N2_8 
ROOT
HETATM    1  C3  UNL     1     -27.686 -10.182  -1.020  1.00  0.00     0.093 C 
HETATM    2  N1  UNL     1     -26.540 -10.460  -0.502  1.00  0.00    -0.317 N 
ATOM      3  H1  UNL     1     -26.091 -11.330  -0.788  1.00  0.00     0.185 HD
ENDROOT
BRANCH   1   4
HETATM    4  C2  UNL     1     -28.227 -11.158  -1.979  1.00  0.00     0.138 C 
HETATM    5  C1  UNL     1     -29.241 -12.100  -1.312  1.00  0.00     0.446 C 
HETATM    6  F1  UNL     1     -29.321 -11.875   0.025  1.00  0.00    -0.172 F 
HETATM    7  F2  UNL     1     -28.963 -13.388  -1.654  1.00  0.00    -0.172 F 
HETATM    8  N3  UNL     1     -30.469 -11.691  -2.007  1.00  0.00     0.162 N 
HETATM    9  C9  UNL     1     -29.998 -11.616  -3.406  1.00  0.00     0.287 C 
HETATM   10  C10 UNL     1     -30.366 -10.218  -2.042  1.00  0.00     0.287 C 
HETATM   11  C8  UNL     1     -29.171 -10.444  -2.904  1.00  0.00     0.059 C 
ENDBRANCH   1   4
BRANCH   2  12
HETATM   12  N2  UNL     1     -25.880  -9.675   0.406  1.00  0.00    -0.324 N 
HETATM   13  C4  UNL     1     -24.783 -10.255   1.163  1.00  0.00     0.168 C 
HETATM   14  C5  UNL     1     -23.576  -9.386   0.876  1.00  0.00     0.189 C 
HETATM   15  O1  UNL     1     -23.801  -8.051   1.045  1.00  0.00    -0.388 OA
HETATM   16  C6  UNL     1     -25.039  -7.700   1.497  1.00  0.00     0.189 C 
HETATM   17  C7  UNL     1     -26.176  -8.287   0.693  1.00  0.00     0.168 C 
ENDBRANCH   2  12
TORSDOF 2
ENDMDL
MODEL 4
REMARK VINA RESULT: -5.504144961      1.975      2.753
REMARK  2 active torsions:
REMARK  status: ('A' for Active; 'I' for Inactive)
REMARK    1  A    between atoms: C2_4  and  C3_5 
REMARK    2  A    between atoms: N1_6  and  N2_8 
ROOT
HETATM    1  C3  UNL     1     -26.635  -9.539   0.493  1.00  0.00     0.093 C 
HETATM    2  N1  UNL     1     -25.580 -10.276   0.532  1.00  0.00    -0.317 N 
ATOM      3  H1  UNL     1     -25.692 -11.271   0.334  1.00  0.00     0.185 HD
ENDROOT
BRANCH   1   4
HETATM    4  C2  UNL     1     -27.898 -10.217   0.163  1.00  0.00     0.138 C 
HETATM    5  C1  UNL     1     -29.114  -9.363   0.552  1.00  0.00     0.446 C 
HETATM    6  F1  UNL     1     -28.736  -8.230   1.201  1.00  0.00    -0.172 F 
HETATM    7  F2  UNL     1     -30.015 -10.128   1.226  1.00  0.00    -0.172 F 
HETATM    8  N3  UNL     1     -29.660  -9.069  -0.780  1.00  0.00     0.162 N 
HETATM    9  C9  UNL     1     -29.582 -10.397  -1.423  1.00  0.00     0.287 C 
HETATM   10  C10 UNL     1     -28.459  -8.766  -1.582  1.00  0.00     0.287 C 
HETATM   11  C8  UNL     1     -28.080 -10.185  -1.329  1.00  0.00     0.059 C 
ENDBRANCH   1   4
BRANCH   2  12
HETATM   12  N2  UNL     1     -24.319  -9.825   0.819  1.00  0.00    -0.324 N 
HETATM   13  C4  UNL     1     -23.352 -10.761   1.372  1.00  0.00     0.168 C 
HETATM   14  C5  UNL     1     -22.173 -10.748   0.421  1.00  0.00     0.189 C 
HETATM   15  O1  UNL     1     -21.717  -9.498   0.120  1.00  0.00    -0.388 OA
HETATM   16  C6  UNL     1     -22.336  -8.460   0.752  1.00  0.00     0.189 C 
HETATM   17  C7  UNL     1     -23.842  -8.473   0.622  1.00  0.00     0.168 C 
ENDBRANCH   2  12
TORSDOF 2
ENDMDL
MODEL 5
REMARK VINA RESULT: -5.469496424      2.609      3.449
REMARK  2 active torsions:
REMARK  status: ('A' for Active; 'I' for Inactive)
REMARK    1  A    between atoms: C2_4  and  C3_5 
REMARK    2  A    between atoms: N1_6  and  N2_8 
ROOT
HETATM    1  C3  UNL     1     -27.220  -9.689   0.184  1.00  0.00     0.093 C 
HETATM    2  N1  UNL     1     -26.124 -10.364   0.161  1.00  0.00    -0.317 N 
ATOM      3  H1  UNL     1     -26.162 -11.314  -0.208  1.00  0.00     0.185 HD
ENDROOT
BRANCH   1   4
HETATM    4  C2  UNL     1     -28.420 -10.366  -0.333  1.00  0.00     0.138 C 
HETATM    5  C1  UNL     1     -29.343 -10.823   0.807  1.00  0.00     0.446 C 
HETATM    6  F1  UNL     1     -28.785 -10.584   2.023  1.00  0.00    -0.172 F 
HETATM    7  F2  UNL     1     -29.721 -12.113   0.601  1.00  0.00    -0.172 F 
HETATM    8  N3  UNL     1     -30.504  -9.956   0.562  1.00  0.00     0.162 N 
HETATM    9  C9  UNL     1     -30.650 -10.076  -0.904  1.00  0.00     0.287 C 
HETATM   10  C10 UNL     1     -29.893  -8.648   0.251  1.00  0.00     0.287 C 
HETATM   11  C8  UNL     1     -29.324  -9.333  -0.944  1.00  0.00     0.059 C 
ENDBRANCH   1   4
BRANCH   2  12
HETATM   12  N2  UNL     1     -24.910  -9.903   0.598  1.00  0.00    -0.324 N 
HETATM   13  C4  UNL     1     -23.950 -10.858   1.127  1.00  0.00     0.168 C 
HETATM   14  C5  UNL     1     -22.702 -10.701   0.283  1.00  0.00     0.189 C 
HETATM   15  O1  UNL     1     -22.278  -9.411   0.153  1.00  0.00    -0.388 OA
HETATM   16  C6  UNL     1     -22.990  -8.469   0.837  1.00  0.00     0.189 C 
HETATM   17  C7  UNL     1     -24.479  -8.521   0.582  1.00  0.00     0.168 C 
ENDBRANCH   2  12
TORSDOF 2
ENDMDL
