MODEL 1
REMARK VINA RESULT: -4.581374664      0.000      0.000
REMARK  1 active torsions:
REMARK  status: ('A' for Active; 'I' for Inactive)
REMARK    1  A    between atoms: C2_2  and  C3_3 
ROOT
HETATM    1  C3  UNL     1     -24.075  -9.268   1.352  1.00  0.00     0.185 C 
HETATM    2  O1  UNL     1     -24.175  -7.847   1.522  1.00  0.00    -0.308 OA
HETATM    3  C4  UNL     1     -25.348  -7.155   1.321  1.00  0.00     0.276 C 
HETATM    4  O2  UNL     1     -25.660  -6.095   1.927  1.00  0.00    -0.264 OA
HETATM    5  C5  UNL     1     -26.296  -7.714   0.321  1.00  0.00     0.189 C 
HETATM    6 BR1  UNL     1     -27.976  -6.735   0.383  1.00  0.00    -0.078 Br
HETATM    7  C6  UNL     1     -26.481  -9.158   0.630  1.00  0.00     0.178 A 
HETATM    8  O3  UNL     1     -25.863 -10.136  -0.159  1.00  0.00    -0.371 OA
HETATM    9  C7  UNL     1     -25.403  -9.907   1.156  1.00  0.00     0.186 A 
ENDROOT
BRANCH   1  10
HETATM   10  C2  UNL     1     -23.089  -9.595   0.287  1.00  0.00    -0.002 C 
HETATM   11  C1  UNL     1     -22.259 -10.629   0.386  1.00  0.00     0.009 C 
ENDBRANCH   1  10
TORSDOF 1
ENDMDL
MODEL 2
REMARK VINA RESULT: -4.404548829      3.458      5.100
REMARK  1 active torsions:
REMARK  status: ('A' for Active; 'I' for Inactive)
REMARK    1  A    between atoms: C2_2  and  C3_3 
ROOT
HETATM    1  C3  UNL     1     -24.220 -10.138   0.924  1.00  0.00     0.185 C 
HETATM    2  O1  UNL     1     -24.420 -11.008  -0.199  1.00  0.00    -0.308 OA
HETATM    3  C4  UNL     1     -23.378 -11.623  -0.856  1.00  0.00     0.276 C 
HETATM    4  O2  UNL     1     -23.464 -12.738  -1.438  1.00  0.00    -0.264 OA
HETATM    5  C5  UNL     1     -22.074 -10.908  -0.868  1.00  0.00     0.189 C 
HETATM    6 BR1  UNL     1     -20.696 -12.058  -1.618  1.00  0.00    -0.078 Br
HETATM    7  C6  UNL     1     -21.764 -10.510   0.533  1.00  0.00     0.178 A 
HETATM    8  O3  UNL     1     -21.915  -9.178   0.939  1.00  0.00    -0.371 OA
HETATM    9  C7  UNL     1     -22.816 -10.158   1.411  1.00  0.00     0.186 A 
ENDROOT
BRANCH   1  10
HETATM   10  C2  UNL     1     -24.729  -8.774   0.620  1.00  0.00    -0.002 C 
HETATM   11  C1  UNL     1     -25.002  -7.892   1.577  1.00  0.00     0.009 C 
ENDBRANCH   1  10
TORSDOF 1
ENDMDL
MODEL 3
REMARK VINA RESULT: -4.400352825      2.421      4.124
REMARK  1 active torsions:
REMARK  status: ('A' for Active; 'I' for Inactive)
REMARK    1  A    between atoms: C2_2  and  C3_3 
ROOT
HETATM    1  C3  UNL     1     -26.732  -8.246   0.728  1.00  0.00     0.185 C 
HETATM    2  O1  UNL     1     -26.245  -9.595   0.747  1.00  0.00    -0.308 OA
HETATM    3  C4  UNL     1     -24.905  -9.900   0.827  1.00  0.00     0.276 C 
HETATM    4  O2  UNL     1     -24.444 -10.942   1.366  1.00  0.00    -0.264 OA
HETATM    5  C5  UNL     1     -23.956  -8.921   0.234  1.00  0.00     0.189 C 
HETATM    6 BR1  UNL     1     -22.128  -9.418   0.680  1.00  0.00    -0.078 Br
HETATM    7  C6  UNL     1     -24.310  -7.573   0.757  1.00  0.00     0.178 A 
HETATM    8  O3  UNL     1     -24.979  -6.652  -0.058  1.00  0.00    -0.371 OA
HETATM    9  C7  UNL     1     -25.663  -7.256   1.020  1.00  0.00     0.186 A 
ENDROOT
BRANCH   1  10
HETATM   10  C2  UNL     1     -27.468  -7.979  -0.536  1.00  0.00    -0.002 C 
HETATM   11  C1  UNL     1     -28.072  -8.946  -1.221  1.00  0.00     0.009 C 
ENDBRANCH   1  10
TORSDOF 1
ENDMDL
MODEL 4
REMARK VINA RESULT: -4.336858260      3.462      4.385
REMARK  1 active torsions:
REMARK  status: ('A' for Active; 'I' for Inactive)
REMARK    1  A    between atoms: C2_2  and  C3_3 
ROOT
HETATM    1  C3  UNL     1     -27.843  -7.931   0.300  1.00  0.00     0.185 C 
HETATM    2  O1  UNL     1     -28.095  -7.755  -1.101  1.00  0.00    -0.308 OA
HETATM    3  C4  UNL     1     -28.498  -8.787  -1.919  1.00  0.00     0.276 C 
HETATM    4  O2  UNL     1     -29.221  -8.643  -2.941  1.00  0.00    -0.264 OA
HETATM    5  C5  UNL     1     -28.040 -10.154  -1.552  1.00  0.00     0.189 C 
HETATM    6 BR1  UNL     1     -28.924 -11.472  -2.678  1.00  0.00    -0.078 Br
HETATM    7  C6  UNL     1     -28.343 -10.361  -0.109  1.00  0.00     0.178 A 
HETATM    8  O3  UNL     1     -27.318 -10.311   0.843  1.00  0.00    -0.371 OA
HETATM    9  C7  UNL     1     -28.270  -9.270   0.787  1.00  0.00     0.186 A 
ENDROOT
BRANCH   1  10
HETATM   10  C2  UNL     1     -26.428  -7.601   0.617  1.00  0.00    -0.002 C 
HETATM   11  C1  UNL     1     -25.767  -6.638  -0.018  1.00  0.00     0.009 C 
ENDBRANCH   1  10
TORSDOF 1
ENDMDL
MODEL 5
REMARK VINA RESULT: -4.261257638      2.371      3.847
REMARK  1 active torsions:
REMARK  status: ('A' for Active; 'I' for Inactive)
REMARK    1  A    between atoms: C2_2  and  C3_3 
ROOT
HETATM    1  C3  UNL     1     -26.399  -6.497   0.335  1.00  0.00     0.185 C 
HETATM    2  O1  UNL     1     -25.051  -6.598   0.816  1.00  0.00    -0.308 OA
HETATM    3  C4  UNL     1     -24.395  -7.802   0.942  1.00  0.00     0.276 C 
HETATM    4  O2  UNL     1     -23.148  -7.948   0.828  1.00  0.00    -0.264 OA
HETATM    5  C5  UNL     1     -25.233  -8.997   1.230  1.00  0.00     0.189 C 
HETATM    6 BR1  UNL     1     -24.148 -10.609   1.114  1.00  0.00    -0.078 Br
HETATM    7  C6  UNL     1     -26.355  -9.010   0.252  1.00  0.00     0.178 A 
HETATM    8  O3  UNL     1     -27.645  -8.638   0.651  1.00  0.00    -0.371 OA
HETATM    9  C7  UNL     1     -26.905  -7.788  -0.200  1.00  0.00     0.186 A 
ENDROOT
BRANCH   1  10
HETATM   10  C2  UNL     1     -27.275  -5.894   1.375  1.00  0.00    -0.002 C 
HETATM   11  C1  UNL     1     -26.789  -5.397   2.508  1.00  0.00     0.009 C 
ENDBRANCH   1  10
TORSDOF 1
ENDMDL
