MODEL 1
REMARK VINA RESULT: -5.000196837      0.000      0.000
REMARK  2 active torsions:
REMARK  status: ('A' for Active; 'I' for Inactive)
REMARK    1  A    between atoms: N1_2  and  C1_4 
REMARK    2  A    between atoms: N2_9  and  O3_10 
ROOT
HETATM    1  C1  UNL     1     -24.082  -8.835   0.618  1.00  0.00     0.122 A 
HETATM    2  C2  UNL     1     -24.527  -7.539   0.864  1.00  0.00     0.058 A 
HETATM    3  C3  UNL     1     -25.873  -7.292   0.957  1.00  0.00     0.031 A 
HETATM    4 BR1  UNL     1     -26.553  -5.524   1.295  1.00  0.00    -0.050 Br
HETATM    5  C4  UNL     1     -26.723  -8.365   0.797  1.00  0.00     0.141 A 
HETATM    6  N2  UNL     1     -26.285  -9.599   0.561  1.00  0.00    -0.244 N 
HETATM    7  C5  UNL     1     -24.972  -9.864   0.467  1.00  0.00     0.158 A 
ENDROOT
BRANCH   1   8
HETATM    8  N1  UNL     1     -22.684  -9.106   0.519  1.00  0.00    -0.114 N 
HETATM    9  O1  UNL     1     -21.809  -8.419   1.060  1.00  0.00    -0.532 OA
HETATM   10  O2  UNL     1     -22.276 -10.189  -0.214  1.00  0.00    -0.532 OA
ENDBRANCH   1   8
BRANCH   6  11
HETATM   11  O3  UNL     1     -27.182 -10.651   0.406  1.00  0.00    -0.284 OA
ATOM     12  H3  UNL     1     -26.876 -11.514   0.153  1.00  0.00     0.245 HD
ENDBRANCH   6  11
TORSDOF 2
ENDMDL
MODEL 2
REMARK VINA RESULT: -4.847437114      2.980      4.146
REMARK  2 active torsions:
REMARK  status: ('A' for Active; 'I' for Inactive)
REMARK    1  A    between atoms: N1_2  and  C1_4 
REMARK    2  A    between atoms: N2_9  and  O3_10 
ROOT
HETATM    1  C1  UNL     1     -22.502 -11.264  -0.488  1.00  0.00     0.122 A 
HETATM    2  C2  UNL     1     -23.856 -11.144  -0.188  1.00  0.00     0.058 A 
HETATM    3  C3  UNL     1     -24.295 -10.071   0.546  1.00  0.00     0.031 A 
HETATM    4 BR1  UNL     1     -26.153  -9.847   0.994  1.00  0.00    -0.050 Br
HETATM    5  C4  UNL     1     -23.348  -9.156   0.952  1.00  0.00     0.141 A 
HETATM    6  N2  UNL     1     -22.055  -9.282   0.660  1.00  0.00    -0.244 N 
HETATM    7  C5  UNL     1     -21.604 -10.324  -0.058  1.00  0.00     0.158 A 
ENDROOT
BRANCH   1   8
HETATM    8  N1  UNL     1     -22.032 -12.375  -1.251  1.00  0.00    -0.114 N 
HETATM    9  O1  UNL     1     -20.838 -12.586  -1.496  1.00  0.00    -0.532 OA
HETATM   10  O2  UNL     1     -22.948 -13.266  -1.745  1.00  0.00    -0.532 OA
ENDBRANCH   1   8
BRANCH   6  11
HETATM   11  O3  UNL     1     -21.136  -8.333   1.093  1.00  0.00    -0.284 OA
ATOM     12  H3  UNL     1     -20.335  -8.599   1.529  1.00  0.00     0.245 HD
ENDBRANCH   6  11
TORSDOF 2
ENDMDL
MODEL 3
REMARK VINA RESULT: -4.720189630      0.732      1.023
REMARK  2 active torsions:
REMARK  status: ('A' for Active; 'I' for Inactive)
REMARK    1  A    between atoms: N1_2  and  C1_4 
REMARK    2  A    between atoms: N2_9  and  O3_10 
ROOT
HETATM    1  C1  UNL     1     -24.570  -9.130   0.699  1.00  0.00     0.122 A 
HETATM    2  C2  UNL     1     -24.914  -7.794   0.880  1.00  0.00     0.058 A 
HETATM    3  C3  UNL     1     -26.236  -7.426   0.860  1.00  0.00     0.031 A 
HETATM    4 BR1  UNL     1     -26.777  -5.595   1.102  1.00  0.00    -0.050 Br
HETATM    5  C4  UNL     1     -27.164  -8.424   0.657  1.00  0.00     0.141 A 
HETATM    6  N2  UNL     1     -26.823  -9.699   0.485  1.00  0.00    -0.244 N 
HETATM    7  C5  UNL     1     -25.535 -10.081   0.502  1.00  0.00     0.158 A 
ENDROOT
BRANCH   1   8
HETATM    8  N1  UNL     1     -23.199  -9.527   0.718  1.00  0.00    -0.114 N 
HETATM    9  O1  UNL     1     -22.522  -9.713  -0.300  1.00  0.00    -0.532 OA
HETATM   10  O2  UNL     1     -22.587  -9.715   1.929  1.00  0.00    -0.532 OA
ENDBRANCH   1   8
BRANCH   6  11
HETATM   11  O3  UNL     1     -27.796 -10.671   0.283  1.00  0.00    -0.284 OA
ATOM     12  H3  UNL     1     -27.583 -11.484  -0.161  1.00  0.00     0.245 HD
ENDBRANCH   6  11
TORSDOF 2
ENDMDL
MODEL 4
REMARK VINA RESULT: -4.558029983      2.449      2.721
REMARK  2 active torsions:
REMARK  status: ('A' for Active; 'I' for Inactive)
REMARK    1  A    between atoms: N1_2  and  C1_4 
REMARK    2  A    between atoms: N2_9  and  O3_10 
ROOT
HETATM    1  C1  UNL     1     -24.533  -9.032   0.731  1.00  0.00     0.122 A 
HETATM    2  C2  UNL     1     -25.638  -9.877   0.676  1.00  0.00     0.058 A 
HETATM    3  C3  UNL     1     -26.898  -9.339   0.596  1.00  0.00     0.031 A 
HETATM    4 BR1  UNL     1     -28.466 -10.451   0.517  1.00  0.00    -0.050 Br
HETATM    5  C4  UNL     1     -26.995  -7.964   0.574  1.00  0.00     0.141 A 
HETATM    6  N2  UNL     1     -25.931  -7.167   0.628  1.00  0.00    -0.244 N 
HETATM    7  C5  UNL     1     -24.689  -7.672   0.706  1.00  0.00     0.158 A 
ENDROOT
BRANCH   1   8
HETATM    8  N1  UNL     1     -23.217  -9.578   0.815  1.00  0.00    -0.114 N 
HETATM    9  O1  UNL     1     -22.661  -9.876   1.879  1.00  0.00    -0.532 OA
HETATM   10  O2  UNL     1     -22.519  -9.790  -0.345  1.00  0.00    -0.532 OA
ENDBRANCH   1   8
BRANCH   6  11
HETATM   11  O3  UNL     1     -26.080  -5.785   0.604  1.00  0.00    -0.284 OA
ATOM     12  H3  UNL     1     -25.872  -5.290  -0.181  1.00  0.00     0.245 HD
ENDBRANCH   6  11
TORSDOF 2
ENDMDL
MODEL 5
REMARK VINA RESULT: -4.532570765      6.384      7.290
REMARK  2 active torsions:
REMARK  status: ('A' for Active; 'I' for Inactive)
REMARK    1  A    between atoms: N1_2  and  C1_4 
REMARK    2  A    between atoms: N2_9  and  O3_10 
ROOT
HETATM    1  C1  UNL     1     -29.481 -10.936  -2.510  1.00  0.00     0.122 A 
HETATM    2  C2  UNL     1     -30.806 -11.168  -2.868  1.00  0.00     0.058 A 
HETATM    3  C3  UNL     1     -31.282 -12.455  -2.907  1.00  0.00     0.031 A 
HETATM    4 BR1  UNL     1     -33.103 -12.843  -3.394  1.00  0.00    -0.050 Br
HETATM    5  C4  UNL     1     -30.400 -13.462  -2.582  1.00  0.00     0.141 A 
HETATM    6  N2  UNL     1     -29.135 -13.228  -2.241  1.00  0.00    -0.244 N 
HETATM    7  C5  UNL     1     -28.648 -11.977  -2.196  1.00  0.00     0.158 A 
ENDROOT
BRANCH   1   8
HETATM    8  N1  UNL     1     -28.973  -9.603  -2.465  1.00  0.00    -0.114 N 
HETATM    9  O1  UNL     1     -28.072  -9.235  -1.702  1.00  0.00    -0.532 OA
HETATM   10  O2  UNL     1     -29.507  -8.669  -3.313  1.00  0.00    -0.532 OA
ENDBRANCH   1   8
BRANCH   6  11
HETATM   11  O3  UNL     1     -28.281 -14.279  -1.922  1.00  0.00    -0.284 OA
ATOM     12  H3  UNL     1     -27.353 -14.225  -2.118  1.00  0.00     0.245 HD
ENDBRANCH   6  11
TORSDOF 2
ENDMDL
