MODEL 1
REMARK VINA RESULT: -6.237974876      0.000      0.000
REMARK  4 active torsions:
REMARK  status: ('A' for Active; 'I' for Inactive)
REMARK    1  A    between atoms: O1_1  and  C1_3 
REMARK    2  A    between atoms: C4_6  and  C5_7 
REMARK    3  A    between atoms: C6_8  and  C7_9 
REMARK    4  A    between atoms: C7_9  and  N1_10 
ROOT
HETATM    1  C5  UNL     1     -26.779  -9.776   0.862  1.00  0.00    -0.018 C 
HETATM    2  C6  UNL     1     -25.760 -10.713   1.197  1.00  0.00     0.016 C 
ENDROOT
BRANCH   2   3
HETATM    3  C7  UNL     1     -24.478 -10.615   1.110  1.00  0.00     0.115 C 
BRANCH   3   4
HETATM    4  N1  UNL     1     -23.753 -11.231   0.021  1.00  0.00    -0.279 N 
HETATM    5  C8  UNL     1     -22.437 -11.307  -0.174  1.00  0.00     0.117 A 
HETATM    6  C9  UNL     1     -22.190 -11.985  -1.349  1.00  0.00     0.038 A 
HETATM    7  C10 UNL     1     -23.426 -12.320  -1.862  1.00  0.00     0.109 A 
HETATM    8  N2  UNL     1     -24.323 -11.839  -0.996  1.00  0.00    -0.306 N 
ATOM      9  H2  UNL     1     -25.332 -11.934  -1.110  1.00  0.00     0.186 HD
ENDBRANCH   3   4
ENDBRANCH   2   3
BRANCH   1  10
HETATM   10  C4  UNL     1     -26.556  -8.422   0.402  1.00  0.00     0.037 C 
HETATM   11  C1  UNL     1     -26.181  -7.288   1.266  1.00  0.00     0.126 C 
HETATM   12  C2  UNL     1     -26.726  -6.384   0.142  1.00  0.00     0.033 C 
HETATM   13  C3  UNL     1     -27.653  -7.576  -0.170  1.00  0.00     0.013 C 
BRANCH  11  14
HETATM   14  O1  UNL     1     -24.816  -7.012   1.388  1.00  0.00    -0.395 OA
ATOM     15  H1  UNL     1     -24.590  -7.124   2.304  1.00  0.00     0.210 HD
ENDBRANCH  11  14
ENDBRANCH   1  10
TORSDOF 4
ENDMDL
MODEL 2
REMARK VINA RESULT: -6.108004125      0.689      1.072
REMARK  4 active torsions:
REMARK  status: ('A' for Active; 'I' for Inactive)
REMARK    1  A    between atoms: O1_1  and  C1_3 
REMARK    2  A    between atoms: C4_6  and  C5_7 
REMARK    3  A    between atoms: C6_8  and  C7_9 
REMARK    4  A    between atoms: C7_9  and  N1_10 
ROOT
HETATM    1  C5  UNL     1     -26.413  -9.950   0.964  1.00  0.00    -0.018 C 
HETATM    2  C6  UNL     1     -25.301 -10.796   1.239  1.00  0.00     0.016 C 
ENDROOT
BRANCH   2   3
HETATM    3  C7  UNL     1     -24.041 -10.601   1.052  1.00  0.00     0.115 C 
BRANCH   3   4
HETATM    4  N1  UNL     1     -23.356 -11.177  -0.083  1.00  0.00    -0.279 N 
HETATM    5  C8  UNL     1     -23.868 -11.787  -1.151  1.00  0.00     0.117 A 
HETATM    6  C9  UNL     1     -22.842 -12.180  -1.986  1.00  0.00     0.038 A 
HETATM    7  C10 UNL     1     -21.675 -11.778  -1.369  1.00  0.00     0.109 A 
HETATM    8  N2  UNL     1     -22.050 -11.183  -0.233  1.00  0.00    -0.306 N 
ATOM      9  H2  UNL     1     -21.397 -10.781   0.441  1.00  0.00     0.186 HD
ENDBRANCH   3   4
ENDBRANCH   2   3
BRANCH   1  10
HETATM   10  C4  UNL     1     -26.334  -8.596   0.459  1.00  0.00     0.037 C 
HETATM   11  C1  UNL     1     -26.036  -7.407   1.278  1.00  0.00     0.126 C 
HETATM   12  C2  UNL     1     -26.702  -6.591   0.152  1.00  0.00     0.033 C 
HETATM   13  C3  UNL     1     -27.524  -7.872  -0.092  1.00  0.00     0.013 C 
BRANCH  11  14
HETATM   14  O1  UNL     1     -24.699  -7.003   1.341  1.00  0.00    -0.395 OA
ATOM     15  H1  UNL     1     -24.286  -7.279   0.531  1.00  0.00     0.210 HD
ENDBRANCH  11  14
ENDBRANCH   1  10
TORSDOF 4
ENDMDL
MODEL 3
REMARK VINA RESULT: -5.878684709      1.618      2.033
REMARK  4 active torsions:
REMARK  status: ('A' for Active; 'I' for Inactive)
REMARK    1  A    between atoms: O1_1  and  C1_3 
REMARK    2  A    between atoms: C4_6  and  C5_7 
REMARK    3  A    between atoms: C6_8  and  C7_9 
REMARK    4  A    between atoms: C7_9  and  N1_10 
ROOT
HETATM    1  C5  UNL     1     -25.421  -7.935   0.529  1.00  0.00    -0.018 C 
HETATM    2  C6  UNL     1     -24.252  -8.745   0.605  1.00  0.00     0.016 C 
ENDROOT
BRANCH   2   3
HETATM    3  C7  UNL     1     -24.118  -9.985   0.928  1.00  0.00     0.115 C 
BRANCH   3   4
HETATM    4  N1  UNL     1     -23.690 -10.969  -0.041  1.00  0.00    -0.279 N 
HETATM    5  C8  UNL     1     -22.454 -11.347  -0.363  1.00  0.00     0.117 A 
HETATM    6  C9  UNL     1     -22.515 -12.316  -1.342  1.00  0.00     0.038 A 
HETATM    7  C10 UNL     1     -23.856 -12.509  -1.603  1.00  0.00     0.109 A 
HETATM    8  N2  UNL     1     -24.509 -11.672  -0.792  1.00  0.00    -0.306 N 
ATOM      9  H2  UNL     1     -25.525 -11.589  -0.758  1.00  0.00     0.186 HD
ENDBRANCH   3   4
ENDBRANCH   2   3
BRANCH   1  10
HETATM   10  C4  UNL     1     -26.777  -8.395   0.743  1.00  0.00     0.037 C 
HETATM   11  C1  UNL     1     -27.484  -9.361  -0.117  1.00  0.00     0.126 C 
HETATM   12  C2  UNL     1     -28.784  -8.779   0.475  1.00  0.00     0.033 C 
HETATM   13  C3  UNL     1     -27.962  -7.485   0.633  1.00  0.00     0.013 C 
BRANCH  11  14
HETATM   14  O1  UNL     1     -27.427 -10.705   0.263  1.00  0.00    -0.395 OA
ATOM     15  H1  UNL     1     -27.052 -11.184  -0.466  1.00  0.00     0.210 HD
ENDBRANCH  11  14
ENDBRANCH   1  10
TORSDOF 4
ENDMDL
MODEL 4
REMARK VINA RESULT: -5.844375269      2.428      3.056
REMARK  4 active torsions:
REMARK  status: ('A' for Active; 'I' for Inactive)
REMARK    1  A    between atoms: O1_1  and  C1_3 
REMARK    2  A    between atoms: C4_6  and  C5_7 
REMARK    3  A    between atoms: C6_8  and  C7_9 
REMARK    4  A    between atoms: C7_9  and  N1_10 
ROOT
HETATM    1  C5  UNL     1     -27.113  -9.316   0.486  1.00  0.00    -0.018 C 
HETATM    2  C6  UNL     1     -25.747  -9.547   0.815  1.00  0.00     0.016 C 
ENDROOT
BRANCH   2   3
HETATM    3  C7  UNL     1     -25.115 -10.650   1.019  1.00  0.00     0.115 C 
BRANCH   3   4
HETATM    4  N1  UNL     1     -24.244 -11.212   0.011  1.00  0.00    -0.279 N 
HETATM    5  C8  UNL     1     -22.918 -11.130  -0.093  1.00  0.00     0.117 A 
HETATM    6  C9  UNL     1     -22.506 -11.816  -1.216  1.00  0.00     0.038 A 
HETATM    7  C10 UNL     1     -23.653 -12.321  -1.794  1.00  0.00     0.109 A 
HETATM    8  N2  UNL     1     -24.661 -11.924  -1.013  1.00  0.00    -0.306 N 
ATOM      9  H2  UNL     1     -25.641 -12.148  -1.189  1.00  0.00     0.186 HD
ENDBRANCH   3   4
ENDBRANCH   2   3
BRANCH   1  10
HETATM   10  C4  UNL     1     -28.100 -10.344   0.230  1.00  0.00     0.037 C 
HETATM   11  C1  UNL     1     -28.892 -10.462  -1.007  1.00  0.00     0.126 C 
HETATM   12  C2  UNL     1     -29.884 -11.295  -0.172  1.00  0.00     0.033 C 
HETATM   13  C3  UNL     1     -29.375 -10.448   1.011  1.00  0.00     0.013 C 
BRANCH  11  14
HETATM   14  O1  UNL     1     -28.386 -11.305  -2.002  1.00  0.00    -0.395 OA
ATOM     15  H1  UNL     1     -28.105 -10.751  -2.720  1.00  0.00     0.210 HD
ENDBRANCH  11  14
ENDBRANCH   1  10
TORSDOF 4
ENDMDL
MODEL 5
REMARK VINA RESULT: -5.829280887      2.798      5.760
REMARK  4 active torsions:
REMARK  status: ('A' for Active; 'I' for Inactive)
REMARK    1  A    between atoms: O1_1  and  C1_3 
REMARK    2  A    between atoms: C4_6  and  C5_7 
REMARK    3  A    between atoms: C6_8  and  C7_9 
REMARK    4  A    between atoms: C7_9  and  N1_10 
ROOT
HETATM    1  C5  UNL     1     -24.791 -11.204   0.189  1.00  0.00    -0.018 C 
HETATM    2  C6  UNL     1     -25.310 -10.026   0.797  1.00  0.00     0.016 C 
ENDROOT
BRANCH   2   3
HETATM    3  C7  UNL     1     -24.868  -8.816   0.780  1.00  0.00     0.115 C 
BRANCH   3   4
HETATM    4  N1  UNL     1     -25.770  -7.689   0.851  1.00  0.00    -0.279 N 
HETATM    5  C8  UNL     1     -26.399  -7.053  -0.137  1.00  0.00     0.117 A 
HETATM    6  C9  UNL     1     -27.160  -6.031   0.391  1.00  0.00     0.038 A 
HETATM    7  C10 UNL     1     -26.962  -6.077   1.756  1.00  0.00     0.109 A 
HETATM    8  N2  UNL     1     -26.119  -7.091   1.969  1.00  0.00    -0.306 N 
ATOM      9  H2  UNL     1     -25.784  -7.369   2.892  1.00  0.00     0.186 HD
ENDBRANCH   3   4
ENDBRANCH   2   3
BRANCH   1  10
HETATM   10  C4  UNL     1     -23.635 -11.262  -0.680  1.00  0.00     0.037 C 
HETATM   11  C1  UNL     1     -23.311 -12.385  -1.577  1.00  0.00     0.126 C 
HETATM   12  C2  UNL     1     -21.864 -11.851  -1.554  1.00  0.00     0.033 C 
HETATM   13  C3  UNL     1     -22.234 -11.326  -0.153  1.00  0.00     0.013 C 
BRANCH  11  14
HETATM   14  O1  UNL     1     -23.761 -12.289  -2.897  1.00  0.00    -0.395 OA
ATOM     15  H1  UNL     1     -24.694 -12.468  -2.887  1.00  0.00     0.210 HD
ENDBRANCH  11  14
ENDBRANCH   1  10
TORSDOF 4
ENDMDL
