MODEL 1
REMARK VINA RESULT: -6.167864536      0.000      0.000
REMARK  3 active torsions:
REMARK  status: ('A' for Active; 'I' for Inactive)
REMARK    1  A    between atoms: C1_1  and  C5_10 
REMARK    2  A    between atoms: N1_2  and  N2_4 
REMARK    3  A    between atoms: N2_4  and  C2_6 
ROOT
HETATM    1  C1  UNL     1     -24.684  -9.180   0.850  1.00  0.00     0.118 C 
HETATM    2  N1  UNL     1     -23.773  -9.282  -0.028  1.00  0.00    -0.313 N 
ATOM      3  H1  UNL     1     -23.919  -8.784  -0.906  1.00  0.00     0.185 HD
ENDROOT
BRANCH   2   4
HETATM    4  N2  UNL     1     -22.606 -10.002   0.092  1.00  0.00    -0.308 N 
ATOM      5  H2  UNL     1     -21.732  -9.542   0.346  1.00  0.00     0.183 HD
BRANCH   4   6
HETATM    6  C2  UNL     1     -22.649 -11.431  -0.150  1.00  0.00     0.237 C 
HETATM    7  C3  UNL     1     -21.916 -11.827  -1.426  1.00  0.00     0.081 C 
HETATM    8  C4  UNL     1     -23.213 -12.485  -1.829  1.00  0.00     0.175 C 
HETATM    9  O1  UNL     1     -23.820 -11.858  -0.739  1.00  0.00    -0.365 OA
ENDBRANCH   4   6
ENDBRANCH   2   4
BRANCH   1  10
HETATM   10  C5  UNL     1     -25.871  -8.387   0.600  1.00  0.00    -0.019 A 
HETATM   11  C6  UNL     1     -27.096  -9.005   0.484  1.00  0.00     0.013 A 
HETATM   12  C7  UNL     1     -28.259  -8.266   0.242  1.00  0.00     0.001 A 
HETATM   13  C8  UNL     1     -28.162  -6.895   0.120  1.00  0.00     0.000 A 
HETATM   14  C9  UNL     1     -26.925  -6.282   0.239  1.00  0.00     0.001 A 
HETATM   15  C10 UNL     1     -25.770  -7.034   0.480  1.00  0.00     0.013 A 
ENDBRANCH   1  10
TORSDOF 3
ENDMDL
MODEL 2
REMARK VINA RESULT: -6.127506581      0.220      1.325
REMARK  3 active torsions:
REMARK  status: ('A' for Active; 'I' for Inactive)
REMARK    1  A    between atoms: C1_1  and  C5_10 
REMARK    2  A    between atoms: N1_2  and  N2_4 
REMARK    3  A    between atoms: N2_4  and  C2_6 
ROOT
HETATM    1  C1  UNL     1     -24.744  -9.188   0.911  1.00  0.00     0.118 C 
HETATM    2  N1  UNL     1     -23.843  -9.231   0.017  1.00  0.00    -0.313 N 
ATOM      3  H1  UNL     1     -23.996  -8.670  -0.821  1.00  0.00     0.185 HD
ENDROOT
BRANCH   2   4
HETATM    4  N2  UNL     1     -22.679  -9.962   0.073  1.00  0.00    -0.308 N 
ATOM      5  H2  UNL     1     -21.785  -9.507   0.263  1.00  0.00     0.183 HD
BRANCH   4   6
HETATM    6  C2  UNL     1     -22.752 -11.393  -0.144  1.00  0.00     0.237 C 
HETATM    7  C3  UNL     1     -21.990 -11.832  -1.389  1.00  0.00     0.081 C 
HETATM    8  C4  UNL     1     -23.291 -12.464  -1.820  1.00  0.00     0.175 C 
HETATM    9  O1  UNL     1     -23.915 -11.801  -0.762  1.00  0.00    -0.365 OA
ENDBRANCH   4   6
ENDBRANCH   2   4
BRANCH   1  10
HETATM   10  C5  UNL     1     -25.930  -8.375   0.731  1.00  0.00    -0.019 A 
HETATM   11  C6  UNL     1     -25.857  -7.009   0.900  1.00  0.00     0.013 A 
HETATM   12  C7  UNL     1     -26.985  -6.199   0.733  1.00  0.00     0.001 A 
HETATM   13  C8  UNL     1     -28.185  -6.790   0.395  1.00  0.00     0.000 A 
HETATM   14  C9  UNL     1     -28.249  -8.163   0.227  1.00  0.00     0.001 A 
HETATM   15  C10 UNL     1     -27.112  -8.963   0.397  1.00  0.00     0.013 A 
ENDBRANCH   1  10
TORSDOF 3
ENDMDL
MODEL 3
REMARK VINA RESULT: -6.038175775      3.052      5.682
REMARK  3 active torsions:
REMARK  status: ('A' for Active; 'I' for Inactive)
REMARK    1  A    between atoms: C1_1  and  C5_10 
REMARK    2  A    between atoms: N1_2  and  N2_4 
REMARK    3  A    between atoms: N2_4  and  C2_6 
ROOT
HETATM    1  C1  UNL     1     -25.569 -10.538   0.784  1.00  0.00     0.118 C 
HETATM    2  N1  UNL     1     -26.729 -10.679   0.287  1.00  0.00    -0.313 N 
ATOM      3  H1  UNL     1     -26.789 -11.133  -0.625  1.00  0.00     0.185 HD
ENDROOT
BRANCH   2   4
HETATM    4  N2  UNL     1     -27.913 -10.279   0.862  1.00  0.00    -0.308 N 
ATOM      5  H2  UNL     1     -27.991 -10.167   1.873  1.00  0.00     0.183 HD
BRANCH   4   6
HETATM    6  C2  UNL     1     -29.047 -10.018  -0.003  1.00  0.00     0.237 C 
HETATM    7  C3  UNL     1     -28.777 -10.417  -1.450  1.00  0.00     0.081 C 
HETATM    8  C4  UNL     1     -29.156  -8.996  -1.790  1.00  0.00     0.175 C 
HETATM    9  O1  UNL     1     -29.133  -8.708  -0.424  1.00  0.00    -0.365 OA
ENDBRANCH   4   6
ENDBRANCH   2   4
BRANCH   1  10
HETATM   10  C5  UNL     1     -24.395 -11.006   0.075  1.00  0.00    -0.019 A 
HETATM   11  C6  UNL     1     -24.538 -11.846  -1.008  1.00  0.00     0.013 A 
HETATM   12  C7  UNL     1     -23.423 -12.314  -1.712  1.00  0.00     0.001 A 
HETATM   13  C8  UNL     1     -22.165 -11.920  -1.304  1.00  0.00     0.000 A 
HETATM   14  C9  UNL     1     -22.032 -11.074  -0.214  1.00  0.00     0.001 A 
HETATM   15  C10 UNL     1     -23.156 -10.614   0.481  1.00  0.00     0.013 A 
ENDBRANCH   1  10
TORSDOF 3
ENDMDL
MODEL 4
REMARK VINA RESULT: -6.020394445      3.031      5.805
REMARK  3 active torsions:
REMARK  status: ('A' for Active; 'I' for Inactive)
REMARK    1  A    between atoms: C1_1  and  C5_10 
REMARK    2  A    between atoms: N1_2  and  N2_4 
REMARK    3  A    between atoms: N2_4  and  C2_6 
ROOT
HETATM    1  C1  UNL     1     -25.504 -10.421   0.672  1.00  0.00     0.118 C 
HETATM    2  N1  UNL     1     -26.683 -10.687   0.283  1.00  0.00    -0.313 N 
ATOM      3  H1  UNL     1     -26.775 -11.299  -0.528  1.00  0.00     0.185 HD
ENDROOT
BRANCH   2   4
HETATM    4  N2  UNL     1     -27.849 -10.228   0.852  1.00  0.00    -0.308 N 
ATOM      5  H2  UNL     1     -27.898 -10.028   1.851  1.00  0.00     0.183 HD
BRANCH   4   6
HETATM    6  C2  UNL     1     -29.004 -10.034  -0.002  1.00  0.00     0.237 C 
HETATM    7  C3  UNL     1     -28.736 -10.447  -1.445  1.00  0.00     0.081 C 
HETATM    8  C4  UNL     1     -29.182  -9.051  -1.805  1.00  0.00     0.175 C 
HETATM    9  O1  UNL     1     -29.154  -8.737  -0.444  1.00  0.00    -0.365 OA
ENDBRANCH   4   6
ENDBRANCH   2   4
BRANCH   1  10
HETATM   10  C5  UNL     1     -24.353 -10.970  -0.017  1.00  0.00    -0.019 A 
HETATM   11  C6  UNL     1     -23.083 -10.642   0.402  1.00  0.00     0.013 A 
HETATM   12  C7  UNL     1     -21.953 -11.157  -0.243  1.00  0.00     0.001 A 
HETATM   13  C8  UNL     1     -22.130 -12.006  -1.316  1.00  0.00     0.000 A 
HETATM   14  C9  UNL     1     -23.411 -12.331  -1.730  1.00  0.00     0.001 A 
HETATM   15  C10 UNL     1     -24.533 -11.808  -1.076  1.00  0.00     0.013 A 
ENDBRANCH   1  10
TORSDOF 3
ENDMDL
MODEL 5
REMARK VINA RESULT: -6.010810892      2.983      5.811
REMARK  3 active torsions:
REMARK  status: ('A' for Active; 'I' for Inactive)
REMARK    1  A    between atoms: C1_1  and  C5_10 
REMARK    2  A    between atoms: N1_2  and  N2_4 
REMARK    3  A    between atoms: N2_4  and  C2_6 
ROOT
HETATM    1  C1  UNL     1     -25.494 -10.500   0.842  1.00  0.00     0.118 C 
HETATM    2  N1  UNL     1     -26.675 -10.614   0.391  1.00  0.00    -0.313 N 
ATOM      3  H1  UNL     1     -26.783 -11.080  -0.511  1.00  0.00     0.185 HD
ENDROOT
BRANCH   2   4
HETATM    4  N2  UNL     1     -27.824 -10.170   1.004  1.00  0.00    -0.308 N 
ATOM      5  H2  UNL     1     -27.810  -9.856   1.974  1.00  0.00     0.183 HD
BRANCH   4   6
HETATM    6  C2  UNL     1     -29.055 -10.159   0.237  1.00  0.00     0.237 C 
HETATM    7  C3  UNL     1     -30.152 -10.995   0.887  1.00  0.00     0.081 C 
HETATM    8  C4  UNL     1     -30.223 -11.718  -0.436  1.00  0.00     0.175 C 
HETATM    9  O1  UNL     1     -29.059 -11.047  -0.817  1.00  0.00    -0.365 OA
ENDBRANCH   4   6
ENDBRANCH   2   4
BRANCH   1  10
HETATM   10  C5  UNL     1     -24.362 -11.013   0.096  1.00  0.00    -0.019 A 
HETATM   11  C6  UNL     1     -24.571 -11.844  -0.983  1.00  0.00     0.013 A 
HETATM   12  C7  UNL     1     -23.498 -12.354  -1.721  1.00  0.00     0.001 A 
HETATM   13  C8  UNL     1     -22.214 -12.012  -1.352  1.00  0.00     0.000 A 
HETATM   14  C9  UNL     1     -22.013 -11.176  -0.265  1.00  0.00     0.001 A 
HETATM   15  C10 UNL     1     -23.096 -10.672   0.465  1.00  0.00     0.013 A 
ENDBRANCH   1  10
TORSDOF 3
ENDMDL
