MODEL 1
REMARK VINA RESULT: -5.961948744      0.000      0.000
REMARK  3 active torsions:
REMARK  status: ('A' for Active; 'I' for Inactive)
REMARK    1  A    between atoms: O1_2  and  C2_3 
REMARK    2  A    between atoms: C2_3  and  C3_4 
REMARK    3  A    between atoms: N1_7  and  O2_8 
ROOT
HETATM    1  C2  UNL     1      37.183 -40.141  28.654  1.00  0.00     0.212 C 
HETATM    2  C8  UNL     1      36.042 -39.334  29.125  1.00  0.00     0.045 C 
HETATM    3  C9  UNL     1      34.768 -39.608  28.864  1.00  0.00     0.014 C 
HETATM    4  C10 UNL     1      34.452 -40.799  28.048  1.00  0.00     0.216 C 
HETATM    5  F1  UNL     1      33.393 -40.510  27.230  1.00  0.00    -0.243 F 
HETATM    6  C11 UNL     1      35.664 -41.101  27.196  1.00  0.00     0.213 C 
HETATM    7  O3  UNL     1      36.814 -41.257  27.942  1.00  0.00    -0.345 OA
ENDROOT
BRANCH   1   8
HETATM    8  O1  UNL     1      37.907 -40.521  29.805  1.00  0.00    -0.353 OA
HETATM    9  C1  UNL     1      38.463 -41.787  29.652  1.00  0.00     0.206 C 
ENDBRANCH   1   8
BRANCH   1  10
HETATM   10  C3  UNL     1      38.090 -39.286  27.850  1.00  0.00     0.010 A 
HETATM   11  C4  UNL     1      38.774 -39.769  26.753  1.00  0.00     0.033 A 
HETATM   12  C5  UNL     1      39.621 -38.951  26.008  1.00  0.00     0.123 A 
HETATM   13  N1  UNL     1      39.786 -37.661  26.356  1.00  0.00    -0.247 N 
HETATM   14  C6  UNL     1      39.116 -37.194  27.429  1.00  0.00     0.123 A 
HETATM   15  C7  UNL     1      38.279 -37.947  28.188  1.00  0.00     0.033 A 
BRANCH  13  16
HETATM   16  O2  UNL     1      40.631 -36.857  25.611  1.00  0.00    -0.284 OA
ATOM     17  H2  UNL     1      40.754 -35.949  25.861  1.00  0.00     0.245 HD
ENDBRANCH  13  16
ENDBRANCH   1  10
TORSDOF 3
ENDMDL
MODEL 2
REMARK VINA RESULT: -5.951098777      0.032      1.172
REMARK  3 active torsions:
REMARK  status: ('A' for Active; 'I' for Inactive)
REMARK    1  A    between atoms: O1_2  and  C2_3 
REMARK    2  A    between atoms: C2_3  and  C3_4 
REMARK    3  A    between atoms: N1_7  and  O2_8 
ROOT
HETATM    1  C2  UNL     1      37.179 -40.129  28.662  1.00  0.00     0.212 C 
HETATM    2  C8  UNL     1      36.032 -39.335  29.141  1.00  0.00     0.045 C 
HETATM    3  C9  UNL     1      34.760 -39.617  28.877  1.00  0.00     0.014 C 
HETATM    4  C10 UNL     1      34.454 -40.802  28.048  1.00  0.00     0.216 C 
HETATM    5  F1  UNL     1      33.392 -40.513  27.232  1.00  0.00    -0.243 F 
HETATM    6  C11 UNL     1      35.667 -41.086  27.194  1.00  0.00     0.213 C 
HETATM    7  O3  UNL     1      36.819 -41.240  27.938  1.00  0.00    -0.345 OA
ENDROOT
BRANCH   1   8
HETATM    8  O1  UNL     1      37.906 -40.514  29.809  1.00  0.00    -0.353 OA
HETATM    9  C1  UNL     1      38.466 -41.777  29.646  1.00  0.00     0.206 C 
ENDBRANCH   1   8
BRANCH   1  10
HETATM   10  C3  UNL     1      38.079 -39.258  27.867  1.00  0.00     0.010 A 
HETATM   11  C4  UNL     1      38.296 -37.934  28.191  1.00  0.00     0.033 A 
HETATM   12  C5  UNL     1      39.144 -37.131  27.433  1.00  0.00     0.123 A 
HETATM   13  N1  UNL     1      39.772 -37.644  26.357  1.00  0.00    -0.247 N 
HETATM   14  C6  UNL     1      39.556 -38.938  26.045  1.00  0.00     0.123 A 
HETATM   15  C7  UNL     1      38.740 -39.763  26.749  1.00  0.00     0.033 A 
BRANCH  13  16
HETATM   16  O2  UNL     1      40.612 -36.837  25.610  1.00  0.00    -0.284 OA
ATOM     17  H2  UNL     1      41.529 -36.766  25.851  1.00  0.00     0.245 HD
ENDBRANCH  13  16
ENDBRANCH   1  10
TORSDOF 3
ENDMDL
MODEL 3
REMARK VINA RESULT: -5.947003225      2.986      5.021
REMARK  3 active torsions:
REMARK  status: ('A' for Active; 'I' for Inactive)
REMARK    1  A    between atoms: O1_2  and  C2_3 
REMARK    2  A    between atoms: C2_3  and  C3_4 
REMARK    3  A    between atoms: N1_7  and  O2_8 
ROOT
HETATM    1  C2  UNL     1      37.350 -39.995  28.479  1.00  0.00     0.212 C 
HETATM    2  C8  UNL     1      37.859 -40.255  27.119  1.00  0.00     0.045 C 
HETATM    3  C9  UNL     1      38.793 -39.528  26.513  1.00  0.00     0.014 C 
HETATM    4  C10 UNL     1      39.374 -38.377  27.236  1.00  0.00     0.216 C 
HETATM    5  F1  UNL     1      39.595 -37.358  26.347  1.00  0.00    -0.243 F 
HETATM    6  C11 UNL     1      38.359 -37.924  28.261  1.00  0.00     0.213 C 
HETATM    7  O3  UNL     1      37.966 -38.940  29.107  1.00  0.00    -0.345 OA
ENDROOT
BRANCH   1   8
HETATM    8  O1  UNL     1      37.553 -41.182  29.215  1.00  0.00    -0.353 OA
HETATM    9  C1  UNL     1      38.803 -41.184  29.826  1.00  0.00     0.206 C 
ENDBRANCH   1   8
BRANCH   1  10
HETATM   10  C3  UNL     1      35.884 -39.782  28.420  1.00  0.00     0.010 A 
HETATM   11  C4  UNL     1      35.230 -38.930  29.288  1.00  0.00     0.033 A 
HETATM   12  C5  UNL     1      33.851 -38.742  29.219  1.00  0.00     0.123 A 
HETATM   13  N1  UNL     1      33.129 -39.399  28.291  1.00  0.00    -0.247 N 
HETATM   14  C6  UNL     1      33.772 -40.229  27.446  1.00  0.00     0.123 A 
HETATM   15  C7  UNL     1      35.112 -40.449  27.471  1.00  0.00     0.033 A 
BRANCH  13  16
HETATM   16  O2  UNL     1      31.760 -39.205  28.231  1.00  0.00    -0.284 OA
ATOM     17  H2  UNL     1      31.249 -39.228  29.032  1.00  0.00     0.245 HD
ENDBRANCH  13  16
ENDBRANCH   1  10
TORSDOF 3
ENDMDL
MODEL 4
REMARK VINA RESULT: -5.935956764      3.007      4.787
REMARK  3 active torsions:
REMARK  status: ('A' for Active; 'I' for Inactive)
REMARK    1  A    between atoms: O1_2  and  C2_3 
REMARK    2  A    between atoms: C2_3  and  C3_4 
REMARK    3  A    between atoms: N1_7  and  O2_8 
ROOT
HETATM    1  C2  UNL     1      37.338 -40.133  28.128  1.00  0.00     0.212 C 
HETATM    2  C8  UNL     1      37.942 -39.870  29.448  1.00  0.00     0.045 C 
HETATM    3  C9  UNL     1      38.625 -40.764  30.155  1.00  0.00     0.014 C 
HETATM    4  C10 UNL     1      38.802 -42.122  29.598  1.00  0.00     0.216 C 
HETATM    5  F1  UNL     1      38.726 -43.035  30.616  1.00  0.00    -0.243 F 
HETATM    6  C11 UNL     1      37.668 -42.369  28.630  1.00  0.00     0.213 C 
HETATM    7  O3  UNL     1      37.582 -41.399  27.652  1.00  0.00    -0.345 OA
ENDROOT
BRANCH   1   8
HETATM    8  O1  UNL     1      37.874 -39.173  27.244  1.00  0.00    -0.353 OA
HETATM    9  C1  UNL     1      39.075 -39.612  26.695  1.00  0.00     0.206 C 
ENDBRANCH   1   8
BRANCH   1  10
HETATM   10  C3  UNL     1      35.879 -39.875  28.197  1.00  0.00     0.010 A 
HETATM   11  C4  UNL     1      34.986 -40.474  27.332  1.00  0.00     0.033 A 
HETATM   12  C5  UNL     1      33.618 -40.219  27.410  1.00  0.00     0.123 A 
HETATM   13  N1  UNL     1      33.145 -39.372  28.344  1.00  0.00    -0.247 N 
HETATM   14  C6  UNL     1      34.022 -38.790  29.186  1.00  0.00     0.123 A 
HETATM   15  C7  UNL     1      35.362 -39.003  29.153  1.00  0.00     0.033 A 
BRANCH  13  16
HETATM   16  O2  UNL     1      31.785 -39.126  28.413  1.00  0.00    -0.284 OA
ATOM     17  H2  UNL     1      31.291 -39.434  29.164  1.00  0.00     0.245 HD
ENDBRANCH  13  16
ENDBRANCH   1  10
TORSDOF 3
ENDMDL
MODEL 5
REMARK VINA RESULT: -5.932168837      3.005      4.918
REMARK  3 active torsions:
REMARK  status: ('A' for Active; 'I' for Inactive)
REMARK    1  A    between atoms: O1_2  and  C2_3 
REMARK    2  A    between atoms: C2_3  and  C3_4 
REMARK    3  A    between atoms: N1_7  and  O2_8 
ROOT
HETATM    1  C2  UNL     1      37.339 -40.141  28.119  1.00  0.00     0.212 C 
HETATM    2  C8  UNL     1      37.943 -39.873  29.437  1.00  0.00     0.045 C 
HETATM    3  C9  UNL     1      38.627 -40.765  30.147  1.00  0.00     0.014 C 
HETATM    4  C10 UNL     1      38.805 -42.124  29.594  1.00  0.00     0.216 C 
HETATM    5  F1  UNL     1      38.730 -43.034  30.615  1.00  0.00    -0.243 F 
HETATM    6  C11 UNL     1      37.671 -42.375  28.627  1.00  0.00     0.213 C 
HETATM    7  O3  UNL     1      37.584 -41.408  27.646  1.00  0.00    -0.345 OA
ENDROOT
BRANCH   1   8
HETATM    8  O1  UNL     1      37.874 -39.183  27.231  1.00  0.00    -0.353 OA
HETATM    9  C1  UNL     1      39.087 -39.612  26.703  1.00  0.00     0.206 C 
ENDBRANCH   1   8
BRANCH   1  10
HETATM   10  C3  UNL     1      35.880 -39.884  28.187  1.00  0.00     0.010 A 
HETATM   11  C4  UNL     1      35.326 -39.037  29.126  1.00  0.00     0.033 A 
HETATM   12  C5  UNL     1      33.953 -38.807  29.175  1.00  0.00     0.123 A 
HETATM   13  N1  UNL     1      33.138 -39.418  28.295  1.00  0.00    -0.247 N 
HETATM   14  C6  UNL     1      33.683 -40.244  27.380  1.00  0.00     0.123 A 
HETATM   15  C7  UNL     1      35.013 -40.503  27.288  1.00  0.00     0.033 A 
BRANCH  13  16
HETATM   16  O2  UNL     1      31.774 -39.183  28.353  1.00  0.00    -0.284 OA
ATOM     17  H2  UNL     1      31.253 -39.256  27.562  1.00  0.00     0.245 HD
ENDBRANCH  13  16
ENDBRANCH   1  10
TORSDOF 3
ENDMDL
