MODEL 1
REMARK VINA RESULT: -6.081391644      0.000      0.000
REMARK  4 active torsions:
REMARK  status: ('A' for Active; 'I' for Inactive)
REMARK    1  A    between atoms: O1_1  and  C1_3 
REMARK    2  A    between atoms: C1_3  and  C2_4 
REMARK    3  A    between atoms: C3_5  and  C4_6 
REMARK    4  A    between atoms: C4_6  and  C5_7 
ROOT
HETATM    1  C5  UNL     1    -108.790  43.338  29.048  1.00  0.00     0.325 C 
HETATM    2  N1  UNL     1    -107.532  43.925  29.339  1.00  0.00    -0.373 N 
ATOM      3  H1  UNL     1    -107.522  44.674  30.031  1.00  0.00     0.160 HD
HETATM    4  C6  UNL     1    -106.426  43.610  28.827  1.00  0.00     0.059 C 
HETATM    5  C7  UNL     1    -106.423  42.517  27.814  1.00  0.00     0.080 C 
HETATM    6  C8  UNL     1    -107.447  41.506  28.245  1.00  0.00     0.232 C 
HETATM    7  C9  UNL     1    -108.000  40.799  27.001  1.00  0.00     0.066 C 
HETATM    8  C10 UNL     1    -108.991  41.970  27.032  1.00  0.00     0.278 C 
HETATM    9  N2  UNL     1    -108.749  42.065  28.437  1.00  0.00     0.116 N 
ENDROOT
BRANCH   1  10
HETATM   10  C4  UNL     1    -109.618  44.362  28.259  1.00  0.00     0.084 C 
BRANCH  10  11
HETATM   11  C3  UNL     1    -110.805  44.693  29.092  1.00  0.00    -0.025 C 
HETATM   12  C2  UNL     1    -111.237  45.909  29.346  1.00  0.00    -0.005 C 
BRANCH  12  13
HETATM   13  C1  UNL     1    -110.650  47.167  28.869  1.00  0.00     0.191 C 
BRANCH  13  14
HETATM   14  O1  UNL     1    -111.657  48.156  28.862  1.00  0.00    -0.397 OA
ATOM     15  H1  UNL     1    -111.614  48.635  29.681  1.00  0.00     0.209 HD
ENDBRANCH  13  14
ENDBRANCH  12  13
ENDBRANCH  10  11
ENDBRANCH   1  10
TORSDOF 4
ENDMDL
MODEL 2
REMARK VINA RESULT: -5.445658463      1.556      1.903
REMARK  4 active torsions:
REMARK  status: ('A' for Active; 'I' for Inactive)
REMARK    1  A    between atoms: O1_1  and  C1_3 
REMARK    2  A    between atoms: C1_3  and  C2_4 
REMARK    3  A    between atoms: C3_5  and  C4_6 
REMARK    4  A    between atoms: C4_6  and  C5_7 
ROOT
HETATM    1  C5  UNL     1    -107.118  42.829  29.195  1.00  0.00     0.325 C 
HETATM    2  N1  UNL     1    -106.205  43.879  28.917  1.00  0.00    -0.373 N 
ATOM      3  H1  UNL     1    -106.301  44.731  29.469  1.00  0.00     0.160 HD
HETATM    4  C6  UNL     1    -105.288  43.860  28.054  1.00  0.00     0.059 C 
HETATM    5  C7  UNL     1    -105.134  42.624  27.238  1.00  0.00     0.080 C 
HETATM    6  C8  UNL     1    -105.445  41.457  28.134  1.00  0.00     0.232 C 
HETATM    7  C9  UNL     1    -106.000  40.311  27.279  1.00  0.00     0.066 C 
HETATM    8  C10 UNL     1    -107.330  41.019  27.565  1.00  0.00     0.278 C 
HETATM    9  N2  UNL     1    -106.731  41.545  28.752  1.00  0.00     0.116 N 
ENDROOT
BRANCH   1  10
HETATM   10  C4  UNL     1    -108.500  43.255  28.682  1.00  0.00     0.084 C 
BRANCH  10  11
HETATM   11  C3  UNL     1    -108.951  44.383  29.541  1.00  0.00    -0.025 C 
HETATM   12  C2  UNL     1    -110.129  44.964  29.473  1.00  0.00    -0.005 C 
BRANCH  12  13
HETATM   13  C1  UNL     1    -111.222  44.627  28.553  1.00  0.00     0.191 C 
BRANCH  13  14
HETATM   14  O1  UNL     1    -111.982  45.792  28.316  1.00  0.00    -0.397 OA
ATOM     15  H1  UNL     1    -112.632  45.598  27.650  1.00  0.00     0.209 HD
ENDBRANCH  13  14
ENDBRANCH  12  13
ENDBRANCH  10  11
ENDBRANCH   1  10
TORSDOF 4
ENDMDL
MODEL 3
REMARK VINA RESULT: -5.128213092      0.893      2.109
REMARK  4 active torsions:
REMARK  status: ('A' for Active; 'I' for Inactive)
REMARK    1  A    between atoms: O1_1  and  C1_3 
REMARK    2  A    between atoms: C1_3  and  C2_4 
REMARK    3  A    between atoms: C3_5  and  C4_6 
REMARK    4  A    between atoms: C4_6  and  C5_7 
ROOT
HETATM    1  C5  UNL     1    -108.365  43.853  28.354  1.00  0.00     0.325 C 
HETATM    2  N1  UNL     1    -109.232  42.938  27.703  1.00  0.00    -0.373 N 
ATOM      3  H1  UNL     1    -110.096  43.319  27.315  1.00  0.00     0.160 HD
HETATM    4  C6  UNL     1    -109.039  41.703  27.557  1.00  0.00     0.059 C 
HETATM    5  C7  UNL     1    -107.783  41.131  28.117  1.00  0.00     0.080 C 
HETATM    6  C8  UNL     1    -106.703  42.160  27.932  1.00  0.00     0.232 C 
HETATM    7  C9  UNL     1    -105.660  41.990  29.044  1.00  0.00     0.066 C 
HETATM    8  C10 UNL     1    -106.597  42.954  29.783  1.00  0.00     0.278 C 
HETATM    9  N2  UNL     1    -107.026  43.429  28.505  1.00  0.00     0.116 N 
ENDROOT
BRANCH   1  10
HETATM   10  C4  UNL     1    -109.022  44.269  29.677  1.00  0.00     0.084 C 
BRANCH  10  11
HETATM   11  C3  UNL     1    -110.469  44.465  29.398  1.00  0.00    -0.025 C 
HETATM   12  C2  UNL     1    -111.036  45.616  29.106  1.00  0.00    -0.005 C 
BRANCH  12  13
HETATM   13  C1  UNL     1    -110.369  46.920  28.996  1.00  0.00     0.191 C 
BRANCH  13  14
HETATM   14  O1  UNL     1    -111.346  47.932  29.103  1.00  0.00    -0.397 OA
ATOM     15  H1  UNL     1    -110.974  48.660  29.586  1.00  0.00     0.209 HD
ENDBRANCH  13  14
ENDBRANCH  12  13
ENDBRANCH  10  11
ENDBRANCH   1  10
TORSDOF 4
ENDMDL
MODEL 4
REMARK VINA RESULT: -4.942295662      1.304      2.474
REMARK  4 active torsions:
REMARK  status: ('A' for Active; 'I' for Inactive)
REMARK    1  A    between atoms: O1_1  and  C1_3 
REMARK    2  A    between atoms: C1_3  and  C2_4 
REMARK    3  A    between atoms: C3_5  and  C4_6 
REMARK    4  A    between atoms: C4_6  and  C5_7 
ROOT
HETATM    1  C5  UNL     1    -108.101  42.988  27.884  1.00  0.00     0.325 C 
HETATM    2  N1  UNL     1    -108.726  41.903  27.219  1.00  0.00    -0.373 N 
ATOM      3  H1  UNL     1    -109.617  42.095  26.759  1.00  0.00     0.160 HD
HETATM    4  C6  UNL     1    -108.289  40.725  27.140  1.00  0.00     0.059 C 
HETATM    5  C7  UNL     1    -106.990  40.426  27.805  1.00  0.00     0.080 C 
HETATM    6  C8  UNL     1    -106.119  41.640  27.647  1.00  0.00     0.232 C 
HETATM    7  C9  UNL     1    -105.146  41.710  28.831  1.00  0.00     0.066 C 
HETATM    8  C10 UNL     1    -106.302  42.494  29.465  1.00  0.00     0.278 C 
HETATM    9  N2  UNL     1    -106.721  42.838  28.142  1.00  0.00     0.116 N 
ENDROOT
BRANCH   1  10
HETATM   10  C4  UNL     1    -108.920  43.307  29.143  1.00  0.00     0.084 C 
BRANCH  10  11
HETATM   11  C3  UNL     1    -108.839  44.778  29.350  1.00  0.00    -0.025 C 
HETATM   12  C2  UNL     1    -109.834  45.622  29.192  1.00  0.00    -0.005 C 
BRANCH  12  13
HETATM   13  C1  UNL     1    -111.207  45.295  28.785  1.00  0.00     0.191 C 
BRANCH  13  14
HETATM   14  O1  UNL     1    -112.046  46.375  29.134  1.00  0.00    -0.397 OA
ATOM     15  H1  UNL     1    -112.692  46.065  29.757  1.00  0.00     0.209 HD
ENDBRANCH  13  14
ENDBRANCH  12  13
ENDBRANCH  10  11
ENDBRANCH   1  10
TORSDOF 4
ENDMDL
MODEL 5
REMARK VINA RESULT: -4.821435041      3.326      5.086
REMARK  4 active torsions:
REMARK  status: ('A' for Active; 'I' for Inactive)
REMARK    1  A    between atoms: O1_1  and  C1_3 
REMARK    2  A    between atoms: C1_3  and  C2_4 
REMARK    3  A    between atoms: C3_5  and  C4_6 
REMARK    4  A    between atoms: C4_6  and  C5_7 
ROOT
HETATM    1  C5  UNL     1    -105.450  42.640  29.294  1.00  0.00     0.325 C 
HETATM    2  N1  UNL     1    -104.936  41.724  28.340  1.00  0.00    -0.373 N 
ATOM      3  H1  UNL     1    -103.959  41.450  28.445  1.00  0.00     0.160 HD
HETATM    4  C6  UNL     1    -105.569  41.215  27.378  1.00  0.00     0.059 C 
HETATM    5  C7  UNL     1    -106.997  41.605  27.211  1.00  0.00     0.080 C 
HETATM    6  C8  UNL     1    -107.580  41.763  28.587  1.00  0.00     0.232 C 
HETATM    7  C9  UNL     1    -108.713  42.796  28.529  1.00  0.00     0.066 C 
HETATM    8  C10 UNL     1    -107.559  43.770  28.792  1.00  0.00     0.278 C 
HETATM    9  N2  UNL     1    -106.857  42.686  29.405  1.00  0.00     0.116 N 
ENDROOT
BRANCH   1  10
HETATM   10  C4  UNL     1    -104.818  44.012  29.020  1.00  0.00     0.084 C 
BRANCH  10  11
HETATM   11  C3  UNL     1    -103.538  44.057  29.775  1.00  0.00    -0.025 C 
HETATM   12  C2  UNL     1    -102.762  45.113  29.889  1.00  0.00    -0.005 C 
BRANCH  12  13
HETATM   13  C1  UNL     1    -102.994  46.441  29.306  1.00  0.00     0.191 C 
BRANCH  13  14
HETATM   14  O1  UNL     1    -103.339  47.331  30.345  1.00  0.00    -0.397 OA
ATOM     15  H1  UNL     1    -102.740  47.195  31.070  1.00  0.00     0.209 HD
ENDBRANCH  13  14
ENDBRANCH  12  13
ENDBRANCH  10  11
ENDBRANCH   1  10
TORSDOF 4
ENDMDL
