MODEL 1
REMARK VINA RESULT: -5.503252372      0.000      0.000
REMARK  4 active torsions:
REMARK  status: ('A' for Active; 'I' for Inactive)
REMARK    1  A    between atoms: C2_2  and  C3_3 
REMARK    2  A    between atoms: C3_3  and  C4_4 
REMARK    3  A    between atoms: C4_4  and  C5_5 
REMARK    4  A    between atoms: C9_10  and  O1_11 
ROOT
HETATM    1  C5  UNL     1    -110.327  44.243  29.684  1.00  0.00     0.124 C 
HETATM    2  C6  UNL     1    -111.126  45.258  29.026  1.00  0.00     0.059 C 
HETATM    3  N1  UNL     1    -111.776  46.070  28.516  1.00  0.00    -0.197 NA
ENDROOT
BRANCH   1   4
HETATM    4  C4  UNL     1    -108.924  44.178  29.071  1.00  0.00     0.017 C 
BRANCH   4   5
HETATM    5  C3  UNL     1    -108.860  42.878  28.308  1.00  0.00     0.038 C 
BRANCH   5   6
HETATM    6  C2  UNL     1    -107.472  42.263  28.358  1.00  0.00     0.057 C 
HETATM    7  C1  UNL     1    -107.683  40.752  28.386  1.00  0.00     0.046 C 
HETATM    8  C7  UNL     1    -106.714  42.693  27.139  1.00  0.00     0.040 C 
HETATM    9  C8  UNL     1    -105.226  42.693  27.317  1.00  0.00     0.036 C 
HETATM   10  C9  UNL     1    -104.805  43.189  28.683  1.00  0.00     0.142 C 
HETATM   11  C10 UNL     1    -105.589  42.387  29.701  1.00  0.00     0.200 C 
HETATM   12  O2  UNL     1    -106.916  42.651  29.546  1.00  0.00    -0.378 OA
BRANCH  10  13
HETATM   13  O1  UNL     1    -105.040  44.530  28.863  1.00  0.00    -0.393 OA
ATOM     14  H1  UNL     1    -105.564  44.715  29.634  1.00  0.00     0.210 HD
ENDBRANCH  10  13
ENDBRANCH   5   6
ENDBRANCH   4   5
ENDBRANCH   1   4
TORSDOF 4
ENDMDL
MODEL 2
REMARK VINA RESULT: -5.393163798      1.378      2.101
REMARK  4 active torsions:
REMARK  status: ('A' for Active; 'I' for Inactive)
REMARK    1  A    between atoms: C2_2  and  C3_3 
REMARK    2  A    between atoms: C3_3  and  C4_4 
REMARK    3  A    between atoms: C4_4  and  C5_5 
REMARK    4  A    between atoms: C9_10  and  O1_11 
ROOT
HETATM    1  C5  UNL     1    -108.992  43.063  28.446  1.00  0.00     0.124 C 
HETATM    2  C6  UNL     1    -110.012  44.093  28.434  1.00  0.00     0.059 C 
HETATM    3  N1  UNL     1    -110.841  44.901  28.424  1.00  0.00    -0.197 NA
ENDROOT
BRANCH   1   4
HETATM    4  C4  UNL     1    -107.699  43.591  29.075  1.00  0.00     0.017 C 
BRANCH   4   5
HETATM    5  C3  UNL     1    -106.775  42.404  29.194  1.00  0.00     0.038 C 
BRANCH   5   6
HETATM    6  C2  UNL     1    -105.367  42.737  28.730  1.00  0.00     0.057 C 
HETATM    7  C1  UNL     1    -104.551  41.461  28.917  1.00  0.00     0.046 C 
HETATM    8  C7  UNL     1    -105.424  43.151  27.291  1.00  0.00     0.040 C 
HETATM    9  C8  UNL     1    -104.301  44.051  26.873  1.00  0.00     0.036 C 
HETATM   10  C9  UNL     1    -103.941  45.064  27.938  1.00  0.00     0.142 C 
HETATM   11  C10 UNL     1    -103.721  44.290  29.221  1.00  0.00     0.200 C 
HETATM   12  O2  UNL     1    -104.891  43.692  29.584  1.00  0.00    -0.378 OA
BRANCH  10  13
HETATM   13  O1  UNL     1    -104.915  46.014  28.125  1.00  0.00    -0.393 OA
ATOM     14  H1  UNL     1    -104.917  46.681  27.450  1.00  0.00     0.210 HD
ENDBRANCH  10  13
ENDBRANCH   5   6
ENDBRANCH   4   5
ENDBRANCH   1   4
TORSDOF 4
ENDMDL
MODEL 3
REMARK VINA RESULT: -5.343306746      1.916      2.863
REMARK  4 active torsions:
REMARK  status: ('A' for Active; 'I' for Inactive)
REMARK    1  A    between atoms: C2_2  and  C3_3 
REMARK    2  A    between atoms: C3_3  and  C4_4 
REMARK    3  A    between atoms: C4_4  and  C5_5 
REMARK    4  A    between atoms: C9_10  and  O1_11 
ROOT
HETATM    1  C5  UNL     1    -108.542  41.603  27.166  1.00  0.00     0.124 C 
HETATM    2  C6  UNL     1    -109.290  42.653  27.829  1.00  0.00     0.059 C 
HETATM    3  N1  UNL     1    -109.900  43.479  28.365  1.00  0.00    -0.197 NA
ENDROOT
BRANCH   1   4
HETATM    4  C4  UNL     1    -107.089  42.034  26.942  1.00  0.00     0.017 C 
BRANCH   4   5
HETATM    5  C3  UNL     1    -106.506  42.273  28.313  1.00  0.00     0.038 C 
BRANCH   5   6
HETATM    6  C2  UNL     1    -105.077  42.782  28.236  1.00  0.00     0.057 C 
HETATM    7  C1  UNL     1    -104.185  41.565  28.463  1.00  0.00     0.046 C 
HETATM    8  C7  UNL     1    -104.855  43.385  26.882  1.00  0.00     0.040 C 
HETATM    9  C8  UNL     1    -103.776  44.423  26.848  1.00  0.00     0.036 C 
HETATM   10  C9  UNL     1    -103.779  45.306  28.077  1.00  0.00     0.142 C 
HETATM   11  C10 UNL     1    -103.767  44.383  29.279  1.00  0.00     0.200 C 
HETATM   12  O2  UNL     1    -104.913  43.646  29.283  1.00  0.00    -0.378 OA
BRANCH  10  13
HETATM   13  O1  UNL     1    -104.871  46.137  28.137  1.00  0.00    -0.393 OA
ATOM     14  H1  UNL     1    -105.169  46.420  27.282  1.00  0.00     0.210 HD
ENDBRANCH  10  13
ENDBRANCH   5   6
ENDBRANCH   4   5
ENDBRANCH   1   4
TORSDOF 4
ENDMDL
MODEL 4
REMARK VINA RESULT: -5.321486681      1.638      1.950
REMARK  4 active torsions:
REMARK  status: ('A' for Active; 'I' for Inactive)
REMARK    1  A    between atoms: C2_2  and  C3_3 
REMARK    2  A    between atoms: C3_3  and  C4_4 
REMARK    3  A    between atoms: C4_4  and  C5_5 
REMARK    4  A    between atoms: C9_10  and  O1_11 
ROOT
HETATM    1  C5  UNL     1    -109.890  44.409  29.389  1.00  0.00     0.124 C 
HETATM    2  C6  UNL     1    -110.974  45.273  28.964  1.00  0.00     0.059 C 
HETATM    3  N1  UNL     1    -111.835  45.976  28.639  1.00  0.00    -0.197 NA
ENDROOT
BRANCH   1   4
HETATM    4  C4  UNL     1    -109.471  43.470  28.253  1.00  0.00     0.017 C 
BRANCH   4   5
HETATM    5  C3  UNL     1    -108.503  42.484  28.860  1.00  0.00     0.038 C 
BRANCH   5   6
HETATM    6  C2  UNL     1    -107.570  41.896  27.815  1.00  0.00     0.057 C 
HETATM    7  C1  UNL     1    -108.356  41.888  26.507  1.00  0.00     0.046 C 
HETATM    8  C7  UNL     1    -106.350  42.760  27.722  1.00  0.00     0.040 C 
HETATM    9  C8  UNL     1    -105.131  42.040  27.231  1.00  0.00     0.036 C 
HETATM   10  C9  UNL     1    -105.022  40.637  27.784  1.00  0.00     0.142 C 
HETATM   11  C10 UNL     1    -106.346  39.953  27.508  1.00  0.00     0.200 C 
HETATM   12  O2  UNL     1    -107.330  40.603  28.190  1.00  0.00    -0.378 OA
BRANCH  10  13
HETATM   13  O1  UNL     1    -104.755  40.611  29.131  1.00  0.00    -0.393 OA
ATOM     14  H1  UNL     1    -104.559  39.739  29.454  1.00  0.00     0.210 HD
ENDBRANCH  10  13
ENDBRANCH   5   6
ENDBRANCH   4   5
ENDBRANCH   1   4
TORSDOF 4
ENDMDL
MODEL 5
REMARK VINA RESULT: -5.279879026      3.747      5.428
REMARK  4 active torsions:
REMARK  status: ('A' for Active; 'I' for Inactive)
REMARK    1  A    between atoms: C2_2  and  C3_3 
REMARK    2  A    between atoms: C3_3  and  C4_4 
REMARK    3  A    between atoms: C4_4  and  C5_5 
REMARK    4  A    between atoms: C9_10  and  O1_11 
ROOT
HETATM    1  C5  UNL     1    -108.594  41.950  26.937  1.00  0.00     0.124 C 
HETATM    2  C6  UNL     1    -108.003  40.677  27.301  1.00  0.00     0.059 C 
HETATM    3  N1  UNL     1    -107.523  39.659  27.574  1.00  0.00    -0.197 NA
ENDROOT
BRANCH   1   4
HETATM    4  C4  UNL     1    -108.891  42.785  28.187  1.00  0.00     0.017 C 
BRANCH   4   5
HETATM    5  C3  UNL     1    -109.997  43.736  27.803  1.00  0.00     0.038 C 
BRANCH   5   6
HETATM    6  C2  UNL     1    -110.173  44.840  28.832  1.00  0.00     0.057 C 
HETATM    7  C1  UNL     1    -110.412  44.137  30.165  1.00  0.00     0.046 C 
HETATM    8  C7  UNL     1    -108.926  45.670  28.860  1.00  0.00     0.040 C 
HETATM    9  C8  UNL     1    -109.143  47.077  29.330  1.00  0.00     0.036 C 
HETATM   10  C9  UNL     1    -110.435  47.670  28.812  1.00  0.00     0.142 C 
HETATM   11  C10 UNL     1    -111.536  46.686  29.152  1.00  0.00     0.200 C 
HETATM   12  O2  UNL     1    -111.308  45.519  28.485  1.00  0.00    -0.378 OA
BRANCH  10  13
HETATM   13  O1  UNL     1    -110.415  47.900  27.458  1.00  0.00    -0.393 OA
ATOM     14  H1  UNL     1    -111.278  47.869  27.064  1.00  0.00     0.210 HD
ENDBRANCH  10  13
ENDBRANCH   5   6
ENDBRANCH   4   5
ENDBRANCH   1   4
TORSDOF 4
ENDMDL
