MODEL 1
REMARK VINA RESULT: -6.036722992      0.000      0.000
REMARK  3 active torsions:
REMARK  status: ('A' for Active; 'I' for Inactive)
REMARK    1  A    between atoms: C4_4  and  N1_5 
REMARK    2  A    between atoms: N1_5  and  C5_8 
REMARK    3  A    between atoms: C5_8  and  C6_9 
ROOT
HETATM    1  N1  UNL     1    -109.698  43.964  27.998  1.00  0.00    -0.066 N 
ATOM      2  H11 UNL     1    -110.013  43.976  27.028  1.00  0.00     0.277 HD
ATOM      3  H12 UNL     1    -109.094  44.786  27.968  1.00  0.00     0.277 HD
ENDROOT
BRANCH   1   4
HETATM    4  C4  UNL     1    -108.951  42.746  28.319  1.00  0.00     0.186 C 
HETATM    5  C3  UNL     1    -108.937  41.872  27.118  1.00  0.00     0.033 C 
HETATM    6  C2  UNL     1    -107.891  40.783  27.164  1.00  0.00     0.002 C 
HETATM    7  C1  UNL     1    -106.553  41.195  27.634  1.00  0.00     0.000 C 
HETATM    8  C10 UNL     1    -106.434  42.577  28.195  1.00  0.00     0.002 C 
HETATM    9  C9  UNL     1    -107.624  43.083  28.910  1.00  0.00     0.033 C 
ENDBRANCH   1   4
BRANCH   1  10
HETATM   10  C5  UNL     1    -110.779  44.128  28.915  1.00  0.00     0.293 C 
BRANCH  10  11
HETATM   11  C6  UNL     1    -110.866  45.594  29.368  1.00  0.00     0.285 C 
HETATM   12  O1  UNL     1    -109.627  46.199  29.130  1.00  0.00    -0.357 OA
HETATM   13  C7  UNL     1    -109.874  47.480  28.681  1.00  0.00     0.197 C 
HETATM   14  C8  UNL     1    -111.384  47.573  28.675  1.00  0.00     0.197 C 
HETATM   15  O2  UNL     1    -111.731  46.246  28.489  1.00  0.00    -0.357 OA
ENDBRANCH  10  11
ENDBRANCH   1  10
TORSDOF 3
ENDMDL
MODEL 2
REMARK VINA RESULT: -5.911922044      0.566      1.480
REMARK  3 active torsions:
REMARK  status: ('A' for Active; 'I' for Inactive)
REMARK    1  A    between atoms: C4_4  and  N1_5 
REMARK    2  A    between atoms: N1_5  and  C5_8 
REMARK    3  A    between atoms: C5_8  and  C6_9 
ROOT
HETATM    1  N1  UNL     1    -109.352  43.463  29.091  1.00  0.00    -0.066 N 
ATOM      2  H11 UNL     1    -108.932  44.004  29.847  1.00  0.00     0.277 HD
ATOM      3  H12 UNL     1    -109.701  42.680  29.645  1.00  0.00     0.277 HD
ENDROOT
BRANCH   1   4
HETATM    4  C4  UNL     1    -108.359  43.036  28.102  1.00  0.00     0.186 C 
HETATM    5  C3  UNL     1    -107.095  42.715  28.813  1.00  0.00     0.033 C 
HETATM    6  C2  UNL     1    -106.123  41.898  27.995  1.00  0.00     0.002 C 
HETATM    7  C1  UNL     1    -106.705  40.768  27.243  1.00  0.00     0.000 C 
HETATM    8  C10 UNL     1    -108.197  40.679  27.212  1.00  0.00     0.002 C 
HETATM    9  C9  UNL     1    -108.917  41.969  27.224  1.00  0.00     0.033 C 
ENDBRANCH   1   4
BRANCH   1  10
HETATM   10  C5  UNL     1    -110.407  44.174  28.445  1.00  0.00     0.293 C 
BRANCH  10  11
HETATM   11  C6  UNL     1    -110.645  45.518  29.152  1.00  0.00     0.285 C 
HETATM   12  O1  UNL     1    -109.461  46.262  29.084  1.00  0.00    -0.357 OA
HETATM   13  C7  UNL     1    -109.813  47.577  28.865  1.00  0.00     0.197 C 
HETATM   14  C8  UNL     1    -111.324  47.538  28.805  1.00  0.00     0.197 C 
HETATM   15  O2  UNL     1    -111.541  46.243  28.367  1.00  0.00    -0.357 OA
ENDBRANCH  10  11
ENDBRANCH   1  10
TORSDOF 3
ENDMDL
MODEL 3
REMARK VINA RESULT: -5.838024927      0.991      1.514
REMARK  3 active torsions:
REMARK  status: ('A' for Active; 'I' for Inactive)
REMARK    1  A    between atoms: C4_4  and  N1_5 
REMARK    2  A    between atoms: N1_5  and  C5_8 
REMARK    3  A    between atoms: C5_8  and  C6_9 
ROOT
HETATM    1  N1  UNL     1    -108.185  44.325  29.607  1.00  0.00    -0.066 N 
ATOM      2  H11 UNL     1    -107.756  45.045  29.026  1.00  0.00     0.277 HD
ATOM      3  H12 UNL     1    -107.739  44.563  30.493  1.00  0.00     0.277 HD
ENDROOT
BRANCH   1   4
HETATM    4  C4  UNL     1    -107.832  42.975  29.160  1.00  0.00     0.186 C 
HETATM    5  C3  UNL     1    -108.853  42.521  28.181  1.00  0.00     0.033 C 
HETATM    6  C2  UNL     1    -108.421  41.337  27.349  1.00  0.00     0.002 C 
HETATM    7  C1  UNL     1    -107.046  41.394  26.814  1.00  0.00     0.000 C 
HETATM    8  C10 UNL     1    -106.176  42.504  27.313  1.00  0.00     0.002 C 
HETATM    9  C9  UNL     1    -106.412  42.925  28.709  1.00  0.00     0.033 C 
ENDBRANCH   1   4
BRANCH   1  10
HETATM   10  C5  UNL     1    -109.604  44.462  29.668  1.00  0.00     0.293 C 
BRANCH  10  11
HETATM   11  C6  UNL     1    -110.056  45.639  28.790  1.00  0.00     0.285 C 
HETATM   12  O1  UNL     1    -111.278  46.109  29.286  1.00  0.00    -0.357 OA
HETATM   13  C7  UNL     1    -111.260  47.485  29.191  1.00  0.00     0.197 C 
HETATM   14  C8  UNL     1    -109.904  47.785  28.591  1.00  0.00     0.197 C 
HETATM   15  O2  UNL     1    -109.173  46.693  29.027  1.00  0.00    -0.357 OA
ENDBRANCH  10  11
ENDBRANCH   1  10
TORSDOF 3
ENDMDL
MODEL 4
REMARK VINA RESULT: -5.762153816      1.315      1.815
REMARK  3 active torsions:
REMARK  status: ('A' for Active; 'I' for Inactive)
REMARK    1  A    between atoms: C4_4  and  N1_5 
REMARK    2  A    between atoms: N1_5  and  C5_8 
REMARK    3  A    between atoms: C5_8  and  C6_9 
ROOT
HETATM    1  N1  UNL     1    -110.372  45.125  28.168  1.00  0.00    -0.066 N 
ATOM      2  H11 UNL     1    -111.150  44.932  27.537  1.00  0.00     0.277 HD
ATOM      3  H12 UNL     1    -109.746  45.573  27.499  1.00  0.00     0.277 HD
ENDROOT
BRANCH   1   4
HETATM    4  C4  UNL     1    -109.797  43.898  28.724  1.00  0.00     0.186 C 
HETATM    5  C3  UNL     1    -109.578  42.936  27.613  1.00  0.00     0.033 C 
HETATM    6  C2  UNL     1    -108.643  41.802  27.960  1.00  0.00     0.002 C 
HETATM    7  C1  UNL     1    -107.417  42.180  28.691  1.00  0.00     0.000 C 
HETATM    8  C10 UNL     1    -107.332  43.591  29.177  1.00  0.00     0.002 C 
HETATM    9  C9  UNL     1    -108.614  44.211  29.575  1.00  0.00     0.033 C 
ENDBRANCH   1   4
BRANCH   1  10
HETATM   10  C5  UNL     1    -110.746  46.008  29.224  1.00  0.00     0.293 C 
BRANCH  10  11
HETATM   11  C6  UNL     1    -110.225  47.425  28.935  1.00  0.00     0.285 C 
HETATM   12  O1  UNL     1    -108.944  47.539  29.487  1.00  0.00    -0.357 OA
HETATM   13  C7  UNL     1    -108.179  48.275  28.605  1.00  0.00     0.197 C 
HETATM   14  C8  UNL     1    -109.134  48.583  27.473  1.00  0.00     0.197 C 
HETATM   15  O2  UNL     1    -110.004  47.509  27.560  1.00  0.00    -0.357 OA
ENDBRANCH  10  11
ENDBRANCH   1  10
TORSDOF 3
ENDMDL
MODEL 5
REMARK VINA RESULT: -5.301374476      2.119      5.463
REMARK  3 active torsions:
REMARK  status: ('A' for Active; 'I' for Inactive)
REMARK    1  A    between atoms: C4_4  and  N1_5 
REMARK    2  A    between atoms: N1_5  and  C5_8 
REMARK    3  A    between atoms: C5_8  and  C6_9 
ROOT
HETATM    1  N1  UNL     1    -108.582  44.477  29.928  1.00  0.00    -0.066 N 
ATOM      2  H11 UNL     1    -109.163  43.887  30.524  1.00  0.00     0.277 HD
ATOM      3  H12 UNL     1    -108.136  45.033  30.659  1.00  0.00     0.277 HD
ENDROOT
BRANCH   1   4
HETATM    4  C4  UNL     1    -109.384  45.304  29.023  1.00  0.00     0.186 C 
HETATM    5  C3  UNL     1    -110.814  45.167  29.401  1.00  0.00     0.033 C 
HETATM    6  C2  UNL     1    -111.705  46.243  28.829  1.00  0.00     0.002 C 
HETATM    7  C1  UNL     1    -111.182  47.622  28.909  1.00  0.00     0.000 C 
HETATM    8  C10 UNL     1    -109.764  47.778  29.357  1.00  0.00     0.002 C 
HETATM    9  C9  UNL     1    -108.843  46.692  28.961  1.00  0.00     0.033 C 
ENDBRANCH   1   4
BRANCH   1  10
HETATM   10  C5  UNL     1    -107.635  43.716  29.181  1.00  0.00     0.293 C 
BRANCH  10  11
HETATM   11  C6  UNL     1    -108.301  42.446  28.628  1.00  0.00     0.285 C 
HETATM   12  O1  UNL     1    -108.661  42.688  27.297  1.00  0.00    -0.357 OA
HETATM   13  C7  UNL     1    -108.413  41.531  26.587  1.00  0.00     0.197 C 
HETATM   14  C8  UNL     1    -107.866  40.581  27.629  1.00  0.00     0.197 C 
HETATM   15  O2  UNL     1    -107.310  41.469  28.533  1.00  0.00    -0.357 OA
ENDBRANCH  10  11
ENDBRANCH   1  10
TORSDOF 3
ENDMDL
