MODEL 1
REMARK VINA RESULT: -5.692845856      0.000      0.000
REMARK  3 active torsions:
REMARK  status: ('A' for Active; 'I' for Inactive)
REMARK    1  A    between atoms: C3_3  and  N1_4 
REMARK    2  A    between atoms: C8_9  and  N2_10 
REMARK    3  A    between atoms: N2_10  and  N3_12 
ROOT
HETATM    1  C1  UNL     1    -110.982  45.740  29.104  1.00  0.00     0.013 C 
HETATM    2  C2  UNL     1    -110.013  45.088  29.381  1.00  0.00    -0.087 C 
HETATM    3  C3  UNL     1    -108.814  44.314  29.715  1.00  0.00     0.367 C 
ENDROOT
BRANCH   3   4
HETATM    4  N1  UNL     1    -108.299  43.559  28.621  1.00  0.00     0.123 N 
HETATM    5  C4  UNL     1    -109.359  42.865  27.983  1.00  0.00     0.276 C 
HETATM    6  C5  UNL     1    -108.907  41.540  27.379  1.00  0.00     0.030 C 
HETATM    7  C6  UNL     1    -107.665  41.903  26.570  1.00  0.00     0.005 C 
HETATM    8  C7  UNL     1    -106.580  42.230  27.561  1.00  0.00     0.059 C 
HETATM    9  C8  UNL     1    -107.088  42.861  28.838  1.00  0.00     0.342 C 
BRANCH   9  10
HETATM   10  N2  UNL     1    -106.056  43.767  29.285  1.00  0.00    -0.243 N 
ATOM     11  H2  UNL     1    -106.257  44.767  29.278  1.00  0.00     0.189 HD
BRANCH  10  12
HETATM   12  N3  UNL     1    -104.800  43.351  29.726  1.00  0.00    -0.042 N 
HETATM   13  O1  UNL     1    -103.744  43.938  29.383  1.00  0.00    -0.517 OA
HETATM   14  O2  UNL     1    -104.744  42.263  30.560  1.00  0.00    -0.517 OA
ENDBRANCH  10  12
ENDBRANCH   9  10
ENDBRANCH   3   4
TORSDOF 3
ENDMDL
MODEL 2
REMARK VINA RESULT: -5.339255143      3.002      4.147
REMARK  3 active torsions:
REMARK  status: ('A' for Active; 'I' for Inactive)
REMARK    1  A    between atoms: C3_3  and  N1_4 
REMARK    2  A    between atoms: C8_9  and  N2_10 
REMARK    3  A    between atoms: N2_10  and  N3_12 
ROOT
HETATM    1  C1  UNL     1    -104.144  44.502  28.017  1.00  0.00     0.013 C 
HETATM    2  C2  UNL     1    -104.853  43.838  28.723  1.00  0.00    -0.087 C 
HETATM    3  C3  UNL     1    -105.700  43.007  29.582  1.00  0.00     0.367 C 
ENDROOT
BRANCH   3   4
HETATM    4  N1  UNL     1    -106.812  42.430  28.902  1.00  0.00     0.123 N 
HETATM    5  C4  UNL     1    -106.352  41.445  27.991  1.00  0.00     0.276 C 
HETATM    6  C5  UNL     1    -107.241  41.332  26.758  1.00  0.00     0.030 C 
HETATM    7  C6  UNL     1    -108.653  41.216  27.325  1.00  0.00     0.005 C 
HETATM    8  C7  UNL     1    -109.005  42.564  27.894  1.00  0.00     0.059 C 
HETATM    9  C8  UNL     1    -107.823  43.317  28.461  1.00  0.00     0.342 C 
BRANCH   9  10
HETATM   10  N2  UNL     1    -108.328  44.097  29.567  1.00  0.00    -0.243 N 
ATOM     11  H2  UNL     1    -107.781  44.120  30.428  1.00  0.00     0.189 HD
BRANCH  10  12
HETATM   12  N3  UNL     1    -109.519  44.820  29.523  1.00  0.00    -0.042 N 
HETATM   13  O1  UNL     1    -109.563  46.011  29.127  1.00  0.00    -0.517 OA
HETATM   14  O2  UNL     1    -110.666  44.187  29.932  1.00  0.00    -0.517 OA
ENDBRANCH  10  12
ENDBRANCH   9  10
ENDBRANCH   3   4
TORSDOF 3
ENDMDL
MODEL 3
REMARK VINA RESULT: -5.150795474      3.311      4.889
REMARK  3 active torsions:
REMARK  status: ('A' for Active; 'I' for Inactive)
REMARK    1  A    between atoms: C3_3  and  N1_4 
REMARK    2  A    between atoms: C8_9  and  N2_10 
REMARK    3  A    between atoms: N2_10  and  N3_12 
ROOT
HETATM    1  C1  UNL     1    -107.833  38.661  27.265  1.00  0.00     0.013 C 
HETATM    2  C2  UNL     1    -108.004  39.813  26.974  1.00  0.00    -0.087 C 
HETATM    3  C3  UNL     1    -108.192  41.217  26.600  1.00  0.00     0.367 C 
ENDROOT
BRANCH   3   4
HETATM    4  N1  UNL     1    -107.526  42.133  27.466  1.00  0.00     0.123 N 
HETATM    5  C4  UNL     1    -106.222  41.653  27.752  1.00  0.00     0.276 C 
HETATM    6  C5  UNL     1    -105.744  42.059  29.141  1.00  0.00     0.030 C 
HETATM    7  C6  UNL     1    -106.013  43.560  29.205  1.00  0.00     0.005 C 
HETATM    8  C7  UNL     1    -107.507  43.732  29.279  1.00  0.00     0.059 C 
HETATM    9  C8  UNL     1    -108.282  42.669  28.536  1.00  0.00     0.342 C 
BRANCH   9  10
HETATM   10  N2  UNL     1    -109.478  43.308  28.038  1.00  0.00    -0.243 N 
ATOM     11  H2  UNL     1    -109.798  43.067  27.100  1.00  0.00     0.189 HD
BRANCH  10  12
HETATM   12  N3  UNL     1    -110.220  44.235  28.768  1.00  0.00    -0.042 N 
HETATM   13  O1  UNL     1    -110.738  43.951  29.877  1.00  0.00    -0.517 OA
HETATM   14  O2  UNL     1    -110.374  45.491  28.238  1.00  0.00    -0.517 OA
ENDBRANCH  10  12
ENDBRANCH   9  10
ENDBRANCH   3   4
TORSDOF 3
ENDMDL
MODEL 4
REMARK VINA RESULT: -4.904036238      3.447      4.930
REMARK  3 active torsions:
REMARK  status: ('A' for Active; 'I' for Inactive)
REMARK    1  A    between atoms: C3_3  and  N1_4 
REMARK    2  A    between atoms: C8_9  and  N2_10 
REMARK    3  A    between atoms: N2_10  and  N3_12 
ROOT
HETATM    1  C1  UNL     1    -108.000  42.250  27.703  1.00  0.00     0.013 C 
HETATM    2  C2  UNL     1    -108.090  43.111  28.535  1.00  0.00    -0.087 C 
HETATM    3  C3  UNL     1    -108.209  44.143  29.568  1.00  0.00     0.367 C 
ENDROOT
BRANCH   3   4
HETATM    4  N1  UNL     1    -109.390  44.932  29.452  1.00  0.00     0.123 N 
HETATM    5  C4  UNL     1    -110.515  44.083  29.294  1.00  0.00     0.276 C 
HETATM    6  C5  UNL     1    -111.610  44.719  28.445  1.00  0.00     0.030 C 
HETATM    7  C6  UNL     1    -111.806  46.101  29.061  1.00  0.00     0.005 C 
HETATM    8  C7  UNL     1    -110.580  46.906  28.722  1.00  0.00     0.059 C 
HETATM    9  C8  UNL     1    -109.313  46.086  28.636  1.00  0.00     0.342 C 
BRANCH   9  10
HETATM   10  N2  UNL     1    -108.239  46.945  29.076  1.00  0.00    -0.243 N 
ATOM     11  H2  UNL     1    -107.475  46.527  29.607  1.00  0.00     0.189 HD
BRANCH  10  12
HETATM   12  N3  UNL     1    -108.188  48.314  28.817  1.00  0.00    -0.042 N 
HETATM   13  O1  UNL     1    -108.410  49.171  29.708  1.00  0.00    -0.517 OA
HETATM   14  O2  UNL     1    -107.884  48.712  27.539  1.00  0.00    -0.517 OA
ENDBRANCH  10  12
ENDBRANCH   9  10
ENDBRANCH   3   4
TORSDOF 3
ENDMDL
MODEL 5
REMARK VINA RESULT: -4.721823745      1.319      3.434
REMARK  3 active torsions:
REMARK  status: ('A' for Active; 'I' for Inactive)
REMARK    1  A    between atoms: C3_3  and  N1_4 
REMARK    2  A    between atoms: C8_9  and  N2_10 
REMARK    3  A    between atoms: N2_10  and  N3_12 
ROOT
HETATM    1  C1  UNL     1    -107.518  39.140  27.839  1.00  0.00     0.013 C 
HETATM    2  C2  UNL     1    -107.444  40.320  27.633  1.00  0.00    -0.087 C 
HETATM    3  C3  UNL     1    -107.332  41.762  27.397  1.00  0.00     0.367 C 
ENDROOT
BRANCH   3   4
HETATM    4  N1  UNL     1    -108.134  42.548  28.274  1.00  0.00     0.123 N 
HETATM    5  C4  UNL     1    -109.450  42.646  27.755  1.00  0.00     0.276 C 
HETATM    6  C5  UNL     1    -110.122  43.966  28.116  1.00  0.00     0.030 C 
HETATM    7  C6  UNL     1    -109.908  44.095  29.621  1.00  0.00     0.005 C 
HETATM    8  C7  UNL     1    -108.443  44.373  29.830  1.00  0.00     0.059 C 
HETATM    9  C8  UNL     1    -107.544  43.720  28.805  1.00  0.00     0.342 C 
BRANCH   9  10
HETATM   10  N2  UNL     1    -106.312  43.401  29.487  1.00  0.00    -0.243 N 
ATOM     11  H2  UNL     1    -106.362  42.833  30.332  1.00  0.00     0.189 HD
BRANCH  10  12
HETATM   12  N3  UNL     1    -105.057  43.826  29.054  1.00  0.00    -0.042 N 
HETATM   13  O1  UNL     1    -104.907  44.518  28.016  1.00  0.00    -0.517 OA
HETATM   14  O2  UNL     1    -103.965  43.464  29.803  1.00  0.00    -0.517 OA
ENDBRANCH  10  12
ENDBRANCH   9  10
ENDBRANCH   3   4
TORSDOF 3
ENDMDL
