MODEL 1
REMARK VINA RESULT: -4.330345655      0.000      0.000
REMARK  4 active torsions:
REMARK  status: ('A' for Active; 'I' for Inactive)
REMARK    1  A    between atoms: O1_1  and  C1_3 
REMARK    2  A    between atoms: C1_3  and  C2_4 
REMARK    3  A    between atoms: C2_4  and  C3_5 
REMARK    4  A    between atoms: C3_5  and  C4_6 
ROOT
HETATM    1  C4  UNL     1    -108.091  42.334  28.599  1.00  0.00     0.053 C 
HETATM    2  C5  UNL     1    -106.987  42.906  29.455  1.00  0.00     0.021 C 
HETATM    3  C6  UNL     1    -106.134  43.782  28.573  1.00  0.00     0.059 C 
HETATM    4  C7  UNL     1    -105.663  42.900  27.441  1.00  0.00     0.045 C 
HETATM    5  S1  UNL     1    -104.391  42.839  26.823  1.00  0.00    -0.077 SA
HETATM    6  S2  UNL     1    -107.150  41.930  27.069  1.00  0.00    -0.118 SA
ENDROOT
BRANCH   1   7
HETATM    7  C3  UNL     1    -109.123  43.339  28.221  1.00  0.00     0.017 C 
BRANCH   7   8
HETATM    8  C2  UNL     1    -109.653  44.118  29.410  1.00  0.00     0.027 C 
BRANCH   8   9
HETATM    9  C1  UNL     1    -110.846  44.921  28.916  1.00  0.00     0.164 C 
BRANCH   9  10
HETATM   10  O1  UNL     1    -111.659  44.177  28.071  1.00  0.00    -0.401 OA
ATOM     11  H1  UNL     1    -112.049  43.434  28.518  1.00  0.00     0.209 HD
ENDBRANCH   9  10
ENDBRANCH   8   9
ENDBRANCH   7   8
ENDBRANCH   1   7
TORSDOF 4
ENDMDL
MODEL 2
REMARK VINA RESULT: -4.317871619      1.723      2.332
REMARK  4 active torsions:
REMARK  status: ('A' for Active; 'I' for Inactive)
REMARK    1  A    between atoms: O1_1  and  C1_3 
REMARK    2  A    between atoms: C1_3  and  C2_4 
REMARK    3  A    between atoms: C2_4  and  C3_5 
REMARK    4  A    between atoms: C3_5  and  C4_6 
ROOT
HETATM    1  C4  UNL     1    -108.121  42.933  27.620  1.00  0.00     0.053 C 
HETATM    2  C5  UNL     1    -108.307  41.873  26.561  1.00  0.00     0.021 C 
HETATM    3  C6  UNL     1    -108.188  40.530  27.234  1.00  0.00     0.059 C 
HETATM    4  C7  UNL     1    -106.836  40.520  27.907  1.00  0.00     0.045 C 
HETATM    5  S1  UNL     1    -105.887  39.474  27.993  1.00  0.00    -0.077 SA
HETATM    6  S2  UNL     1    -106.734  42.200  28.583  1.00  0.00    -0.118 SA
ENDROOT
BRANCH   1   7
HETATM    7  C3  UNL     1    -109.280  43.047  28.548  1.00  0.00     0.017 C 
BRANCH   7   8
HETATM    8  C2  UNL     1    -109.306  44.364  29.302  1.00  0.00     0.027 C 
BRANCH   8   9
HETATM    9  C1  UNL     1    -110.692  44.958  29.105  1.00  0.00     0.164 C 
BRANCH   9  10
HETATM   10  O1  UNL     1    -111.442  44.233  28.187  1.00  0.00    -0.401 OA
ATOM     11  H1  UNL     1    -112.373  44.286  28.369  1.00  0.00     0.209 HD
ENDBRANCH   9  10
ENDBRANCH   8   9
ENDBRANCH   7   8
ENDBRANCH   1   7
TORSDOF 4
ENDMDL
MODEL 3
REMARK VINA RESULT: -4.225913167      3.229      4.903
REMARK  4 active torsions:
REMARK  status: ('A' for Active; 'I' for Inactive)
REMARK    1  A    between atoms: O1_1  and  C1_3 
REMARK    2  A    between atoms: C1_3  and  C2_4 
REMARK    3  A    between atoms: C2_4  and  C3_5 
REMARK    4  A    between atoms: C3_5  and  C4_6 
ROOT
HETATM    1  C4  UNL     1    -106.811  41.723  28.428  1.00  0.00     0.053 C 
HETATM    2  C5  UNL     1    -108.190  41.205  28.095  1.00  0.00     0.021 C 
HETATM    3  C6  UNL     1    -108.991  42.359  27.549  1.00  0.00     0.059 C 
HETATM    4  C7  UNL     1    -108.958  43.430  28.614  1.00  0.00     0.045 C 
HETATM    5  S1  UNL     1    -109.996  44.285  29.056  1.00  0.00    -0.077 SA
HETATM    6  S2  UNL     1    -107.239  43.343  29.188  1.00  0.00    -0.118 SA
ENDROOT
BRANCH   1   7
HETATM    7  C3  UNL     1    -105.986  42.015  27.222  1.00  0.00     0.017 C 
BRANCH   7   8
HETATM    8  C2  UNL     1    -105.218  43.318  27.334  1.00  0.00     0.027 C 
BRANCH   8   9
HETATM    9  C1  UNL     1    -103.868  43.093  26.671  1.00  0.00     0.164 C 
BRANCH   9  10
HETATM   10  O1  UNL     1    -103.784  43.724  25.436  1.00  0.00    -0.401 OA
ATOM     11  H1  UNL     1    -102.900  44.012  25.244  1.00  0.00     0.209 HD
ENDBRANCH   9  10
ENDBRANCH   8   9
ENDBRANCH   7   8
ENDBRANCH   1   7
TORSDOF 4
ENDMDL
MODEL 4
REMARK VINA RESULT: -4.184805738      1.874      2.428
REMARK  4 active torsions:
REMARK  status: ('A' for Active; 'I' for Inactive)
REMARK    1  A    between atoms: O1_1  and  C1_3 
REMARK    2  A    between atoms: C1_3  and  C2_4 
REMARK    3  A    between atoms: C2_4  and  C3_5 
REMARK    4  A    between atoms: C3_5  and  C4_6 
ROOT
HETATM    1  C4  UNL     1    -109.782  43.844  29.141  1.00  0.00     0.053 C 
HETATM    2  C5  UNL     1    -108.527  43.895  29.979  1.00  0.00     0.021 C 
HETATM    3  C6  UNL     1    -107.350  43.931  29.037  1.00  0.00     0.059 C 
HETATM    4  C7  UNL     1    -107.478  42.704  28.165  1.00  0.00     0.045 C 
HETATM    5  S1  UNL     1    -106.472  41.816  27.715  1.00  0.00    -0.077 SA
HETATM    6  S2  UNL     1    -109.262  42.653  27.837  1.00  0.00    -0.118 SA
ENDROOT
BRANCH   1   7
HETATM    7  C3  UNL     1    -110.085  45.131  28.457  1.00  0.00     0.017 C 
BRANCH   7   8
HETATM    8  C2  UNL     1    -111.153  45.941  29.168  1.00  0.00     0.027 C 
BRANCH   8   9
HETATM    9  C1  UNL     1    -110.776  47.406  29.007  1.00  0.00     0.164 C 
BRANCH   9  10
HETATM   10  O1  UNL     1    -111.876  48.194  28.693  1.00  0.00    -0.401 OA
ATOM     11  H1  UNL     1    -112.014  48.883  29.333  1.00  0.00     0.209 HD
ENDBRANCH   9  10
ENDBRANCH   8   9
ENDBRANCH   7   8
ENDBRANCH   1   7
TORSDOF 4
ENDMDL
MODEL 5
REMARK VINA RESULT: -4.181904349      1.874      2.334
REMARK  4 active torsions:
REMARK  status: ('A' for Active; 'I' for Inactive)
REMARK    1  A    between atoms: O1_1  and  C1_3 
REMARK    2  A    between atoms: C1_3  and  C2_4 
REMARK    3  A    between atoms: C2_4  and  C3_5 
REMARK    4  A    between atoms: C3_5  and  C4_6 
ROOT
HETATM    1  C4  UNL     1    -108.128  42.216  27.126  1.00  0.00     0.053 C 
HETATM    2  C5  UNL     1    -108.151  40.732  26.849  1.00  0.00     0.021 C 
HETATM    3  C6  UNL     1    -107.266  40.064  27.869  1.00  0.00     0.059 C 
HETATM    4  C7  UNL     1    -105.908  40.711  27.730  1.00  0.00     0.045 C 
HETATM    5  S1  UNL     1    -104.624  40.116  27.770  1.00  0.00    -0.077 SA
HETATM    6  S2  UNL     1    -106.341  42.457  27.494  1.00  0.00    -0.118 SA
ENDROOT
BRANCH   1   7
HETATM    7  C3  UNL     1    -108.878  42.597  28.355  1.00  0.00     0.017 C 
BRANCH   7   8
HETATM    8  C2  UNL     1    -108.213  43.721  29.128  1.00  0.00     0.027 C 
BRANCH   8   9
HETATM    9  C1  UNL     1    -109.318  44.673  29.560  1.00  0.00     0.164 C 
BRANCH   9  10
HETATM   10  O1  UNL     1    -110.553  44.040  29.626  1.00  0.00    -0.401 OA
ATOM     11  H1  UNL     1    -111.243  44.636  29.893  1.00  0.00     0.209 HD
ENDBRANCH   9  10
ENDBRANCH   8   9
ENDBRANCH   7   8
ENDBRANCH   1   7
TORSDOF 4
ENDMDL
