MODEL 1
REMARK VINA RESULT: -7.403626966      0.000      0.000
REMARK  7 active torsions:
REMARK  status: ('A' for Active; 'I' for Inactive)
REMARK    1  A    between atoms: C4_6  and  O1_7 
REMARK    2  A    between atoms: C6_11  and  O2_12 
REMARK    3  A    between atoms: C8_15  and  C9_16 
REMARK    4  A    between atoms: C9_16  and  C10_17 
REMARK    5  A    between atoms: C10_17  and  C11_18 
REMARK    6  A    between atoms: C11_18  and  C12_19 
REMARK    7  A    between atoms: C17_25  and  O3_26 
ROOT
HETATM    1  C1  UNL     1      -0.170  52.338  -9.753  1.00  0.00     0.071 C 
HETATM    2  C2  UNL     1      -0.234  50.936 -10.251  1.00  0.00     0.040 A 
HETATM    3  N1  UNL     1      -1.403  50.317 -10.471  1.00  0.00    -0.353 N 
ATOM      4  H1  UNL     1      -2.259  50.839 -10.286  1.00  0.00     0.166 HD
HETATM    5  C3  UNL     1      -1.520  49.068 -10.914  1.00  0.00     0.099 A 
HETATM    6  C4  UNL     1      -2.551  48.209 -11.227  1.00  0.00     0.172 A 
HETATM    7  N2  UNL     1      -2.066  47.035 -11.651  1.00  0.00    -0.310 N 
HETATM    8  C5  UNL     1      -2.851  45.863 -12.076  1.00  0.00     0.160 C 
HETATM    9  C6  UNL     1      -0.729  47.119 -11.618  1.00  0.00     0.157 A 
HETATM   10  C7  UNL     1      -0.343  48.363 -11.165  1.00  0.00     0.055 A 
HETATM   11  C8  UNL     1       0.889  48.960 -10.954  1.00  0.00    -0.006 A 
HETATM   12  C17 UNL     1       0.959  50.263 -10.492  1.00  0.00     0.095 A 
ENDROOT
BRANCH  11  13
HETATM   13  C9  UNL     1       2.133  48.209 -11.189  1.00  0.00     0.042 C 
BRANCH  13  14
HETATM   14  C10 UNL     1       2.579  47.514  -9.945  1.00  0.00     0.005 C 
BRANCH  14  15
HETATM   15  C11 UNL     1       3.279  46.190 -10.249  1.00  0.00     0.005 C 
BRANCH  15  16
HETATM   16  C12 UNL     1       2.343  45.103  -9.802  1.00  0.00    -0.013 C 
HETATM   17  C13 UNL     1       2.455  43.856 -10.664  1.00  0.00     0.006 C 
HETATM   18  C14 UNL     1       1.595  42.905  -9.817  1.00  0.00     0.020 C 
HETATM   19  C15 UNL     1       1.989  43.257  -8.383  1.00  0.00     0.082 C 
HETATM   20 CL1  UNL     1       0.558  43.471  -7.351  1.00  0.00    -0.125 Cl
HETATM   21  C16 UNL     1       2.732  44.565  -8.443  1.00  0.00     0.024 C 
ENDBRANCH  15  16
ENDBRANCH  14  15
ENDBRANCH  13  14
ENDBRANCH  11  13
BRANCH  12  22
HETATM   22  O3  UNL     1       2.189  50.869 -10.278  1.00  0.00    -0.358 OA
ATOM     23  H3  UNL     1       2.299  51.550  -9.625  1.00  0.00     0.217 HD
ENDBRANCH  12  22
BRANCH   9  24
HETATM   24  O2  UNL     1       0.105  46.061 -12.001  1.00  0.00    -0.345 OA
ATOM     25  H2  UNL     1      -0.041  45.165 -11.721  1.00  0.00     0.219 HD
ENDBRANCH   9  24
BRANCH   6  26
HETATM   26  O1  UNL     1      -3.905  48.484 -11.131  1.00  0.00    -0.344 OA
ATOM     27  H1  UNL     1      -4.586  47.873 -10.878  1.00  0.00     0.219 HD
ENDBRANCH   6  26
TORSDOF 7
ENDMDL
MODEL 2
REMARK VINA RESULT: -7.291043591      1.780      3.847
REMARK  7 active torsions:
REMARK  status: ('A' for Active; 'I' for Inactive)
REMARK    1  A    between atoms: C4_6  and  O1_7 
REMARK    2  A    between atoms: C6_11  and  O2_12 
REMARK    3  A    between atoms: C8_15  and  C9_16 
REMARK    4  A    between atoms: C9_16  and  C10_17 
REMARK    5  A    between atoms: C10_17  and  C11_18 
REMARK    6  A    between atoms: C11_18  and  C12_19 
REMARK    7  A    between atoms: C17_25  and  O3_26 
ROOT
HETATM    1  C1  UNL     1      -3.377  48.470 -11.124  1.00  0.00     0.071 C 
HETATM    2  C2  UNL     1      -1.960  48.861 -10.885  1.00  0.00     0.040 A 
HETATM    3  N1  UNL     1      -1.632  50.065 -10.395  1.00  0.00    -0.353 N 
ATOM      4  H1  UNL     1      -2.389  50.716 -10.187  1.00  0.00     0.166 HD
HETATM    5  C3  UNL     1      -0.385  50.468 -10.163  1.00  0.00     0.099 A 
HETATM    6  C4  UNL     1       0.226  51.601  -9.675  1.00  0.00     0.172 A 
HETATM    7  N2  UNL     1       1.556  51.441  -9.650  1.00  0.00    -0.310 N 
HETATM    8  C5  UNL     1       2.551  52.426  -9.196  1.00  0.00     0.160 C 
HETATM    9  C6  UNL     1       1.818  50.211 -10.117  1.00  0.00     0.157 A 
HETATM   10  C7  UNL     1       0.642  49.570 -10.450  1.00  0.00     0.055 A 
HETATM   11  C8  UNL     1       0.354  48.314 -10.957  1.00  0.00    -0.006 A 
HETATM   12  C17 UNL     1      -0.960  47.941 -11.182  1.00  0.00     0.095 A 
ENDROOT
BRANCH  11  13
HETATM   13  C9  UNL     1       1.438  47.375 -11.290  1.00  0.00     0.042 C 
BRANCH  13  14
HETATM   14  C10 UNL     1       1.483  46.245 -10.316  1.00  0.00     0.005 C 
BRANCH  14  15
HETATM   15  C11 UNL     1       2.473  46.507  -9.182  1.00  0.00     0.005 C 
BRANCH  15  16
HETATM   16  C12 UNL     1       2.758  45.172  -8.551  1.00  0.00    -0.013 C 
HETATM   17  C13 UNL     1       1.596  44.204  -8.702  1.00  0.00     0.006 C 
HETATM   18  C14 UNL     1       2.286  42.927  -8.201  1.00  0.00     0.020 C 
HETATM   19  C15 UNL     1       3.688  43.024  -8.803  1.00  0.00     0.082 C 
HETATM   20 CL1  UNL     1       4.940  42.689  -7.588  1.00  0.00    -0.125 Cl
HETATM   21  C16 UNL     1       3.857  44.439  -9.286  1.00  0.00     0.024 C 
ENDBRANCH  15  16
ENDBRANCH  14  15
ENDBRANCH  13  14
ENDBRANCH  11  13
BRANCH  12  22
HETATM   22  O3  UNL     1      -1.259  46.684 -11.690  1.00  0.00    -0.358 OA
ATOM     23  H3  UNL     1      -0.586  46.128 -12.064  1.00  0.00     0.217 HD
ENDBRANCH  12  22
BRANCH   9  24
HETATM   24  O2  UNL     1       3.119  49.706 -10.227  1.00  0.00    -0.345 OA
ATOM     25  H2  UNL     1       3.395  48.903  -9.803  1.00  0.00     0.219 HD
ENDBRANCH   9  24
BRANCH   6  26
HETATM   26  O1  UNL     1      -0.409  52.761  -9.260  1.00  0.00    -0.344 OA
ATOM     27  H1  UNL     1      -0.505  53.561  -9.763  1.00  0.00     0.219 HD
ENDBRANCH   6  26
TORSDOF 7
ENDMDL
MODEL 3
REMARK VINA RESULT: -7.284721192      1.016      1.149
REMARK  7 active torsions:
REMARK  status: ('A' for Active; 'I' for Inactive)
REMARK    1  A    between atoms: C4_6  and  O1_7 
REMARK    2  A    between atoms: C6_11  and  O2_12 
REMARK    3  A    between atoms: C8_15  and  C9_16 
REMARK    4  A    between atoms: C9_16  and  C10_17 
REMARK    5  A    between atoms: C10_17  and  C11_18 
REMARK    6  A    between atoms: C11_18  and  C12_19 
REMARK    7  A    between atoms: C17_25  and  O3_26 
ROOT
HETATM    1  C1  UNL     1      -0.142  52.947  -9.739  1.00  0.00     0.071 C 
HETATM    2  C2  UNL     1      -0.120  51.519 -10.160  1.00  0.00     0.040 A 
HETATM    3  N1  UNL     1      -1.247  50.841 -10.421  1.00  0.00    -0.353 N 
ATOM      4  H1  UNL     1      -2.133  51.336 -10.322  1.00  0.00     0.166 HD
HETATM    5  C3  UNL     1      -1.287  49.565 -10.800  1.00  0.00     0.099 A 
HETATM    6  C4  UNL     1      -2.260  48.650 -11.132  1.00  0.00     0.172 A 
HETATM    7  N2  UNL     1      -1.704  47.475 -11.457  1.00  0.00    -0.310 N 
HETATM    8  C5  UNL     1      -2.413  46.251 -11.866  1.00  0.00     0.160 C 
HETATM    9  C6  UNL     1      -0.376  47.616 -11.341  1.00  0.00     0.157 A 
HETATM   10  C7  UNL     1      -0.069  48.898 -10.933  1.00  0.00     0.055 A 
HETATM   11  C8  UNL     1       1.122  49.556 -10.676  1.00  0.00    -0.006 A 
HETATM   12  C17 UNL     1       1.112  50.883 -10.283  1.00  0.00     0.095 A 
ENDROOT
BRANCH  11  13
HETATM   13  C9  UNL     1       2.407  48.846 -10.786  1.00  0.00     0.042 C 
BRANCH  13  14
HETATM   14  C10 UNL     1       2.823  48.289  -9.465  1.00  0.00     0.005 C 
BRANCH  14  15
HETATM   15  C11 UNL     1       3.993  47.314  -9.597  1.00  0.00     0.005 C 
BRANCH  15  16
HETATM   16  C12 UNL     1       3.402  45.933  -9.540  1.00  0.00    -0.013 C 
HETATM   17  C13 UNL     1       4.387  44.907  -9.004  1.00  0.00     0.006 C 
HETATM   18  C14 UNL     1       3.427  43.719  -8.844  1.00  0.00     0.020 C 
HETATM   19  C15 UNL     1       2.152  44.367  -8.305  1.00  0.00     0.082 C 
HETATM   20 CL1  UNL     1       0.716  43.808  -9.190  1.00  0.00    -0.125 Cl
HETATM   21  C16 UNL     1       2.294  45.850  -8.515  1.00  0.00     0.024 C 
ENDBRANCH  15  16
ENDBRANCH  14  15
ENDBRANCH  13  14
ENDBRANCH  11  13
BRANCH  12  22
HETATM   22  O3  UNL     1       2.300  51.551 -10.024  1.00  0.00    -0.358 OA
ATOM     23  H3  UNL     1       3.140  51.182 -10.270  1.00  0.00     0.217 HD
ENDBRANCH  12  22
BRANCH   9  24
HETATM   24  O2  UNL     1       0.521  46.576 -11.608  1.00  0.00    -0.345 OA
ATOM     25  H2  UNL     1       0.311  45.853 -12.188  1.00  0.00     0.219 HD
ENDBRANCH   9  24
BRANCH   6  26
HETATM   26  O1  UNL     1      -3.628  48.873 -11.140  1.00  0.00    -0.344 OA
ATOM     27  H1  UNL     1      -4.265  48.440 -11.695  1.00  0.00     0.219 HD
ENDBRANCH   6  26
TORSDOF 7
ENDMDL
MODEL 4
REMARK VINA RESULT: -7.254315167      3.167      6.530
REMARK  7 active torsions:
REMARK  status: ('A' for Active; 'I' for Inactive)
REMARK    1  A    between atoms: C4_6  and  O1_7 
REMARK    2  A    between atoms: C6_11  and  O2_12 
REMARK    3  A    between atoms: C8_15  and  C9_16 
REMARK    4  A    between atoms: C9_16  and  C10_17 
REMARK    5  A    between atoms: C10_17  and  C11_18 
REMARK    6  A    between atoms: C11_18  and  C12_19 
REMARK    7  A    between atoms: C17_25  and  O3_26 
ROOT
HETATM    1  C1  UNL     1      -3.530  43.578 -12.023  1.00  0.00     0.071 C 
HETATM    2  C2  UNL     1      -2.192  44.187 -11.786  1.00  0.00     0.040 A 
HETATM    3  N1  UNL     1      -1.136  43.452 -11.411  1.00  0.00    -0.353 N 
ATOM      4  H1  UNL     1      -1.275  42.448 -11.290  1.00  0.00     0.166 HD
HETATM    5  C3  UNL     1       0.081  43.942 -11.186  1.00  0.00     0.099 A 
HETATM    6  C4  UNL     1       1.308  43.442 -10.814  1.00  0.00     0.172 A 
HETATM    7  N2  UNL     1       2.213  44.428 -10.749  1.00  0.00    -0.310 N 
HETATM    8  C5  UNL     1       3.634  44.293 -10.386  1.00  0.00     0.160 C 
HETATM    9  C6  UNL     1       1.587  45.567 -11.077  1.00  0.00     0.157 A 
HETATM   10  C7  UNL     1       0.259  45.315 -11.355  1.00  0.00     0.055 A 
HETATM   11  C8  UNL     1      -0.801  46.117 -11.742  1.00  0.00    -0.006 A 
HETATM   12  C17 UNL     1      -2.049  45.560 -11.964  1.00  0.00     0.095 A 
ENDROOT
BRANCH  11  13
HETATM   13  C9  UNL     1      -0.623  47.571 -11.891  1.00  0.00     0.042 C 
BRANCH  13  14
HETATM   14  C10 UNL     1      -0.916  48.278 -10.610  1.00  0.00     0.005 C 
BRANCH  14  15
HETATM   15  C11 UNL     1      -1.231  49.757 -10.831  1.00  0.00     0.005 C 
BRANCH  15  16
HETATM   16  C12 UNL     1      -0.186  50.531 -10.078  1.00  0.00    -0.013 C 
HETATM   17  C13 UNL     1       1.223  50.062 -10.402  1.00  0.00     0.006 C 
HETATM   18  C14 UNL     1       2.011  51.176  -9.698  1.00  0.00     0.020 C 
HETATM   19  C15 UNL     1       1.200  52.433 -10.010  1.00  0.00     0.082 C 
HETATM   20 CL1  UNL     1       0.927  53.408  -8.549  1.00  0.00    -0.125 Cl
HETATM   21  C16 UNL     1      -0.134  51.973 -10.531  1.00  0.00     0.024 C 
ENDBRANCH  15  16
ENDBRANCH  14  15
ENDBRANCH  13  14
ENDBRANCH  11  13
BRANCH  12  22
HETATM   22  O3  UNL     1      -3.117  46.356 -12.353  1.00  0.00    -0.358 OA
ATOM     23  H3  UNL     1      -3.754  46.673 -11.723  1.00  0.00     0.217 HD
ENDBRANCH  12  22
BRANCH   9  24
HETATM   24  O2  UNL     1       2.240  46.804 -11.115  1.00  0.00    -0.345 OA
ATOM     25  H2  UNL     1       2.037  47.472 -11.759  1.00  0.00     0.219 HD
ENDBRANCH   9  24
BRANCH   6  26
HETATM   26  O1  UNL     1       1.605  42.117 -10.537  1.00  0.00    -0.344 OA
ATOM     27  H1  UNL     1       1.282  41.358 -11.007  1.00  0.00     0.219 HD
ENDBRANCH   6  26
TORSDOF 7
ENDMDL
MODEL 5
REMARK VINA RESULT: -7.236623263      2.973      4.798
REMARK  7 active torsions:
REMARK  status: ('A' for Active; 'I' for Inactive)
REMARK    1  A    between atoms: C4_6  and  O1_7 
REMARK    2  A    between atoms: C6_11  and  O2_12 
REMARK    3  A    between atoms: C8_15  and  C9_16 
REMARK    4  A    between atoms: C9_16  and  C10_17 
REMARK    5  A    between atoms: C10_17  and  C11_18 
REMARK    6  A    between atoms: C11_18  and  C12_19 
REMARK    7  A    between atoms: C17_25  and  O3_26 
ROOT
HETATM    1  C1  UNL     1      -0.101  52.969 -10.346  1.00  0.00     0.071 C 
HETATM    2  C2  UNL     1       0.411  51.582 -10.166  1.00  0.00     0.040 A 
HETATM    3  N1  UNL     1       1.690  51.335  -9.851  1.00  0.00    -0.353 N 
ATOM      4  H1  UNL     1       2.313  52.134  -9.734  1.00  0.00     0.166 HD
HETATM    5  C3  UNL     1       2.201  50.119  -9.678  1.00  0.00     0.099 A 
HETATM    6  C4  UNL     1       3.428  49.585  -9.355  1.00  0.00     0.172 A 
HETATM    7  N2  UNL     1       3.359  48.248  -9.310  1.00  0.00    -0.310 N 
HETATM    8  C5  UNL     1       4.460  47.321  -8.999  1.00  0.00     0.160 C 
HETATM    9  C6  UNL     1       2.096  47.904  -9.601  1.00  0.00     0.157 A 
HETATM   10  C7  UNL     1       1.340  49.034  -9.839  1.00  0.00     0.055 A 
HETATM   11  C8  UNL     1       0.009  49.237 -10.165  1.00  0.00    -0.006 A 
HETATM   12  C17 UNL     1      -0.476  50.522 -10.334  1.00  0.00     0.095 A 
ENDROOT
BRANCH  11  13
HETATM   13  C9  UNL     1      -0.895  48.092 -10.366  1.00  0.00     0.042 C 
BRANCH  13  14
HETATM   14  C10 UNL     1      -0.916  47.674 -11.798  1.00  0.00     0.005 C 
BRANCH  14  15
HETATM   15  C11 UNL     1      -0.303  46.288 -11.998  1.00  0.00     0.005 C 
BRANCH  15  16
HETATM   16  C12 UNL     1      -1.417  45.397 -12.471  1.00  0.00    -0.013 C 
HETATM   17  C13 UNL     1      -1.417  45.226 -13.982  1.00  0.00     0.006 C 
HETATM   18  C14 UNL     1      -2.467  44.111 -14.095  1.00  0.00     0.020 C 
HETATM   19  C15 UNL     1      -2.141  43.200 -12.912  1.00  0.00     0.082 C 
HETATM   20 CL1  UNL     1      -3.604  42.781 -11.994  1.00  0.00    -0.125 Cl
HETATM   21  C16 UNL     1      -1.217  43.971 -12.009  1.00  0.00     0.024 C 
ENDBRANCH  15  16
ENDBRANCH  14  15
ENDBRANCH  13  14
ENDBRANCH  11  13
BRANCH  12  22
HETATM   22  O3  UNL     1      -1.808  50.736 -10.660  1.00  0.00    -0.358 OA
ATOM     23  H3  UNL     1      -2.402  51.168 -10.058  1.00  0.00     0.217 HD
ENDBRANCH  12  22
BRANCH   9  24
HETATM   24  O2  UNL     1       1.665  46.573  -9.642  1.00  0.00    -0.345 OA
ATOM     25  H2  UNL     1       2.033  45.933 -10.240  1.00  0.00     0.219 HD
ENDBRANCH   9  24
BRANCH   6  26
HETATM   26  O1  UNL     1       4.591  50.296  -9.105  1.00  0.00    -0.344 OA
ATOM     27  H1  UNL     1       5.431  50.167  -9.529  1.00  0.00     0.219 HD
ENDBRANCH   6  26
TORSDOF 7
ENDMDL
