MODEL 1
REMARK VINA RESULT: -7.497369359      0.000      0.000
REMARK  6 active torsions:
REMARK  status: ('A' for Active; 'I' for Inactive)
REMARK    1  A    between atoms: C2_3  and  O1_4 
REMARK    2  A    between atoms: C4_8  and  C5_9 
REMARK    3  A    between atoms: C5_9  and  C6_10 
REMARK    4  A    between atoms: C5_9  and  C12_21 
REMARK       I    between atoms: C6_10  and  N2_12 
REMARK    5  A    between atoms: N2_12  and  C7_14 
REMARK    6  A    between atoms: C15_24  and  O3_25 
ROOT
HETATM    1  C5  UNL     1      -0.921  45.708 -11.730  1.00  0.00     0.121 C 
ENDROOT
BRANCH   1   2
HETATM    2  C4  UNL     1      -0.845  47.144 -11.399  1.00  0.00     0.032 A 
HETATM    3  C3  UNL     1      -1.904  48.006 -11.134  1.00  0.00     0.096 A 
HETATM    4  C2  UNL     1      -1.380  49.235 -10.829  1.00  0.00     0.166 A 
HETATM    5 CL1  UNL     1      -3.581  47.551 -11.193  1.00  0.00    -0.079 Cl
HETATM    6  N1  UNL     1      -0.040  49.174 -10.893  1.00  0.00    -0.311 N 
HETATM    7  C1  UNL     1       0.866  50.275 -10.636  1.00  0.00     0.160 C 
HETATM    8  C15 UNL     1       0.285  47.888 -11.243  1.00  0.00     0.152 A 
BRANCH   4   9
HETATM    9  O1  UNL     1      -2.159  50.362 -10.503  1.00  0.00    -0.345 OA
ATOM     10  H1  UNL     1      -2.681  50.884 -11.100  1.00  0.00     0.219 HD
ENDBRANCH   4   9
BRANCH   8  11
HETATM   11  O3  UNL     1       1.631  47.555 -11.376  1.00  0.00    -0.345 OA
ATOM     12  H3  UNL     1       2.056  47.707 -12.212  1.00  0.00     0.219 HD
ENDBRANCH   8  11
ENDBRANCH   1   2
BRANCH   1  13
HETATM   13  C6  UNL     1       0.255  45.007 -11.131  1.00  0.00     0.229 C 
HETATM   14  O2  UNL     1       1.292  44.867 -11.828  1.00  0.00    -0.273 OA
HETATM   15  N2  UNL     1       0.246  44.497  -9.822  1.00  0.00    -0.329 N 
ATOM     16  H2  UNL     1      -0.589  44.604  -9.247  1.00  0.00     0.165 HD
BRANCH  15  17
HETATM   17  C7  UNL     1       1.389  43.833  -9.285  1.00  0.00     0.160 C 
HETATM   18 CL2  UNL     1       1.018  42.905  -7.819  1.00  0.00    -0.083 Cl
HETATM   19  C8  UNL     1       2.046  42.892 -10.264  1.00  0.00     0.060 C 
HETATM   20  C9  UNL     1       3.554  42.941 -10.214  1.00  0.00     0.005 C 
HETATM   21  C10 UNL     1       4.101  42.876  -8.814  1.00  0.00     0.010 C 
HETATM   22  C11 UNL     1       4.038  44.223  -8.116  1.00  0.00     0.077 C 
HETATM   23  S1  UNL     1       2.617  45.110  -8.812  1.00  0.00    -0.122 SA
ENDBRANCH  15  17
ENDBRANCH   1  13
BRANCH   1  24
HETATM   24  C12 UNL     1      -1.012  45.505 -13.201  1.00  0.00     0.003 A 
HETATM   25  C13 UNL     1      -2.422  45.503 -13.767  1.00  0.00     0.006 A 
HETATM   26  C14 UNL     1      -1.564  44.260 -13.788  1.00  0.00     0.006 A 
ENDBRANCH   1  24
TORSDOF 6
ENDMDL
MODEL 2
REMARK VINA RESULT: -7.119076164      1.297      1.542
REMARK  6 active torsions:
REMARK  status: ('A' for Active; 'I' for Inactive)
REMARK    1  A    between atoms: C2_3  and  O1_4 
REMARK    2  A    between atoms: C4_8  and  C5_9 
REMARK    3  A    between atoms: C5_9  and  C6_10 
REMARK    4  A    between atoms: C5_9  and  C12_21 
REMARK       I    between atoms: C6_10  and  N2_12 
REMARK    5  A    between atoms: N2_12  and  C7_14 
REMARK    6  A    between atoms: C15_24  and  O3_25 
ROOT
HETATM    1  C5  UNL     1      -0.718  46.074 -11.286  1.00  0.00     0.121 C 
ENDROOT
BRANCH   1   2
HETATM    2  C4  UNL     1      -0.745  47.539 -11.109  1.00  0.00     0.032 A 
HETATM    3  C3  UNL     1      -1.865  48.362 -11.057  1.00  0.00     0.096 A 
HETATM    4  C2  UNL     1      -1.434  49.643 -10.834  1.00  0.00     0.166 A 
HETATM    5 CL1  UNL     1      -3.502  47.808 -11.248  1.00  0.00    -0.079 Cl
HETATM    6  N1  UNL     1      -0.095  49.652 -10.745  1.00  0.00    -0.311 N 
HETATM    7  C1  UNL     1       0.726  50.824 -10.514  1.00  0.00     0.160 C 
HETATM    8  C15 UNL     1       0.325  48.358 -10.914  1.00  0.00     0.152 A 
BRANCH   4   9
HETATM    9  O1  UNL     1      -2.295  50.752 -10.722  1.00  0.00    -0.345 OA
ATOM     10  H1  UNL     1      -3.003  50.985 -11.310  1.00  0.00     0.219 HD
ENDBRANCH   4   9
BRANCH   8  11
HETATM   11  O3  UNL     1       1.691  48.089 -10.861  1.00  0.00    -0.345 OA
ATOM     12  H3  UNL     1       2.236  48.619 -10.291  1.00  0.00     0.219 HD
ENDBRANCH   8  11
ENDBRANCH   1   2
BRANCH   1  13
HETATM   13  C6  UNL     1       0.672  45.579 -11.049  1.00  0.00     0.229 C 
HETATM   14  O2  UNL     1       1.502  45.641 -11.992  1.00  0.00    -0.273 OA
HETATM   15  N2  UNL     1       1.087  45.048  -9.816  1.00  0.00    -0.329 N 
ATOM     16  H2  UNL     1       0.423  44.992  -9.044  1.00  0.00     0.165 HD
BRANCH  15  17
HETATM   17  C7  UNL     1       2.424  44.585  -9.628  1.00  0.00     0.160 C 
HETATM   18 CL2  UNL     1       3.135  43.920 -11.111  1.00  0.00    -0.083 Cl
HETATM   19  C8  UNL     1       3.357  45.653  -9.115  1.00  0.00     0.060 C 
HETATM   20  C9  UNL     1       4.320  45.147  -8.068  1.00  0.00     0.005 C 
HETATM   21  C10 UNL     1       4.990  43.858  -8.456  1.00  0.00     0.010 C 
HETATM   22  C11 UNL     1       4.096  42.655  -8.209  1.00  0.00     0.077 C 
HETATM   23  S1  UNL     1       2.384  43.226  -8.399  1.00  0.00    -0.122 SA
ENDBRANCH  15  17
ENDBRANCH   1  13
BRANCH   1  24
HETATM   24  C12 UNL     1      -1.234  45.690 -12.627  1.00  0.00     0.003 A 
HETATM   25  C13 UNL     1      -2.456  44.786 -12.615  1.00  0.00     0.006 A 
HETATM   26  C14 UNL     1      -1.125  44.303 -13.143  1.00  0.00     0.006 A 
ENDBRANCH   1  24
TORSDOF 6
ENDMDL
MODEL 3
REMARK VINA RESULT: -6.930317032      2.003      3.735
REMARK  6 active torsions:
REMARK  status: ('A' for Active; 'I' for Inactive)
REMARK    1  A    between atoms: C2_3  and  O1_4 
REMARK    2  A    between atoms: C4_8  and  C5_9 
REMARK    3  A    between atoms: C5_9  and  C6_10 
REMARK    4  A    between atoms: C5_9  and  C12_21 
REMARK       I    between atoms: C6_10  and  N2_12 
REMARK    5  A    between atoms: N2_12  and  C7_14 
REMARK    6  A    between atoms: C15_24  and  O3_25 
ROOT
HETATM    1  C5  UNL     1       0.732  48.187 -11.239  1.00  0.00     0.121 C 
ENDROOT
BRANCH   1   2
HETATM    2  C4  UNL     1      -0.549  47.483 -11.450  1.00  0.00     0.032 A 
HETATM    3  C3  UNL     1      -1.830  47.985 -11.248  1.00  0.00     0.096 A 
HETATM    4  C2  UNL     1      -2.724  47.012 -11.610  1.00  0.00     0.166 A 
HETATM    5 CL1  UNL     1      -2.178  49.576 -10.640  1.00  0.00    -0.079 Cl
HETATM    6  N1  UNL     1      -2.054  45.928 -12.029  1.00  0.00    -0.311 N 
HETATM    7  C1  UNL     1      -2.654  44.693 -12.493  1.00  0.00     0.160 C 
HETATM    8  C15 UNL     1      -0.718  46.220 -11.929  1.00  0.00     0.152 A 
BRANCH   4   9
HETATM    9  O1  UNL     1      -4.122  47.166 -11.540  1.00  0.00    -0.345 OA
ATOM     10  H1  UNL     1      -4.714  47.333 -12.263  1.00  0.00     0.219 HD
ENDBRANCH   4   9
BRANCH   8  11
HETATM   11  O3  UNL     1       0.207  45.250 -12.311  1.00  0.00    -0.345 OA
ATOM     12  H3  UNL     1       0.427  44.565 -11.691  1.00  0.00     0.219 HD
ENDBRANCH   8  11
ENDBRANCH   1   2
BRANCH   1  13
HETATM   13  C6  UNL     1       1.803  47.180 -10.970  1.00  0.00     0.229 C 
HETATM   14  O2  UNL     1       2.800  47.143 -11.735  1.00  0.00    -0.273 OA
HETATM   15  N2  UNL     1       1.738  46.274  -9.898  1.00  0.00    -0.329 N 
ATOM     16  H2  UNL     1       0.934  46.294  -9.271  1.00  0.00     0.165 HD
BRANCH  15  17
HETATM   17  C7  UNL     1       2.781  45.326  -9.673  1.00  0.00     0.160 C 
HETATM   18 CL2  UNL     1       3.231  44.439 -11.142  1.00  0.00    -0.083 Cl
HETATM   19  C8  UNL     1       4.038  45.944  -9.113  1.00  0.00     0.060 C 
HETATM   20  C9  UNL     1       4.688  45.102  -8.042  1.00  0.00     0.005 C 
HETATM   21  C10 UNL     1       4.816  43.654  -8.428  1.00  0.00     0.010 C 
HETATM   22  C11 UNL     1       3.516  42.895  -8.231  1.00  0.00     0.077 C 
HETATM   23  S1  UNL     1       2.170  44.088  -8.468  1.00  0.00    -0.122 SA
ENDBRANCH  15  17
ENDBRANCH   1  13
BRANCH   1  24
HETATM   24  C12 UNL     1       0.614  49.192 -10.150  1.00  0.00     0.003 A 
HETATM   25  C13 UNL     1       1.132  50.579 -10.492  1.00  0.00     0.006 A 
HETATM   26  C14 UNL     1       1.804  49.725  -9.441  1.00  0.00     0.006 A 
ENDBRANCH   1  24
TORSDOF 6
ENDMDL
MODEL 4
REMARK VINA RESULT: -6.834686659      2.700      6.140
REMARK  6 active torsions:
REMARK  status: ('A' for Active; 'I' for Inactive)
REMARK    1  A    between atoms: C2_3  and  O1_4 
REMARK    2  A    between atoms: C4_8  and  C5_9 
REMARK    3  A    between atoms: C5_9  and  C6_10 
REMARK    4  A    between atoms: C5_9  and  C12_21 
REMARK       I    between atoms: C6_10  and  N2_12 
REMARK    5  A    between atoms: N2_12  and  C7_14 
REMARK    6  A    between atoms: C15_24  and  O3_25 
ROOT
HETATM    1  C5  UNL     1       0.940  45.616 -10.324  1.00  0.00     0.121 C 
ENDROOT
BRANCH   1   2
HETATM    2  C4  UNL     1       1.949  44.608  -9.942  1.00  0.00     0.032 A 
HETATM    3  C3  UNL     1       2.013  43.888  -8.754  1.00  0.00     0.096 A 
HETATM    4  C2  UNL     1       3.079  43.031  -8.838  1.00  0.00     0.166 A 
HETATM    5 CL1  UNL     1       0.908  44.082  -7.426  1.00  0.00    -0.079 Cl
HETATM    6  N1  UNL     1       3.680  43.187 -10.028  1.00  0.00    -0.311 N 
HETATM    7  C1  UNL     1       4.844  42.457 -10.486  1.00  0.00     0.160 C 
HETATM    8  C15 UNL     1       2.983  44.156 -10.704  1.00  0.00     0.152 A 
BRANCH   4   9
HETATM    9  O1  UNL     1       3.453  42.140  -7.814  1.00  0.00    -0.345 OA
ATOM     10  H1  UNL     1       3.004  41.342  -7.561  1.00  0.00     0.219 HD
ENDBRANCH   4   9
BRANCH   8  11
HETATM   11  O3  UNL     1       3.404  44.509 -11.984  1.00  0.00    -0.345 OA
ATOM     12  H3  UNL     1       2.953  45.216 -12.431  1.00  0.00     0.219 HD
ENDBRANCH   8  11
ENDBRANCH   1   2
BRANCH   1  13
HETATM   13  C6  UNL     1       0.014  45.020 -11.334  1.00  0.00     0.229 C 
HETATM   14  O2  UNL     1       0.450  44.791 -12.491  1.00  0.00    -0.273 OA
HETATM   15  N2  UNL     1      -1.324  44.706 -11.041  1.00  0.00    -0.329 N 
ATOM     16  H2  UNL     1      -1.690  44.887 -10.107  1.00  0.00     0.165 HD
BRANCH  15  17
HETATM   17  C7  UNL     1      -2.179  44.137 -12.033  1.00  0.00     0.160 C 
HETATM   18 CL2  UNL     1      -3.868  44.030 -11.503  1.00  0.00    -0.083 Cl
HETATM   19  C8  UNL     1      -2.159  44.891 -13.340  1.00  0.00     0.060 C 
HETATM   20  C9  UNL     1      -2.166  43.986 -14.548  1.00  0.00     0.005 C 
HETATM   21  C10 UNL     1      -3.200  42.898 -14.464  1.00  0.00     0.010 C 
HETATM   22  C11 UNL     1      -2.736  41.737 -13.602  1.00  0.00     0.077 C 
HETATM   23  S1  UNL     1      -1.611  42.425 -12.357  1.00  0.00    -0.122 SA
ENDBRANCH  15  17
ENDBRANCH   1  13
BRANCH   1  24
HETATM   24  C12 UNL     1       1.591  46.859 -10.818  1.00  0.00     0.003 A 
HETATM   25  C13 UNL     1       1.485  48.056  -9.889  1.00  0.00     0.006 A 
HETATM   26  C14 UNL     1       0.803  48.044 -11.237  1.00  0.00     0.006 A 
ENDBRANCH   1  24
TORSDOF 6
ENDMDL
MODEL 5
REMARK VINA RESULT: -6.652265150      2.250      4.153
REMARK  6 active torsions:
REMARK  status: ('A' for Active; 'I' for Inactive)
REMARK    1  A    between atoms: C2_3  and  O1_4 
REMARK    2  A    between atoms: C4_8  and  C5_9 
REMARK    3  A    between atoms: C5_9  and  C6_10 
REMARK    4  A    between atoms: C5_9  and  C12_21 
REMARK       I    between atoms: C6_10  and  N2_12 
REMARK    5  A    between atoms: N2_12  and  C7_14 
REMARK    6  A    between atoms: C15_24  and  O3_25 
ROOT
HETATM    1  C5  UNL     1      -0.157  45.867 -12.138  1.00  0.00     0.121 C 
ENDROOT
BRANCH   1   2
HETATM    2  C4  UNL     1      -1.056  44.866 -12.747  1.00  0.00     0.032 A 
HETATM    3  C3  UNL     1      -1.653  44.921 -14.001  1.00  0.00     0.096 A 
HETATM    4  C2  UNL     1      -2.366  43.764 -14.178  1.00  0.00     0.166 A 
HETATM    5 CL1  UNL     1      -1.490  46.250 -15.111  1.00  0.00    -0.079 Cl
HETATM    6  N1  UNL     1      -2.238  42.993 -13.088  1.00  0.00    -0.311 N 
HETATM    7  C1  UNL     1      -2.847  41.692 -12.899  1.00  0.00     0.160 C 
HETATM    8  C15 UNL     1      -1.432  43.672 -12.210  1.00  0.00     0.152 A 
BRANCH   4   9
HETATM    9  O1  UNL     1      -3.107  43.469 -15.339  1.00  0.00    -0.345 OA
ATOM     10  H1  UNL     1      -3.195  44.013 -16.112  1.00  0.00     0.219 HD
ENDBRANCH   4   9
BRANCH   8  11
HETATM   11  O3  UNL     1      -1.133  43.080 -10.985  1.00  0.00    -0.345 OA
ATOM     12  H3  UNL     1      -0.966  43.643 -10.238  1.00  0.00     0.219 HD
ENDBRANCH   8  11
ENDBRANCH   1   2
BRANCH   1  13
HETATM   13  C6  UNL     1       0.894  45.160 -11.345  1.00  0.00     0.229 C 
HETATM   14  O2  UNL     1       1.927  44.757 -11.938  1.00  0.00    -0.273 OA
HETATM   15  N2  UNL     1       0.772  44.928  -9.965  1.00  0.00    -0.329 N 
ATOM     16  H2  UNL     1      -0.061  45.249  -9.473  1.00  0.00     0.165 HD
BRANCH  15  17
HETATM   17  C7  UNL     1       1.797  44.248  -9.241  1.00  0.00     0.160 C 
HETATM   18 CL2  UNL     1       1.229  43.597  -7.693  1.00  0.00    -0.083 Cl
HETATM   19  C8  UNL     1       2.417  43.109 -10.013  1.00  0.00     0.060 C 
HETATM   20  C9  UNL     1       3.914  43.021  -9.844  1.00  0.00     0.005 C 
HETATM   21  C10 UNL     1       4.352  43.121  -8.408  1.00  0.00     0.010 C 
HETATM   22  C11 UNL     1       4.386  44.560  -7.923  1.00  0.00     0.077 C 
HETATM   23  S1  UNL     1       3.119  45.460  -8.859  1.00  0.00    -0.122 SA
ENDBRANCH  15  17
ENDBRANCH   1  13
BRANCH   1  24
HETATM   24  C12 UNL     1      -0.924  46.842 -11.319  1.00  0.00     0.003 A 
HETATM   25  C13 UNL     1      -1.236  48.161 -12.007  1.00  0.00     0.006 A 
HETATM   26  C14 UNL     1      -0.312  48.096 -10.813  1.00  0.00     0.006 A 
ENDBRANCH   1  24
TORSDOF 6
ENDMDL
