MODEL 1
REMARK VINA RESULT: -8.623302573      0.000      0.000
REMARK  6 active torsions:
REMARK  status: ('A' for Active; 'I' for Inactive)
REMARK       I    between atoms: C1_2  and  N2_3 
REMARK    1  A    between atoms: N3_5  and  C2_7 
REMARK    2  A    between atoms: C2_7  and  C9_17 
REMARK    3  A    between atoms: N4_8  and  O1_10 
REMARK    4  A    between atoms: O1_10  and  C3_11 
REMARK    5  A    between atoms: C11_19  and  O2_20 
REMARK    6  A    between atoms: N5_27  and  O3_29 
ROOT
HETATM    1  C2  UNL     1      -0.730  45.539 -12.320  1.00  0.00     0.152 C 
HETATM    2  N4  UNL     1       0.539  45.453 -12.020  1.00  0.00    -0.248 N 
ATOM      3  H4  UNL     1       1.031  44.564 -12.108  1.00  0.00     0.196 HD
ENDROOT
BRANCH   1   4
HETATM    4  N3  UNL     1      -1.421  46.776 -12.201  1.00  0.00    -0.281 N 
HETATM    5  N2  UNL     1      -1.848  47.208 -11.081  1.00  0.00    -0.270 N 
HETATM    6  C1  UNL     1      -2.524  48.445 -11.052  1.00  0.00     0.227 C 
ATOM      7  H2  UNL     1      -1.705  46.673 -10.225  1.00  0.00     0.189 HD
HETATM    8  N1  UNL     1      -1.833  49.671 -10.925  1.00  0.00    -0.060 NA
HETATM    9  N5  UNL     1      -3.818  48.466 -11.146  1.00  0.00    -0.240 N 
ATOM     10  H5  UNL     1      -4.304  49.362 -11.125  1.00  0.00     0.197 HD
ATOM     11  H3  UNL     1      -1.580  47.335 -13.039  1.00  0.00     0.188 HD
BRANCH   9  12
HETATM   12  O3  UNL     1      -4.550  47.305 -11.272  1.00  0.00    -0.287 OA
ATOM     13  H3  UNL     1      -4.278  46.607 -11.857  1.00  0.00     0.244 HD
ENDBRANCH   9  12
ENDBRANCH   1   4
BRANCH   1  14
HETATM   14  C9  UNL     1      -1.417  44.355 -12.773  1.00  0.00     0.035 A 
HETATM   15  C10 UNL     1      -1.484  43.247 -11.965  1.00  0.00     0.056 A 
HETATM   16  C11 UNL     1      -2.143  42.125 -12.410  1.00  0.00     0.105 A 
HETATM   17  C12 UNL     1      -2.721  42.126 -13.651  1.00  0.00     0.151 A 
HETATM   18  F1  UNL     1      -3.359  41.009 -14.056  1.00  0.00    -0.203 F 
HETATM   19  C13 UNL     1      -2.655  43.234 -14.461  1.00  0.00     0.070 A 
HETATM   20  C14 UNL     1      -1.996  44.349 -14.006  1.00  0.00     0.051 A 
HETATM   21 CL1  UNL     1      -1.943  45.737 -15.088  1.00  0.00    -0.083 Cl
BRANCH  16  22
HETATM   22  O2  UNL     1      -2.184  41.025 -11.554  1.00  0.00    -0.358 OA
ATOM     23  H2  UNL     1      -1.518  40.973 -10.879  1.00  0.00     0.217 HD
ENDBRANCH  16  22
ENDBRANCH   1  14
BRANCH   2  24
HETATM   24  O1  UNL     1       1.191  46.559 -11.593  1.00  0.00    -0.273 OA
BRANCH  24  25
HETATM   25  C3  UNL     1       1.671  46.712 -10.273  1.00  0.00     0.152 C 
HETATM   26  C4  UNL     1       3.015  47.403 -10.320  1.00  0.00     0.034 C 
HETATM   27  C5  UNL     1       3.406  47.625  -8.880  1.00  0.00     0.002 C 
HETATM   28  C6  UNL     1       3.688  46.312  -8.250  1.00  0.00     0.000 C 
HETATM   29  C7  UNL     1       2.925  45.156  -8.732  1.00  0.00     0.002 C 
HETATM   30  C8  UNL     1       1.704  45.414  -9.534  1.00  0.00     0.034 C 
ENDBRANCH  24  25
ENDBRANCH   2  24
TORSDOF 6
ENDMDL
MODEL 2
REMARK VINA RESULT: -8.377788471      2.193      2.681
REMARK  6 active torsions:
REMARK  status: ('A' for Active; 'I' for Inactive)
REMARK       I    between atoms: C1_2  and  N2_3 
REMARK    1  A    between atoms: N3_5  and  C2_7 
REMARK    2  A    between atoms: C2_7  and  C9_17 
REMARK    3  A    between atoms: N4_8  and  O1_10 
REMARK    4  A    between atoms: O1_10  and  C3_11 
REMARK    5  A    between atoms: C11_19  and  O2_20 
REMARK    6  A    between atoms: N5_27  and  O3_29 
ROOT
HETATM    1  C2  UNL     1      -0.307  46.241 -11.940  1.00  0.00     0.152 C 
HETATM    2  N4  UNL     1       0.992  46.116 -11.892  1.00  0.00    -0.248 N 
ATOM      3  H4  UNL     1       1.455  45.351 -12.382  1.00  0.00     0.196 HD
ENDROOT
BRANCH   1   4
HETATM    4  N3  UNL     1      -0.959  47.306 -11.259  1.00  0.00    -0.281 N 
HETATM    5  N2  UNL     1      -0.914  48.508 -11.680  1.00  0.00    -0.270 N 
HETATM    6  C1  UNL     1      -1.587  49.503 -10.943  1.00  0.00     0.227 C 
ATOM      7  H2  UNL     1      -0.402  48.745 -12.530  1.00  0.00     0.189 HD
HETATM    8  N1  UNL     1      -2.954  49.794 -11.157  1.00  0.00    -0.060 NA
HETATM    9  N5  UNL     1      -0.941  50.175 -10.041  1.00  0.00    -0.240 N 
ATOM     10  H5  UNL     1      -1.431  50.894  -9.510  1.00  0.00     0.197 HD
ATOM     11  H3  UNL     1      -1.479  47.101 -10.405  1.00  0.00     0.188 HD
BRANCH   9  12
HETATM   12  O3  UNL     1       0.392  49.939  -9.785  1.00  0.00    -0.287 OA
ATOM     13  H3  UNL     1       0.702  49.741  -8.909  1.00  0.00     0.244 HD
ENDBRANCH   9  12
ENDBRANCH   1   4
BRANCH   1  14
HETATM   14  C9  UNL     1      -1.069  45.280 -12.698  1.00  0.00     0.035 A 
HETATM   15  C10 UNL     1      -1.697  45.660 -13.858  1.00  0.00     0.056 A 
HETATM   16  C11 UNL     1      -2.420  44.733 -14.570  1.00  0.00     0.105 A 
HETATM   17  C12 UNL     1      -2.506  43.445 -14.114  1.00  0.00     0.151 A 
HETATM   18  F1  UNL     1      -3.225  42.562 -14.838  1.00  0.00    -0.203 F 
HETATM   19  C13 UNL     1      -1.879  43.062 -12.954  1.00  0.00     0.070 A 
HETATM   20  C14 UNL     1      -1.159  43.996 -12.251  1.00  0.00     0.051 A 
HETATM   21 CL1  UNL     1      -0.378  43.448 -10.771  1.00  0.00    -0.083 Cl
BRANCH  16  22
HETATM   22  O2  UNL     1      -3.039  45.167 -15.742  1.00  0.00    -0.358 OA
ATOM     23  H2  UNL     1      -3.840  44.727 -16.001  1.00  0.00     0.217 HD
ENDBRANCH  16  22
ENDBRANCH   1  14
BRANCH   2  24
HETATM   24  O1  UNL     1       1.714  47.013 -11.182  1.00  0.00    -0.273 OA
BRANCH  24  25
HETATM   25  C3  UNL     1       2.755  46.644 -10.301  1.00  0.00     0.152 C 
HETATM   26  C4  UNL     1       3.126  45.202 -10.560  1.00  0.00     0.034 C 
HETATM   27  C5  UNL     1       4.306  44.920  -9.663  1.00  0.00     0.002 C 
HETATM   28  C6  UNL     1       3.853  44.936  -8.251  1.00  0.00     0.000 C 
HETATM   29  C7  UNL     1       2.750  45.840  -7.908  1.00  0.00     0.002 C 
HETATM   30  C8  UNL     1       2.404  46.912  -8.874  1.00  0.00     0.034 C 
ENDBRANCH  24  25
ENDBRANCH   2  24
TORSDOF 6
ENDMDL
MODEL 3
REMARK VINA RESULT: -8.311438783      3.664      5.858
REMARK  6 active torsions:
REMARK  status: ('A' for Active; 'I' for Inactive)
REMARK       I    between atoms: C1_2  and  N2_3 
REMARK    1  A    between atoms: N3_5  and  C2_7 
REMARK    2  A    between atoms: C2_7  and  C9_17 
REMARK    3  A    between atoms: N4_8  and  O1_10 
REMARK    4  A    between atoms: O1_10  and  C3_11 
REMARK    5  A    between atoms: C11_19  and  O2_20 
REMARK    6  A    between atoms: N5_27  and  O3_29 
ROOT
HETATM    1  C2  UNL     1       1.032  44.629 -10.875  1.00  0.00     0.152 C 
HETATM    2  N4  UNL     1       0.941  45.904 -10.611  1.00  0.00    -0.248 N 
ATOM      3  H4  UNL     1       1.625  46.357 -10.006  1.00  0.00     0.196 HD
ENDROOT
BRANCH   1   4
HETATM    4  N3  UNL     1       0.081  43.992 -11.719  1.00  0.00    -0.281 N 
HETATM    5  N2  UNL     1      -1.092  43.699 -11.317  1.00  0.00    -0.270 N 
HETATM    6  C1  UNL     1      -1.973  43.069 -12.219  1.00  0.00     0.227 C 
ATOM      7  H2  UNL     1      -1.388  43.917 -10.365  1.00  0.00     0.189 HD
HETATM    8  N1  UNL     1      -2.784  43.807 -13.111  1.00  0.00    -0.060 NA
HETATM    9  N5  UNL     1      -2.046  41.774 -12.237  1.00  0.00    -0.240 N 
ATOM     10  H5  UNL     1      -2.683  41.320 -12.891  1.00  0.00     0.197 HD
ATOM     11  H3  UNL     1       0.347  43.762 -12.677  1.00  0.00     0.188 HD
BRANCH   9  12
HETATM   12  O3  UNL     1      -1.281  40.997 -11.393  1.00  0.00    -0.287 OA
ATOM     13  H3  UNL     1      -0.350  40.879 -11.535  1.00  0.00     0.244 HD
ENDBRANCH   9  12
ENDBRANCH   1   4
BRANCH   1  14
HETATM   14  C9  UNL     1       2.117  43.876 -10.294  1.00  0.00     0.035 A 
HETATM   15  C10 UNL     1       3.217  43.558 -11.052  1.00  0.00     0.056 A 
HETATM   16  C11 UNL     1       4.243  42.840 -10.485  1.00  0.00     0.105 A 
HETATM   17  C12 UNL     1       4.156  42.452  -9.175  1.00  0.00     0.151 A 
HETATM   18  F1  UNL     1       5.182  41.749  -8.652  1.00  0.00    -0.203 F 
HETATM   19  C13 UNL     1       3.057  42.770  -8.415  1.00  0.00     0.070 A 
HETATM   20  C14 UNL     1       2.038  43.488  -8.991  1.00  0.00     0.051 A 
HETATM   21 CL1  UNL     1       0.655  43.864  -7.968  1.00  0.00    -0.083 Cl
BRANCH  16  22
HETATM   22  O2  UNL     1       5.338  42.542 -11.295  1.00  0.00    -0.358 OA
ATOM     23  H2  UNL     1       5.615  41.634 -11.337  1.00  0.00     0.217 HD
ENDBRANCH  16  22
ENDBRANCH   1  14
BRANCH   2  24
HETATM   24  O1  UNL     1      -0.075  46.617 -11.151  1.00  0.00    -0.273 OA
BRANCH  24  25
HETATM   25  C3  UNL     1      -0.042  48.022 -11.297  1.00  0.00     0.152 C 
HETATM   26  C4  UNL     1       0.964  48.590 -10.323  1.00  0.00     0.034 C 
HETATM   27  C5  UNL     1       1.019  50.069 -10.614  1.00  0.00     0.002 C 
HETATM   28  C6  UNL     1      -0.269  50.687 -10.216  1.00  0.00     0.000 C 
HETATM   29  C7  UNL     1      -1.476  49.863 -10.338  1.00  0.00     0.002 C 
HETATM   30  C8  UNL     1      -1.398  48.632 -11.163  1.00  0.00     0.034 C 
ENDBRANCH  24  25
ENDBRANCH   2  24
TORSDOF 6
ENDMDL
MODEL 4
REMARK VINA RESULT: -8.288180284      2.897      5.853
REMARK  6 active torsions:
REMARK  status: ('A' for Active; 'I' for Inactive)
REMARK       I    between atoms: C1_2  and  N2_3 
REMARK    1  A    between atoms: N3_5  and  C2_7 
REMARK    2  A    between atoms: C2_7  and  C9_17 
REMARK    3  A    between atoms: N4_8  and  O1_10 
REMARK    4  A    between atoms: O1_10  and  C3_11 
REMARK    5  A    between atoms: C11_19  and  O2_20 
REMARK    6  A    between atoms: N5_27  and  O3_29 
ROOT
HETATM    1  C2  UNL     1      -0.006  46.297 -11.687  1.00  0.00     0.152 C 
HETATM    2  N4  UNL     1      -0.023  45.269 -12.493  1.00  0.00    -0.248 N 
ATOM      3  H4  UNL     1       0.686  44.540 -12.415  1.00  0.00     0.196 HD
ENDROOT
BRANCH   1   4
HETATM    4  N3  UNL     1      -0.993  47.316 -11.791  1.00  0.00    -0.281 N 
HETATM    5  N2  UNL     1      -1.691  47.687 -10.791  1.00  0.00    -0.270 N 
HETATM    6  C1  UNL     1      -2.647  48.705 -10.981  1.00  0.00     0.227 C 
ATOM      7  H2  UNL     1      -1.560  47.259  -9.875  1.00  0.00     0.189 HD
HETATM    8  N1  UNL     1      -2.313  50.074 -10.878  1.00  0.00    -0.060 NA
HETATM    9  N5  UNL     1      -3.873  48.383 -11.260  1.00  0.00    -0.240 N 
ATOM     10  H5  UNL     1      -4.563  49.121 -11.397  1.00  0.00     0.197 HD
ATOM     11  H3  UNL     1      -1.147  47.764 -12.694  1.00  0.00     0.188 HD
BRANCH   9  12
HETATM   12  O3  UNL     1      -4.263  47.065 -11.374  1.00  0.00    -0.287 OA
ATOM     13  H3  UNL     1      -3.810  46.372 -10.910  1.00  0.00     0.244 HD
ENDBRANCH   9  12
ENDBRANCH   1   4
BRANCH   1  14
HETATM   14  C9  UNL     1       1.031  46.379 -10.689  1.00  0.00     0.035 A 
HETATM   15  C10 UNL     1       1.219  45.345  -9.805  1.00  0.00     0.056 A 
HETATM   16  C11 UNL     1       2.213  45.437  -8.859  1.00  0.00     0.105 A 
HETATM   17  C12 UNL     1       2.999  46.556  -8.809  1.00  0.00     0.151 A 
HETATM   18  F1  UNL     1       3.964  46.613  -7.868  1.00  0.00    -0.203 F 
HETATM   19  C13 UNL     1       2.813  47.592  -9.692  1.00  0.00     0.070 A 
HETATM   20  C14 UNL     1       1.819  47.489 -10.634  1.00  0.00     0.051 A 
HETATM   21 CL1  UNL     1       1.626  48.847 -11.737  1.00  0.00    -0.083 Cl
BRANCH  16  22
HETATM   22  O2  UNL     1       2.364  44.362  -7.985  1.00  0.00    -0.358 OA
ATOM     23  H2  UNL     1       2.958  44.476  -7.252  1.00  0.00     0.217 HD
ENDBRANCH  16  22
ENDBRANCH   1  14
BRANCH   2  24
HETATM   24  O1  UNL     1      -0.993  45.185 -13.433  1.00  0.00    -0.273 OA
BRANCH  24  25
HETATM   25  C3  UNL     1      -2.181  44.443 -13.253  1.00  0.00     0.152 C 
HETATM   26  C4  UNL     1      -2.169  43.828 -11.873  1.00  0.00     0.034 C 
HETATM   27  C5  UNL     1      -3.507  43.148 -11.720  1.00  0.00     0.002 C 
HETATM   28  C6  UNL     1      -3.565  41.987 -12.641  1.00  0.00     0.000 C 
HETATM   29  C7  UNL     1      -2.829  42.092 -13.905  1.00  0.00     0.002 C 
HETATM   30  C8  UNL     1      -2.385  43.439 -14.341  1.00  0.00     0.034 C 
ENDBRANCH  24  25
ENDBRANCH   2  24
TORSDOF 6
ENDMDL
MODEL 5
REMARK VINA RESULT: -8.250759584      3.603      7.190
REMARK  6 active torsions:
REMARK  status: ('A' for Active; 'I' for Inactive)
REMARK       I    between atoms: C1_2  and  N2_3 
REMARK    1  A    between atoms: N3_5  and  C2_7 
REMARK    2  A    between atoms: C2_7  and  C9_17 
REMARK    3  A    between atoms: N4_8  and  O1_10 
REMARK    4  A    between atoms: O1_10  and  C3_11 
REMARK    5  A    between atoms: C11_19  and  O2_20 
REMARK    6  A    between atoms: N5_27  and  O3_29 
ROOT
HETATM    1  C2  UNL     1       0.164  46.251 -11.084  1.00  0.00     0.152 C 
HETATM    2  N4  UNL     1      -0.534  45.763 -12.074  1.00  0.00    -0.248 N 
ATOM      3  H4  UNL     1      -1.006  46.385 -12.730  1.00  0.00     0.196 HD
ENDROOT
BRANCH   1   4
HETATM    4  N3  UNL     1       0.825  45.388 -10.168  1.00  0.00    -0.281 N 
HETATM    5  N2  UNL     1       1.672  44.514 -10.549  1.00  0.00    -0.270 N 
HETATM    6  C1  UNL     1       2.280  43.699  -9.574  1.00  0.00     0.227 C 
ATOM      7  H2  UNL     1       1.903  44.408 -11.537  1.00  0.00     0.189 HD
HETATM    8  N1  UNL     1       3.450  44.100  -8.889  1.00  0.00    -0.060 NA
HETATM    9  N5  UNL     1       1.758  42.546  -9.292  1.00  0.00    -0.240 N 
ATOM     10  H5  UNL     1       2.201  41.958  -8.586  1.00  0.00     0.197 HD
ATOM     11  H3  UNL     1       0.615  45.470  -9.173  1.00  0.00     0.188 HD
BRANCH   9  12
HETATM   12  O3  UNL     1       0.619  42.097  -9.924  1.00  0.00    -0.287 OA
ATOM     13  H3  UNL     1       0.447  41.170 -10.039  1.00  0.00     0.244 HD
ENDBRANCH   9  12
ENDBRANCH   1   4
BRANCH   1  14
HETATM   14  C9  UNL     1       0.253  47.683 -10.938  1.00  0.00     0.035 A 
HETATM   15  C10 UNL     1      -0.887  48.428 -10.759  1.00  0.00     0.056 A 
HETATM   16  C11 UNL     1      -0.787  49.792 -10.621  1.00  0.00     0.105 A 
HETATM   17  C12 UNL     1       0.443  50.389 -10.664  1.00  0.00     0.151 A 
HETATM   18  F1  UNL     1       0.504  51.730 -10.526  1.00  0.00    -0.203 F 
HETATM   19  C13 UNL     1       1.585  49.646 -10.843  1.00  0.00     0.070 A 
HETATM   20  C14 UNL     1       1.474  48.284 -10.979  1.00  0.00     0.051 A 
HETATM   21 CL1  UNL     1       2.970  47.384 -11.207  1.00  0.00    -0.083 Cl
BRANCH  16  22
HETATM   22  O2  UNL     1      -1.972  50.505 -10.441  1.00  0.00    -0.358 OA
ATOM     23  H2  UNL     1      -1.910  51.353 -10.018  1.00  0.00     0.217 HD
ENDBRANCH  16  22
ENDBRANCH   1  14
BRANCH   2  24
HETATM   24  O1  UNL     1      -0.623  44.420 -12.218  1.00  0.00    -0.273 OA
BRANCH  24  25
HETATM   25  C3  UNL     1      -1.828  43.754 -12.534  1.00  0.00     0.152 C 
HETATM   26  C4  UNL     1      -1.679  42.288 -12.200  1.00  0.00     0.034 C 
HETATM   27  C5  UNL     1      -3.032  41.673 -12.462  1.00  0.00     0.002 C 
HETATM   28  C6  UNL     1      -3.296  41.694 -13.921  1.00  0.00     0.000 C 
HETATM   29  C7  UNL     1      -2.728  42.804 -14.693  1.00  0.00     0.002 C 
HETATM   30  C8  UNL     1      -2.248  43.994 -13.948  1.00  0.00     0.034 C 
ENDBRANCH  24  25
ENDBRANCH   2  24
TORSDOF 6
ENDMDL
