MODEL 1
REMARK VINA RESULT: -7.123112585      0.000      0.000
REMARK  8 active torsions:
REMARK  status: ('A' for Active; 'I' for Inactive)
REMARK    1  A    between atoms: C2_2  and  N1_4 
REMARK    2  A    between atoms: N1_4  and  C4_6 
REMARK    3  A    between atoms: C4_6  and  O1_7 
REMARK    4  A    between atoms: C5_9  and  C6_10 
REMARK    5  A    between atoms: C6_10  and  C7_11 
REMARK    6  A    between atoms: C7_11  and  C8_12 
REMARK    7  A    between atoms: C8_12  and  C9_13 
REMARK    8  A    between atoms: C11_15  and  N2_16 
ROOT
HETATM    1  C7  UNL     1      -4.549   5.935  13.683  1.00  0.00     0.003 C 
ENDROOT
BRANCH   1   2
HETATM    2  C6  UNL     1      -4.126   5.911  12.338  1.00  0.00     0.004 C 
BRANCH   2   3
HETATM    3  C5  UNL     1      -4.410   5.078  11.404  1.00  0.00     0.055 C 
HETATM    4  C4  UNL     1      -3.963   3.781  11.083  1.00  0.00     0.135 C 
BRANCH   4   5
HETATM    5  N1  UNL     1      -3.050   2.908  11.648  1.00  0.00    -0.367 N 
ATOM      6  H1  UNL     1      -2.428   3.215  12.396  1.00  0.00     0.162 HD
BRANCH   5   7
HETATM    7  C2  UNL     1      -2.996   1.497  11.135  1.00  0.00     0.075 C 
HETATM    8  C1  UNL     1      -3.756   0.583  12.058  1.00  0.00     0.032 C 
HETATM    9  C3  UNL     1      -1.534   1.085  11.057  1.00  0.00     0.032 C 
ENDBRANCH   5   7
ENDBRANCH   4   5
BRANCH   4  10
HETATM   10  O1  UNL     1      -4.571   3.305   9.980  1.00  0.00    -0.346 OA
ATOM     11  H1  UNL     1      -4.994   2.463  10.101  1.00  0.00     0.219 HD
ENDBRANCH   4  10
ENDBRANCH   2   3
ENDBRANCH   1   2
BRANCH   1  12
HETATM   12  C8  UNL     1      -5.621   5.385  14.165  1.00  0.00     0.037 C 
BRANCH  12  13
HETATM   13  C9  UNL     1      -5.707   4.106  14.830  1.00  0.00     0.079 A 
HETATM   14  C10 UNL     1      -4.729   3.088  14.744  1.00  0.00     0.076 A 
HETATM   15  C11 UNL     1      -5.137   2.020  15.497  1.00  0.00     0.146 A 
HETATM   16  C12 UNL     1      -6.346   2.405  16.023  1.00  0.00     0.155 A 
HETATM   17 BR1  UNL     1      -7.382   1.268  17.180  1.00  0.00    -0.020 Br
HETATM   18  O4  UNL     1      -6.621   3.597  15.613  1.00  0.00    -0.301 OA
BRANCH  15  19
HETATM   19  N2  UNL     1      -4.471   0.783  15.700  1.00  0.00    -0.112 N 
HETATM   20  O2  UNL     1      -3.437   0.747  16.349  1.00  0.00    -0.532 OA
HETATM   21  O3  UNL     1      -4.981  -0.376  15.172  1.00  0.00    -0.532 OA
ENDBRANCH  15  19
ENDBRANCH  12  13
ENDBRANCH   1  12
TORSDOF 8
ENDMDL
MODEL 2
REMARK VINA RESULT: -7.039169538      1.375      1.610
REMARK  8 active torsions:
REMARK  status: ('A' for Active; 'I' for Inactive)
REMARK    1  A    between atoms: C2_2  and  N1_4 
REMARK    2  A    between atoms: N1_4  and  C4_6 
REMARK    3  A    between atoms: C4_6  and  O1_7 
REMARK    4  A    between atoms: C5_9  and  C6_10 
REMARK    5  A    between atoms: C6_10  and  C7_11 
REMARK    6  A    between atoms: C7_11  and  C8_12 
REMARK    7  A    between atoms: C8_12  and  C9_13 
REMARK    8  A    between atoms: C11_15  and  N2_16 
ROOT
HETATM    1  C7  UNL     1      -4.917   5.634  12.928  1.00  0.00     0.003 C 
ENDROOT
BRANCH   1   2
HETATM    2  C6  UNL     1      -3.577   6.037  12.758  1.00  0.00     0.004 C 
BRANCH   2   3
HETATM    3  C5  UNL     1      -2.494   5.359  12.884  1.00  0.00     0.055 C 
HETATM    4  C4  UNL     1      -1.974   4.221  12.236  1.00  0.00     0.135 C 
BRANCH   4   5
HETATM    5  N1  UNL     1      -2.428   3.399  11.219  1.00  0.00    -0.367 N 
ATOM      6  H1  UNL     1      -2.428   3.720  10.250  1.00  0.00     0.162 HD
BRANCH   5   7
HETATM    7  C2  UNL     1      -2.918   2.025  11.574  1.00  0.00     0.075 C 
HETATM    8  C1  UNL     1      -2.005   0.983  10.987  1.00  0.00     0.032 C 
HETATM    9  C3  UNL     1      -4.327   1.876  11.022  1.00  0.00     0.032 C 
ENDBRANCH   5   7
ENDBRANCH   4   5
BRANCH   4  10
HETATM   10  O1  UNL     1      -0.771   3.875  12.730  1.00  0.00    -0.346 OA
ATOM     11  H1  UNL     1      -0.535   4.326  13.532  1.00  0.00     0.219 HD
ENDBRANCH   4  10
ENDBRANCH   2   3
ENDBRANCH   1   2
BRANCH   1  12
HETATM   12  C8  UNL     1      -5.519   5.413  14.057  1.00  0.00     0.037 C 
BRANCH  12  13
HETATM   13  C9  UNL     1      -5.630   4.144  14.739  1.00  0.00     0.079 A 
HETATM   14  C10 UNL     1      -4.670   3.108  14.668  1.00  0.00     0.076 A 
HETATM   15  C11 UNL     1      -5.098   2.058  15.434  1.00  0.00     0.146 A 
HETATM   16  C12 UNL     1      -6.301   2.471  15.953  1.00  0.00     0.155 A 
HETATM   17 BR1  UNL     1      -7.359   1.369  17.122  1.00  0.00    -0.020 Br
HETATM   18  O4  UNL     1      -6.554   3.663  15.526  1.00  0.00    -0.301 OA
BRANCH  15  19
HETATM   19  N2  UNL     1      -4.456   0.811  15.654  1.00  0.00    -0.112 N 
HETATM   20  O2  UNL     1      -3.458   0.756  16.356  1.00  0.00    -0.532 OA
HETATM   21  O3  UNL     1      -4.947  -0.335  15.084  1.00  0.00    -0.532 OA
ENDBRANCH  15  19
ENDBRANCH  12  13
ENDBRANCH   1  12
TORSDOF 8
ENDMDL
MODEL 3
REMARK VINA RESULT: -7.032129019      1.661      1.905
REMARK  8 active torsions:
REMARK  status: ('A' for Active; 'I' for Inactive)
REMARK    1  A    between atoms: C2_2  and  N1_4 
REMARK    2  A    between atoms: N1_4  and  C4_6 
REMARK    3  A    between atoms: C4_6  and  O1_7 
REMARK    4  A    between atoms: C5_9  and  C6_10 
REMARK    5  A    between atoms: C6_10  and  C7_11 
REMARK    6  A    between atoms: C7_11  and  C8_12 
REMARK    7  A    between atoms: C8_12  and  C9_13 
REMARK    8  A    between atoms: C11_15  and  N2_16 
ROOT
HETATM    1  C7  UNL     1      -4.638   5.828  13.372  1.00  0.00     0.003 C 
ENDROOT
BRANCH   1   2
HETATM    2  C6  UNL     1      -3.409   6.214  13.945  1.00  0.00     0.004 C 
BRANCH   2   3
HETATM    3  C5  UNL     1      -2.211   6.019  13.527  1.00  0.00     0.055 C 
HETATM    4  C4  UNL     1      -1.532   4.905  12.995  1.00  0.00     0.135 C 
BRANCH   4   5
HETATM    5  N1  UNL     1      -1.893   3.597  12.719  1.00  0.00    -0.367 N 
ATOM      6  H1  UNL     1      -1.997   2.915  13.470  1.00  0.00     0.162 HD
BRANCH   5   7
HETATM    7  C2  UNL     1      -2.126   3.207  11.287  1.00  0.00     0.075 C 
HETATM    8  C1  UNL     1      -3.603   3.127  11.009  1.00  0.00     0.032 C 
HETATM    9  C3  UNL     1      -1.463   1.858  11.058  1.00  0.00     0.032 C 
ENDBRANCH   5   7
ENDBRANCH   4   5
BRANCH   4  10
HETATM   10  O1  UNL     1      -0.253   5.200  12.697  1.00  0.00    -0.346 OA
ATOM     11  H1  UNL     1      -0.009   6.100  12.874  1.00  0.00     0.219 HD
ENDBRANCH   4  10
ENDBRANCH   2   3
ENDBRANCH   1   2
BRANCH   1  12
HETATM   12  C8  UNL     1      -5.664   5.341  14.001  1.00  0.00     0.037 C 
BRANCH  12  13
HETATM   13  C9  UNL     1      -5.724   4.083  14.707  1.00  0.00     0.079 A 
HETATM   14  C10 UNL     1      -4.750   3.062  14.611  1.00  0.00     0.076 A 
HETATM   15  C11 UNL     1      -5.127   2.017  15.412  1.00  0.00     0.146 A 
HETATM   16  C12 UNL     1      -6.313   2.420  15.975  1.00  0.00     0.155 A 
HETATM   17 BR1  UNL     1      -7.301   1.320  17.207  1.00  0.00    -0.020 Br
HETATM   18  O4  UNL     1      -6.604   3.600  15.542  1.00  0.00    -0.301 OA
BRANCH  15  19
HETATM   19  N2  UNL     1      -4.455   0.785  15.623  1.00  0.00    -0.112 N 
HETATM   20  O2  UNL     1      -3.480   0.742  16.358  1.00  0.00    -0.532 OA
HETATM   21  O3  UNL     1      -4.891  -0.360  15.008  1.00  0.00    -0.532 OA
ENDBRANCH  15  19
ENDBRANCH  12  13
ENDBRANCH   1  12
TORSDOF 8
ENDMDL
MODEL 4
REMARK VINA RESULT: -6.864161613      2.031      3.956
REMARK  8 active torsions:
REMARK  status: ('A' for Active; 'I' for Inactive)
REMARK    1  A    between atoms: C2_2  and  N1_4 
REMARK    2  A    between atoms: N1_4  and  C4_6 
REMARK    3  A    between atoms: C4_6  and  O1_7 
REMARK    4  A    between atoms: C5_9  and  C6_10 
REMARK    5  A    between atoms: C6_10  and  C7_11 
REMARK    6  A    between atoms: C7_11  and  C8_12 
REMARK    7  A    between atoms: C8_12  and  C9_13 
REMARK    8  A    between atoms: C11_15  and  N2_16 
ROOT
HETATM    1  C7  UNL     1      -3.197   0.164  10.403  1.00  0.00     0.003 C 
ENDROOT
BRANCH   1   2
HETATM    2  C6  UNL     1      -1.912   0.542  10.846  1.00  0.00     0.004 C 
BRANCH   2   3
HETATM    3  C5  UNL     1      -1.289   1.655  10.702  1.00  0.00     0.055 C 
HETATM    4  C4  UNL     1      -1.279   2.868  11.419  1.00  0.00     0.135 C 
BRANCH   4   5
HETATM    5  N1  UNL     1      -1.932   3.326  12.550  1.00  0.00    -0.367 N 
ATOM      6  H1  UNL     1      -2.303   2.671  13.239  1.00  0.00     0.162 HD
BRANCH   5   7
HETATM    7  C2  UNL     1      -2.081   4.808  12.740  1.00  0.00     0.075 C 
HETATM    8  C1  UNL     1      -2.088   5.143  14.207  1.00  0.00     0.032 C 
HETATM    9  C3  UNL     1      -3.388   5.232  12.086  1.00  0.00     0.032 C 
ENDBRANCH   5   7
ENDBRANCH   4   5
BRANCH   4  10
HETATM   10  O1  UNL     1      -0.442   3.766  10.864  1.00  0.00    -0.346 OA
ATOM     11  H1  UNL     1       0.450   3.716  11.187  1.00  0.00     0.219 HD
ENDBRANCH   4  10
ENDBRANCH   2   3
ENDBRANCH   1   2
BRANCH   1  12
HETATM   12  C8  UNL     1      -4.330   0.535  10.918  1.00  0.00     0.037 C 
BRANCH  12  13
HETATM   13  C9  UNL     1      -4.539   1.072  12.241  1.00  0.00     0.079 A 
HETATM   14  C10 UNL     1      -4.250   0.384  13.442  1.00  0.00     0.076 A 
HETATM   15  C11 UNL     1      -4.571   1.191  14.501  1.00  0.00     0.146 A 
HETATM   16  C12 UNL     1      -5.047   2.345  13.928  1.00  0.00     0.155 A 
HETATM   17 BR1  UNL     1      -5.651   3.846  14.970  1.00  0.00    -0.020 Br
HETATM   18  O4  UNL     1      -5.006   2.224  12.644  1.00  0.00    -0.301 OA
BRANCH  15  19
HETATM   19  N2  UNL     1      -4.448   0.912  15.887  1.00  0.00    -0.112 N 
HETATM   20  O2  UNL     1      -3.464   1.296  16.501  1.00  0.00    -0.532 OA
HETATM   21  O3  UNL     1      -5.427   0.213  16.546  1.00  0.00    -0.532 OA
ENDBRANCH  15  19
ENDBRANCH  12  13
ENDBRANCH   1  12
TORSDOF 8
ENDMDL
MODEL 5
REMARK VINA RESULT: -6.763940078      2.141      3.582
REMARK  8 active torsions:
REMARK  status: ('A' for Active; 'I' for Inactive)
REMARK    1  A    between atoms: C2_2  and  N1_4 
REMARK    2  A    between atoms: N1_4  and  C4_6 
REMARK    3  A    between atoms: C4_6  and  O1_7 
REMARK    4  A    between atoms: C5_9  and  C6_10 
REMARK    5  A    between atoms: C6_10  and  C7_11 
REMARK    6  A    between atoms: C7_11  and  C8_12 
REMARK    7  A    between atoms: C8_12  and  C9_13 
REMARK    8  A    between atoms: C11_15  and  N2_16 
ROOT
HETATM    1  C7  UNL     1      -4.018   3.814  10.318  1.00  0.00     0.003 C 
ENDROOT
BRANCH   1   2
HETATM    2  C6  UNL     1      -2.650   4.089  10.113  1.00  0.00     0.004 C 
BRANCH   2   3
HETATM    3  C5  UNL     1      -1.623   3.675  10.762  1.00  0.00     0.055 C 
HETATM    4  C4  UNL     1      -1.240   3.725  12.118  1.00  0.00     0.135 C 
BRANCH   4   5
HETATM    5  N1  UNL     1      -1.821   4.235  13.266  1.00  0.00    -0.367 N 
ATOM      6  H1  UNL     1      -1.788   3.714  14.143  1.00  0.00     0.162 HD
BRANCH   5   7
HETATM    7  C2  UNL     1      -2.501   5.572  13.190  1.00  0.00     0.075 C 
HETATM    8  C1  UNL     1      -1.474   6.670  13.126  1.00  0.00     0.032 C 
HETATM    9  C3  UNL     1      -3.371   5.722  14.429  1.00  0.00     0.032 C 
ENDBRANCH   5   7
ENDBRANCH   4   5
BRANCH   4  10
HETATM   10  O1  UNL     1      -0.043   3.141  12.317  1.00  0.00    -0.346 OA
ATOM     11  H1  UNL     1      -0.086   2.313  12.780  1.00  0.00     0.219 HD
ENDBRANCH   4  10
ENDBRANCH   2   3
ENDBRANCH   1   2
BRANCH   1  12
HETATM   12  C8  UNL     1      -4.517   2.740  10.850  1.00  0.00     0.037 C 
BRANCH  12  13
HETATM   13  C9  UNL     1      -4.745   2.501  12.256  1.00  0.00     0.079 A 
HETATM   14  C10 UNL     1      -4.221   1.404  12.979  1.00  0.00     0.076 A 
HETATM   15  C11 UNL     1      -4.637   1.495  14.280  1.00  0.00     0.146 A 
HETATM   16  C12 UNL     1      -5.400   2.637  14.324  1.00  0.00     0.155 A 
HETATM   17 BR1  UNL     1      -6.247   3.256  15.936  1.00  0.00    -0.020 Br
HETATM   18  O4  UNL     1      -5.426   3.168  13.148  1.00  0.00    -0.301 OA
BRANCH  15  19
HETATM   19  N2  UNL     1      -4.353   0.615  15.357  1.00  0.00    -0.112 N 
HETATM   20  O2  UNL     1      -4.905  -0.473  15.416  1.00  0.00    -0.532 OA
HETATM   21  O3  UNL     1      -3.462   0.976  16.335  1.00  0.00    -0.532 OA
ENDBRANCH  15  19
ENDBRANCH  12  13
ENDBRANCH   1  12
TORSDOF 8
ENDMDL
