MODEL 1
REMARK VINA RESULT: -7.734343559      0.000      0.000
REMARK  7 active torsions:
REMARK  status: ('A' for Active; 'I' for Inactive)
REMARK    1  A    between atoms: C3_6  and  C4_7 
REMARK    2  A    between atoms: C7_11  and  C8_12 
REMARK    3  A    between atoms: C8_12  and  O2_13 
REMARK    4  A    between atoms: C8_12  and  N2_15 
REMARK    5  A    between atoms: N2_15  and  C9_17 
REMARK    6  A    between atoms: C9_17  and  C10_18 
REMARK    7  A    between atoms: N3_20  and  C12_21 
ROOT
HETATM    1  C8  UNL     1      -4.049   3.867  11.293  1.00  0.00     0.150 C 
ENDROOT
BRANCH   1   2
HETATM    2  C7  UNL     1      -2.955   2.945  11.343  1.00  0.00     0.073 A 
HETATM    3  C2  UNL     1      -1.600   3.377  11.305  1.00  0.00     0.089 A 
HETATM    4  C1  UNL     1      -1.176   4.794  11.157  1.00  0.00     0.080 C 
HETATM    5  O1  UNL     1      -0.870   2.315  11.423  1.00  0.00    -0.241 OA
HETATM    6  N1  UNL     1      -1.588   1.260  11.530  1.00  0.00    -0.261 N 
HETATM    7  C3  UNL     1      -2.926   1.582  11.489  1.00  0.00     0.088 A 
ATOM      8  H1  UNL     1      -1.219   0.314  11.632  1.00  0.00     0.194 HD
BRANCH   7   9
HETATM    9  C4  UNL     1      -4.036   0.604  11.592  1.00  0.00     0.141 C 
HETATM   10  C5  UNL     1      -4.310   0.154  13.010  1.00  0.00     0.058 C 
HETATM   11  C6  UNL     1      -3.445  -0.699  10.933  1.00  0.00     0.058 C 
HETATM   12  F1  UNL     1      -5.159   0.934  10.889  1.00  0.00    -0.237 F 
ENDBRANCH   7   9
ENDBRANCH   1   2
BRANCH   1  13
HETATM   13  O2  UNL     1      -4.449   4.201  10.102  1.00  0.00    -0.346 OA
ATOM     14  H2  UNL     1      -4.296   5.105   9.856  1.00  0.00     0.219 HD
ENDBRANCH   1  13
BRANCH   1  15
HETATM   15  N2  UNL     1      -4.758   4.463  12.321  1.00  0.00    -0.370 N 
ATOM     16  H2  UNL     1      -5.763   4.316  12.416  1.00  0.00     0.161 HD
BRANCH  15  17
HETATM   17  C9  UNL     1      -4.026   5.318  13.277  1.00  0.00     0.130 C 
BRANCH  17  18
HETATM   18  C10 UNL     1      -4.212   4.892  14.692  1.00  0.00     0.060 A 
HETATM   19  C11 UNL     1      -3.778   3.501  15.043  1.00  0.00     0.280 A 
HETATM   20  N3  UNL     1      -5.130   3.027  15.193  1.00  0.00     0.094 N 
HETATM   21  C17 UNL     1      -5.610   4.343  14.902  1.00  0.00     0.280 A 
BRANCH  20  22
HETATM   22  C12 UNL     1      -5.452   2.523  16.515  1.00  0.00     0.223 C 
HETATM   23  C13 UNL     1      -6.910   2.628  16.824  1.00  0.00     0.036 C 
HETATM   24  C14 UNL     1      -7.399   1.223  17.123  1.00  0.00     0.002 C 
HETATM   25  C15 UNL     1      -6.167   0.451  17.541  1.00  0.00     0.002 C 
HETATM   26  C16 UNL     1      -5.122   1.046  16.590  1.00  0.00     0.036 C 
ENDBRANCH  20  22
ENDBRANCH  17  18
ENDBRANCH  15  17
ENDBRANCH   1  15
TORSDOF 7
ENDMDL
MODEL 2
REMARK VINA RESULT: -7.441148347      1.513      2.823
REMARK  7 active torsions:
REMARK  status: ('A' for Active; 'I' for Inactive)
REMARK    1  A    between atoms: C3_6  and  C4_7 
REMARK    2  A    between atoms: C7_11  and  C8_12 
REMARK    3  A    between atoms: C8_12  and  O2_13 
REMARK    4  A    between atoms: C8_12  and  N2_15 
REMARK    5  A    between atoms: N2_15  and  C9_17 
REMARK    6  A    between atoms: C9_17  and  C10_18 
REMARK    7  A    between atoms: N3_20  and  C12_21 
ROOT
HETATM    1  C8  UNL     1      -4.285   4.020  11.469  1.00  0.00     0.150 C 
ENDROOT
BRANCH   1   2
HETATM    2  C7  UNL     1      -3.192   3.097  11.526  1.00  0.00     0.073 A 
HETATM    3  C2  UNL     1      -3.371   1.735  11.900  1.00  0.00     0.089 A 
HETATM    4  C1  UNL     1      -4.670   1.145  12.318  1.00  0.00     0.080 C 
HETATM    5  O1  UNL     1      -2.212   1.170  11.798  1.00  0.00    -0.241 OA
HETATM    6  N1  UNL     1      -1.316   1.997  11.407  1.00  0.00    -0.261 N 
HETATM    7  C3  UNL     1      -1.866   3.245  11.212  1.00  0.00     0.088 A 
ATOM      8  H1  UNL     1      -0.334   1.763  11.260  1.00  0.00     0.194 HD
BRANCH   7   9
HETATM    9  C4  UNL     1      -1.116   4.438  10.753  1.00  0.00     0.141 C 
HETATM   10  C5  UNL     1      -1.363   4.782   9.301  1.00  0.00     0.058 C 
HETATM   11  C6  UNL     1       0.382   3.950  10.734  1.00  0.00     0.058 C 
HETATM   12  F1  UNL     1      -1.175   5.513  11.594  1.00  0.00    -0.237 F 
ENDBRANCH   7   9
ENDBRANCH   1   2
BRANCH   1  13
HETATM   13  O2  UNL     1      -4.917   4.073  10.334  1.00  0.00    -0.346 OA
ATOM     14  H2  UNL     1      -4.390   3.902   9.562  1.00  0.00     0.219 HD
ENDBRANCH   1  13
BRANCH   1  15
HETATM   15  N2  UNL     1      -4.784   4.870  12.440  1.00  0.00    -0.370 N 
ATOM     16  H2  UNL     1      -5.780   5.092  12.478  1.00  0.00     0.161 HD
BRANCH  15  17
HETATM   17  C9  UNL     1      -3.843   5.449  13.419  1.00  0.00     0.130 C 
BRANCH  17  18
HETATM   18  C10 UNL     1      -4.111   4.998  14.813  1.00  0.00     0.060 A 
HETATM   19  C11 UNL     1      -3.635   3.626  15.184  1.00  0.00     0.280 A 
HETATM   20  N3  UNL     1      -4.969   3.085  15.231  1.00  0.00     0.094 N 
HETATM   21  C17 UNL     1      -5.492   4.379  14.916  1.00  0.00     0.280 A 
BRANCH  20  22
HETATM   22  C12 UNL     1      -5.362   2.551  16.521  1.00  0.00     0.223 C 
HETATM   23  C13 UNL     1      -6.817   2.746  16.799  1.00  0.00     0.036 C 
HETATM   24  C14 UNL     1      -7.411   1.368  17.025  1.00  0.00     0.002 C 
HETATM   25  C15 UNL     1      -6.247   0.494  17.439  1.00  0.00     0.002 C 
HETATM   26  C16 UNL     1      -5.138   1.052  16.540  1.00  0.00     0.036 C 
ENDBRANCH  20  22
ENDBRANCH  17  18
ENDBRANCH  15  17
ENDBRANCH   1  15
TORSDOF 7
ENDMDL
MODEL 3
REMARK VINA RESULT: -7.228904902      2.838      5.405
REMARK  7 active torsions:
REMARK  status: ('A' for Active; 'I' for Inactive)
REMARK    1  A    between atoms: C3_6  and  C4_7 
REMARK    2  A    between atoms: C7_11  and  C8_12 
REMARK    3  A    between atoms: C8_12  and  O2_13 
REMARK    4  A    between atoms: C8_12  and  N2_15 
REMARK    5  A    between atoms: N2_15  and  C9_17 
REMARK    6  A    between atoms: C9_17  and  C10_18 
REMARK    7  A    between atoms: N3_20  and  C12_21 
ROOT
HETATM    1  C8  UNL     1      -4.920   3.114  14.509  1.00  0.00     0.150 C 
ENDROOT
BRANCH   1   2
HETATM    2  C7  UNL     1      -4.701   1.699  14.509  1.00  0.00     0.073 A 
HETATM    3  C2  UNL     1      -4.933   0.898  15.662  1.00  0.00     0.089 A 
HETATM    4  C1  UNL     1      -5.363   1.432  16.981  1.00  0.00     0.080 C 
HETATM    5  O1  UNL     1      -4.696  -0.325  15.315  1.00  0.00    -0.241 OA
HETATM    6  N1  UNL     1      -4.343  -0.407  14.087  1.00  0.00    -0.261 N 
HETATM    7  C3  UNL     1      -4.324   0.842  13.507  1.00  0.00     0.088 A 
ATOM      8  H1  UNL     1      -4.108  -1.276  13.606  1.00  0.00     0.194 HD
BRANCH   7   9
HETATM    9  C4  UNL     1      -3.966   1.115  12.095  1.00  0.00     0.141 C 
HETATM   10  C5  UNL     1      -5.130   1.608  11.264  1.00  0.00     0.058 C 
HETATM   11  C6  UNL     1      -3.708  -0.319  11.494  1.00  0.00     0.058 C 
HETATM   12  F1  UNL     1      -2.818   1.834  11.921  1.00  0.00    -0.237 F 
ENDBRANCH   7   9
ENDBRANCH   1   2
BRANCH   1  13
HETATM   13  O2  UNL     1      -6.124   3.497  14.202  1.00  0.00    -0.346 OA
ATOM     14  H2  UNL     1      -6.359   3.415  13.285  1.00  0.00     0.219 HD
ENDBRANCH   1  13
BRANCH   1  15
HETATM   15  N2  UNL     1      -4.046   4.149  14.791  1.00  0.00    -0.370 N 
ATOM     16  H2  UNL     1      -4.180   4.737  15.614  1.00  0.00     0.161 HD
BRANCH  15  17
HETATM   17  C9  UNL     1      -2.916   4.385  13.871  1.00  0.00     0.130 C 
BRANCH  17  18
HETATM   18  C10 UNL     1      -3.136   5.553  12.973  1.00  0.00     0.060 A 
HETATM   19  C11 UNL     1      -4.367   6.372  13.216  1.00  0.00     0.280 A 
HETATM   20  N3  UNL     1      -5.018   5.900  12.022  1.00  0.00     0.094 N 
HETATM   21  C17 UNL     1      -3.858   5.123  11.710  1.00  0.00     0.280 A 
BRANCH  20  22
HETATM   22  C12 UNL     1      -5.351   6.937  11.063  1.00  0.00     0.223 C 
HETATM   23  C13 UNL     1      -5.496   6.403   9.675  1.00  0.00     0.036 C 
HETATM   24  C14 UNL     1      -6.901   6.744   9.216  1.00  0.00     0.002 C 
HETATM   25  C15 UNL     1      -7.326   7.921  10.067  1.00  0.00     0.002 C 
HETATM   26  C16 UNL     1      -6.697   7.540  11.413  1.00  0.00     0.036 C 
ENDBRANCH  20  22
ENDBRANCH  17  18
ENDBRANCH  15  17
ENDBRANCH   1  15
TORSDOF 7
ENDMDL
MODEL 4
REMARK VINA RESULT: -7.013163033      3.200      6.066
REMARK  7 active torsions:
REMARK  status: ('A' for Active; 'I' for Inactive)
REMARK    1  A    between atoms: C3_6  and  C4_7 
REMARK    2  A    between atoms: C7_11  and  C8_12 
REMARK    3  A    between atoms: C8_12  and  O2_13 
REMARK    4  A    between atoms: C8_12  and  N2_15 
REMARK    5  A    between atoms: N2_15  and  C9_17 
REMARK    6  A    between atoms: C9_17  and  C10_18 
REMARK    7  A    between atoms: N3_20  and  C12_21 
ROOT
HETATM    1  C8  UNL     1      -4.557   2.441  11.404  1.00  0.00     0.150 C 
ENDROOT
BRANCH   1   2
HETATM    2  C7  UNL     1      -4.520   1.617  12.574  1.00  0.00     0.073 A 
HETATM    3  C2  UNL     1      -4.294   0.214  12.504  1.00  0.00     0.089 A 
HETATM    4  C1  UNL     1      -4.132  -0.546  11.237  1.00  0.00     0.080 C 
HETATM    5  O1  UNL     1      -4.266  -0.217  13.723  1.00  0.00    -0.241 OA
HETATM    6  N1  UNL     1      -4.445   0.733  14.563  1.00  0.00    -0.261 N 
HETATM    7  C3  UNL     1      -4.613   1.932  13.906  1.00  0.00     0.088 A 
ATOM      8  H1  UNL     1      -4.461   0.618  15.577  1.00  0.00     0.194 HD
BRANCH   7   9
HETATM    9  C4  UNL     1      -4.836   3.238  14.570  1.00  0.00     0.141 C 
HETATM   10  C5  UNL     1      -3.573   3.851  15.131  1.00  0.00     0.058 C 
HETATM   11  C6  UNL     1      -5.635   2.859  15.874  1.00  0.00     0.058 C 
HETATM   12  F1  UNL     1      -5.612   4.115  13.866  1.00  0.00    -0.237 F 
ENDBRANCH   7   9
ENDBRANCH   1   2
BRANCH   1  13
HETATM   13  O2  UNL     1      -5.700   2.492  10.788  1.00  0.00    -0.346 OA
ATOM     14  H2  UNL     1      -5.867   3.287  10.296  1.00  0.00     0.219 HD
ENDBRANCH   1  13
BRANCH   1  15
HETATM   15  N2  UNL     1      -3.560   3.203  10.820  1.00  0.00    -0.370 N 
ATOM     16  H2  UNL     1      -3.202   2.972   9.892  1.00  0.00     0.161 HD
BRANCH  15  17
HETATM   17  C9  UNL     1      -3.026   4.357  11.569  1.00  0.00     0.130 C 
BRANCH  17  18
HETATM   18  C10 UNL     1      -3.454   5.664  10.998  1.00  0.00     0.060 A 
HETATM   19  C11 UNL     1      -4.818   6.156  11.381  1.00  0.00     0.280 A 
HETATM   20  N3  UNL     1      -5.364   5.913  10.070  1.00  0.00     0.094 N 
HETATM   21  C17 UNL     1      -4.078   5.468   9.630  1.00  0.00     0.280 A 
BRANCH  20  22
HETATM   22  C12 UNL     1      -5.879   7.093   9.401  1.00  0.00     0.223 C 
HETATM   23  C13 UNL     1      -6.140   6.855   7.949  1.00  0.00     0.036 C 
HETATM   24  C14 UNL     1      -7.609   7.148   7.712  1.00  0.00     0.002 C 
HETATM   25  C15 UNL     1      -8.021   8.070   8.839  1.00  0.00     0.002 C 
HETATM   26  C16 UNL     1      -7.217   7.475  10.001  1.00  0.00     0.036 C 
ENDBRANCH  20  22
ENDBRANCH  17  18
ENDBRANCH  15  17
ENDBRANCH   1  15
TORSDOF 7
ENDMDL
MODEL 5
REMARK VINA RESULT: -6.999051720      2.784      5.721
REMARK  7 active torsions:
REMARK  status: ('A' for Active; 'I' for Inactive)
REMARK    1  A    between atoms: C3_6  and  C4_7 
REMARK    2  A    between atoms: C7_11  and  C8_12 
REMARK    3  A    between atoms: C8_12  and  O2_13 
REMARK    4  A    between atoms: C8_12  and  N2_15 
REMARK    5  A    between atoms: N2_15  and  C9_17 
REMARK    6  A    between atoms: C9_17  and  C10_18 
REMARK    7  A    between atoms: N3_20  and  C12_21 
ROOT
HETATM    1  C8  UNL     1      -4.608   1.824  11.647  1.00  0.00     0.150 C 
ENDROOT
BRANCH   1   2
HETATM    2  C7  UNL     1      -4.568   1.141  12.904  1.00  0.00     0.073 A 
HETATM    3  C2  UNL     1      -4.297  -0.253  12.998  1.00  0.00     0.089 A 
HETATM    4  C1  UNL     1      -4.087  -1.147  11.829  1.00  0.00     0.080 C 
HETATM    5  O1  UNL     1      -4.279  -0.542  14.258  1.00  0.00    -0.241 OA
HETATM    6  N1  UNL     1      -4.504   0.491  14.982  1.00  0.00    -0.261 N 
HETATM    7  C3  UNL     1      -4.697   1.601  14.189  1.00  0.00     0.088 A 
ATOM      8  H1  UNL     1      -4.536   0.491  16.001  1.00  0.00     0.194 HD
BRANCH   7   9
HETATM    9  C4  UNL     1      -4.973   2.966  14.696  1.00  0.00     0.141 C 
HETATM   10  C5  UNL     1      -3.729   3.714  15.118  1.00  0.00     0.058 C 
HETATM   11  C6  UNL     1      -5.696   2.711  16.072  1.00  0.00     0.058 C 
HETATM   12  F1  UNL     1      -5.828   3.703  13.926  1.00  0.00    -0.237 F 
ENDBRANCH   7   9
ENDBRANCH   1   2
BRANCH   1  13
HETATM   13  O2  UNL     1      -5.789   1.975  11.126  1.00  0.00    -0.346 OA
ATOM     14  H2  UNL     1      -5.931   1.537  10.295  1.00  0.00     0.219 HD
ENDBRANCH   1  13
BRANCH   1  15
HETATM   15  N2  UNL     1      -3.579   2.359  10.891  1.00  0.00    -0.370 N 
ATOM     16  H2  UNL     1      -3.474   2.116   9.906  1.00  0.00     0.161 HD
BRANCH  15  17
HETATM   17  C9  UNL     1      -2.637   3.289  11.544  1.00  0.00     0.130 C 
BRANCH  17  18
HETATM   18  C10 UNL     1      -2.852   4.707  11.140  1.00  0.00     0.060 A 
HETATM   19  C11 UNL     1      -3.943   5.454  11.847  1.00  0.00     0.280 A 
HETATM   20  N3  UNL     1      -4.800   5.463  10.690  1.00  0.00     0.094 N 
HETATM   21  C17 UNL     1      -3.785   4.784   9.946  1.00  0.00     0.280 A 
BRANCH  20  22
HETATM   22  C12 UNL     1      -5.149   6.785  10.205  1.00  0.00     0.223 C 
HETATM   23  C13 UNL     1      -6.275   6.753   9.222  1.00  0.00     0.036 C 
HETATM   24  C14 UNL     1      -7.380   7.622   9.790  1.00  0.00     0.002 C 
HETATM   25  C15 UNL     1      -6.693   8.568  10.750  1.00  0.00     0.002 C 
HETATM   26  C16 UNL     1      -5.637   7.638  11.359  1.00  0.00     0.036 C 
ENDBRANCH  20  22
ENDBRANCH  17  18
ENDBRANCH  15  17
ENDBRANCH   1  15
TORSDOF 7
ENDMDL
