MODEL 1
REMARK VINA RESULT: -7.471259606      0.000      0.000
REMARK  7 active torsions:
REMARK  status: ('A' for Active; 'I' for Inactive)
REMARK    1  A    between atoms: O1_2  and  C2_3 
REMARK    2  A    between atoms: C2_3  and  C3_5 
REMARK    3  A    between atoms: N2_9  and  C5_10 
REMARK    4  A    between atoms: C5_10  and  C6_11 
REMARK    5  A    between atoms: C6_11  and  C7_12 
REMARK    6  A    between atoms: C13_19  and  N3_20 
REMARK    7  A    between atoms: N3_20  and  C14_22 
ROOT
HETATM    1  C3  UNL     1      -4.924   2.135  15.049  1.00  0.00     0.101 A 
HETATM    2  C4  UNL     1      -5.559   3.239  15.547  1.00  0.00     0.129 A 
HETATM    3  N1  UNL     1      -5.486   4.167  14.596  1.00  0.00    -0.307 N 
ATOM      4  H1  UNL     1      -5.872   5.108  14.667  1.00  0.00     0.186 HD
HETATM    5  N2  UNL     1      -4.827   3.679  13.523  1.00  0.00    -0.276 N 
HETATM    6  C13 UNL     1      -4.449   2.418  13.737  1.00  0.00     0.136 A 
ENDROOT
BRANCH   5   7
HETATM    7  C5  UNL     1      -4.599   4.543  12.397  1.00  0.00     0.151 C 
BRANCH   7   8
HETATM    8  C6  UNL     1      -4.849   5.990  12.739  1.00  0.00     0.029 C 
BRANCH   8   9
HETATM    9  C7  UNL     1      -3.646   6.803  13.018  1.00  0.00     0.021 C 
HETATM   10  C8  UNL     1      -2.506   6.628  12.040  1.00  0.00     0.007 C 
HETATM   11  C9  UNL     1      -1.665   7.878  12.105  1.00  0.00     0.001 C 
HETATM   12  C10 UNL     1      -1.866   8.652  13.364  1.00  0.00     0.003 C 
HETATM   13  C11 UNL     1      -2.066   7.839  14.601  1.00  0.00     0.037 C 
HETATM   14  C12 UNL     1      -3.083   6.729  14.396  1.00  0.00     0.174 C 
HETATM   15  F1  UNL     1      -2.385   5.540  14.644  1.00  0.00    -0.249 F 
ENDBRANCH   8   9
ENDBRANCH   7   8
ENDBRANCH   5   7
BRANCH   6  16
HETATM   16  N3  UNL     1      -3.857   1.614  13.029  1.00  0.00    -0.366 N 
ATOM     17  H3  UNL     1      -3.005   1.430  13.558  1.00  0.00     0.162 HD
BRANCH  16  18
HETATM   18  C14 UNL     1      -3.706   0.837  11.936  1.00  0.00     0.021 C 
HETATM   19  C15 UNL     1      -2.367   0.810  11.224  1.00  0.00     0.037 C 
HETATM   20  C16 UNL     1      -4.033  -0.663  12.247  1.00  0.00     0.037 C 
HETATM   21  C17 UNL     1      -4.739   1.148  10.822  1.00  0.00     0.037 C 
ENDBRANCH  16  18
ENDBRANCH   6  16
BRANCH   1  22
HETATM   22  C2  UNL     1      -4.785   0.895  15.788  1.00  0.00     0.298 C 
HETATM   23  O2  UNL     1      -3.627   0.416  16.037  1.00  0.00    -0.259 OA
BRANCH  22  24
HETATM   24  O1  UNL     1      -5.859   0.173  16.257  1.00  0.00    -0.322 OA
HETATM   25  C1  UNL     1      -6.378   0.470  17.535  1.00  0.00     0.213 C 
ENDBRANCH  22  24
ENDBRANCH   1  22
TORSDOF 7
ENDMDL
MODEL 2
REMARK VINA RESULT: -7.463659753      2.161      2.849
REMARK  7 active torsions:
REMARK  status: ('A' for Active; 'I' for Inactive)
REMARK    1  A    between atoms: O1_2  and  C2_3 
REMARK    2  A    between atoms: C2_3  and  C3_5 
REMARK    3  A    between atoms: N2_9  and  C5_10 
REMARK    4  A    between atoms: C5_10  and  C6_11 
REMARK    5  A    between atoms: C6_11  and  C7_12 
REMARK    6  A    between atoms: C13_19  and  N3_20 
REMARK    7  A    between atoms: N3_20  and  C14_22 
ROOT
HETATM    1  C3  UNL     1      -4.602   1.763  14.615  1.00  0.00     0.101 A 
HETATM    2  C4  UNL     1      -4.704   3.078  14.975  1.00  0.00     0.129 A 
HETATM    3  N1  UNL     1      -4.605   3.779  13.848  1.00  0.00    -0.307 N 
ATOM      4  H1  UNL     1      -4.645   4.796  13.787  1.00  0.00     0.186 HD
HETATM    5  N2  UNL     1      -4.444   2.945  12.798  1.00  0.00    -0.276 N 
HETATM    6  C13 UNL     1      -4.434   1.674  13.204  1.00  0.00     0.136 A 
ENDROOT
BRANCH   5   7
HETATM    7  C5  UNL     1      -4.270   3.507  11.487  1.00  0.00     0.151 C 
BRANCH   7   8
HETATM    8  C6  UNL     1      -3.917   4.972  11.545  1.00  0.00     0.029 C 
BRANCH   8   9
HETATM    9  C7  UNL     1      -4.899   5.895  10.938  1.00  0.00     0.021 C 
HETATM   10  C8  UNL     1      -4.555   6.384   9.548  1.00  0.00     0.007 C 
HETATM   11  C9  UNL     1      -5.846   6.789   8.884  1.00  0.00     0.001 C 
HETATM   12  C10 UNL     1      -6.943   7.063   9.857  1.00  0.00     0.003 C 
HETATM   13  C11 UNL     1      -6.532   7.732  11.127  1.00  0.00     0.037 C 
HETATM   14  C12 UNL     1      -5.312   7.075  11.749  1.00  0.00     0.174 C 
HETATM   15  F1  UNL     1      -4.337   8.080  11.797  1.00  0.00    -0.249 F 
ENDBRANCH   8   9
ENDBRANCH   7   8
ENDBRANCH   5   7
BRANCH   6  16
HETATM   16  N3  UNL     1      -4.335   0.624  12.585  1.00  0.00    -0.366 N 
ATOM     17  H3  UNL     1      -4.874  -0.027  13.155  1.00  0.00     0.162 HD
BRANCH  16  18
HETATM   18  C14 UNL     1      -3.908  -0.153  11.566  1.00  0.00     0.021 C 
HETATM   19  C15 UNL     1      -3.811  -1.653  11.767  1.00  0.00     0.037 C 
HETATM   20  C16 UNL     1      -4.796   0.032  10.290  1.00  0.00     0.037 C 
HETATM   21  C17 UNL     1      -2.514   0.264  11.029  1.00  0.00     0.037 C 
ENDBRANCH  16  18
ENDBRANCH   6  16
BRANCH   1  22
HETATM   22  C2  UNL     1      -4.663   0.671  15.565  1.00  0.00     0.298 C 
HETATM   23  O2  UNL     1      -4.661  -0.542  15.159  1.00  0.00    -0.259 OA
BRANCH  22  24
HETATM   24  O1  UNL     1      -4.724   0.858  16.928  1.00  0.00    -0.322 OA
HETATM   25  C1  UNL     1      -5.960   0.684  17.587  1.00  0.00     0.213 C 
ENDBRANCH  22  24
ENDBRANCH   1  22
TORSDOF 7
ENDMDL
MODEL 3
REMARK VINA RESULT: -7.436810252      1.948      2.621
REMARK  7 active torsions:
REMARK  status: ('A' for Active; 'I' for Inactive)
REMARK    1  A    between atoms: O1_2  and  C2_3 
REMARK    2  A    between atoms: C2_3  and  C3_5 
REMARK    3  A    between atoms: N2_9  and  C5_10 
REMARK    4  A    between atoms: C5_10  and  C6_11 
REMARK    5  A    between atoms: C6_11  and  C7_12 
REMARK    6  A    between atoms: C13_19  and  N3_20 
REMARK    7  A    between atoms: N3_20  and  C14_22 
ROOT
HETATM    1  C3  UNL     1      -4.767   2.306  14.979  1.00  0.00     0.101 A 
HETATM    2  C4  UNL     1      -5.298   3.470  15.461  1.00  0.00     0.129 A 
HETATM    3  N1  UNL     1      -5.157   4.370  14.491  1.00  0.00    -0.307 N 
ATOM      4  H1  UNL     1      -5.460   5.342  14.548  1.00  0.00     0.186 HD
HETATM    5  N2  UNL     1      -4.555   3.806  13.421  1.00  0.00    -0.276 N 
HETATM    6  C13 UNL     1      -4.285   2.522  13.657  1.00  0.00     0.136 A 
ENDROOT
BRANCH   5   7
HETATM    7  C5  UNL     1      -4.267   4.626  12.277  1.00  0.00     0.151 C 
BRANCH   7   8
HETATM    8  C6  UNL     1      -4.157   6.085  12.643  1.00  0.00     0.029 C 
BRANCH   8   9
HETATM    9  C7  UNL     1      -4.914   7.023  11.786  1.00  0.00     0.021 C 
HETATM   10  C8  UNL     1      -6.411   6.809  11.757  1.00  0.00     0.007 C 
HETATM   11  C9  UNL     1      -7.042   8.120  11.361  1.00  0.00     0.001 C 
HETATM   12  C10 UNL     1      -6.094   9.039  10.668  1.00  0.00     0.003 C 
HETATM   13  C11 UNL     1      -5.118   8.388   9.744  1.00  0.00     0.037 C 
HETATM   14  C12 UNL     1      -4.448   7.182  10.379  1.00  0.00     0.174 C 
HETATM   15  F1  UNL     1      -4.786   6.098   9.560  1.00  0.00    -0.249 F 
ENDBRANCH   8   9
ENDBRANCH   7   8
ENDBRANCH   5   7
BRANCH   6  16
HETATM   16  N3  UNL     1      -3.773   1.657  12.958  1.00  0.00    -0.366 N 
ATOM     17  H3  UNL     1      -2.917   1.433  13.465  1.00  0.00     0.162 HD
BRANCH  16  18
HETATM   18  C14 UNL     1      -3.712   0.835  11.889  1.00  0.00     0.021 C 
HETATM   19  C15 UNL     1      -2.416   0.727  11.110  1.00  0.00     0.037 C 
HETATM   20  C16 UNL     1      -4.081  -0.637  12.274  1.00  0.00     0.037 C 
HETATM   21  C17 UNL     1      -4.791   1.149  10.821  1.00  0.00     0.037 C 
ENDBRANCH  16  18
ENDBRANCH   6  16
BRANCH   1  22
HETATM   22  C2  UNL     1      -4.727   1.074  15.741  1.00  0.00     0.298 C 
HETATM   23  O2  UNL     1      -3.607   0.530  16.035  1.00  0.00    -0.259 OA
BRANCH  22  24
HETATM   24  O1  UNL     1      -5.856   0.424  16.186  1.00  0.00    -0.322 OA
HETATM   25  C1  UNL     1      -6.309   0.664  17.501  1.00  0.00     0.213 C 
ENDBRANCH  22  24
ENDBRANCH   1  22
TORSDOF 7
ENDMDL
MODEL 4
REMARK VINA RESULT: -7.412882920      2.193      2.870
REMARK  7 active torsions:
REMARK  status: ('A' for Active; 'I' for Inactive)
REMARK    1  A    between atoms: O1_2  and  C2_3 
REMARK    2  A    between atoms: C2_3  and  C3_5 
REMARK    3  A    between atoms: N2_9  and  C5_10 
REMARK    4  A    between atoms: C5_10  and  C6_11 
REMARK    5  A    between atoms: C6_11  and  C7_12 
REMARK    6  A    between atoms: C13_19  and  N3_20 
REMARK    7  A    between atoms: N3_20  and  C14_22 
ROOT
HETATM    1  C3  UNL     1      -4.674   1.883  14.839  1.00  0.00     0.101 A 
HETATM    2  C4  UNL     1      -5.060   3.121  15.272  1.00  0.00     0.129 A 
HETATM    3  N1  UNL     1      -4.849   3.951  14.254  1.00  0.00    -0.307 N 
ATOM      4  H1  UNL     1      -5.041   4.952  14.267  1.00  0.00     0.186 HD
HETATM    5  N2  UNL     1      -4.344   3.272  13.201  1.00  0.00    -0.276 N 
HETATM    6  C13 UNL     1      -4.210   1.978  13.497  1.00  0.00     0.136 A 
ENDROOT
BRANCH   5   7
HETATM    7  C5  UNL     1      -4.001   3.998  12.009  1.00  0.00     0.151 C 
BRANCH   7   8
HETATM    8  C6  UNL     1      -2.767   4.843  12.200  1.00  0.00     0.029 C 
BRANCH   8   9
HETATM    9  C7  UNL     1      -1.718   4.694  11.170  1.00  0.00     0.021 C 
HETATM   10  C8  UNL     1      -2.132   3.933   9.930  1.00  0.00     0.007 C 
HETATM   11  C9  UNL     1      -1.218   4.368   8.812  1.00  0.00     0.001 C 
HETATM   12  C10 UNL     1       0.052   4.978   9.300  1.00  0.00     0.003 C 
HETATM   13  C11 UNL     1       0.639   4.362  10.528  1.00  0.00     0.037 C 
HETATM   14  C12 UNL     1      -0.401   4.158  11.617  1.00  0.00     0.174 C 
HETATM   15  F1  UNL     1      -0.418   2.778  11.856  1.00  0.00    -0.249 F 
ENDBRANCH   8   9
ENDBRANCH   7   8
ENDBRANCH   5   7
BRANCH   6  16
HETATM   16  N3  UNL     1      -3.817   1.029  12.832  1.00  0.00    -0.366 N 
ATOM     17  H3  UNL     1      -3.152   0.574  13.458  1.00  0.00     0.162 HD
BRANCH  16  18
HETATM   18  C14 UNL     1      -3.775   0.249  11.732  1.00  0.00     0.021 C 
HETATM   19  C15 UNL     1      -3.941  -1.251  11.879  1.00  0.00     0.037 C 
HETATM   20  C16 UNL     1      -4.853   0.678  10.680  1.00  0.00     0.037 C 
HETATM   21  C17 UNL     1      -2.468   0.423  10.915  1.00  0.00     0.037 C 
ENDBRANCH  16  18
ENDBRANCH   6  16
BRANCH   1  22
HETATM   22  C2  UNL     1      -4.748   0.693  15.663  1.00  0.00     0.298 C 
HETATM   23  O2  UNL     1      -4.735  -0.468  15.127  1.00  0.00    -0.259 OA
BRANCH  22  24
HETATM   24  O1  UNL     1      -4.834   0.730  17.037  1.00  0.00    -0.322 OA
HETATM   25  C1  UNL     1      -6.093   0.543  17.648  1.00  0.00     0.213 C 
ENDBRANCH  22  24
ENDBRANCH   1  22
TORSDOF 7
ENDMDL
MODEL 5
REMARK VINA RESULT: -7.384694024      2.357      4.115
REMARK  7 active torsions:
REMARK  status: ('A' for Active; 'I' for Inactive)
REMARK    1  A    between atoms: O1_2  and  C2_3 
REMARK    2  A    between atoms: C2_3  and  C3_5 
REMARK    3  A    between atoms: N2_9  and  C5_10 
REMARK    4  A    between atoms: C5_10  and  C6_11 
REMARK    5  A    between atoms: C6_11  and  C7_12 
REMARK    6  A    between atoms: C13_19  and  N3_20 
REMARK    7  A    between atoms: N3_20  and  C14_22 
ROOT
HETATM    1  C3  UNL     1      -4.468   0.714  14.080  1.00  0.00     0.101 A 
HETATM    2  C4  UNL     1      -4.034  -0.266  13.231  1.00  0.00     0.129 A 
HETATM    3  N1  UNL     1      -4.144   0.234  12.003  1.00  0.00    -0.307 N 
ATOM      4  H1  UNL     1      -3.896  -0.260  11.146  1.00  0.00     0.186 HD
HETATM    5  N2  UNL     1      -4.633   1.492  12.058  1.00  0.00    -0.276 N 
HETATM    6  C13 UNL     1      -4.856   1.855  13.321  1.00  0.00     0.136 A 
ENDROOT
BRANCH   5   7
HETATM    7  C5  UNL     1      -4.872   2.197  10.828  1.00  0.00     0.151 C 
BRANCH   7   8
HETATM    8  C6  UNL     1      -4.227   3.560  10.826  1.00  0.00     0.029 C 
BRANCH   8   9
HETATM    9  C7  UNL     1      -2.770   3.583  10.581  1.00  0.00     0.021 C 
HETATM   10  C8  UNL     1      -1.908   3.725  11.816  1.00  0.00     0.007 C 
HETATM   11  C9  UNL     1      -0.552   3.156  11.483  1.00  0.00     0.001 C 
HETATM   12  C10 UNL     1      -0.290   3.091  10.016  1.00  0.00     0.003 C 
HETATM   13  C11 UNL     1      -0.826   4.229   9.210  1.00  0.00     0.037 C 
HETATM   14  C12 UNL     1      -2.269   4.548   9.562  1.00  0.00     0.174 C 
HETATM   15  F1  UNL     1      -2.254   5.873  10.016  1.00  0.00    -0.249 F 
ENDBRANCH   8   9
ENDBRANCH   7   8
ENDBRANCH   5   7
BRANCH   6  16
HETATM   16  N3  UNL     1      -5.269   2.899  13.807  1.00  0.00    -0.366 N 
ATOM     17  H3  UNL     1      -6.269   2.860  13.613  1.00  0.00     0.162 HD
BRANCH  16  18
HETATM   18  C14 UNL     1      -5.136   4.075  14.456  1.00  0.00     0.021 C 
HETATM   19  C15 UNL     1      -5.433   5.367  13.720  1.00  0.00     0.037 C 
HETATM   20  C16 UNL     1      -6.025   4.125  15.744  1.00  0.00     0.037 C 
HETATM   21  C17 UNL     1      -3.720   4.280  15.056  1.00  0.00     0.037 C 
ENDBRANCH  16  18
ENDBRANCH   6  16
BRANCH   1  22
HETATM   22  C2  UNL     1      -4.506   0.560  15.521  1.00  0.00     0.298 C 
HETATM   23  O2  UNL     1      -3.517   0.938  16.238  1.00  0.00    -0.259 OA
BRANCH  22  24
HETATM   24  O1  UNL     1      -5.575   0.013  16.193  1.00  0.00    -0.322 OA
HETATM   25  C1  UNL     1      -6.058   0.660  17.351  1.00  0.00     0.213 C 
ENDBRANCH  22  24
ENDBRANCH   1  22
TORSDOF 7
ENDMDL
