MODEL 1
REMARK VINA RESULT: -7.846801236      0.000      0.000
REMARK  16 active torsions:
REMARK  status: ('A' for Active; 'I' for Inactive)
REMARK    1  A    between atoms: C2_2  and  C3_3 
REMARK    2  A    between atoms: C3_3  and  O2_5 
REMARK    3  A    between atoms: O2_5  and  C4_6 
REMARK    4  A    between atoms: C5_7  and  O3_8 
REMARK    5  A    between atoms: C6_10  and  C7_11 
REMARK    6  A    between atoms: C7_11  and  O5_13 
REMARK    7  A    between atoms: C9_15  and  O6_16 
REMARK    8  A    between atoms: C10_18  and  C11_19 
REMARK    9  A    between atoms: C12_22  and  C13_23 
REMARK   10  A    between atoms: C13_23  and  O9_24 
REMARK   11  A    between atoms: O9_24  and  C14_25 
REMARK   12  A    between atoms: C14_25  and  C15_27 
REMARK   13  A    between atoms: C15_27  and  O11_28 
REMARK   14  A    between atoms: C15_27  and  C18_33 
REMARK   15  A    between atoms: O11_28  and  C16_29 
REMARK   16  A    between atoms: C16_29  and  C17_31 
ROOT
HETATM    1  C4  UNL     1      -9.230  29.473 -13.292  1.00  0.00     0.126 A 
HETATM    2  C5  UNL     1     -10.376  30.155 -12.959  1.00  0.00     0.119 A 
HETATM    3  C6  UNL     1     -10.336  31.527 -12.958  1.00  0.00     0.109 A 
HETATM    4  C9  UNL     1      -9.165  32.196 -13.287  1.00  0.00     0.102 A 
HETATM    5  C10 UNL     1      -7.999  31.428 -13.627  1.00  0.00     0.089 A 
HETATM    6  C12 UNL     1      -8.007  30.085 -13.635  1.00  0.00     0.043 A 
ENDROOT
BRANCH   6   7
HETATM    7  C13 UNL     1      -6.975  29.146 -13.932  1.00  0.00     0.161 C 
BRANCH   7   8
HETATM    8  O9  UNL     1      -6.614  28.686 -15.155  1.00  0.00    -0.288 OA
BRANCH   8   9
HETATM    9  C14 UNL     1      -5.678  27.658 -15.300  1.00  0.00     0.293 C 
HETATM   10  O10 UNL     1      -4.741  27.672 -14.457  1.00  0.00    -0.262 OA
BRANCH   9  11
HETATM   11  C15 UNL     1      -5.713  26.625 -16.310  1.00  0.00     0.239 C 
BRANCH  11  12
HETATM   12  O11 UNL     1      -5.366  27.245 -17.573  1.00  0.00    -0.304 OA
BRANCH  12  13
HETATM   13  C16 UNL     1      -4.106  27.040 -18.098  1.00  0.00     0.273 C 
HETATM   14  O12 UNL     1      -3.174  27.790 -17.731  1.00  0.00    -0.264 OA
BRANCH  13  15
HETATM   15  C17 UNL     1      -3.913  25.945 -19.070  1.00  0.00     0.225 C 
HETATM   16 CL1  UNL     1      -5.235  25.858 -20.252  1.00  0.00    -0.120 Cl
ENDBRANCH  13  15
ENDBRANCH  12  13
ENDBRANCH  11  12
BRANCH  11  17
HETATM   17  C18 UNL     1      -7.070  26.019 -16.590  1.00  0.00    -0.015 C 
HETATM   18  C19 UNL     1      -6.775  24.614 -17.141  1.00  0.00     0.018 C 
HETATM   19  C20 UNL     1      -7.949  25.838 -15.413  1.00  0.00     0.018 C 
HETATM   20  C21 UNL     1      -7.766  26.790 -17.668  1.00  0.00     0.018 C 
ENDBRANCH  11  17
ENDBRANCH   9  11
ENDBRANCH   8   9
ENDBRANCH   7   8
ENDBRANCH   6   7
BRANCH   1  21
HETATM   21  O2  UNL     1      -9.305  28.089 -13.282  1.00  0.00    -0.275 OA
BRANCH  21  22
HETATM   22  C3  UNL     1      -9.510  27.453 -12.054  1.00  0.00     0.263 C 
HETATM   23  O1  UNL     1     -10.532  26.743 -11.899  1.00  0.00    -0.265 OA
BRANCH  22  24
HETATM   24  C2  UNL     1      -8.558  27.591 -10.927  1.00  0.00     0.107 C 
HETATM   25  C1  UNL     1      -9.064  26.825  -9.752  1.00  0.00     0.015 C 
ENDBRANCH  22  24
ENDBRANCH  21  22
ENDBRANCH   1  21
BRANCH   5  26
HETATM   26  C11 UNL     1      -6.863  32.217 -13.976  1.00  0.00     0.213 C 
HETATM   27  O7  UNL     1      -6.398  32.415 -15.082  1.00  0.00    -0.644 OA
HETATM   28  O8  UNL     1      -6.148  32.874 -12.944  1.00  0.00    -0.644 OA
ENDBRANCH   5  26
BRANCH   2  29
HETATM   29  O3  UNL     1     -11.513  29.453 -12.640  1.00  0.00    -0.357 OA
ATOM     30  H3  UNL     1     -12.216  29.387 -13.276  1.00  0.00     0.218 HD
ENDBRANCH   2  29
BRANCH   4  31
HETATM   31  O6  UNL     1      -9.102  33.524 -13.293  1.00  0.00    -0.358 OA
ATOM     32  H6  UNL     1      -8.341  33.987 -12.963  1.00  0.00     0.217 HD
ENDBRANCH   4  31
BRANCH   3  33
HETATM   33  C7  UNL     1     -11.508  32.324 -12.613  1.00  0.00     0.298 C 
HETATM   34  O4  UNL     1     -12.406  31.811 -11.913  1.00  0.00    -0.259 OA
BRANCH  33  35
HETATM   35  O5  UNL     1     -11.719  33.625 -12.999  1.00  0.00    -0.322 OA
HETATM   36  C8  UNL     1     -12.902  34.297 -12.627  1.00  0.00     0.213 C 
ENDBRANCH  33  35
ENDBRANCH   3  33
TORSDOF 16
ENDMDL
MODEL 2
REMARK VINA RESULT: -7.564885402      1.955      3.983
REMARK  16 active torsions:
REMARK  status: ('A' for Active; 'I' for Inactive)
REMARK    1  A    between atoms: C2_2  and  C3_3 
REMARK    2  A    between atoms: C3_3  and  O2_5 
REMARK    3  A    between atoms: O2_5  and  C4_6 
REMARK    4  A    between atoms: C5_7  and  O3_8 
REMARK    5  A    between atoms: C6_10  and  C7_11 
REMARK    6  A    between atoms: C7_11  and  O5_13 
REMARK    7  A    between atoms: C9_15  and  O6_16 
REMARK    8  A    between atoms: C10_18  and  C11_19 
REMARK    9  A    between atoms: C12_22  and  C13_23 
REMARK   10  A    between atoms: C13_23  and  O9_24 
REMARK   11  A    between atoms: O9_24  and  C14_25 
REMARK   12  A    between atoms: C14_25  and  C15_27 
REMARK   13  A    between atoms: C15_27  and  O11_28 
REMARK   14  A    between atoms: C15_27  and  C18_33 
REMARK   15  A    between atoms: O11_28  and  C16_29 
REMARK   16  A    between atoms: C16_29  and  C17_31 
ROOT
HETATM    1  C4  UNL     1      -8.921  29.361 -13.709  1.00  0.00     0.126 A 
HETATM    2  C5  UNL     1      -9.824  30.133 -13.017  1.00  0.00     0.119 A 
HETATM    3  C6  UNL     1     -10.581  29.530 -12.044  1.00  0.00     0.109 A 
HETATM    4  C9  UNL     1     -10.429  28.176 -11.773  1.00  0.00     0.102 A 
HETATM    5  C10 UNL     1      -9.467  27.422 -12.529  1.00  0.00     0.089 A 
HETATM    6  C12 UNL     1      -8.714  27.983 -13.489  1.00  0.00     0.043 A 
ENDROOT
BRANCH   6   7
HETATM    7  C13 UNL     1      -7.722  27.423 -14.348  1.00  0.00     0.161 C 
BRANCH   7   8
HETATM    8  O9  UNL     1      -7.899  26.452 -15.278  1.00  0.00    -0.288 OA
BRANCH   8   9
HETATM    9  C14 UNL     1      -7.173  26.446 -16.472  1.00  0.00     0.293 C 
HETATM   10  O10 UNL     1      -6.794  27.582 -16.867  1.00  0.00    -0.262 OA
BRANCH   9  11
HETATM   11  C15 UNL     1      -6.842  25.273 -17.249  1.00  0.00     0.239 C 
BRANCH  11  12
HETATM   12  O11 UNL     1      -5.970  25.701 -18.324  1.00  0.00    -0.304 OA
BRANCH  12  13
HETATM   13  C16 UNL     1      -4.629  25.378 -18.270  1.00  0.00     0.273 C 
HETATM   14  O12 UNL     1      -4.248  24.538 -17.424  1.00  0.00    -0.264 OA
BRANCH  13  15
HETATM   15  C17 UNL     1      -3.703  26.038 -19.213  1.00  0.00     0.225 C 
HETATM   16 CL1  UNL     1      -2.970  27.499 -18.520  1.00  0.00    -0.120 Cl
ENDBRANCH  13  15
ENDBRANCH  12  13
ENDBRANCH  11  12
BRANCH  11  17
HETATM   17  C18 UNL     1      -7.990  24.618 -17.981  1.00  0.00    -0.015 C 
HETATM   18  C19 UNL     1      -8.508  23.531 -17.025  1.00  0.00     0.018 C 
HETATM   19  C20 UNL     1      -9.141  25.496 -18.292  1.00  0.00     0.018 C 
HETATM   20  C21 UNL     1      -7.490  23.932 -19.214  1.00  0.00     0.018 C 
ENDBRANCH  11  17
ENDBRANCH   9  11
ENDBRANCH   8   9
ENDBRANCH   7   8
ENDBRANCH   6   7
BRANCH   1  21
HETATM   21  O2  UNL     1      -8.174  30.001 -14.685  1.00  0.00    -0.275 OA
BRANCH  21  22
HETATM   22  C3  UNL     1      -7.252  30.969 -14.275  1.00  0.00     0.263 C 
HETATM   23  O1  UNL     1      -7.292  32.107 -14.799  1.00  0.00    -0.265 OA
BRANCH  22  24
HETATM   24  C2  UNL     1      -6.227  30.692 -13.242  1.00  0.00     0.107 C 
HETATM   25  C1  UNL     1      -6.263  31.764 -12.206  1.00  0.00     0.015 C 
ENDBRANCH  22  24
ENDBRANCH  21  22
ENDBRANCH   1  21
BRANCH   5  26
HETATM   26  C11 UNL     1      -9.374  26.050 -12.149  1.00  0.00     0.213 C 
HETATM   27  O7  UNL     1      -9.456  25.067 -12.859  1.00  0.00    -0.644 OA
HETATM   28  O8  UNL     1      -9.160  25.736 -10.784  1.00  0.00    -0.644 OA
ENDBRANCH   5  26
BRANCH   2  29
HETATM   29  O3  UNL     1      -9.941  31.468 -13.317  1.00  0.00    -0.357 OA
ATOM     30  H3  UNL     1      -9.492  32.110 -12.779  1.00  0.00     0.218 HD
ENDBRANCH   2  29
BRANCH   4  31
HETATM   31  O6  UNL     1     -11.150  27.570 -10.835  1.00  0.00    -0.358 OA
ATOM     32  H6  UNL     1     -10.739  27.083 -10.130  1.00  0.00     0.217 HD
ENDBRANCH   4  31
BRANCH   3  33
HETATM   33  C7  UNL     1     -11.562  30.278 -11.268  1.00  0.00     0.298 C 
HETATM   34  O4  UNL     1     -11.551  30.185 -10.022  1.00  0.00    -0.259 OA
BRANCH  33  35
HETATM   35  O5  UNL     1     -12.526  31.102 -11.796  1.00  0.00    -0.322 OA
HETATM   36  C8  UNL     1     -13.675  31.429 -11.048  1.00  0.00     0.213 C 
ENDBRANCH  33  35
ENDBRANCH   3  33
TORSDOF 16
ENDMDL
MODEL 3
REMARK VINA RESULT: -7.423937526      1.956      4.032
REMARK  16 active torsions:
REMARK  status: ('A' for Active; 'I' for Inactive)
REMARK    1  A    between atoms: C2_2  and  C3_3 
REMARK    2  A    between atoms: C3_3  and  O2_5 
REMARK    3  A    between atoms: O2_5  and  C4_6 
REMARK    4  A    between atoms: C5_7  and  O3_8 
REMARK    5  A    between atoms: C6_10  and  C7_11 
REMARK    6  A    between atoms: C7_11  and  O5_13 
REMARK    7  A    between atoms: C9_15  and  O6_16 
REMARK    8  A    between atoms: C10_18  and  C11_19 
REMARK    9  A    between atoms: C12_22  and  C13_23 
REMARK   10  A    between atoms: C13_23  and  O9_24 
REMARK   11  A    between atoms: O9_24  and  C14_25 
REMARK   12  A    between atoms: C14_25  and  C15_27 
REMARK   13  A    between atoms: C15_27  and  O11_28 
REMARK   14  A    between atoms: C15_27  and  C18_33 
REMARK   15  A    between atoms: O11_28  and  C16_29 
REMARK   16  A    between atoms: C16_29  and  C17_31 
ROOT
HETATM    1  C4  UNL     1      -8.916  29.421 -13.663  1.00  0.00     0.126 A 
HETATM    2  C5  UNL     1      -9.838  30.201 -13.007  1.00  0.00     0.119 A 
HETATM    3  C6  UNL     1     -10.608  29.616 -12.033  1.00  0.00     0.109 A 
HETATM    4  C9  UNL     1     -10.449  28.271 -11.727  1.00  0.00     0.102 A 
HETATM    5  C10 UNL     1      -9.468  27.507 -12.447  1.00  0.00     0.089 A 
HETATM    6  C12 UNL     1      -8.702  28.052 -13.406  1.00  0.00     0.043 A 
ENDROOT
BRANCH   6   7
HETATM    7  C13 UNL     1      -7.690  27.479 -14.233  1.00  0.00     0.161 C 
BRANCH   7   8
HETATM    8  O9  UNL     1      -7.844  26.492 -15.150  1.00  0.00    -0.288 OA
BRANCH   8   9
HETATM    9  C14 UNL     1      -7.059  26.442 -16.305  1.00  0.00     0.293 C 
HETATM   10  O10 UNL     1      -6.547  27.542 -16.646  1.00  0.00    -0.262 OA
BRANCH   9  11
HETATM   11  C15 UNL     1      -6.806  25.261 -17.099  1.00  0.00     0.239 C 
BRANCH  11  12
HETATM   12  O11 UNL     1      -6.003  25.669 -18.234  1.00  0.00    -0.304 OA
BRANCH  12  13
HETATM   13  C16 UNL     1      -4.657  25.368 -18.248  1.00  0.00     0.273 C 
HETATM   14  O12 UNL     1      -4.218  24.544 -17.415  1.00  0.00    -0.264 OA
BRANCH  13  15
HETATM   15  C17 UNL     1      -3.793  26.033 -19.244  1.00  0.00     0.225 C 
HETATM   16 CL1  UNL     1      -3.018  27.491 -18.593  1.00  0.00    -0.120 Cl
ENDBRANCH  13  15
ENDBRANCH  12  13
ENDBRANCH  11  12
BRANCH  11  17
HETATM   17  C18 UNL     1      -8.016  24.627 -17.746  1.00  0.00    -0.015 C 
HETATM   18  C19 UNL     1      -7.450  23.732 -18.861  1.00  0.00     0.018 C 
HETATM   19  C20 UNL     1      -8.831  23.754 -16.872  1.00  0.00     0.018 C 
HETATM   20  C21 UNL     1      -8.861  25.677 -18.396  1.00  0.00     0.018 C 
ENDBRANCH  11  17
ENDBRANCH   9  11
ENDBRANCH   8   9
ENDBRANCH   7   8
ENDBRANCH   6   7
BRANCH   1  21
HETATM   21  O2  UNL     1      -8.158  30.044 -14.642  1.00  0.00    -0.275 OA
BRANCH  21  22
HETATM   22  C3  UNL     1      -7.256  31.034 -14.240  1.00  0.00     0.263 C 
HETATM   23  O1  UNL     1      -7.317  32.166 -14.775  1.00  0.00    -0.265 OA
BRANCH  22  24
HETATM   24  C2  UNL     1      -6.227  30.787 -13.203  1.00  0.00     0.107 C 
HETATM   25  C1  UNL     1      -6.217  31.920 -12.233  1.00  0.00     0.015 C 
ENDBRANCH  22  24
ENDBRANCH  21  22
ENDBRANCH   1  21
BRANCH   5  26
HETATM   26  C11 UNL     1      -9.370  26.146 -12.031  1.00  0.00     0.213 C 
HETATM   27  O7  UNL     1      -9.134  25.717 -10.918  1.00  0.00    -0.644 OA
HETATM   28  O8  UNL     1      -9.561  25.124 -12.994  1.00  0.00    -0.644 OA
ENDBRANCH   5  26
BRANCH   2  29
HETATM   29  O3  UNL     1      -9.962  31.528 -13.342  1.00  0.00    -0.357 OA
ATOM     30  H3  UNL     1     -10.098  32.173 -12.658  1.00  0.00     0.218 HD
ENDBRANCH   2  29
BRANCH   4  31
HETATM   31  O6  UNL     1     -11.182  27.682 -10.787  1.00  0.00    -0.358 OA
ATOM     32  H6  UNL     1     -10.794  27.090 -10.153  1.00  0.00     0.217 HD
ENDBRANCH   4  31
BRANCH   3  33
HETATM   33  C7  UNL     1     -11.610  30.375 -11.294  1.00  0.00     0.298 C 
HETATM   34  O4  UNL     1     -12.271  31.251 -11.890  1.00  0.00    -0.259 OA
BRANCH  33  35
HETATM   35  O5  UNL     1     -11.903  30.208  -9.962  1.00  0.00    -0.322 OA
HETATM   36  C8  UNL     1     -13.230  30.327  -9.502  1.00  0.00     0.213 C 
ENDBRANCH  33  35
ENDBRANCH   3  33
TORSDOF 16
ENDMDL
MODEL 4
REMARK VINA RESULT: -7.374845947      2.000      4.436
REMARK  16 active torsions:
REMARK  status: ('A' for Active; 'I' for Inactive)
REMARK    1  A    between atoms: C2_2  and  C3_3 
REMARK    2  A    between atoms: C3_3  and  O2_5 
REMARK    3  A    between atoms: O2_5  and  C4_6 
REMARK    4  A    between atoms: C5_7  and  O3_8 
REMARK    5  A    between atoms: C6_10  and  C7_11 
REMARK    6  A    between atoms: C7_11  and  O5_13 
REMARK    7  A    between atoms: C9_15  and  O6_16 
REMARK    8  A    between atoms: C10_18  and  C11_19 
REMARK    9  A    between atoms: C12_22  and  C13_23 
REMARK   10  A    between atoms: C13_23  and  O9_24 
REMARK   11  A    between atoms: O9_24  and  C14_25 
REMARK   12  A    between atoms: C14_25  and  C15_27 
REMARK   13  A    between atoms: C15_27  and  O11_28 
REMARK   14  A    between atoms: C15_27  and  C18_33 
REMARK   15  A    between atoms: O11_28  and  C16_29 
REMARK   16  A    between atoms: C16_29  and  C17_31 
ROOT
HETATM    1  C4  UNL     1      -8.081  30.224 -14.028  1.00  0.00     0.126 A 
HETATM    2  C5  UNL     1      -9.140  30.885 -13.453  1.00  0.00     0.119 A 
HETATM    3  C6  UNL     1     -10.076  30.145 -12.774  1.00  0.00     0.109 A 
HETATM    4  C9  UNL     1      -9.944  28.766 -12.676  1.00  0.00     0.102 A 
HETATM    5  C10 UNL     1      -8.814  28.131 -13.296  1.00  0.00     0.089 A 
HETATM    6  C12 UNL     1      -7.884  28.829 -13.969  1.00  0.00     0.043 A 
ENDROOT
BRANCH   6   7
HETATM    7  C13 UNL     1      -6.707  28.401 -14.653  1.00  0.00     0.161 C 
BRANCH   7   8
HETATM    8  O9  UNL     1      -6.593  28.089 -15.967  1.00  0.00    -0.288 OA
BRANCH   8   9
HETATM    9  C14 UNL     1      -6.156  26.828 -16.383  1.00  0.00     0.293 C 
HETATM   10  O10 UNL     1      -5.325  26.276 -15.612  1.00  0.00    -0.262 OA
BRANCH   9  11
HETATM   11  C15 UNL     1      -6.577  26.146 -17.585  1.00  0.00     0.239 C 
BRANCH  11  12
HETATM   12  O11 UNL     1      -6.818  24.761 -17.232  1.00  0.00    -0.304 OA
BRANCH  12  13
HETATM   13  C16 UNL     1      -8.109  24.275 -17.259  1.00  0.00     0.273 C 
HETATM   14  O12 UNL     1      -8.332  23.139 -16.784  1.00  0.00    -0.264 OA
BRANCH  13  15
HETATM   15  C17 UNL     1      -9.171  25.117 -17.847  1.00  0.00     0.225 C 
HETATM   16 CL1  UNL     1      -9.625  24.581 -19.477  1.00  0.00    -0.120 Cl
ENDBRANCH  13  15
ENDBRANCH  12  13
ENDBRANCH  11  12
BRANCH  11  17
HETATM   17  C18 UNL     1      -5.546  26.044 -18.685  1.00  0.00    -0.015 C 
HETATM   18  C19 UNL     1      -6.326  26.279 -19.989  1.00  0.00     0.018 C 
HETATM   19  C20 UNL     1      -4.464  27.053 -18.649  1.00  0.00     0.018 C 
HETATM   20  C21 UNL     1      -4.985  24.657 -18.738  1.00  0.00     0.018 C 
ENDBRANCH  11  17
ENDBRANCH   9  11
ENDBRANCH   8   9
ENDBRANCH   7   8
ENDBRANCH   6   7
BRANCH   1  21
HETATM   21  O2  UNL     1      -7.157  31.001 -14.706  1.00  0.00    -0.275 OA
BRANCH  21  22
HETATM   22  C3  UNL     1      -6.457  31.971 -13.982  1.00  0.00     0.263 C 
HETATM   23  O1  UNL     1      -6.629  33.181 -14.261  1.00  0.00    -0.265 OA
BRANCH  22  24
HETATM   24  C2  UNL     1      -5.517  31.614 -12.894  1.00  0.00     0.107 C 
HETATM   25  C1  UNL     1      -4.369  32.567 -12.896  1.00  0.00     0.015 C 
ENDBRANCH  22  24
ENDBRANCH  21  22
ENDBRANCH   1  21
BRANCH   5  26
HETATM   26  C11 UNL     1      -8.763  26.718 -13.107  1.00  0.00     0.213 C 
HETATM   27  O7  UNL     1      -8.749  26.102 -12.060  1.00  0.00    -0.644 OA
HETATM   28  O8  UNL     1      -8.722  25.880 -14.250  1.00  0.00    -0.644 OA
ENDBRANCH   5  26
BRANCH   2  29
HETATM   29  O3  UNL     1      -9.232  32.251 -13.575  1.00  0.00    -0.357 OA
ATOM     30  H3  UNL     1      -9.443  32.775 -12.812  1.00  0.00     0.218 HD
ENDBRANCH   2  29
BRANCH   4  31
HETATM   31  O6  UNL     1     -10.836  28.028 -12.023  1.00  0.00    -0.358 OA
ATOM     32  H6  UNL     1     -11.028  27.135 -12.284  1.00  0.00     0.217 HD
ENDBRANCH   4  31
BRANCH   3  33
HETATM   33  C7  UNL     1     -11.230  30.771 -12.140  1.00  0.00     0.298 C 
HETATM   34  O4  UNL     1     -11.818  31.700 -12.732  1.00  0.00    -0.259 OA
BRANCH  33  35
HETATM   35  O5  UNL     1     -11.745  30.421 -10.916  1.00  0.00    -0.322 OA
HETATM   36  C8  UNL     1     -13.139  30.407 -10.705  1.00  0.00     0.213 C 
ENDBRANCH  33  35
ENDBRANCH   3  33
TORSDOF 16
ENDMDL
MODEL 5
REMARK VINA RESULT: -7.276334269      4.046      7.814
REMARK  16 active torsions:
REMARK  status: ('A' for Active; 'I' for Inactive)
REMARK    1  A    between atoms: C2_2  and  C3_3 
REMARK    2  A    between atoms: C3_3  and  O2_5 
REMARK    3  A    between atoms: O2_5  and  C4_6 
REMARK    4  A    between atoms: C5_7  and  O3_8 
REMARK    5  A    between atoms: C6_10  and  C7_11 
REMARK    6  A    between atoms: C7_11  and  O5_13 
REMARK    7  A    between atoms: C9_15  and  O6_16 
REMARK    8  A    between atoms: C10_18  and  C11_19 
REMARK    9  A    between atoms: C12_22  and  C13_23 
REMARK   10  A    between atoms: C13_23  and  O9_24 
REMARK   11  A    between atoms: O9_24  and  C14_25 
REMARK   12  A    between atoms: C14_25  and  C15_27 
REMARK   13  A    between atoms: C15_27  and  O11_28 
REMARK   14  A    between atoms: C15_27  and  C18_33 
REMARK   15  A    between atoms: O11_28  and  C16_29 
REMARK   16  A    between atoms: C16_29  and  C17_31 
ROOT
HETATM    1  C4  UNL     1      -7.531  28.098 -14.396  1.00  0.00     0.126 A 
HETATM    2  C5  UNL     1      -7.449  27.331 -15.534  1.00  0.00     0.119 A 
HETATM    3  C6  UNL     1      -8.050  26.097 -15.529  1.00  0.00     0.109 A 
HETATM    4  C9  UNL     1      -8.721  25.647 -14.400  1.00  0.00     0.102 A 
HETATM    5  C10 UNL     1      -8.774  26.495 -13.240  1.00  0.00     0.089 A 
HETATM    6  C12 UNL     1      -8.194  27.706 -13.215  1.00  0.00     0.043 A 
ENDROOT
BRANCH   6   7
HETATM    7  C13 UNL     1      -8.123  28.687 -12.182  1.00  0.00     0.161 C 
BRANCH   7   8
HETATM    8  O9  UNL     1      -7.395  28.623 -11.040  1.00  0.00    -0.288 OA
BRANCH   8   9
HETATM    9  C14 UNL     1      -6.411  29.571 -10.749  1.00  0.00     0.293 C 
HETATM   10  O10 UNL     1      -6.735  30.764 -10.995  1.00  0.00    -0.262 OA
BRANCH   9  11
HETATM   11  C15 UNL     1      -5.102  29.285 -10.205  1.00  0.00     0.239 C 
BRANCH  11  12
HETATM   12  O11 UNL     1      -4.855  30.247  -9.150  1.00  0.00    -0.304 OA
BRANCH  12  13
HETATM   13  C16 UNL     1      -4.917  29.832  -7.835  1.00  0.00     0.273 C 
HETATM   14  O12 UNL     1      -5.052  28.611  -7.597  1.00  0.00    -0.264 OA
BRANCH  13  15
HETATM   15  C17 UNL     1      -4.823  30.848  -6.767  1.00  0.00     0.225 C 
HETATM   16 CL1  UNL     1      -3.632  32.109  -7.145  1.00  0.00    -0.120 Cl
ENDBRANCH  13  15
ENDBRANCH  12  13
ENDBRANCH  11  12
BRANCH  11  17
HETATM   17  C18 UNL     1      -3.935  29.498 -11.142  1.00  0.00    -0.015 C 
HETATM   18  C19 UNL     1      -2.842  28.538 -10.645  1.00  0.00     0.018 C 
HETATM   19  C20 UNL     1      -4.181  29.165 -12.563  1.00  0.00     0.018 C 
HETATM   20  C21 UNL     1      -3.409  30.892 -11.000  1.00  0.00     0.018 C 
ENDBRANCH  11  17
ENDBRANCH   9  11
ENDBRANCH   8   9
ENDBRANCH   7   8
ENDBRANCH   6   7
BRANCH   1  21
HETATM   21  O2  UNL     1      -6.912  29.337 -14.435  1.00  0.00    -0.275 OA
BRANCH  21  22
HETATM   22  C3  UNL     1      -7.628  30.410 -14.974  1.00  0.00     0.263 C 
HETATM   23  O1  UNL     1      -8.052  30.330 -16.151  1.00  0.00    -0.265 OA
BRANCH  22  24
HETATM   24  C2  UNL     1      -7.900  31.643 -14.199  1.00  0.00     0.107 C 
HETATM   25  C1  UNL     1      -6.624  32.382 -13.974  1.00  0.00     0.015 C 
ENDBRANCH  22  24
ENDBRANCH  21  22
ENDBRANCH   1  21
BRANCH   5  26
HETATM   26  C11 UNL     1      -9.513  25.946 -12.150  1.00  0.00     0.213 C 
HETATM   27  O7  UNL     1      -9.123  25.710 -11.024  1.00  0.00    -0.644 OA
HETATM   28  O8  UNL     1     -10.876  25.616 -12.351  1.00  0.00    -0.644 OA
ENDBRANCH   5  26
BRANCH   2  29
HETATM   29  O3  UNL     1      -6.775  27.815 -16.629  1.00  0.00    -0.357 OA
ATOM     30  H3  UNL     1      -7.035  27.536 -17.499  1.00  0.00     0.218 HD
ENDBRANCH   2  29
BRANCH   4  31
HETATM   31  O6  UNL     1      -9.311  24.456 -14.371  1.00  0.00    -0.358 OA
ATOM     32  H6  UNL     1      -9.811  24.168 -13.616  1.00  0.00     0.217 HD
ENDBRANCH   4  31
BRANCH   3  33
HETATM   33  C7  UNL     1      -8.005  25.222 -16.694  1.00  0.00     0.298 C 
HETATM   34  O4  UNL     1      -6.897  24.824 -17.113  1.00  0.00    -0.259 OA
BRANCH  33  35
HETATM   35  O5  UNL     1      -9.102  24.782 -17.394  1.00  0.00    -0.322 OA
HETATM   36  C8  UNL     1      -9.462  25.388 -18.614  1.00  0.00     0.213 C 
ENDBRANCH  33  35
ENDBRANCH   3  33
TORSDOF 16
ENDMDL
