MODEL 1
REMARK VINA RESULT: -8.186850339      0.000      0.000
REMARK  15 active torsions:
REMARK  status: ('A' for Active; 'I' for Inactive)
REMARK    1  A    between atoms: O1_2  and  C2_3 
REMARK    2  A    between atoms: C4_5  and  C5_6 
REMARK    3  A    between atoms: C5_6  and  C6_7 
REMARK    4  A    between atoms: C6_7  and  C7_8 
REMARK    5  A    between atoms: C7_8  and  O2_9 
REMARK    6  A    between atoms: C7_8  and  C8_11 
REMARK    7  A    between atoms: C9_12  and  O3_13 
REMARK    8  A    between atoms: C12_18  and  N2_19 
REMARK    9  A    between atoms: C13_22  and  C14_23 
REMARK   10  A    between atoms: C16_26  and  O7_27 
REMARK   11  A    between atoms: C18_31  and  O8_32 
REMARK   12  A    between atoms: O8_32  and  C19_33 
REMARK   13  A    between atoms: C19_33  and  C20_34 
REMARK   14  A    between atoms: C20_34  and  O9_36 
REMARK   15  A    between atoms: C22_38  and  O10_39 
ROOT
HETATM    1  C8  UNL     1      -7.199  26.636 -15.877  1.00  0.00     0.066 A 
HETATM    2  C9  UNL     1      -5.934  27.097 -16.099  1.00  0.00     0.104 A 
HETATM    3  C10 UNL     1      -5.194  26.825 -17.213  1.00  0.00     0.112 A 
HETATM    4  C11 UNL     1      -3.868  27.364 -17.345  1.00  0.00     0.105 C 
HETATM    5  N1  UNL     1      -2.808  27.807 -17.448  1.00  0.00    -0.191 NA
HETATM    6  C12 UNL     1      -5.738  26.022 -18.217  1.00  0.00     0.143 A 
HETATM    7  C13 UNL     1      -6.981  25.536 -18.058  1.00  0.00     0.078 A 
HETATM    8  C16 UNL     1      -7.756  25.815 -16.903  1.00  0.00     0.098 A 
ENDROOT
BRANCH   2   9
HETATM    9  O3  UNL     1      -5.344  27.898 -15.141  1.00  0.00    -0.358 OA
ATOM     10  H3  UNL     1      -4.625  28.462 -15.398  1.00  0.00     0.217 HD
ENDBRANCH   2   9
BRANCH   6  11
HETATM   11  N2  UNL     1      -4.896  25.821 -19.331  1.00  0.00    -0.113 N 
HETATM   12  O4  UNL     1      -4.135  24.793 -19.375  1.00  0.00    -0.532 OA
HETATM   13  O5  UNL     1      -4.776  26.667 -20.380  1.00  0.00    -0.532 OA
ENDBRANCH   6  11
BRANCH   1  14
HETATM   14  C7  UNL     1      -8.037  26.839 -14.737  1.00  0.00     0.081 C 
BRANCH  14  15
HETATM   15  C6  UNL     1      -8.507  27.905 -13.977  1.00  0.00     0.038 C 
BRANCH  15  16
HETATM   16  C5  UNL     1      -8.215  28.616 -12.958  1.00  0.00     0.017 C 
BRANCH  16  17
HETATM   17  C4  UNL     1      -7.395  29.871 -13.006  1.00  0.00     0.008 A 
HETATM   18  C3  UNL     1      -7.851  31.048 -13.493  1.00  0.00     0.054 A 
HETATM   19  C2  UNL     1      -7.041  32.208 -13.494  1.00  0.00     0.105 A 
HETATM   20  C22 UNL     1      -5.776  32.098 -12.984  1.00  0.00     0.136 A 
HETATM   21  C18 UNL     1      -5.284  30.910 -12.481  1.00  0.00     0.144 A 
HETATM   22  C17 UNL     1      -6.098  29.791 -12.492  1.00  0.00     0.162 A 
HETATM   23  F1  UNL     1      -5.579  28.638 -11.988  1.00  0.00    -0.202 F 
BRANCH  19  24
HETATM   24  O1  UNL     1      -7.533  33.388 -13.995  1.00  0.00    -0.353 OA
HETATM   25  C1  UNL     1      -8.894  33.753 -13.976  1.00  0.00     0.210 C 
ENDBRANCH  19  24
BRANCH  20  26
HETATM   26  O10 UNL     1      -4.967  33.205 -12.971  1.00  0.00    -0.356 OA
ATOM     27  H10 UNL     1      -5.129  33.886 -12.328  1.00  0.00     0.218 HD
ENDBRANCH  20  26
BRANCH  21  28
HETATM   28  O8  UNL     1      -3.994  30.888 -11.983  1.00  0.00    -0.343 OA
BRANCH  28  29
HETATM   29  C19 UNL     1      -2.984  30.621 -12.961  1.00  0.00     0.207 C 
BRANCH  29  30
HETATM   30  C20 UNL     1      -2.648  29.157 -13.046  1.00  0.00     0.138 C 
HETATM   31  C21 UNL     1      -1.420  28.764 -12.294  1.00  0.00     0.041 C 
BRANCH  30  32
HETATM   32  O9  UNL     1      -2.529  28.695 -14.343  1.00  0.00    -0.394 OA
ATOM     33  H9  UNL     1      -2.663  27.758 -14.424  1.00  0.00     0.210 HD
ENDBRANCH  30  32
ENDBRANCH  29  30
ENDBRANCH  28  29
ENDBRANCH  21  28
ENDBRANCH  16  17
ENDBRANCH  15  16
ENDBRANCH  14  15
BRANCH  14  34
HETATM   34  O2  UNL     1      -8.509  25.663 -14.254  1.00  0.00    -0.360 OA
ATOM     35  H2  UNL     1      -9.240  25.356 -14.777  1.00  0.00     0.217 HD
ENDBRANCH  14  34
ENDBRANCH   1  14
BRANCH   7  36
HETATM   36  C14 UNL     1      -7.615  24.693 -19.041  1.00  0.00     0.161 C 
HETATM   37  C15 UNL     1      -8.346  25.069 -20.244  1.00  0.00     0.097 C 
HETATM   38  O6  UNL     1      -7.543  23.418 -18.862  1.00  0.00    -0.293 OA
ENDBRANCH   7  36
BRANCH   8  39
HETATM   39  O7  UNL     1      -8.970  25.305 -16.816  1.00  0.00    -0.359 OA
ATOM     40  H7  UNL     1      -9.457  25.021 -17.580  1.00  0.00     0.217 HD
ENDBRANCH   8  39
TORSDOF 15
ENDMDL
MODEL 2
REMARK VINA RESULT: -8.090023226      1.501      3.967
REMARK  15 active torsions:
REMARK  status: ('A' for Active; 'I' for Inactive)
REMARK    1  A    between atoms: O1_2  and  C2_3 
REMARK    2  A    between atoms: C4_5  and  C5_6 
REMARK    3  A    between atoms: C5_6  and  C6_7 
REMARK    4  A    between atoms: C6_7  and  C7_8 
REMARK    5  A    between atoms: C7_8  and  O2_9 
REMARK    6  A    between atoms: C7_8  and  C8_11 
REMARK    7  A    between atoms: C9_12  and  O3_13 
REMARK    8  A    between atoms: C12_18  and  N2_19 
REMARK    9  A    between atoms: C13_22  and  C14_23 
REMARK   10  A    between atoms: C16_26  and  O7_27 
REMARK   11  A    between atoms: C18_31  and  O8_32 
REMARK   12  A    between atoms: O8_32  and  C19_33 
REMARK   13  A    between atoms: C19_33  and  C20_34 
REMARK   14  A    between atoms: C20_34  and  O9_36 
REMARK   15  A    between atoms: C22_38  and  O10_39 
ROOT
HETATM    1  C8  UNL     1      -7.294  26.370 -15.970  1.00  0.00     0.066 A 
HETATM    2  C9  UNL     1      -6.028  26.826 -16.196  1.00  0.00     0.104 A 
HETATM    3  C10 UNL     1      -5.376  26.741 -17.391  1.00  0.00     0.112 A 
HETATM    4  C11 UNL     1      -4.039  27.254 -17.520  1.00  0.00     0.105 C 
HETATM    5  N1  UNL     1      -2.970  27.677 -17.618  1.00  0.00    -0.191 NA
HETATM    6  C12 UNL     1      -6.019  26.152 -18.482  1.00  0.00     0.143 A 
HETATM    7  C13 UNL     1      -7.268  25.683 -18.323  1.00  0.00     0.078 A 
HETATM    8  C16 UNL     1      -7.952  25.769 -17.083  1.00  0.00     0.098 A 
ENDROOT
BRANCH   2   9
HETATM    9  O3  UNL     1      -5.342  27.420 -15.154  1.00  0.00    -0.358 OA
ATOM     10  H3  UNL     1      -4.568  26.989 -14.814  1.00  0.00     0.217 HD
ENDBRANCH   2   9
BRANCH   6  11
HETATM   11  N2  UNL     1      -5.261  26.133 -19.672  1.00  0.00    -0.113 N 
HETATM   12  O4  UNL     1      -5.158  27.196 -20.377  1.00  0.00    -0.532 OA
HETATM   13  O5  UNL     1      -4.644  25.043 -20.186  1.00  0.00    -0.532 OA
ENDBRANCH   6  11
BRANCH   1  14
HETATM   14  C7  UNL     1      -8.045  26.387 -14.754  1.00  0.00     0.081 C 
BRANCH  14  15
HETATM   15  C6  UNL     1      -8.376  27.297 -13.755  1.00  0.00     0.038 C 
BRANCH  15  16
HETATM   16  C5  UNL     1      -8.899  28.448 -13.580  1.00  0.00     0.017 C 
BRANCH  16  17
HETATM   17  C4  UNL     1      -8.141  29.667 -13.149  1.00  0.00     0.008 A 
HETATM   18  C3  UNL     1      -6.811  29.676 -12.902  1.00  0.00     0.054 A 
HETATM   19  C2  UNL     1      -6.140  30.862 -12.519  1.00  0.00     0.105 A 
HETATM   20  C22 UNL     1      -6.887  32.004 -12.405  1.00  0.00     0.136 A 
HETATM   21  C18 UNL     1      -8.245  32.024 -12.651  1.00  0.00     0.144 A 
HETATM   22  C17 UNL     1      -8.875  30.850 -13.024  1.00  0.00     0.162 A 
HETATM   23  F1  UNL     1     -10.215  30.908 -13.257  1.00  0.00    -0.202 F 
BRANCH  19  24
HETATM   24  O1  UNL     1      -4.789  30.839 -12.276  1.00  0.00    -0.353 OA
HETATM   25  C1  UNL     1      -3.972  29.702 -12.441  1.00  0.00     0.210 C 
ENDBRANCH  19  24
BRANCH  20  26
HETATM   26  O10 UNL     1      -6.265  33.169 -12.037  1.00  0.00    -0.356 OA
ATOM     27  H10 UNL     1      -6.106  33.834 -12.696  1.00  0.00     0.218 HD
ENDBRANCH  20  26
BRANCH  21  28
HETATM   28  O8  UNL     1      -8.923  33.222 -12.514  1.00  0.00    -0.343 OA
BRANCH  28  29
HETATM   29  C19 UNL     1      -9.221  33.881 -13.749  1.00  0.00     0.207 C 
BRANCH  29  30
HETATM   30  C20 UNL     1     -10.612  34.453 -13.765  1.00  0.00     0.138 C 
HETATM   31  C21 UNL     1     -10.727  35.807 -13.148  1.00  0.00     0.041 C 
BRANCH  30  32
HETATM   32  O9  UNL     1     -11.553  33.628 -13.180  1.00  0.00    -0.394 OA
ATOM     33  H9  UNL     1     -11.698  33.814 -12.259  1.00  0.00     0.210 HD
ENDBRANCH  30  32
ENDBRANCH  29  30
ENDBRANCH  28  29
ENDBRANCH  21  28
ENDBRANCH  16  17
ENDBRANCH  15  16
ENDBRANCH  14  15
BRANCH  14  34
HETATM   34  O2  UNL     1      -8.591  25.172 -14.493  1.00  0.00    -0.360 OA
ATOM     35  H2  UNL     1      -8.088  24.483 -14.912  1.00  0.00     0.217 HD
ENDBRANCH  14  34
ENDBRANCH   1  14
BRANCH   7  36
HETATM   36  C14 UNL     1      -8.001  25.054 -19.393  1.00  0.00     0.161 C 
HETATM   37  C15 UNL     1      -8.889  25.654 -20.380  1.00  0.00     0.097 C 
HETATM   38  O6  UNL     1      -7.875  23.777 -19.527  1.00  0.00    -0.293 OA
ENDBRANCH   7  36
BRANCH   8  39
HETATM   39  O7  UNL     1      -9.179  25.288 -17.002  1.00  0.00    -0.359 OA
ATOM     40  H7  UNL     1      -9.638  24.939 -17.756  1.00  0.00     0.217 HD
ENDBRANCH   8  39
TORSDOF 15
ENDMDL
MODEL 3
REMARK VINA RESULT: -8.072004005      1.112      1.581
REMARK  15 active torsions:
REMARK  status: ('A' for Active; 'I' for Inactive)
REMARK    1  A    between atoms: O1_2  and  C2_3 
REMARK    2  A    between atoms: C4_5  and  C5_6 
REMARK    3  A    between atoms: C5_6  and  C6_7 
REMARK    4  A    between atoms: C6_7  and  C7_8 
REMARK    5  A    between atoms: C7_8  and  O2_9 
REMARK    6  A    between atoms: C7_8  and  C8_11 
REMARK    7  A    between atoms: C9_12  and  O3_13 
REMARK    8  A    between atoms: C12_18  and  N2_19 
REMARK    9  A    between atoms: C13_22  and  C14_23 
REMARK   10  A    between atoms: C16_26  and  O7_27 
REMARK   11  A    between atoms: C18_31  and  O8_32 
REMARK   12  A    between atoms: O8_32  and  C19_33 
REMARK   13  A    between atoms: C19_33  and  C20_34 
REMARK   14  A    between atoms: C20_34  and  O9_36 
REMARK   15  A    between atoms: C22_38  and  O10_39 
ROOT
HETATM    1  C8  UNL     1      -7.284  26.585 -15.958  1.00  0.00     0.066 A 
HETATM    2  C9  UNL     1      -6.034  27.071 -16.214  1.00  0.00     0.104 A 
HETATM    3  C10 UNL     1      -5.288  26.751 -17.312  1.00  0.00     0.112 A 
HETATM    4  C11 UNL     1      -3.980  27.321 -17.483  1.00  0.00     0.105 C 
HETATM    5  N1  UNL     1      -2.934  27.790 -17.619  1.00  0.00    -0.191 NA
HETATM    6  C12 UNL     1      -5.809  25.869 -18.261  1.00  0.00     0.143 A 
HETATM    7  C13 UNL     1      -7.036  25.356 -18.066  1.00  0.00     0.078 A 
HETATM    8  C16 UNL     1      -7.817  25.684 -16.928  1.00  0.00     0.098 A 
ENDROOT
BRANCH   2   9
HETATM    9  O3  UNL     1      -5.468  27.949 -15.312  1.00  0.00    -0.358 OA
ATOM     10  H3  UNL     1      -5.544  28.882 -15.475  1.00  0.00     0.217 HD
ENDBRANCH   2   9
BRANCH   6  11
HETATM   11  N2  UNL     1      -4.963  25.623 -19.363  1.00  0.00    -0.113 N 
HETATM   12  O4  UNL     1      -4.999  26.401 -20.378  1.00  0.00    -0.532 OA
HETATM   13  O5  UNL     1      -4.114  24.576 -19.475  1.00  0.00    -0.532 OA
ENDBRANCH   6  11
BRANCH   1  14
HETATM   14  C7  UNL     1      -8.125  26.835 -14.831  1.00  0.00     0.081 C 
BRANCH  14  15
HETATM   15  C6  UNL     1      -8.693  27.929 -14.187  1.00  0.00     0.038 C 
BRANCH  15  16
HETATM   16  C5  UNL     1      -8.535  28.691 -13.175  1.00  0.00     0.017 C 
BRANCH  16  17
HETATM   17  C4  UNL     1      -7.704  29.939 -13.175  1.00  0.00     0.008 A 
HETATM   18  C3  UNL     1      -8.160  31.146 -13.585  1.00  0.00     0.054 A 
HETATM   19  C2  UNL     1      -7.339  32.297 -13.543  1.00  0.00     0.105 A 
HETATM   20  C22 UNL     1      -6.062  32.148 -13.073  1.00  0.00     0.136 A 
HETATM   21  C18 UNL     1      -5.570  30.929 -12.648  1.00  0.00     0.144 A 
HETATM   22  C17 UNL     1      -6.395  29.820 -12.700  1.00  0.00     0.162 A 
HETATM   23  F1  UNL     1      -5.875  28.636 -12.275  1.00  0.00    -0.202 F 
BRANCH  19  24
HETATM   24  O1  UNL     1      -7.830  33.507 -13.965  1.00  0.00    -0.353 OA
HETATM   25  C1  UNL     1      -9.191  33.874 -13.911  1.00  0.00     0.210 C 
ENDBRANCH  19  24
BRANCH  20  26
HETATM   26  O10 UNL     1      -5.242  33.245 -13.019  1.00  0.00    -0.356 OA
ATOM     27  H10 UNL     1      -4.301  33.117 -13.009  1.00  0.00     0.218 HD
ENDBRANCH  20  26
BRANCH  21  28
HETATM   28  O8  UNL     1      -4.268  30.868 -12.187  1.00  0.00    -0.343 OA
BRANCH  28  29
HETATM   29  C19 UNL     1      -4.142  30.868 -10.761  1.00  0.00     0.207 C 
BRANCH  29  30
HETATM   30  C20 UNL     1      -3.012  31.743 -10.290  1.00  0.00     0.138 C 
HETATM   31  C21 UNL     1      -3.079  32.109  -8.845  1.00  0.00     0.041 C 
BRANCH  30  32
HETATM   32  O9  UNL     1      -2.873  32.905 -11.026  1.00  0.00    -0.394 OA
ATOM     33  H9  UNL     1      -2.211  32.845 -11.705  1.00  0.00     0.210 HD
ENDBRANCH  30  32
ENDBRANCH  29  30
ENDBRANCH  28  29
ENDBRANCH  21  28
ENDBRANCH  16  17
ENDBRANCH  15  16
ENDBRANCH  14  15
BRANCH  14  34
HETATM   34  O2  UNL     1      -8.468  25.681 -14.204  1.00  0.00    -0.360 OA
ATOM     35  H2  UNL     1      -8.656  24.999 -14.839  1.00  0.00     0.217 HD
ENDBRANCH  14  34
ENDBRANCH   1  14
BRANCH   7  36
HETATM   36  C14 UNL     1      -7.645  24.432 -18.990  1.00  0.00     0.161 C 
HETATM   37  C15 UNL     1      -8.507  24.706 -20.133  1.00  0.00     0.097 C 
HETATM   38  O6  UNL     1      -7.414  23.176 -18.812  1.00  0.00    -0.293 OA
ENDBRANCH   7  36
BRANCH   8  39
HETATM   39  O7  UNL     1      -9.014  25.142 -16.803  1.00  0.00    -0.359 OA
ATOM     40  H7  UNL     1      -9.590  25.009 -17.546  1.00  0.00     0.217 HD
ENDBRANCH   8  39
TORSDOF 15
ENDMDL
MODEL 4
REMARK VINA RESULT: -8.056287425      2.578      5.267
REMARK  15 active torsions:
REMARK  status: ('A' for Active; 'I' for Inactive)
REMARK    1  A    between atoms: O1_2  and  C2_3 
REMARK    2  A    between atoms: C4_5  and  C5_6 
REMARK    3  A    between atoms: C5_6  and  C6_7 
REMARK    4  A    between atoms: C6_7  and  C7_8 
REMARK    5  A    between atoms: C7_8  and  O2_9 
REMARK    6  A    between atoms: C7_8  and  C8_11 
REMARK    7  A    between atoms: C9_12  and  O3_13 
REMARK    8  A    between atoms: C12_18  and  N2_19 
REMARK    9  A    between atoms: C13_22  and  C14_23 
REMARK   10  A    between atoms: C16_26  and  O7_27 
REMARK   11  A    between atoms: C18_31  and  O8_32 
REMARK   12  A    between atoms: O8_32  and  C19_33 
REMARK   13  A    between atoms: C19_33  and  C20_34 
REMARK   14  A    between atoms: C20_34  and  O9_36 
REMARK   15  A    between atoms: C22_38  and  O10_39 
ROOT
HETATM    1  C8  UNL     1      -6.297  26.870 -15.642  1.00  0.00     0.066 A 
HETATM    2  C9  UNL     1      -7.359  26.018 -15.536  1.00  0.00     0.104 A 
HETATM    3  C10 UNL     1      -7.707  25.094 -16.478  1.00  0.00     0.112 A 
HETATM    4  C11 UNL     1      -8.847  24.245 -16.265  1.00  0.00     0.105 C 
HETATM    5  N1  UNL     1      -9.758  23.560 -16.083  1.00  0.00    -0.191 NA
HETATM    6  C12 UNL     1      -6.948  24.985 -17.645  1.00  0.00     0.143 A 
HETATM    7  C13 UNL     1      -5.889  25.797 -17.808  1.00  0.00     0.078 A 
HETATM    8  C16 UNL     1      -5.520  26.758 -16.833  1.00  0.00     0.098 A 
ENDROOT
BRANCH   2   9
HETATM    9  O3  UNL     1      -8.145  26.078 -14.403  1.00  0.00    -0.358 OA
ATOM     10  H3  UNL     1      -8.652  25.313 -14.158  1.00  0.00     0.217 HD
ENDBRANCH   2   9
BRANCH   6  11
HETATM   11  N2  UNL     1      -7.386  23.987 -18.541  1.00  0.00    -0.113 N 
HETATM   12  O4  UNL     1      -6.886  22.811 -18.477  1.00  0.00    -0.532 OA
HETATM   13  O5  UNL     1      -8.288  24.171 -19.532  1.00  0.00    -0.532 OA
ENDBRANCH   6  11
BRANCH   1  14
HETATM   14  C7  UNL     1      -5.872  27.884 -14.729  1.00  0.00     0.081 C 
BRANCH  14  15
HETATM   15  C6  UNL     1      -6.442  28.922 -13.999  1.00  0.00     0.038 C 
BRANCH  15  16
HETATM   16  C5  UNL     1      -6.689  30.172 -14.058  1.00  0.00     0.017 C 
BRANCH  16  17
HETATM   17  C4  UNL     1      -7.990  30.799 -13.653  1.00  0.00     0.008 A 
HETATM   18  C3  UNL     1      -9.097  30.091 -13.329  1.00  0.00     0.054 A 
HETATM   19  C2  UNL     1     -10.293  30.734 -12.931  1.00  0.00     0.105 A 
HETATM   20  C22 UNL     1     -10.293  32.102 -12.887  1.00  0.00     0.136 A 
HETATM   21  C18 UNL     1      -9.179  32.850 -13.213  1.00  0.00     0.144 A 
HETATM   22  C17 UNL     1      -8.022  32.196 -13.598  1.00  0.00     0.162 A 
HETATM   23  F1  UNL     1      -6.945  32.966 -13.912  1.00  0.00    -0.202 F 
BRANCH  19  24
HETATM   24  O1  UNL     1     -11.399  29.987 -12.608  1.00  0.00    -0.353 OA
HETATM   25  C1  UNL     1     -11.525  29.226 -11.428  1.00  0.00     0.210 C 
ENDBRANCH  19  24
BRANCH  20  26
HETATM   26  O10 UNL     1     -11.437  32.753 -12.505  1.00  0.00    -0.356 OA
ATOM     27  H10 UNL     1     -11.903  33.279 -13.145  1.00  0.00     0.218 HD
ENDBRANCH  20  26
BRANCH  21  28
HETATM   28  O8  UNL     1      -9.265  34.228 -13.139  1.00  0.00    -0.343 OA
BRANCH  28  29
HETATM   29  C19 UNL     1      -9.576  34.871 -14.379  1.00  0.00     0.207 C 
BRANCH  29  30
HETATM   30  C20 UNL     1     -10.834  35.692 -14.294  1.00  0.00     0.138 C 
HETATM   31  C21 UNL     1     -10.979  36.465 -13.026  1.00  0.00     0.041 C 
BRANCH  30  32
HETATM   32  O9  UNL     1     -11.987  34.954 -14.485  1.00  0.00    -0.394 OA
ATOM     33  H9  UNL     1     -12.596  35.355 -15.094  1.00  0.00     0.210 HD
ENDBRANCH  30  32
ENDBRANCH  29  30
ENDBRANCH  28  29
ENDBRANCH  21  28
ENDBRANCH  16  17
ENDBRANCH  15  16
ENDBRANCH  14  15
BRANCH  14  34
HETATM   34  O2  UNL     1      -4.534  27.824 -14.512  1.00  0.00    -0.360 OA
ATOM     35  H2  UNL     1      -4.065  27.749 -15.334  1.00  0.00     0.217 HD
ENDBRANCH  14  34
ENDBRANCH   1  14
BRANCH   7  36
HETATM   36  C14 UNL     1      -5.057  25.756 -18.985  1.00  0.00     0.161 C 
HETATM   37  C15 UNL     1      -5.309  26.305 -20.311  1.00  0.00     0.097 C 
HETATM   38  O6  UNL     1      -3.918  25.159 -18.885  1.00  0.00    -0.293 OA
ENDBRANCH   7  36
BRANCH   8  39
HETATM   39  O7  UNL     1      -4.467  27.521 -17.061  1.00  0.00    -0.359 OA
ATOM     40  H7  UNL     1      -4.309  27.927 -17.905  1.00  0.00     0.217 HD
ENDBRANCH   8  39
TORSDOF 15
ENDMDL
MODEL 5
REMARK VINA RESULT: -8.047480546      1.930      4.609
REMARK  15 active torsions:
REMARK  status: ('A' for Active; 'I' for Inactive)
REMARK    1  A    between atoms: O1_2  and  C2_3 
REMARK    2  A    between atoms: C4_5  and  C5_6 
REMARK    3  A    between atoms: C5_6  and  C6_7 
REMARK    4  A    between atoms: C6_7  and  C7_8 
REMARK    5  A    between atoms: C7_8  and  O2_9 
REMARK    6  A    between atoms: C7_8  and  C8_11 
REMARK    7  A    between atoms: C9_12  and  O3_13 
REMARK    8  A    between atoms: C12_18  and  N2_19 
REMARK    9  A    between atoms: C13_22  and  C14_23 
REMARK   10  A    between atoms: C16_26  and  O7_27 
REMARK   11  A    between atoms: C18_31  and  O8_32 
REMARK   12  A    between atoms: O8_32  and  C19_33 
REMARK   13  A    between atoms: C19_33  and  C20_34 
REMARK   14  A    between atoms: C20_34  and  O9_36 
REMARK   15  A    between atoms: C22_38  and  O10_39 
ROOT
HETATM    1  C8  UNL     1      -7.856  26.589 -15.053  1.00  0.00     0.066 A 
HETATM    2  C9  UNL     1      -8.327  25.335 -15.318  1.00  0.00     0.104 A 
HETATM    3  C10 UNL     1      -7.896  24.547 -16.345  1.00  0.00     0.112 A 
HETATM    4  C11 UNL     1      -8.462  23.239 -16.534  1.00  0.00     0.105 C 
HETATM    5  N1  UNL     1      -8.915  22.187 -16.675  1.00  0.00    -0.191 NA
HETATM    6  C12 UNL     1      -6.904  25.023 -17.204  1.00  0.00     0.143 A 
HETATM    7  C13 UNL     1      -6.399  26.251 -16.996  1.00  0.00     0.078 A 
HETATM    8  C16 UNL     1      -6.842  27.076 -15.930  1.00  0.00     0.098 A 
ENDROOT
BRANCH   2   9
HETATM    9  O3  UNL     1      -9.308  24.811 -14.500  1.00  0.00    -0.358 OA
ATOM     10  H3  UNL     1      -9.908  25.407 -14.068  1.00  0.00     0.217 HD
ENDBRANCH   2   9
BRANCH   6  11
HETATM   11  N2  UNL     1      -6.521  24.120 -18.218  1.00  0.00    -0.113 N 
HETATM   12  O4  UNL     1      -5.360  23.583 -18.187  1.00  0.00    -0.532 OA
HETATM   13  O5  UNL     1      -7.276  23.787 -19.291  1.00  0.00    -0.532 OA
ENDBRANCH   6  11
BRANCH   1  14
HETATM   14  C7  UNL     1      -8.262  27.497 -14.027  1.00  0.00     0.081 C 
BRANCH  14  15
HETATM   15  C6  UNL     1      -8.130  27.626 -12.648  1.00  0.00     0.038 C 
BRANCH  15  16
HETATM   16  C5  UNL     1      -7.604  28.372 -11.756  1.00  0.00     0.017 C 
BRANCH  16  17
HETATM   17  C4  UNL     1      -6.892  29.660 -12.041  1.00  0.00     0.008 A 
HETATM   18  C3  UNL     1      -5.556  29.753 -12.237  1.00  0.00     0.054 A 
HETATM   19  C2  UNL     1      -4.937  30.992 -12.526  1.00  0.00     0.105 A 
HETATM   20  C22 UNL     1      -5.739  32.099 -12.599  1.00  0.00     0.136 A 
HETATM   21  C18 UNL     1      -7.105  32.034 -12.404  1.00  0.00     0.144 A 
HETATM   22  C17 UNL     1      -7.683  30.810 -12.123  1.00  0.00     0.162 A 
HETATM   23  F1  UNL     1      -9.031  30.785 -11.936  1.00  0.00    -0.202 F 
BRANCH  19  24
HETATM   24  O1  UNL     1      -3.579  31.053 -12.720  1.00  0.00    -0.353 OA
HETATM   25  C1  UNL     1      -2.753  29.926 -12.907  1.00  0.00     0.210 C 
ENDBRANCH  19  24
BRANCH  20  26
HETATM   26  O10 UNL     1      -5.169  33.314 -12.877  1.00  0.00    -0.356 OA
ATOM     27  H10 UNL     1      -4.501  33.365 -13.551  1.00  0.00     0.218 HD
ENDBRANCH  20  26
BRANCH  21  28
HETATM   28  O8  UNL     1      -7.840  33.202 -12.497  1.00  0.00    -0.343 OA
BRANCH  28  29
HETATM   29  C19 UNL     1      -8.701  33.271 -13.638  1.00  0.00     0.207 C 
BRANCH  29  30
HETATM   30  C20 UNL     1     -10.002  33.961 -13.326  1.00  0.00     0.138 C 
HETATM   31  C21 UNL     1     -11.101  33.042 -12.912  1.00  0.00     0.041 C 
BRANCH  30  32
HETATM   32  O9  UNL     1     -10.465  34.753 -14.360  1.00  0.00    -0.394 OA
ATOM     33  H9  UNL     1     -10.010  35.584 -14.432  1.00  0.00     0.210 HD
ENDBRANCH  30  32
ENDBRANCH  29  30
ENDBRANCH  28  29
ENDBRANCH  21  28
ENDBRANCH  16  17
ENDBRANCH  15  16
ENDBRANCH  14  15
BRANCH  14  34
HETATM   34  O2  UNL     1      -8.985  28.526 -14.536  1.00  0.00    -0.360 OA
ATOM     35  H2  UNL     1      -9.102  28.421 -15.473  1.00  0.00     0.217 HD
ENDBRANCH  14  34
ENDBRANCH   1  14
BRANCH   7  36
HETATM   36  C14 UNL     1      -5.379  26.823 -17.840  1.00  0.00     0.161 C 
HETATM   37  C15 UNL     1      -5.383  27.023 -19.283  1.00  0.00     0.097 C 
HETATM   38  O6  UNL     1      -4.296  27.227 -17.269  1.00  0.00    -0.293 OA
ENDBRANCH   7  36
BRANCH   8  39
HETATM   39  O7  UNL     1      -6.299  28.271 -15.786  1.00  0.00    -0.359 OA
ATOM     40  H7  UNL     1      -5.405  28.389 -15.487  1.00  0.00     0.217 HD
ENDBRANCH   8  39
TORSDOF 15
ENDMDL
