MODEL 1
REMARK VINA RESULT: -7.371800927      0.000      0.000
REMARK  12 active torsions:
REMARK  status: ('A' for Active; 'I' for Inactive)
REMARK    1  A    between atoms: C2_2  and  O1_3 
REMARK    2  A    between atoms: C2_2  and  C3_5 
REMARK    3  A    between atoms: C3_5  and  N1_6 
REMARK    4  A    between atoms: C3_5  and  C10_22 
REMARK    5  A    between atoms: N1_6  and  N2_8 
REMARK    6  A    between atoms: N2_8  and  C4_10 
REMARK    7  A    between atoms: C7_14  and  O2_15 
REMARK    8  A    between atoms: C8_17  and  N3_18 
REMARK       I    between atoms: C10_22  and  N4_24 
REMARK    9  A    between atoms: N4_24  and  C11_26 
REMARK   10  A    between atoms: C11_26  and  O6_27 
REMARK   11  A    between atoms: C11_26  and  O7_29 
REMARK   12  A    between atoms: O7_29  and  C12_30 
ROOT
HETATM    1  C3  UNL     1     -13.492  -7.939  10.164  1.00  0.00     0.144 C 
ENDROOT
BRANCH   1   2
HETATM    2  C2  UNL     1     -12.822  -8.889  11.011  1.00  0.00     0.073 C 
HETATM    3  C1  UNL     1     -11.413  -8.927  11.410  1.00  0.00     0.078 C 
BRANCH   2   4
HETATM    4  O1  UNL     1     -13.575  -9.840  11.482  1.00  0.00    -0.363 OA
ATOM      5  H1  UNL     1     -13.713  -9.836  12.422  1.00  0.00     0.217 HD
ENDBRANCH   2   4
ENDBRANCH   1   2
BRANCH   1   6
HETATM    6  N1  UNL     1     -14.318  -7.139  10.778  1.00  0.00    -0.293 N 
ATOM      7  H1  UNL     1     -14.287  -6.157  10.504  1.00  0.00     0.187 HD
BRANCH   6   8
HETATM    8  N2  UNL     1     -15.222  -7.473  11.751  1.00  0.00    -0.300 N 
ATOM      9  H2  UNL     1     -14.958  -7.300  12.721  1.00  0.00     0.187 HD
BRANCH   8  10
HETATM   10  C4  UNL     1     -16.506  -8.041  11.508  1.00  0.00     0.051 A 
HETATM   11  C5  UNL     1     -16.798  -8.607  10.286  1.00  0.00     0.053 A 
HETATM   12  C6  UNL     1     -18.041  -9.163  10.015  1.00  0.00     0.048 A 
HETATM   13 BR1  UNL     1     -18.372  -9.920   8.317  1.00  0.00    -0.048 Br
HETATM   14  C7  UNL     1     -19.005  -9.143  11.000  1.00  0.00     0.116 A 
HETATM   15  C8  UNL     1     -18.742  -8.587  12.224  1.00  0.00     0.139 A 
HETATM   16  C9  UNL     1     -17.496  -8.041  12.468  1.00  0.00     0.070 A 
BRANCH  14  17
HETATM   17  O2  UNL     1     -20.241  -9.710  10.688  1.00  0.00    -0.357 OA
ATOM     18  H2  UNL     1     -21.015  -9.230  10.956  1.00  0.00     0.217 HD
ENDBRANCH  14  17
BRANCH  15  19
HETATM   19  N3  UNL     1     -19.775  -8.584  13.227  1.00  0.00    -0.113 N 
HETATM   20  O3  UNL     1     -20.488  -9.596  13.370  1.00  0.00    -0.532 OA
HETATM   21  O4  UNL     1     -19.953  -7.460  14.011  1.00  0.00    -0.532 OA
ENDBRANCH  15  19
ENDBRANCH   8  10
ENDBRANCH   6   8
ENDBRANCH   1   6
BRANCH   1  22
HETATM   22  C10 UNL     1     -13.334  -7.807   8.748  1.00  0.00     0.275 C 
HETATM   23  O5  UNL     1     -14.290  -7.201   8.128  1.00  0.00    -0.266 OA
HETATM   24  N4  UNL     1     -12.292  -8.235   7.910  1.00  0.00    -0.307 N 
ATOM     25  H4  UNL     1     -11.481  -8.725   8.289  1.00  0.00     0.167 HD
BRANCH  24  26
HETATM   26  C11 UNL     1     -12.402  -7.955   6.464  1.00  0.00     0.371 C 
BRANCH  26  27
HETATM   27  O6  UNL     1     -12.216  -6.571   6.330  1.00  0.00    -0.354 OA
ATOM     28  H6  UNL     1     -11.347  -6.463   5.962  1.00  0.00     0.214 HD
ENDBRANCH  26  27
BRANCH  26  29
HETATM   29  O7  UNL     1     -11.593  -8.694   5.683  1.00  0.00    -0.334 OA
BRANCH  29  30
HETATM   30  C12 UNL     1     -12.116  -9.615   4.832  1.00  0.00     0.055 C 
HETATM   31  C13 UNL     1     -12.140 -10.950   5.567  1.00  0.00     0.045 C 
HETATM   32  C14 UNL     1     -11.280  -9.835   3.588  1.00  0.00     0.045 C 
HETATM   33  C15 UNL     1     -13.519  -9.343   4.381  1.00  0.00     0.045 C 
ENDBRANCH  29  30
ENDBRANCH  26  29
ENDBRANCH  24  26
ENDBRANCH   1  22
TORSDOF 12
ENDMDL
MODEL 2
REMARK VINA RESULT: -7.342840194      3.321      5.218
REMARK  12 active torsions:
REMARK  status: ('A' for Active; 'I' for Inactive)
REMARK    1  A    between atoms: C2_2  and  O1_3 
REMARK    2  A    between atoms: C2_2  and  C3_5 
REMARK    3  A    between atoms: C3_5  and  N1_6 
REMARK    4  A    between atoms: C3_5  and  C10_22 
REMARK    5  A    between atoms: N1_6  and  N2_8 
REMARK    6  A    between atoms: N2_8  and  C4_10 
REMARK    7  A    between atoms: C7_14  and  O2_15 
REMARK    8  A    between atoms: C8_17  and  N3_18 
REMARK       I    between atoms: C10_22  and  N4_24 
REMARK    9  A    between atoms: N4_24  and  C11_26 
REMARK   10  A    between atoms: C11_26  and  O6_27 
REMARK   11  A    between atoms: C11_26  and  O7_29 
REMARK   12  A    between atoms: O7_29  and  C12_30 
ROOT
HETATM    1  C3  UNL     1     -17.956  -9.801   6.220  1.00  0.00     0.144 C 
ENDROOT
BRANCH   1   2
HETATM    2  C2  UNL     1     -19.148 -10.173   5.508  1.00  0.00     0.073 C 
HETATM    3  C1  UNL     1     -19.273 -10.952   4.273  1.00  0.00     0.078 C 
BRANCH   2   4
HETATM    4  O1  UNL     1     -20.263  -9.758   6.036  1.00  0.00    -0.363 OA
ATOM      5  H1  UNL     1     -20.844 -10.433   6.367  1.00  0.00     0.217 HD
ENDBRANCH   2   4
ENDBRANCH   1   2
BRANCH   1   6
HETATM    6  N1  UNL     1     -18.154  -9.095   7.297  1.00  0.00    -0.293 N 
ATOM      7  H1  UNL     1     -18.178  -8.082   7.179  1.00  0.00     0.187 HD
BRANCH   6   8
HETATM    8  N2  UNL     1     -18.335  -9.563   8.572  1.00  0.00    -0.300 N 
ATOM      9  H2  UNL     1     -18.930 -10.382   8.694  1.00  0.00     0.187 HD
BRANCH   8  10
HETATM   10  C4  UNL     1     -17.753  -8.990   9.740  1.00  0.00     0.051 A 
HETATM   11  C5  UNL     1     -18.418  -9.041  10.946  1.00  0.00     0.053 A 
HETATM   12  C6  UNL     1     -17.882  -8.486  12.100  1.00  0.00     0.048 A 
HETATM   13 BR1  UNL     1     -18.848  -8.591  13.719  1.00  0.00    -0.048 Br
HETATM   14  C7  UNL     1     -16.651  -7.869  12.030  1.00  0.00     0.116 A 
HETATM   15  C8  UNL     1     -15.969  -7.805  10.844  1.00  0.00     0.139 A 
HETATM   16  C9  UNL     1     -16.524  -8.365   9.709  1.00  0.00     0.070 A 
BRANCH  14  17
HETATM   17  O2  UNL     1     -16.148  -7.324  13.211  1.00  0.00    -0.357 OA
ATOM     18  H2  UNL     1     -16.748  -6.808  13.737  1.00  0.00     0.217 HD
ENDBRANCH  14  17
BRANCH  15  19
HETATM   19  N3  UNL     1     -14.687  -7.150  10.809  1.00  0.00    -0.113 N 
HETATM   20  O3  UNL     1     -13.705  -7.705  11.340  1.00  0.00    -0.532 OA
HETATM   21  O4  UNL     1     -14.571  -5.922  10.187  1.00  0.00    -0.532 OA
ENDBRANCH  15  19
ENDBRANCH   8  10
ENDBRANCH   6   8
ENDBRANCH   1   6
BRANCH   1  22
HETATM   22  C10 UNL     1     -16.612 -10.128   5.853  1.00  0.00     0.275 C 
HETATM   23  O5  UNL     1     -15.878 -10.630   6.788  1.00  0.00    -0.266 OA
HETATM   24  N4  UNL     1     -15.952  -9.992   4.621  1.00  0.00    -0.307 N 
ATOM     25  H4  UNL     1     -16.433  -9.607   3.808  1.00  0.00     0.167 HD
BRANCH  24  26
HETATM   26  C11 UNL     1     -14.542 -10.421   4.536  1.00  0.00     0.371 C 
BRANCH  26  27
HETATM   27  O6  UNL     1     -14.501 -11.397   3.529  1.00  0.00    -0.354 OA
ATOM     28  H6  UNL     1     -15.134 -12.056   3.785  1.00  0.00     0.214 HD
ENDBRANCH  26  27
BRANCH  26  29
HETATM   29  O7  UNL     1     -13.657  -9.421   4.365  1.00  0.00    -0.334 OA
BRANCH  29  30
HETATM   30  C12 UNL     1     -12.704  -9.181   5.303  1.00  0.00     0.055 C 
HETATM   31  C13 UNL     1     -13.236  -8.085   6.219  1.00  0.00     0.045 C 
HETATM   32  C14 UNL     1     -11.406  -8.654   4.726  1.00  0.00     0.045 C 
HETATM   33  C15 UNL     1     -12.359 -10.349   6.176  1.00  0.00     0.045 C 
ENDBRANCH  29  30
ENDBRANCH  26  29
ENDBRANCH  24  26
ENDBRANCH   1  22
TORSDOF 12
ENDMDL
MODEL 3
REMARK VINA RESULT: -7.156937578      3.336      5.206
REMARK  12 active torsions:
REMARK  status: ('A' for Active; 'I' for Inactive)
REMARK    1  A    between atoms: C2_2  and  O1_3 
REMARK    2  A    between atoms: C2_2  and  C3_5 
REMARK    3  A    between atoms: C3_5  and  N1_6 
REMARK    4  A    between atoms: C3_5  and  C10_22 
REMARK    5  A    between atoms: N1_6  and  N2_8 
REMARK    6  A    between atoms: N2_8  and  C4_10 
REMARK    7  A    between atoms: C7_14  and  O2_15 
REMARK    8  A    between atoms: C8_17  and  N3_18 
REMARK       I    between atoms: C10_22  and  N4_24 
REMARK    9  A    between atoms: N4_24  and  C11_26 
REMARK   10  A    between atoms: C11_26  and  O6_27 
REMARK   11  A    between atoms: C11_26  and  O7_29 
REMARK   12  A    between atoms: O7_29  and  C12_30 
ROOT
HETATM    1  C3  UNL     1     -18.182  -9.882   6.197  1.00  0.00     0.144 C 
ENDROOT
BRANCH   1   2
HETATM    2  C2  UNL     1     -19.436 -10.543   5.960  1.00  0.00     0.073 C 
HETATM    3  C1  UNL     1     -19.680 -11.936   5.578  1.00  0.00     0.078 C 
BRANCH   2   4
HETATM    4  O1  UNL     1     -20.493  -9.798   6.108  1.00  0.00    -0.363 OA
ATOM      5  H1  UNL     1     -20.990  -9.619   5.318  1.00  0.00     0.217 HD
ENDBRANCH   2   4
ENDBRANCH   1   2
BRANCH   1   6
HETATM    6  N1  UNL     1     -18.140  -9.144   7.270  1.00  0.00    -0.293 N 
ATOM      7  H1  UNL     1     -17.868  -8.170   7.141  1.00  0.00     0.187 HD
BRANCH   6   8
HETATM    8  N2  UNL     1     -18.422  -9.534   8.553  1.00  0.00    -0.300 N 
ATOM      9  H2  UNL     1     -19.102 -10.284   8.680  1.00  0.00     0.187 HD
BRANCH   8  10
HETATM   10  C4  UNL     1     -17.835  -8.969   9.722  1.00  0.00     0.051 A 
HETATM   11  C5  UNL     1     -18.468  -9.080  10.942  1.00  0.00     0.053 A 
HETATM   12  C6  UNL     1     -17.926  -8.535  12.099  1.00  0.00     0.048 A 
HETATM   13 BR1  UNL     1     -18.847  -8.724  13.736  1.00  0.00    -0.048 Br
HETATM   14  C7  UNL     1     -16.724  -7.865  12.016  1.00  0.00     0.116 A 
HETATM   15  C8  UNL     1     -16.075  -7.741  10.817  1.00  0.00     0.139 A 
HETATM   16  C9  UNL     1     -16.634  -8.292   9.681  1.00  0.00     0.070 A 
BRANCH  14  17
HETATM   17  O2  UNL     1     -16.215  -7.332  13.201  1.00  0.00    -0.357 OA
ATOM     18  H2  UNL     1     -15.585  -7.860  13.675  1.00  0.00     0.217 HD
ENDBRANCH  14  17
BRANCH  15  19
HETATM   19  N3  UNL     1     -14.822  -7.033  10.771  1.00  0.00    -0.113 N 
HETATM   20  O3  UNL     1     -13.804  -7.563  11.258  1.00  0.00    -0.532 OA
HETATM   21  O4  UNL     1     -14.773  -5.781  10.187  1.00  0.00    -0.532 OA
ENDBRANCH  15  19
ENDBRANCH   8  10
ENDBRANCH   6   8
ENDBRANCH   1   6
BRANCH   1  22
HETATM   22  C10 UNL     1     -17.013  -9.962   5.374  1.00  0.00     0.275 C 
HETATM   23  O5  UNL     1     -17.223 -10.052   4.104  1.00  0.00    -0.266 OA
HETATM   24  N4  UNL     1     -15.655  -9.958   5.728  1.00  0.00    -0.307 N 
ATOM     25  H4  UNL     1     -15.367  -9.890   6.705  1.00  0.00     0.167 HD
BRANCH  24  26
HETATM   26  C11 UNL     1     -14.653 -10.054   4.648  1.00  0.00     0.371 C 
BRANCH  26  27
HETATM   27  O6  UNL     1     -14.797  -8.881   3.891  1.00  0.00    -0.354 OA
ATOM     28  H6  UNL     1     -13.972  -8.418   3.976  1.00  0.00     0.214 HD
ENDBRANCH  26  27
BRANCH  26  29
HETATM   29  O7  UNL     1     -13.395 -10.285   5.064  1.00  0.00    -0.334 OA
BRANCH  29  30
HETATM   30  C12 UNL     1     -12.578 -11.106   4.354  1.00  0.00     0.055 C 
HETATM   31  C13 UNL     1     -11.486 -10.238   3.740  1.00  0.00     0.045 C 
HETATM   32  C14 UNL     1     -13.270 -11.793   3.194  1.00  0.00     0.045 C 
HETATM   33  C15 UNL     1     -11.890 -12.171   5.153  1.00  0.00     0.045 C 
ENDBRANCH  29  30
ENDBRANCH  26  29
ENDBRANCH  24  26
ENDBRANCH   1  22
TORSDOF 12
ENDMDL
MODEL 4
REMARK VINA RESULT: -7.146056782      5.222      6.851
REMARK  12 active torsions:
REMARK  status: ('A' for Active; 'I' for Inactive)
REMARK    1  A    between atoms: C2_2  and  O1_3 
REMARK    2  A    between atoms: C2_2  and  C3_5 
REMARK    3  A    between atoms: C3_5  and  N1_6 
REMARK    4  A    between atoms: C3_5  and  C10_22 
REMARK    5  A    between atoms: N1_6  and  N2_8 
REMARK    6  A    between atoms: N2_8  and  C4_10 
REMARK    7  A    between atoms: C7_14  and  O2_15 
REMARK    8  A    between atoms: C8_17  and  N3_18 
REMARK       I    between atoms: C10_22  and  N4_24 
REMARK    9  A    between atoms: N4_24  and  C11_26 
REMARK   10  A    between atoms: C11_26  and  O6_27 
REMARK   11  A    between atoms: C11_26  and  O7_29 
REMARK   12  A    between atoms: O7_29  and  C12_30 
ROOT
HETATM    1  C3  UNL     1     -17.407  -9.668   5.831  1.00  0.00     0.144 C 
ENDROOT
BRANCH   1   2
HETATM    2  C2  UNL     1     -16.216  -9.101   5.259  1.00  0.00     0.073 C 
HETATM    3  C1  UNL     1     -14.831  -9.225   5.718  1.00  0.00     0.078 C 
BRANCH   2   4
HETATM    4  O1  UNL     1     -16.402  -8.383   4.190  1.00  0.00    -0.363 OA
ATOM      5  H1  UNL     1     -16.801  -8.829   3.452  1.00  0.00     0.217 HD
ENDBRANCH   2   4
ENDBRANCH   1   2
BRANCH   1   6
HETATM    6  N1  UNL     1     -17.314  -9.992   7.090  1.00  0.00    -0.293 N 
ATOM      7  H1  UNL     1     -16.570 -10.643   7.338  1.00  0.00     0.187 HD
BRANCH   6   8
HETATM    8  N2  UNL     1     -18.107  -9.553   8.118  1.00  0.00    -0.300 N 
ATOM      9  H2  UNL     1     -19.118  -9.619   7.996  1.00  0.00     0.187 HD
BRANCH   8  10
HETATM   10  C4  UNL     1     -17.625  -9.013   9.345  1.00  0.00     0.051 A 
HETATM   11  C5  UNL     1     -18.391  -9.087  10.488  1.00  0.00     0.053 A 
HETATM   12  C6  UNL     1     -17.954  -8.563  11.697  1.00  0.00     0.048 A 
HETATM   13 BR1  UNL     1     -19.056  -8.699  13.224  1.00  0.00    -0.048 Br
HETATM   14  C7  UNL     1     -16.718  -7.954  11.747  1.00  0.00     0.116 A 
HETATM   15  C8  UNL     1     -15.936  -7.867  10.626  1.00  0.00     0.139 A 
HETATM   16  C9  UNL     1     -16.395  -8.396   9.435  1.00  0.00     0.070 A 
BRANCH  14  17
HETATM   17  O2  UNL     1     -16.315  -7.440  12.980  1.00  0.00    -0.357 OA
ATOM     18  H2  UNL     1     -15.579  -6.841  12.978  1.00  0.00     0.217 HD
ENDBRANCH  14  17
BRANCH  15  19
HETATM   19  N3  UNL     1     -14.652  -7.222  10.718  1.00  0.00    -0.113 N 
HETATM   20  O3  UNL     1     -13.719  -7.803  11.305  1.00  0.00    -0.532 OA
HETATM   21  O4  UNL     1     -14.481  -5.973  10.153  1.00  0.00    -0.532 OA
ENDBRANCH  15  19
ENDBRANCH   8  10
ENDBRANCH   6   8
ENDBRANCH   1   6
BRANCH   1  22
HETATM   22  C10 UNL     1     -18.645  -9.903   5.152  1.00  0.00     0.275 C 
HETATM   23  O5  UNL     1     -19.622 -10.315   5.887  1.00  0.00    -0.266 OA
HETATM   24  N4  UNL     1     -18.975  -9.755   3.795  1.00  0.00    -0.307 N 
ATOM     25  H4  UNL     1     -18.282  -9.434   3.119  1.00  0.00     0.167 HD
BRANCH  24  26
HETATM   26  C11 UNL     1     -20.353 -10.076   3.376  1.00  0.00     0.371 C 
BRANCH  26  27
HETATM   27  O6  UNL     1     -21.027  -8.847   3.310  1.00  0.00    -0.354 OA
ATOM     28  H6  UNL     1     -21.245  -8.626   4.208  1.00  0.00     0.214 HD
ENDBRANCH  26  27
BRANCH  26  29
HETATM   29  O7  UNL     1     -20.444 -10.810   2.251  1.00  0.00    -0.334 OA
BRANCH  29  30
HETATM   30  C12 UNL     1     -21.011 -12.044   2.282  1.00  0.00     0.055 C 
HETATM   31  C13 UNL     1     -20.068 -12.995   1.554  1.00  0.00     0.045 C 
HETATM   32  C14 UNL     1     -22.335 -12.121   1.549  1.00  0.00     0.045 C 
HETATM   33  C15 UNL     1     -21.230 -12.612   3.651  1.00  0.00     0.045 C 
ENDBRANCH  29  30
ENDBRANCH  26  29
ENDBRANCH  24  26
ENDBRANCH   1  22
TORSDOF 12
ENDMDL
MODEL 5
REMARK VINA RESULT: -7.076279763      2.051      3.295
REMARK  12 active torsions:
REMARK  status: ('A' for Active; 'I' for Inactive)
REMARK    1  A    between atoms: C2_2  and  O1_3 
REMARK    2  A    between atoms: C2_2  and  C3_5 
REMARK    3  A    between atoms: C3_5  and  N1_6 
REMARK    4  A    between atoms: C3_5  and  C10_22 
REMARK    5  A    between atoms: N1_6  and  N2_8 
REMARK    6  A    between atoms: N2_8  and  C4_10 
REMARK    7  A    between atoms: C7_14  and  O2_15 
REMARK    8  A    between atoms: C8_17  and  N3_18 
REMARK       I    between atoms: C10_22  and  N4_24 
REMARK    9  A    between atoms: N4_24  and  C11_26 
REMARK   10  A    between atoms: C11_26  and  O6_27 
REMARK   11  A    between atoms: C11_26  and  O7_29 
REMARK   12  A    between atoms: O7_29  and  C12_30 
ROOT
HETATM    1  C3  UNL     1     -14.215  -7.026   9.630  1.00  0.00     0.144 C 
ENDROOT
BRANCH   1   2
HETATM    2  C2  UNL     1     -14.821  -6.197   8.624  1.00  0.00     0.073 C 
HETATM    3  C1  UNL     1     -14.933  -6.437   7.183  1.00  0.00     0.078 C 
BRANCH   2   4
HETATM    4  O1  UNL     1     -15.338  -5.085   9.059  1.00  0.00    -0.363 OA
ATOM      5  H1  UNL     1     -15.664  -4.488   8.395  1.00  0.00     0.217 HD
ENDBRANCH   2   4
ENDBRANCH   1   2
BRANCH   1   6
HETATM    6  N1  UNL     1     -14.577  -6.763  10.854  1.00  0.00    -0.293 N 
ATOM      7  H1  UNL     1     -14.353  -5.831  11.203  1.00  0.00     0.187 HD
BRANCH   6   8
HETATM    8  N2  UNL     1     -15.225  -7.599  11.724  1.00  0.00    -0.300 N 
ATOM      9  H2  UNL     1     -14.735  -7.863  12.579  1.00  0.00     0.187 HD
BRANCH   8  10
HETATM   10  C4  UNL     1     -16.533  -8.127  11.523  1.00  0.00     0.051 A 
HETATM   11  C5  UNL     1     -16.863  -8.735  10.331  1.00  0.00     0.053 A 
HETATM   12  C6  UNL     1     -18.131  -9.253  10.101  1.00  0.00     0.048 A 
HETATM   13 BR1  UNL     1     -18.515 -10.073   8.444  1.00  0.00    -0.048 Br
HETATM   14  C7  UNL     1     -19.079  -9.152  11.097  1.00  0.00     0.116 A 
HETATM   15  C8  UNL     1     -18.777  -8.552  12.290  1.00  0.00     0.139 A 
HETATM   16  C9  UNL     1     -17.508  -8.045  12.494  1.00  0.00     0.070 A 
BRANCH  14  17
HETATM   17  O2  UNL     1     -20.340  -9.683  10.826  1.00  0.00    -0.357 OA
ATOM     18  H2  UNL     1     -21.014  -9.074  10.549  1.00  0.00     0.217 HD
ENDBRANCH  14  17
BRANCH  15  19
HETATM   19  N3  UNL     1     -19.795  -8.463  13.305  1.00  0.00    -0.113 N 
HETATM   20  O3  UNL     1     -20.479  -9.471  13.572  1.00  0.00    -0.532 OA
HETATM   21  O4  UNL     1     -19.991  -7.264  13.963  1.00  0.00    -0.532 OA
ENDBRANCH  15  19
ENDBRANCH   8  10
ENDBRANCH   6   8
ENDBRANCH   1   6
BRANCH   1  22
HETATM   22  C10 UNL     1     -13.275  -8.081   9.405  1.00  0.00     0.275 C 
HETATM   23  O5  UNL     1     -13.441  -9.146  10.115  1.00  0.00    -0.266 OA
HETATM   24  N4  UNL     1     -12.184  -8.149   8.523  1.00  0.00    -0.307 N 
ATOM     25  H4  UNL     1     -11.956  -7.365   7.911  1.00  0.00     0.167 HD
BRANCH  24  26
HETATM   26  C11 UNL     1     -11.377  -9.385   8.508  1.00  0.00     0.371 C 
BRANCH  26  27
HETATM   27  O6  UNL     1     -11.964 -10.209   7.535  1.00  0.00    -0.354 OA
ATOM     28  H6  UNL     1     -11.768 -11.100   7.802  1.00  0.00     0.214 HD
ENDBRANCH  26  27
BRANCH  26  29
HETATM   29  O7  UNL     1     -10.056  -9.194   8.338  1.00  0.00    -0.334 OA
BRANCH  29  30
HETATM   30  C12 UNL     1      -9.243  -9.040   9.415  1.00  0.00     0.055 C 
HETATM   31  C13 UNL     1      -8.745  -7.599   9.405  1.00  0.00     0.045 C 
HETATM   32  C14 UNL     1      -8.004  -9.912   9.370  1.00  0.00     0.045 C 
HETATM   33  C15 UNL     1      -9.894  -9.266  10.745  1.00  0.00     0.045 C 
ENDBRANCH  29  30
ENDBRANCH  26  29
ENDBRANCH  24  26
ENDBRANCH   1  22
TORSDOF 12
ENDMDL
