MODEL 1
REMARK VINA RESULT: -8.002768210      0.000      0.000
REMARK  8 active torsions:
REMARK  status: ('A' for Active; 'I' for Inactive)
REMARK       I    between atoms: N2_3  and  C2_5 
REMARK       I    between atoms: C2_5  and  N3_7 
REMARK       I    between atoms: N3_7  and  C3_9 
REMARK    1  A    between atoms: C3_9  and  C4_11 
REMARK    2  A    between atoms: C4_11  and  C5_12 
REMARK    3  A    between atoms: C5_12  and  O3_13 
REMARK    4  A    between atoms: C7_17  and  N4_18 
REMARK    5  A    between atoms: C9_22  and  C10_23 
REMARK    6  A    between atoms: C16_29  and  N6_30 
REMARK    7  A    between atoms: N6_30  and  C17_32 
REMARK    8  A    between atoms: C17_32  and  C18_33 
ROOT
HETATM    1  N1  UNL     1     -20.558  -8.968  13.578  1.00  0.00    -0.172 NA
HETATM    2  C1  UNL     1     -19.549  -8.733  13.078  1.00  0.00     0.185 C 
HETATM    3  N2  UNL     1     -18.309  -8.423  12.450  1.00  0.00    -0.245 N 
ATOM      4  H2  UNL     1     -17.558  -8.031  13.018  1.00  0.00     0.183 HD
HETATM    5  C2  UNL     1     -18.083  -8.634  11.089  1.00  0.00     0.335 C 
HETATM    6  O1  UNL     1     -19.091  -9.121  10.450  1.00  0.00    -0.246 OA
HETATM    7  N3  UNL     1     -16.934  -8.392  10.361  1.00  0.00    -0.277 N 
ATOM      8  H3  UNL     1     -16.999  -8.592   9.363  1.00  0.00     0.173 HD
HETATM    9  C3  UNL     1     -15.666  -7.900  10.805  1.00  0.00     0.247 C 
HETATM   10  O2  UNL     1     -15.455  -7.571  11.971  1.00  0.00    -0.271 OA
ENDROOT
BRANCH   9  11
HETATM   11  C4  UNL     1     -14.581  -7.818   9.749  1.00  0.00     0.121 C 
HETATM   12  C6  UNL     1     -13.242  -8.140  10.329  1.00  0.00     0.109 C 
HETATM   13  S1  UNL     1     -12.175  -8.727   8.953  1.00  0.00    -0.131 SA
HETATM   14  C7  UNL     1     -13.321  -8.961   7.581  1.00  0.00     0.217 C 
HETATM   15  S2  UNL     1     -14.869  -9.055   8.470  1.00  0.00    -0.110 SA
BRANCH  11  16
HETATM   16  C5  UNL     1     -14.584  -6.401   9.185  1.00  0.00     0.195 C 
BRANCH  16  17
HETATM   17  O3  UNL     1     -15.342  -5.550   9.912  1.00  0.00    -0.399 OA
ATOM     18  H3  UNL     1     -14.860  -4.785  10.205  1.00  0.00     0.209 HD
ENDBRANCH  16  17
ENDBRANCH  11  16
BRANCH  14  19
HETATM   19  N4  UNL     1     -13.033 -10.087   6.707  1.00  0.00    -0.305 N 
HETATM   20  C8  UNL     1     -12.046 -10.965   7.020  1.00  0.00     0.187 A 
HETATM   21  N5  UNL     1     -11.933 -11.820   6.002  1.00  0.00    -0.349 N 
HETATM   22  C9  UNL     1     -12.832 -11.531   5.010  1.00  0.00     0.080 A 
ATOM     23  H5  UNL     1     -11.263 -12.589   5.967  1.00  0.00     0.167 HD
HETATM   24  C16 UNL     1     -13.503 -10.414   5.513  1.00  0.00     0.133 A 
BRANCH  22  25
HETATM   25  C10 UNL     1     -13.177 -12.414   3.869  1.00  0.00    -0.049 C 
HETATM   26  C11 UNL     1     -12.953 -13.864   4.041  1.00  0.00     0.036 C 
HETATM   27  C12 UNL     1     -13.893 -14.733   3.281  1.00  0.00     0.004 C 
HETATM   28  C13 UNL     1     -14.539 -13.973   2.167  1.00  0.00     0.001 C 
HETATM   29  C14 UNL     1     -13.681 -12.936   1.537  1.00  0.00     0.004 C 
HETATM   30  C15 UNL     1     -13.191 -11.868   2.525  1.00  0.00     0.036 C 
ENDBRANCH  22  25
BRANCH  24  31
HETATM   31  N6  UNL     1     -14.526  -9.701   4.827  1.00  0.00    -0.372 N 
ATOM     32  H6  UNL     1     -14.307  -8.890   4.247  1.00  0.00     0.161 HD
BRANCH  31  33
HETATM   33  C17 UNL     1     -15.893 -10.168   4.979  1.00  0.00     0.152 C 
BRANCH  33  34
HETATM   34  C18 UNL     1     -16.929  -9.185   4.576  1.00  0.00     0.241 C 
HETATM   35  F1  UNL     1     -16.295  -8.067   4.029  1.00  0.00    -0.254 F 
ENDBRANCH  33  34
ENDBRANCH  31  33
ENDBRANCH  24  31
ENDBRANCH  14  19
ENDBRANCH   9  11
TORSDOF 8
ENDMDL
MODEL 2
REMARK VINA RESULT: -7.783816505      1.241      1.303
REMARK  8 active torsions:
REMARK  status: ('A' for Active; 'I' for Inactive)
REMARK       I    between atoms: N2_3  and  C2_5 
REMARK       I    between atoms: C2_5  and  N3_7 
REMARK       I    between atoms: N3_7  and  C3_9 
REMARK    1  A    between atoms: C3_9  and  C4_11 
REMARK    2  A    between atoms: C4_11  and  C5_12 
REMARK    3  A    between atoms: C5_12  and  O3_13 
REMARK    4  A    between atoms: C7_17  and  N4_18 
REMARK    5  A    between atoms: C9_22  and  C10_23 
REMARK    6  A    between atoms: C16_29  and  N6_30 
REMARK    7  A    between atoms: N6_30  and  C17_32 
REMARK    8  A    between atoms: C17_32  and  C18_33 
ROOT
HETATM    1  N1  UNL     1     -19.375  -8.750  14.774  1.00  0.00    -0.172 NA
HETATM    2  C1  UNL     1     -18.533  -8.512  14.026  1.00  0.00     0.185 C 
HETATM    3  N2  UNL     1     -17.503  -8.199  13.095  1.00  0.00    -0.245 N 
ATOM      4  H2  UNL     1     -16.642  -7.775  13.440  1.00  0.00     0.183 HD
HETATM    5  C2  UNL     1     -17.625  -8.450  11.727  1.00  0.00     0.335 C 
HETATM    6  O1  UNL     1     -18.750  -8.978  11.380  1.00  0.00    -0.246 OA
HETATM    7  N3  UNL     1     -16.706  -8.210  10.724  1.00  0.00    -0.277 N 
ATOM      8  H3  UNL     1     -17.019  -8.444   9.781  1.00  0.00     0.173 HD
HETATM    9  C3  UNL     1     -15.381  -7.680  10.815  1.00  0.00     0.247 C 
HETATM   10  O2  UNL     1     -14.888  -7.308  11.880  1.00  0.00    -0.271 OA
ENDROOT
BRANCH   9  11
HETATM   11  C4  UNL     1     -14.604  -7.612   9.515  1.00  0.00     0.121 C 
HETATM   12  C6  UNL     1     -13.145  -7.842   9.749  1.00  0.00     0.109 C 
HETATM   13  S1  UNL     1     -12.429  -8.460   8.174  1.00  0.00    -0.131 SA
HETATM   14  C7  UNL     1     -13.869  -8.821   7.150  1.00  0.00     0.217 C 
HETATM   15  S2  UNL     1     -15.135  -8.930   8.407  1.00  0.00    -0.110 SA
BRANCH  11  16
HETATM   16  C5  UNL     1     -14.828  -6.230   8.909  1.00  0.00     0.195 C 
BRANCH  16  17
HETATM   17  O3  UNL     1     -15.184  -5.306   9.829  1.00  0.00    -0.399 OA
ATOM     18  H3  UNL     1     -15.541  -4.516   9.439  1.00  0.00     0.209 HD
ENDBRANCH  16  17
ENDBRANCH  11  16
BRANCH  14  19
HETATM   19  N4  UNL     1     -13.747  -9.981   6.283  1.00  0.00    -0.305 N 
HETATM   20  C8  UNL     1     -12.687 -10.820   6.402  1.00  0.00     0.187 A 
HETATM   21  N5  UNL     1     -12.778 -11.721   5.421  1.00  0.00    -0.349 N 
HETATM   22  C9  UNL     1     -13.886 -11.502   4.648  1.00  0.00     0.080 A 
ATOM     23  H5  UNL     1     -12.108 -12.476   5.268  1.00  0.00     0.167 HD
HETATM   24  C16 UNL     1     -14.464 -10.377   5.241  1.00  0.00     0.133 A 
BRANCH  22  25
HETATM   25  C10 UNL     1     -14.449 -12.447   3.652  1.00  0.00    -0.049 C 
HETATM   26  C11 UNL     1     -15.352 -13.502   4.154  1.00  0.00     0.036 C 
HETATM   27  C12 UNL     1     -16.401 -13.933   3.189  1.00  0.00     0.004 C 
HETATM   28  C13 UNL     1     -16.027 -13.556   1.792  1.00  0.00     0.001 C 
HETATM   29  C14 UNL     1     -14.570 -13.597   1.500  1.00  0.00     0.004 C 
HETATM   30  C15 UNL     1     -13.743 -12.673   2.405  1.00  0.00     0.036 C 
ENDBRANCH  22  25
BRANCH  24  31
HETATM   31  N6  UNL     1     -15.637  -9.722   4.774  1.00  0.00    -0.372 N 
ATOM     32  H6  UNL     1     -15.581  -8.940   4.120  1.00  0.00     0.161 HD
BRANCH  31  33
HETATM   33  C17 UNL     1     -16.918 -10.203   5.261  1.00  0.00     0.152 C 
BRANCH  33  34
HETATM   34  C18 UNL     1     -18.049 -10.007   4.320  1.00  0.00     0.241 C 
HETATM   35  F1  UNL     1     -18.000 -11.009   3.348  1.00  0.00    -0.254 F 
ENDBRANCH  33  34
ENDBRANCH  31  33
ENDBRANCH  24  31
ENDBRANCH  14  19
ENDBRANCH   9  11
TORSDOF 8
ENDMDL
MODEL 3
REMARK VINA RESULT: -7.539780924      2.032      2.765
REMARK  8 active torsions:
REMARK  status: ('A' for Active; 'I' for Inactive)
REMARK       I    between atoms: N2_3  and  C2_5 
REMARK       I    between atoms: C2_5  and  N3_7 
REMARK       I    between atoms: N3_7  and  C3_9 
REMARK    1  A    between atoms: C3_9  and  C4_11 
REMARK    2  A    between atoms: C4_11  and  C5_12 
REMARK    3  A    between atoms: C5_12  and  O3_13 
REMARK    4  A    between atoms: C7_17  and  N4_18 
REMARK    5  A    between atoms: C9_22  and  C10_23 
REMARK    6  A    between atoms: C16_29  and  N6_30 
REMARK    7  A    between atoms: N6_30  and  C17_32 
REMARK    8  A    between atoms: C17_32  and  C18_33 
ROOT
HETATM    1  N1  UNL     1     -20.840  -9.442  13.161  1.00  0.00    -0.172 NA
HETATM    2  C1  UNL     1     -19.882  -9.060  12.651  1.00  0.00     0.185 C 
HETATM    3  N2  UNL     1     -18.709  -8.572  12.008  1.00  0.00    -0.245 N 
ATOM      4  H2  UNL     1     -18.064  -7.990  12.542  1.00  0.00     0.183 HD
HETATM    5  C2  UNL     1     -18.408  -8.858  10.675  1.00  0.00     0.335 C 
HETATM    6  O1  UNL     1     -19.284  -9.590  10.075  1.00  0.00    -0.246 OA
HETATM    7  N3  UNL     1     -17.309  -8.462   9.938  1.00  0.00    -0.277 N 
ATOM      8  H3  UNL     1     -17.306  -8.761   8.963  1.00  0.00     0.173 HD
HETATM    9  C3  UNL     1     -16.173  -7.693  10.345  1.00  0.00     0.247 C 
HETATM   10  O2  UNL     1     -16.063  -7.223  11.477  1.00  0.00    -0.271 OA
ENDROOT
BRANCH   9  11
HETATM   11  C4  UNL     1     -15.096  -7.496   9.297  1.00  0.00     0.121 C 
HETATM   12  C6  UNL     1     -13.740  -7.773   9.861  1.00  0.00     0.109 C 
HETATM   13  S1  UNL     1     -12.644  -8.228   8.459  1.00  0.00    -0.131 SA
HETATM   14  C7  UNL     1     -13.777  -8.454   7.074  1.00  0.00     0.217 C 
HETATM   15  S2  UNL     1     -15.316  -8.679   7.955  1.00  0.00    -0.110 SA
BRANCH  11  16
HETATM   16  C5  UNL     1     -15.178  -6.054   8.807  1.00  0.00     0.195 C 
BRANCH  16  17
HETATM   17  O3  UNL     1     -15.149  -5.156   9.817  1.00  0.00    -0.399 OA
ATOM     18  H3  UNL     1     -15.197  -4.257   9.513  1.00  0.00     0.209 HD
ENDBRANCH  16  17
ENDBRANCH  11  16
BRANCH  14  19
HETATM   19  N4  UNL     1     -13.428  -9.515   6.144  1.00  0.00    -0.305 N 
HETATM   20  C8  UNL     1     -13.200  -9.234   4.836  1.00  0.00     0.187 A 
HETATM   21  N5  UNL     1     -13.010 -10.395   4.204  1.00  0.00    -0.349 N 
HETATM   22  C9  UNL     1     -13.105 -11.451   5.070  1.00  0.00     0.080 A 
ATOM     23  H5  UNL     1     -12.820 -10.483   3.206  1.00  0.00     0.167 HD
HETATM   24  C16 UNL     1     -13.377 -10.830   6.292  1.00  0.00     0.133 A 
BRANCH  22  25
HETATM   25  C10 UNL     1     -12.689 -12.846   4.784  1.00  0.00    -0.049 C 
HETATM   26  C11 UNL     1     -11.265 -13.079   4.473  1.00  0.00     0.036 C 
HETATM   27  C12 UNL     1     -10.748 -14.414   4.885  1.00  0.00     0.004 C 
HETATM   28  C13 UNL     1     -11.871 -15.380   5.087  1.00  0.00     0.001 C 
HETATM   29  C14 UNL     1     -13.034 -15.188   4.182  1.00  0.00     0.004 C 
HETATM   30  C15 UNL     1     -13.671 -13.796   4.297  1.00  0.00     0.036 C 
ENDBRANCH  22  25
BRANCH  24  31
HETATM   31  N6  UNL     1     -13.604 -11.513   7.520  1.00  0.00    -0.372 N 
ATOM     32  H6  UNL     1     -14.550 -11.704   7.850  1.00  0.00     0.161 HD
BRANCH  31  33
HETATM   33  C17 UNL     1     -12.442 -11.926   8.287  1.00  0.00     0.152 C 
BRANCH  33  34
HETATM   34  C18 UNL     1     -12.342 -13.389   8.515  1.00  0.00     0.241 C 
HETATM   35  F1  UNL     1     -13.378 -14.021   7.823  1.00  0.00    -0.254 F 
ENDBRANCH  33  34
ENDBRANCH  31  33
ENDBRANCH  24  31
ENDBRANCH  14  19
ENDBRANCH   9  11
TORSDOF 8
ENDMDL
MODEL 4
REMARK VINA RESULT: -7.429067827      2.668      3.495
REMARK  8 active torsions:
REMARK  status: ('A' for Active; 'I' for Inactive)
REMARK       I    between atoms: N2_3  and  C2_5 
REMARK       I    between atoms: C2_5  and  N3_7 
REMARK       I    between atoms: N3_7  and  C3_9 
REMARK    1  A    between atoms: C3_9  and  C4_11 
REMARK    2  A    between atoms: C4_11  and  C5_12 
REMARK    3  A    between atoms: C5_12  and  O3_13 
REMARK    4  A    between atoms: C7_17  and  N4_18 
REMARK    5  A    between atoms: C9_22  and  C10_23 
REMARK    6  A    between atoms: C16_29  and  N6_30 
REMARK    7  A    between atoms: N6_30  and  C17_32 
REMARK    8  A    between atoms: C17_32  and  C18_33 
ROOT
HETATM    1  N1  UNL     1     -19.059  -8.695  15.434  1.00  0.00    -0.172 NA
HETATM    2  C1  UNL     1     -18.372  -8.502  14.532  1.00  0.00     0.185 C 
HETATM    3  N2  UNL     1     -17.533  -8.244  13.411  1.00  0.00    -0.245 N 
ATOM      4  H2  UNL     1     -16.595  -7.880  13.576  1.00  0.00     0.183 HD
HETATM    5  C2  UNL     1     -17.945  -8.469  12.097  1.00  0.00     0.335 C 
HETATM    6  O1  UNL     1     -19.148  -8.919  11.984  1.00  0.00    -0.246 OA
HETATM    7  N3  UNL     1     -17.234  -8.275  10.928  1.00  0.00    -0.277 N 
ATOM      8  H3  UNL     1     -17.745  -8.477  10.068  1.00  0.00     0.173 HD
HETATM    9  C3  UNL     1     -15.886  -7.832  10.749  1.00  0.00     0.247 C 
HETATM   10  O2  UNL     1     -15.166  -7.506  11.692  1.00  0.00    -0.271 OA
ENDROOT
BRANCH   9  11
HETATM   11  C4  UNL     1     -15.384  -7.797   9.319  1.00  0.00     0.121 C 
HETATM   12  C6  UNL     1     -14.044  -8.449   9.204  1.00  0.00     0.109 C 
HETATM   13  S1  UNL     1     -13.856  -9.011   7.465  1.00  0.00    -0.131 SA
HETATM   14  C7  UNL     1     -15.504  -8.815   6.761  1.00  0.00     0.217 C 
HETATM   15  S2  UNL     1     -16.483  -8.750   8.255  1.00  0.00    -0.110 SA
BRANCH  11  16
HETATM   16  C5  UNL     1     -15.297  -6.336   8.890  1.00  0.00     0.195 C 
BRANCH  16  17
HETATM   17  O3  UNL     1     -15.301  -5.481   9.938  1.00  0.00    -0.399 OA
ATOM     18  H3  UNL     1     -15.239  -4.572   9.671  1.00  0.00     0.209 HD
ENDBRANCH  16  17
ENDBRANCH  11  16
BRANCH  14  19
HETATM   19  N4  UNL     1     -15.901  -9.830   5.798  1.00  0.00    -0.305 N 
HETATM   20  C8  UNL     1     -14.963 -10.581   5.166  1.00  0.00     0.187 A 
HETATM   21  N5  UNL     1     -15.596 -11.343   4.272  1.00  0.00    -0.349 N 
HETATM   22  C9  UNL     1     -16.947 -11.118   4.297  1.00  0.00     0.080 A 
ATOM     23  H5  UNL     1     -15.134 -12.007   3.651  1.00  0.00     0.167 HD
HETATM   24  C16 UNL     1     -17.082 -10.141   5.286  1.00  0.00     0.133 A 
BRANCH  22  25
HETATM   25  C10 UNL     1     -17.979 -11.964   3.648  1.00  0.00    -0.049 C 
HETATM   26  C11 UNL     1     -18.856 -11.318   2.651  1.00  0.00     0.036 C 
HETATM   27  C12 UNL     1     -19.333 -12.220   1.566  1.00  0.00     0.004 C 
HETATM   28  C13 UNL     1     -19.212 -13.653   1.973  1.00  0.00     0.001 C 
HETATM   29  C14 UNL     1     -19.431 -13.914   3.420  1.00  0.00     0.004 C 
HETATM   30  C15 UNL     1     -18.458 -13.151   4.330  1.00  0.00     0.036 C 
ENDBRANCH  22  25
BRANCH  24  31
HETATM   31  N6  UNL     1     -18.311  -9.534   5.669  1.00  0.00    -0.372 N 
ATOM     32  H6  UNL     1     -18.575  -8.611   5.321  1.00  0.00     0.161 HD
BRANCH  31  33
HETATM   33  C17 UNL     1     -19.176 -10.272   6.572  1.00  0.00     0.152 C 
BRANCH  33  34
HETATM   34  C18 UNL     1     -20.540 -10.529   6.048  1.00  0.00     0.241 C 
HETATM   35  F1  UNL     1     -20.712  -9.796   4.871  1.00  0.00    -0.254 F 
ENDBRANCH  33  34
ENDBRANCH  31  33
ENDBRANCH  24  31
ENDBRANCH  14  19
ENDBRANCH   9  11
TORSDOF 8
ENDMDL
MODEL 5
REMARK VINA RESULT: -7.366509661      2.832      3.586
REMARK  8 active torsions:
REMARK  status: ('A' for Active; 'I' for Inactive)
REMARK       I    between atoms: N2_3  and  C2_5 
REMARK       I    between atoms: C2_5  and  N3_7 
REMARK       I    between atoms: N3_7  and  C3_9 
REMARK    1  A    between atoms: C3_9  and  C4_11 
REMARK    2  A    between atoms: C4_11  and  C5_12 
REMARK    3  A    between atoms: C5_12  and  O3_13 
REMARK    4  A    between atoms: C7_17  and  N4_18 
REMARK    5  A    between atoms: C9_22  and  C10_23 
REMARK    6  A    between atoms: C16_29  and  N6_30 
REMARK    7  A    between atoms: N6_30  and  C17_32 
REMARK    8  A    between atoms: C17_32  and  C18_33 
ROOT
HETATM    1  N1  UNL     1     -19.086  -8.698  15.413  1.00  0.00    -0.172 NA
HETATM    2  C1  UNL     1     -18.403  -8.522  14.504  1.00  0.00     0.185 C 
HETATM    3  N2  UNL     1     -17.570  -8.285  13.374  1.00  0.00    -0.245 N 
ATOM      4  H2  UNL     1     -16.624  -7.937  13.528  1.00  0.00     0.183 HD
HETATM    5  C2  UNL     1     -17.997  -8.511  12.065  1.00  0.00     0.335 C 
HETATM    6  O1  UNL     1     -19.209  -8.940  11.965  1.00  0.00    -0.246 OA
HETATM    7  N3  UNL     1     -17.293  -8.335  10.889  1.00  0.00    -0.277 N 
ATOM      8  H3  UNL     1     -17.815  -8.533  10.034  1.00  0.00     0.173 HD
HETATM    9  C3  UNL     1     -15.939  -7.917  10.696  1.00  0.00     0.247 C 
HETATM   10  O2  UNL     1     -15.205  -7.599  11.630  1.00  0.00    -0.271 OA
ENDROOT
BRANCH   9  11
HETATM   11  C4  UNL     1     -15.449  -7.899   9.261  1.00  0.00     0.121 C 
HETATM   12  C6  UNL     1     -14.139  -8.605   9.132  1.00  0.00     0.109 C 
HETATM   13  S1  UNL     1     -13.990  -9.170   7.390  1.00  0.00    -0.131 SA
HETATM   14  C7  UNL     1     -15.635  -8.905   6.702  1.00  0.00     0.217 C 
HETATM   15  S2  UNL     1     -16.597  -8.802   8.205  1.00  0.00    -0.110 SA
BRANCH  11  16
HETATM   16  C5  UNL     1     -15.306  -6.442   8.835  1.00  0.00     0.195 C 
BRANCH  16  17
HETATM   17  O3  UNL     1     -15.307  -5.587   9.882  1.00  0.00    -0.399 OA
ATOM     18  H3  UNL     1     -16.164  -5.498  10.284  1.00  0.00     0.209 HD
ENDBRANCH  16  17
ENDBRANCH  11  16
BRANCH  14  19
HETATM   19  N4  UNL     1     -16.081  -9.899   5.740  1.00  0.00    -0.305 N 
HETATM   20  C8  UNL     1     -15.181 -10.677   5.088  1.00  0.00     0.187 A 
HETATM   21  N5  UNL     1     -15.855 -11.412   4.200  1.00  0.00    -0.349 N 
HETATM   22  C9  UNL     1     -17.196 -11.142   4.251  1.00  0.00     0.080 A 
ATOM     23  H5  UNL     1     -15.426 -12.087   3.567  1.00  0.00     0.167 HD
HETATM   24  C16 UNL     1     -17.282 -10.167   5.247  1.00  0.00     0.133 A 
BRANCH  22  25
HETATM   25  C10 UNL     1     -18.267 -11.949   3.615  1.00  0.00    -0.049 C 
HETATM   26  C11 UNL     1     -18.464 -13.325   4.111  1.00  0.00     0.036 C 
HETATM   27  C12 UNL     1     -19.865 -13.824   4.020  1.00  0.00     0.004 C 
HETATM   28  C13 UNL     1     -20.653 -13.022   3.036  1.00  0.00     0.001 C 
HETATM   29  C14 UNL     1     -19.878 -12.522   1.871  1.00  0.00     0.004 C 
HETATM   30  C15 UNL     1     -18.694 -11.628   2.266  1.00  0.00     0.036 C 
ENDBRANCH  22  25
BRANCH  24  31
HETATM   31  N6  UNL     1     -18.483  -9.522   5.655  1.00  0.00    -0.372 N 
ATOM     32  H6  UNL     1     -18.700  -8.571   5.354  1.00  0.00     0.161 HD
BRANCH  31  33
HETATM   33  C17 UNL     1     -19.388 -10.263   6.514  1.00  0.00     0.152 C 
BRANCH  33  34
HETATM   34  C18 UNL     1     -20.708 -10.564   5.906  1.00  0.00     0.241 C 
HETATM   35  F1  UNL     1     -20.835  -9.826   4.727  1.00  0.00    -0.254 F 
ENDBRANCH  33  34
ENDBRANCH  31  33
ENDBRANCH  24  31
ENDBRANCH  14  19
ENDBRANCH   9  11
TORSDOF 8
ENDMDL
