MODEL 1
REMARK VINA RESULT: -7.054629873      0.000      0.000
REMARK  12 active torsions:
REMARK  status: ('A' for Active; 'I' for Inactive)
REMARK    1  A    between atoms: C2_2  and  O1_3 
REMARK    2  A    between atoms: O1_3  and  C3_4 
REMARK    3  A    between atoms: C3_4  and  C4_6 
REMARK    4  A    between atoms: C5_7  and  N1_8 
REMARK    5  A    between atoms: N1_8  and  C6_10 
REMARK    6  A    between atoms: C6_10  and  N2_12 
REMARK    7  A    between atoms: N2_12  and  N3_14 
REMARK       I    between atoms: N3_14  and  C7_16 
REMARK    8  A    between atoms: C9_21  and  C10_22 
REMARK    9  A    between atoms: C10_22  and  C11_24 
REMARK   10  A    between atoms: N5_28  and  C13_29 
REMARK   11  A    between atoms: C13_29  and  O6_30 
REMARK   12  A    between atoms: O6_30  and  C14_31 
ROOT
HETATM    1  C4  UNL     1     -16.440  -9.021   6.713  1.00  0.00     0.103 A 
HETATM    2  C5  UNL     1     -17.313 -10.034   6.985  1.00  0.00     0.096 A 
HETATM    3  S2  UNL     1     -17.529  -9.913   8.705  1.00  0.00    -0.067 SA
HETATM    4  C8  UNL     1     -16.528  -8.588   8.998  1.00  0.00     0.068 A 
HETATM    5  C9  UNL     1     -16.053  -7.735  10.017  1.00  0.00     0.114 A 
HETATM    6  N4  UNL     1     -15.285  -6.902   9.395  1.00  0.00    -0.287 N 
ATOM      7  H4  UNL     1     -14.778  -6.143   9.849  1.00  0.00     0.188 HD
HETATM    8  N5  UNL     1     -15.237  -7.164   8.054  1.00  0.00    -0.242 N 
HETATM    9  C15 UNL     1     -16.016  -8.234   7.769  1.00  0.00     0.096 A 
ENDROOT
BRANCH   2  10
HETATM   10  N1  UNL     1     -18.170 -10.852   6.161  1.00  0.00    -0.325 N 
ATOM     11  H1  UNL     1     -17.911 -11.832   6.045  1.00  0.00     0.169 HD
BRANCH  10  12
HETATM   12  C6  UNL     1     -19.321 -10.415   5.510  1.00  0.00     0.191 C 
HETATM   13  S1  UNL     1     -20.850 -10.687   6.051  1.00  0.00    -0.039 SA
BRANCH  12  14
HETATM   14  N2  UNL     1     -19.229  -9.821   4.223  1.00  0.00    -0.271 N 
ATOM     15  H2  UNL     1     -19.710  -8.943   4.023  1.00  0.00     0.189 HD
BRANCH  14  16
HETATM   16  N3  UNL     1     -18.473 -10.452   3.238  1.00  0.00    -0.241 N 
HETATM   17  C7  UNL     1     -19.104 -11.130   2.169  1.00  0.00     0.303 C 
HETATM   18  O3  UNL     1     -20.358 -11.164   2.104  1.00  0.00    -0.628 OA
HETATM   19  O4  UNL     1     -18.376 -11.770   1.171  1.00  0.00    -0.628 OA
ATOM     20  H3  UNL     1     -17.455 -10.426   3.288  1.00  0.00     0.193 HD
ENDBRANCH  14  16
ENDBRANCH  12  14
ENDBRANCH  10  12
ENDBRANCH   2  10
BRANCH   1  21
HETATM   21  C3  UNL     1     -15.743  -9.030   5.382  1.00  0.00     0.298 C 
HETATM   22  O2  UNL     1     -16.265  -8.913   4.296  1.00  0.00    -0.259 OA
BRANCH  21  23
HETATM   23  O1  UNL     1     -14.338  -9.165   5.314  1.00  0.00    -0.318 OA
BRANCH  23  24
HETATM   24  C2  UNL     1     -13.656  -9.553   4.140  1.00  0.00     0.174 C 
HETATM   25  C1  UNL     1     -12.172  -9.585   4.255  1.00  0.00     0.034 C 
ENDBRANCH  23  24
ENDBRANCH  21  23
ENDBRANCH   1  21
BRANCH   8  26
HETATM   26  C13 UNL     1     -14.443  -6.304   7.249  1.00  0.00     0.254 C 
BRANCH  26  27
HETATM   27  O6  UNL     1     -14.463  -4.962   7.575  1.00  0.00    -0.315 OA
BRANCH  27  28
HETATM   28  C14 UNL     1     -15.243  -4.180   6.761  1.00  0.00     0.399 C 
HETATM   29  F1  UNL     1     -14.423  -3.196   6.213  1.00  0.00    -0.227 F 
ENDBRANCH  27  28
ENDBRANCH  26  27
ENDBRANCH   8  26
BRANCH   5  30
HETATM   30  C10 UNL     1     -16.444  -7.900  11.409  1.00  0.00     0.178 C 
HETATM   31  O5  UNL     1     -15.740  -7.472  12.359  1.00  0.00    -0.291 OA
BRANCH  30  32
HETATM   32  C11 UNL     1     -17.708  -8.592  11.759  1.00  0.00     0.081 C 
HETATM   33  C12 UNL     1     -18.131  -8.220  13.159  1.00  0.00     0.013 C 
ENDBRANCH  30  32
ENDBRANCH   5  30
TORSDOF 12
ENDMDL
MODEL 2
REMARK VINA RESULT: -6.907757329      2.816      3.500
REMARK  12 active torsions:
REMARK  status: ('A' for Active; 'I' for Inactive)
REMARK    1  A    between atoms: C2_2  and  O1_3 
REMARK    2  A    between atoms: O1_3  and  C3_4 
REMARK    3  A    between atoms: C3_4  and  C4_6 
REMARK    4  A    between atoms: C5_7  and  N1_8 
REMARK    5  A    between atoms: N1_8  and  C6_10 
REMARK    6  A    between atoms: C6_10  and  N2_12 
REMARK    7  A    between atoms: N2_12  and  N3_14 
REMARK       I    between atoms: N3_14  and  C7_16 
REMARK    8  A    between atoms: C9_21  and  C10_22 
REMARK    9  A    between atoms: C10_22  and  C11_24 
REMARK   10  A    between atoms: N5_28  and  C13_29 
REMARK   11  A    between atoms: C13_29  and  O6_30 
REMARK   12  A    between atoms: O6_30  and  C14_31 
ROOT
HETATM    1  C4  UNL     1     -15.524  -8.544   8.331  1.00  0.00     0.103 A 
HETATM    2  C5  UNL     1     -16.623  -8.974   7.647  1.00  0.00     0.096 A 
HETATM    3  S2  UNL     1     -17.846  -9.045   8.879  1.00  0.00    -0.067 SA
HETATM    4  C8  UNL     1     -16.925  -8.515  10.189  1.00  0.00     0.068 A 
HETATM    5  C9  UNL     1     -16.986  -8.222  11.567  1.00  0.00     0.114 A 
HETATM    6  N4  UNL     1     -15.789  -7.828  11.857  1.00  0.00    -0.287 N 
ATOM      7  H4  UNL     1     -15.492  -7.537  12.788  1.00  0.00     0.188 HD
HETATM    8  N5  UNL     1     -14.971  -7.849  10.761  1.00  0.00    -0.242 N 
HETATM    9  C15 UNL     1     -15.664  -8.285   9.682  1.00  0.00     0.096 A 
ENDROOT
BRANCH   2  10
HETATM   10  N1  UNL     1     -16.944  -9.069   6.243  1.00  0.00    -0.325 N 
ATOM     11  H1  UNL     1     -16.627  -8.310   5.639  1.00  0.00     0.169 HD
BRANCH  10  12
HETATM   12  C6  UNL     1     -17.649 -10.110   5.645  1.00  0.00     0.191 C 
HETATM   13  S1  UNL     1     -17.107 -11.660   5.550  1.00  0.00    -0.039 SA
BRANCH  12  14
HETATM   14  N2  UNL     1     -18.846  -9.839   4.930  1.00  0.00    -0.271 N 
ATOM     15  H2  UNL     1     -18.808  -9.443   3.990  1.00  0.00     0.189 HD
BRANCH  14  16
HETATM   16  N3  UNL     1     -20.071 -10.122   5.528  1.00  0.00    -0.241 N 
HETATM   17  C7  UNL     1     -21.278  -9.983   4.803  1.00  0.00     0.303 C 
HETATM   18  O3  UNL     1     -21.246  -9.602   3.606  1.00  0.00    -0.628 OA
HETATM   19  O4  UNL     1     -22.517 -10.256   5.373  1.00  0.00    -0.628 OA
ATOM     20  H3  UNL     1     -20.100 -10.431   6.500  1.00  0.00     0.193 HD
ENDBRANCH  14  16
ENDBRANCH  12  14
ENDBRANCH  10  12
ENDBRANCH   2  10
BRANCH   1  21
HETATM   21  C3  UNL     1     -14.181  -8.697   7.673  1.00  0.00     0.298 C 
HETATM   22  O2  UNL     1     -13.238  -9.325   8.102  1.00  0.00    -0.259 OA
BRANCH  21  23
HETATM   23  O1  UNL     1     -13.927  -8.093   6.422  1.00  0.00    -0.318 OA
BRANCH  23  24
HETATM   24  C2  UNL     1     -13.148  -8.704   5.414  1.00  0.00     0.174 C 
HETATM   25  C1  UNL     1     -13.924  -9.440   4.377  1.00  0.00     0.034 C 
ENDBRANCH  23  24
ENDBRANCH  21  23
ENDBRANCH   1  21
BRANCH   8  26
HETATM   26  C13 UNL     1     -13.630  -7.416  10.939  1.00  0.00     0.254 C 
BRANCH  26  27
HETATM   27  O6  UNL     1     -12.739  -8.352  11.426  1.00  0.00    -0.315 OA
BRANCH  27  28
HETATM   28  C14 UNL     1     -11.488  -8.308  10.863  1.00  0.00     0.399 C 
HETATM   29  F1  UNL     1     -10.638  -9.059  11.671  1.00  0.00    -0.227 F 
ENDBRANCH  27  28
ENDBRANCH  26  27
ENDBRANCH   8  26
BRANCH   5  30
HETATM   30  C10 UNL     1     -18.208  -8.385  12.340  1.00  0.00     0.178 C 
HETATM   31  O5  UNL     1     -19.199  -9.024  11.903  1.00  0.00    -0.291 OA
BRANCH  30  32
HETATM   32  C11 UNL     1     -18.327  -7.792  13.694  1.00  0.00     0.081 C 
HETATM   33  C12 UNL     1     -18.640  -8.868  14.705  1.00  0.00     0.013 C 
ENDBRANCH  30  32
ENDBRANCH   5  30
TORSDOF 12
ENDMDL
MODEL 3
REMARK VINA RESULT: -6.840061826      2.917      3.990
REMARK  12 active torsions:
REMARK  status: ('A' for Active; 'I' for Inactive)
REMARK    1  A    between atoms: C2_2  and  O1_3 
REMARK    2  A    between atoms: O1_3  and  C3_4 
REMARK    3  A    between atoms: C3_4  and  C4_6 
REMARK    4  A    between atoms: C5_7  and  N1_8 
REMARK    5  A    between atoms: N1_8  and  C6_10 
REMARK    6  A    between atoms: C6_10  and  N2_12 
REMARK    7  A    between atoms: N2_12  and  N3_14 
REMARK       I    between atoms: N3_14  and  C7_16 
REMARK    8  A    between atoms: C9_21  and  C10_22 
REMARK    9  A    between atoms: C10_22  and  C11_24 
REMARK   10  A    between atoms: N5_28  and  C13_29 
REMARK   11  A    between atoms: C13_29  and  O6_30 
REMARK   12  A    between atoms: O6_30  and  C14_31 
ROOT
HETATM    1  C4  UNL     1     -15.992  -8.537   8.322  1.00  0.00     0.103 A 
HETATM    2  C5  UNL     1     -17.125  -9.022   7.739  1.00  0.00     0.096 A 
HETATM    3  S2  UNL     1     -18.236  -9.128   9.071  1.00  0.00    -0.067 SA
HETATM    4  C8  UNL     1     -17.231  -8.542  10.292  1.00  0.00     0.068 A 
HETATM    5  C9  UNL     1     -17.189  -8.233  11.668  1.00  0.00     0.114 A 
HETATM    6  N4  UNL     1     -15.991  -7.785  11.851  1.00  0.00    -0.287 N 
ATOM      7  H4  UNL     1     -15.628  -7.469  12.750  1.00  0.00     0.188 HD
HETATM    8  N5  UNL     1     -15.267  -7.787  10.690  1.00  0.00    -0.242 N 
HETATM    9  C15 UNL     1     -16.029  -8.266   9.678  1.00  0.00     0.096 A 
ENDROOT
BRANCH   2  10
HETATM   10  N1  UNL     1     -17.558  -9.150   6.368  1.00  0.00    -0.325 N 
ATOM     11  H1  UNL     1     -18.266  -8.493   6.038  1.00  0.00     0.169 HD
BRANCH  10  12
HETATM   12  C6  UNL     1     -17.091 -10.095   5.459  1.00  0.00     0.191 C 
HETATM   13  S1  UNL     1     -17.101 -11.718   5.723  1.00  0.00    -0.039 SA
BRANCH  12  14
HETATM   14  N2  UNL     1     -16.420  -9.675   4.279  1.00  0.00    -0.271 N 
ATOM     15  H2  UNL     1     -16.866  -9.778   3.366  1.00  0.00     0.189 HD
BRANCH  14  16
HETATM   16  N3  UNL     1     -15.146  -9.122   4.383  1.00  0.00    -0.241 N 
HETATM   17  C7  UNL     1     -14.000  -9.885   4.063  1.00  0.00     0.303 C 
HETATM   18  O3  UNL     1     -14.128 -11.074   3.678  1.00  0.00    -0.628 OA
HETATM   19  O4  UNL     1     -12.715  -9.360   4.158  1.00  0.00    -0.628 OA
ATOM     20  H3  UNL     1     -15.039  -8.156   4.695  1.00  0.00     0.193 HD
ENDBRANCH  14  16
ENDBRANCH  12  14
ENDBRANCH  10  12
ENDBRANCH   2  10
BRANCH   1  21
HETATM   21  C3  UNL     1     -14.704  -8.642   7.555  1.00  0.00     0.298 C 
HETATM   22  O2  UNL     1     -13.935  -9.578   7.566  1.00  0.00    -0.259 OA
BRANCH  21  23
HETATM   23  O1  UNL     1     -14.295  -7.594   6.702  1.00  0.00    -0.318 OA
BRANCH  23  24
HETATM   24  C2  UNL     1     -13.859  -6.337   7.177  1.00  0.00     0.174 C 
HETATM   25  C1  UNL     1     -14.929  -5.309   7.310  1.00  0.00     0.034 C 
ENDBRANCH  23  24
ENDBRANCH  21  23
ENDBRANCH   1  21
BRANCH   8  26
HETATM   26  C13 UNL     1     -13.936  -7.295  10.750  1.00  0.00     0.254 C 
BRANCH  26  27
HETATM   27  O6  UNL     1     -12.999  -8.120  11.341  1.00  0.00    -0.315 OA
BRANCH  27  28
HETATM   28  C14 UNL     1     -11.883  -8.366  10.581  1.00  0.00     0.399 C 
HETATM   29  F1  UNL     1     -10.863  -8.750  11.448  1.00  0.00    -0.227 F 
ENDBRANCH  27  28
ENDBRANCH  26  27
ENDBRANCH   8  26
BRANCH   5  30
HETATM   30  C10 UNL     1     -18.333  -8.437  12.543  1.00  0.00     0.178 C 
HETATM   31  O5  UNL     1     -19.318  -9.143  12.208  1.00  0.00    -0.291 OA
BRANCH  30  32
HETATM   32  C11 UNL     1     -18.376  -7.806  13.885  1.00  0.00     0.081 C 
HETATM   33  C12 UNL     1     -18.730  -8.836  14.930  1.00  0.00     0.013 C 
ENDBRANCH  30  32
ENDBRANCH   5  30
TORSDOF 12
ENDMDL
MODEL 4
REMARK VINA RESULT: -6.828269540      2.455      3.073
REMARK  12 active torsions:
REMARK  status: ('A' for Active; 'I' for Inactive)
REMARK    1  A    between atoms: C2_2  and  O1_3 
REMARK    2  A    between atoms: O1_3  and  C3_4 
REMARK    3  A    between atoms: C3_4  and  C4_6 
REMARK    4  A    between atoms: C5_7  and  N1_8 
REMARK    5  A    between atoms: N1_8  and  C6_10 
REMARK    6  A    between atoms: C6_10  and  N2_12 
REMARK    7  A    between atoms: N2_12  and  N3_14 
REMARK       I    between atoms: N3_14  and  C7_16 
REMARK    8  A    between atoms: C9_21  and  C10_22 
REMARK    9  A    between atoms: C10_22  and  C11_24 
REMARK   10  A    between atoms: N5_28  and  C13_29 
REMARK   11  A    between atoms: C13_29  and  O6_30 
REMARK   12  A    between atoms: O6_30  and  C14_31 
ROOT
HETATM    1  C4  UNL     1     -15.757  -8.514   8.334  1.00  0.00     0.103 A 
HETATM    2  C5  UNL     1     -16.877  -8.985   7.716  1.00  0.00     0.096 A 
HETATM    3  S2  UNL     1     -18.031  -9.074   9.012  1.00  0.00    -0.067 SA
HETATM    4  C8  UNL     1     -17.058  -8.498  10.264  1.00  0.00     0.068 A 
HETATM    5  C9  UNL     1     -17.055  -8.187  11.640  1.00  0.00     0.114 A 
HETATM    6  N4  UNL     1     -15.857  -7.755  11.860  1.00  0.00    -0.287 N 
ATOM      7  H4  UNL     1     -15.519  -7.441  12.770  1.00  0.00     0.188 HD
HETATM    8  N5  UNL     1     -15.098  -7.769  10.723  1.00  0.00    -0.242 N 
HETATM    9  C15 UNL     1     -15.833  -8.240   9.688  1.00  0.00     0.096 A 
ENDROOT
BRANCH   2  10
HETATM   10  N1  UNL     1     -17.268  -9.110   6.332  1.00  0.00    -0.325 N 
ATOM     11  H1  UNL     1     -17.256  -8.262   5.765  1.00  0.00     0.169 HD
BRANCH  10  12
HETATM   12  C6  UNL     1     -17.661 -10.291   5.708  1.00  0.00     0.191 C 
HETATM   13  S1  UNL     1     -17.130 -11.787   6.139  1.00  0.00    -0.039 SA
BRANCH  12  14
HETATM   14  N2  UNL     1     -18.451 -10.244   4.528  1.00  0.00    -0.271 N 
ATOM     15  H2  UNL     1     -19.356  -9.772   4.531  1.00  0.00     0.189 HD
BRANCH  14  16
HETATM   16  N3  UNL     1     -17.975 -10.849   3.368  1.00  0.00    -0.241 N 
HETATM   17  C7  UNL     1     -18.862 -11.219   2.331  1.00  0.00     0.303 C 
HETATM   18  O3  UNL     1     -20.093 -10.999   2.454  1.00  0.00    -0.628 OA
HETATM   19  O4  UNL     1     -18.416 -11.826   1.161  1.00  0.00    -0.628 OA
ATOM     20  H3  UNL     1     -16.976 -11.028   3.266  1.00  0.00     0.193 HD
ENDBRANCH  14  16
ENDBRANCH  12  14
ENDBRANCH  10  12
ENDBRANCH   2  10
BRANCH   1  21
HETATM   21  C3  UNL     1     -14.446  -8.638   7.609  1.00  0.00     0.298 C 
HETATM   22  O2  UNL     1     -13.554  -7.820   7.590  1.00  0.00    -0.259 OA
BRANCH  21  23
HETATM   23  O1  UNL     1     -14.148  -9.805   6.871  1.00  0.00    -0.318 OA
BRANCH  23  24
HETATM   24  C2  UNL     1     -13.441  -9.786   5.648  1.00  0.00     0.174 C 
HETATM   25  C1  UNL     1     -14.231  -9.326   4.472  1.00  0.00     0.034 C 
ENDBRANCH  23  24
ENDBRANCH  21  23
ENDBRANCH   1  21
BRANCH   8  26
HETATM   26  C13 UNL     1     -13.762  -7.294  10.823  1.00  0.00     0.254 C 
BRANCH  26  27
HETATM   27  O6  UNL     1     -12.858  -8.128  11.451  1.00  0.00    -0.315 OA
BRANCH  27  28
HETATM   28  C14 UNL     1     -12.194  -8.994  10.619  1.00  0.00     0.399 C 
HETATM   29  F1  UNL     1     -13.024 -10.094  10.411  1.00  0.00    -0.227 F 
ENDBRANCH  27  28
ENDBRANCH  26  27
ENDBRANCH   8  26
BRANCH   5  30
HETATM   30  C10 UNL     1     -18.229  -8.374  12.478  1.00  0.00     0.178 C 
HETATM   31  O5  UNL     1     -19.233  -9.026  12.093  1.00  0.00    -0.291 OA
BRANCH  30  32
HETATM   32  C11 UNL     1     -18.282  -7.789  13.841  1.00  0.00     0.081 C 
HETATM   33  C12 UNL     1     -18.689  -8.843  14.841  1.00  0.00     0.013 C 
ENDBRANCH  30  32
ENDBRANCH   5  30
TORSDOF 12
ENDMDL
MODEL 5
REMARK VINA RESULT: -6.793542024      2.943      3.437
REMARK  12 active torsions:
REMARK  status: ('A' for Active; 'I' for Inactive)
REMARK    1  A    between atoms: C2_2  and  O1_3 
REMARK    2  A    between atoms: O1_3  and  C3_4 
REMARK    3  A    between atoms: C3_4  and  C4_6 
REMARK    4  A    between atoms: C5_7  and  N1_8 
REMARK    5  A    between atoms: N1_8  and  C6_10 
REMARK    6  A    between atoms: C6_10  and  N2_12 
REMARK    7  A    between atoms: N2_12  and  N3_14 
REMARK       I    between atoms: N3_14  and  C7_16 
REMARK    8  A    between atoms: C9_21  and  C10_22 
REMARK    9  A    between atoms: C10_22  and  C11_24 
REMARK   10  A    between atoms: N5_28  and  C13_29 
REMARK   11  A    between atoms: C13_29  and  O6_30 
REMARK   12  A    between atoms: O6_30  and  C14_31 
ROOT
HETATM    1  C4  UNL     1     -15.405  -8.898   6.327  1.00  0.00     0.103 A 
HETATM    2  C5  UNL     1     -16.549  -9.219   6.997  1.00  0.00     0.096 A 
HETATM    3  S2  UNL     1     -16.024  -9.296   8.652  1.00  0.00    -0.067 SA
HETATM    4  C8  UNL     1     -14.399  -8.904   8.425  1.00  0.00     0.068 A 
HETATM    5  C9  UNL     1     -13.182  -8.696   9.108  1.00  0.00     0.114 A 
HETATM    6  N4  UNL     1     -12.346  -8.392   8.170  1.00  0.00    -0.287 N 
ATOM      7  H4  UNL     1     -11.361  -8.178   8.328  1.00  0.00     0.188 HD
HETATM    8  N5  UNL     1     -12.943  -8.392   6.940  1.00  0.00    -0.242 N 
HETATM    9  C15 UNL     1     -14.251  -8.718   7.068  1.00  0.00     0.096 A 
ENDROOT
BRANCH   2  10
HETATM   10  N1  UNL     1     -17.946  -9.207   6.637  1.00  0.00    -0.325 N 
ATOM     11  H1  UNL     1     -18.518  -8.447   7.008  1.00  0.00     0.169 HD
BRANCH  10  12
HETATM   12  C6  UNL     1     -18.579 -10.144   5.825  1.00  0.00     0.191 C 
HETATM   13  S1  UNL     1     -18.836 -11.712   6.249  1.00  0.00    -0.039 SA
BRANCH  12  14
HETATM   14  N2  UNL     1     -18.910  -9.815   4.483  1.00  0.00    -0.271 N 
ATOM     15  H2  UNL     1     -19.573  -9.066   4.283  1.00  0.00     0.189 HD
BRANCH  14  16
HETATM   16  N3  UNL     1     -18.318 -10.529   3.444  1.00  0.00    -0.241 N 
HETATM   17  C7  UNL     1     -19.073 -10.918   2.314  1.00  0.00     0.303 C 
HETATM   18  O3  UNL     1     -20.290 -10.616   2.242  1.00  0.00    -0.628 OA
HETATM   19  O4  UNL     1     -18.509 -11.632   1.261  1.00  0.00    -0.628 OA
ATOM     20  H3  UNL     1     -17.329 -10.774   3.500  1.00  0.00     0.193 HD
ENDBRANCH  14  16
ENDBRANCH  12  14
ENDBRANCH  10  12
ENDBRANCH   2  10
BRANCH   1  21
HETATM   21  C3  UNL     1     -15.385  -9.089   4.836  1.00  0.00     0.298 C 
HETATM   22  O2  UNL     1     -16.043  -8.477   4.024  1.00  0.00    -0.259 OA
BRANCH  21  23
HETATM   23  O1  UNL     1     -14.525 -10.043   4.251  1.00  0.00    -0.318 OA
BRANCH  23  24
HETATM   24  C2  UNL     1     -14.614 -11.428   4.516  1.00  0.00     0.174 C 
HETATM   25  C1  UNL     1     -13.522 -11.978   5.366  1.00  0.00     0.034 C 
ENDBRANCH  23  24
ENDBRANCH  21  23
ENDBRANCH   1  21
BRANCH   8  26
HETATM   26  C13 UNL     1     -12.136  -8.050   5.822  1.00  0.00     0.254 C 
BRANCH  26  27
HETATM   27  O6  UNL     1     -11.198  -8.985   5.430  1.00  0.00    -0.315 OA
BRANCH  27  28
HETATM   28  C14 UNL     1     -11.047  -9.120   4.073  1.00  0.00     0.399 C 
HETATM   29  F1  UNL     1     -11.010 -10.484   3.789  1.00  0.00    -0.227 F 
ENDBRANCH  27  28
ENDBRANCH  26  27
ENDBRANCH   8  26
BRANCH   5  30
HETATM   30  C10 UNL     1     -13.070  -8.835  10.552  1.00  0.00     0.178 C 
HETATM   31  O5  UNL     1     -13.770  -8.159  11.348  1.00  0.00    -0.291 OA
BRANCH  30  32
HETATM   32  C11 UNL     1     -12.109  -9.797  11.143  1.00  0.00     0.081 C 
HETATM   33  C12 UNL     1     -10.735  -9.177  11.217  1.00  0.00     0.013 C 
ENDBRANCH  30  32
ENDBRANCH   5  30
TORSDOF 12
ENDMDL
