MODEL 1
REMARK VINA RESULT: -6.854099913      0.000      0.000
REMARK  11 active torsions:
REMARK  status: ('A' for Active; 'I' for Inactive)
REMARK    1  A    between atoms: C2_2  and  N1_3 
REMARK    2  A    between atoms: N2_6  and  N3_7 
REMARK       I    between atoms: N3_7  and  C4_9 
REMARK    3  A    between atoms: C4_9  and  C5_11 
REMARK    4  A    between atoms: C9_16  and  N4_17 
REMARK    5  A    between atoms: C10_22  and  S2_23 
REMARK    6  A    between atoms: S2_23  and  C11_24 
REMARK    7  A    between atoms: C11_24  and  C12_25 
REMARK    8  A    between atoms: C12_25  and  O2_26 
REMARK    9  A    between atoms: O2_26  and  C13_27 
REMARK   10  A    between atoms: C13_27  and  C14_29 
REMARK   11  A    between atoms: C14_29  and  N6_31 
ROOT
HETATM    1  N1  UNL     1     -17.304  -9.462   7.716  1.00  0.00    -0.307 N 
HETATM    2  C3  UNL     1     -18.122  -9.577   8.743  1.00  0.00     0.202 A 
HETATM    3  S1  UNL     1     -19.523 -10.429   8.867  1.00  0.00    -0.038 SA
HETATM    4  N2  UNL     1     -17.570  -8.815   9.781  1.00  0.00    -0.220 N 
HETATM    5  C8  UNL     1     -16.441  -8.274   9.311  1.00  0.00     0.147 A 
HETATM    6  C9  UNL     1     -15.481  -7.408   9.779  1.00  0.00     0.134 A 
HETATM    7  N5  UNL     1     -14.434  -7.007   8.990  1.00  0.00    -0.321 N 
ATOM      8  H5  UNL     1     -13.746  -6.365   9.384  1.00  0.00     0.169 HD
HETATM    9  C10 UNL     1     -14.276  -7.415   7.741  1.00  0.00     0.147 A 
HETATM   10  N7  UNL     1     -15.196  -8.253   7.251  1.00  0.00    -0.321 N 
ATOM     11  H7  UNL     1     -15.101  -8.584   6.290  1.00  0.00     0.169 HD
HETATM   12  C17 UNL     1     -16.254  -8.681   7.993  1.00  0.00     0.145 A 
ENDROOT
BRANCH   9  13
HETATM   13  S2  UNL     1     -12.862  -6.837   6.814  1.00  0.00    -0.092 SA
BRANCH  13  14
HETATM   14  C11 UNL     1     -11.632  -8.064   6.536  1.00  0.00     0.109 C 
BRANCH  14  15
HETATM   15  C12 UNL     1     -12.034  -9.448   6.864  1.00  0.00     0.189 C 
BRANCH  15  16
HETATM   16  O2  UNL     1     -12.864 -10.132   6.035  1.00  0.00    -0.319 OA
BRANCH  16  17
HETATM   17  C13 UNL     1     -13.185  -9.948   4.749  1.00  0.00     0.289 C 
HETATM   18  O3  UNL     1     -14.108  -9.233   4.329  1.00  0.00    -0.263 OA
BRANCH  17  19
HETATM   19  C14 UNL     1     -12.361 -10.669   3.709  1.00  0.00     0.280 C 
HETATM   20  C15 UNL     1     -11.106  -9.891   3.439  1.00  0.00     0.051 C 
BRANCH  19  21
HETATM   21  N6  UNL     1     -13.179 -10.884   2.547  1.00  0.00    -0.066 N 
HETATM   22  C16 UNL     1     -13.360 -12.292   2.313  1.00  0.00     0.267 C 
ATOM     23  H62 UNL     1     -14.070 -10.392   2.615  1.00  0.00     0.277 HD
ATOM     24  H61 UNL     1     -12.805 -10.408   1.727  1.00  0.00     0.277 HD
ENDBRANCH  19  21
ENDBRANCH  17  19
ENDBRANCH  16  17
ENDBRANCH  15  16
ENDBRANCH  14  15
ENDBRANCH  13  14
ENDBRANCH   9  13
BRANCH   6  25
HETATM   25  N4  UNL     1     -15.591  -6.887  10.921  1.00  0.00    -0.383 N 
ATOM     26  H42 UNL     1     -15.772  -5.884  10.972  1.00  0.00     0.157 HD
ATOM     27  H41 UNL     1     -15.573  -7.467  11.759  1.00  0.00     0.157 HD
ENDBRANCH   6  25
BRANCH   1  28
HETATM   28  C2  UNL     1     -17.510 -10.107   6.428  1.00  0.00     0.129 C 
HETATM   29  C1  UNL     1     -16.689 -11.355   6.366  1.00  0.00     0.027 C 
ENDBRANCH   1  28
BRANCH   4  30
HETATM   30  N3  UNL     1     -18.242  -8.687  10.965  1.00  0.00    -0.258 N 
HETATM   31  C4  UNL     1     -17.904  -8.529  12.309  1.00  0.00     0.275 C 
HETATM   32  O1  UNL     1     -16.806  -8.491  12.880  1.00  0.00    -0.268 OA
ATOM     33  H3  UNL     1     -19.253  -8.714  10.831  1.00  0.00     0.190 HD
BRANCH  31  34
HETATM   34  C5  UNL     1     -19.061  -8.368  13.327  1.00  0.00     0.178 C 
HETATM   35  C6  UNL     1     -18.696  -9.051  14.613  1.00  0.00     0.062 C 
HETATM   36  C7  UNL     1     -20.278  -9.082  12.767  1.00  0.00     0.062 C 
HETATM   37  F1  UNL     1     -19.262  -7.040  13.533  1.00  0.00    -0.233 F 
ENDBRANCH  31  34
ENDBRANCH   4  30
TORSDOF 11
ENDMDL
MODEL 2
REMARK VINA RESULT: -6.787531910      2.274      3.025
REMARK  11 active torsions:
REMARK  status: ('A' for Active; 'I' for Inactive)
REMARK    1  A    between atoms: C2_2  and  N1_3 
REMARK    2  A    between atoms: N2_6  and  N3_7 
REMARK       I    between atoms: N3_7  and  C4_9 
REMARK    3  A    between atoms: C4_9  and  C5_11 
REMARK    4  A    between atoms: C9_16  and  N4_17 
REMARK    5  A    between atoms: C10_22  and  S2_23 
REMARK    6  A    between atoms: S2_23  and  C11_24 
REMARK    7  A    between atoms: C11_24  and  C12_25 
REMARK    8  A    between atoms: C12_25  and  O2_26 
REMARK    9  A    between atoms: O2_26  and  C13_27 
REMARK   10  A    between atoms: C13_27  and  C14_29 
REMARK   11  A    between atoms: C14_29  and  N6_31 
ROOT
HETATM    1  N1  UNL     1     -17.305  -9.489   7.746  1.00  0.00    -0.307 N 
HETATM    2  C3  UNL     1     -18.116  -9.601   8.778  1.00  0.00     0.202 A 
HETATM    3  S1  UNL     1     -19.520 -10.448   8.911  1.00  0.00    -0.038 SA
HETATM    4  N2  UNL     1     -17.554  -8.842   9.813  1.00  0.00    -0.220 N 
HETATM    5  C8  UNL     1     -16.426  -8.306   9.336  1.00  0.00     0.147 A 
HETATM    6  C9  UNL     1     -15.459  -7.443   9.798  1.00  0.00     0.134 A 
HETATM    7  N5  UNL     1     -14.416  -7.046   9.002  1.00  0.00    -0.321 N 
ATOM      8  H5  UNL     1     -13.722  -6.407   9.391  1.00  0.00     0.169 HD
HETATM    9  C10 UNL     1     -14.268  -7.455   7.751  1.00  0.00     0.147 A 
HETATM   10  N7  UNL     1     -15.194  -8.289   7.267  1.00  0.00    -0.321 N 
ATOM     11  H7  UNL     1     -15.107  -8.619   6.306  1.00  0.00     0.169 HD
HETATM   12  C17 UNL     1     -16.250  -8.712   8.015  1.00  0.00     0.145 A 
ENDROOT
BRANCH   9  13
HETATM   13  S2  UNL     1     -12.858  -6.881   6.814  1.00  0.00    -0.092 SA
BRANCH  13  14
HETATM   14  C11 UNL     1     -11.514  -8.016   6.769  1.00  0.00     0.109 C 
BRANCH  14  15
HETATM   15  C12 UNL     1     -10.585  -7.942   7.915  1.00  0.00     0.189 C 
BRANCH  15  16
HETATM   16  O2  UNL     1     -10.686  -8.833   8.935  1.00  0.00    -0.319 OA
BRANCH  16  17
HETATM   17  C13 UNL     1     -11.557  -8.934   9.945  1.00  0.00     0.289 C 
HETATM   18  O3  UNL     1     -11.986  -7.991  10.626  1.00  0.00    -0.263 OA
BRANCH  17  19
HETATM   19  C14 UNL     1     -12.069 -10.311  10.296  1.00  0.00     0.280 C 
HETATM   20  C15 UNL     1     -11.093 -11.344   9.815  1.00  0.00     0.051 C 
BRANCH  19  21
HETATM   21  N6  UNL     1     -13.392 -10.457   9.755  1.00  0.00    -0.066 N 
HETATM   22  C16 UNL     1     -13.338 -11.078   8.457  1.00  0.00     0.267 C 
ATOM     23  H62 UNL     1     -14.009 -10.961  10.392  1.00  0.00     0.277 HD
ATOM     24  H61 UNL     1     -13.892  -9.569   9.730  1.00  0.00     0.277 HD
ENDBRANCH  19  21
ENDBRANCH  17  19
ENDBRANCH  16  17
ENDBRANCH  15  16
ENDBRANCH  14  15
ENDBRANCH  13  14
ENDBRANCH   9  13
BRANCH   6  25
HETATM   25  N4  UNL     1     -15.560  -6.923  10.940  1.00  0.00    -0.383 N 
ATOM     26  H42 UNL     1     -16.209  -7.348  11.603  1.00  0.00     0.157 HD
ATOM     27  H41 UNL     1     -14.955  -6.147  11.211  1.00  0.00     0.157 HD
ENDBRANCH   6  25
BRANCH   1  28
HETATM   28  C2  UNL     1     -17.522 -10.132   6.459  1.00  0.00     0.129 C 
HETATM   29  C1  UNL     1     -16.759 -11.418   6.416  1.00  0.00     0.027 C 
ENDBRANCH   1  28
BRANCH   4  30
HETATM   30  N3  UNL     1     -18.217  -8.712  11.001  1.00  0.00    -0.258 N 
HETATM   31  C4  UNL     1     -17.870  -8.553  12.343  1.00  0.00     0.275 C 
HETATM   32  O1  UNL     1     -16.768  -8.517  12.906  1.00  0.00    -0.268 OA
ATOM     33  H3  UNL     1     -19.229  -8.738  10.874  1.00  0.00     0.190 HD
BRANCH  31  34
HETATM   34  C5  UNL     1     -19.020  -8.390  13.369  1.00  0.00     0.178 C 
HETATM   35  C6  UNL     1     -18.640  -9.059  14.658  1.00  0.00     0.062 C 
HETATM   36  C7  UNL     1     -20.237  -9.116  12.825  1.00  0.00     0.062 C 
HETATM   37  F1  UNL     1     -19.226  -7.061  13.565  1.00  0.00    -0.233 F 
ENDBRANCH  31  34
ENDBRANCH   4  30
TORSDOF 11
ENDMDL
MODEL 3
REMARK VINA RESULT: -6.689072602      4.795      8.291
REMARK  11 active torsions:
REMARK  status: ('A' for Active; 'I' for Inactive)
REMARK    1  A    between atoms: C2_2  and  N1_3 
REMARK    2  A    between atoms: N2_6  and  N3_7 
REMARK       I    between atoms: N3_7  and  C4_9 
REMARK    3  A    between atoms: C4_9  and  C5_11 
REMARK    4  A    between atoms: C9_16  and  N4_17 
REMARK    5  A    between atoms: C10_22  and  S2_23 
REMARK    6  A    between atoms: S2_23  and  C11_24 
REMARK    7  A    between atoms: C11_24  and  C12_25 
REMARK    8  A    between atoms: C12_25  and  O2_26 
REMARK    9  A    between atoms: O2_26  and  C13_27 
REMARK   10  A    between atoms: C13_27  and  C14_29 
REMARK   11  A    between atoms: C14_29  and  N6_31 
ROOT
HETATM    1  N1  UNL     1      -8.878  -8.928   8.588  1.00  0.00    -0.307 N 
HETATM    2  C3  UNL     1      -8.488  -9.990   9.264  1.00  0.00     0.202 A 
HETATM    3  S1  UNL     1      -6.964 -10.511   9.595  1.00  0.00    -0.038 SA
HETATM    4  N2  UNL     1      -9.653 -10.642   9.691  1.00  0.00    -0.220 N 
HETATM    5  C8  UNL     1     -10.689  -9.930   9.235  1.00  0.00     0.147 A 
HETATM    6  C9  UNL     1     -12.060 -10.043   9.251  1.00  0.00     0.134 A 
HETATM    7  N5  UNL     1     -12.860  -9.123   8.624  1.00  0.00    -0.321 N 
ATOM      8  H5  UNL     1     -13.871  -9.249   8.667  1.00  0.00     0.169 HD
HETATM    9  C10 UNL     1     -12.379  -8.079   7.967  1.00  0.00     0.147 A 
HETATM   10  N7  UNL     1     -11.049  -7.943   7.925  1.00  0.00    -0.321 N 
ATOM     11  H7  UNL     1     -10.650  -7.149   7.424  1.00  0.00     0.169 HD
HETATM   12  C17 UNL     1     -10.211  -8.829   8.530  1.00  0.00     0.145 A 
ENDROOT
BRANCH   9  13
HETATM   13  S2  UNL     1     -13.521  -6.938   7.202  1.00  0.00    -0.092 SA
BRANCH  13  14
HETATM   14  C11 UNL     1     -15.079  -6.827   8.012  1.00  0.00     0.109 C 
BRANCH  14  15
HETATM   15  C12 UNL     1     -15.145  -5.860   9.127  1.00  0.00     0.189 C 
BRANCH  15  16
HETATM   16  O2  UNL     1     -15.239  -6.300  10.408  1.00  0.00    -0.319 OA
BRANCH  16  17
HETATM   17  C13 UNL     1     -15.139  -7.525  10.936  1.00  0.00     0.289 C 
HETATM   18  O3  UNL     1     -14.100  -8.042  11.372  1.00  0.00    -0.263 OA
BRANCH  17  19
HETATM   19  C14 UNL     1     -16.395  -8.361  11.013  1.00  0.00     0.280 C 
HETATM   20  C15 UNL     1     -17.075  -8.120  12.329  1.00  0.00     0.051 C 
BRANCH  19  21
HETATM   21  N6  UNL     1     -16.044  -9.734  10.777  1.00  0.00    -0.066 N 
HETATM   22  C16 UNL     1     -16.304 -10.092   9.408  1.00  0.00     0.267 C 
ATOM     23  H62 UNL     1     -15.079  -9.930  11.045  1.00  0.00     0.277 HD
ATOM     24  H61 UNL     1     -16.513 -10.363  11.430  1.00  0.00     0.277 HD
ENDBRANCH  19  21
ENDBRANCH  17  19
ENDBRANCH  16  17
ENDBRANCH  15  16
ENDBRANCH  14  15
ENDBRANCH  13  14
ENDBRANCH   9  13
BRANCH   6  25
HETATM   25  N4  UNL     1     -12.613 -11.050   9.767  1.00  0.00    -0.383 N 
ATOM     26  H42 UNL     1     -12.011 -11.790  10.132  1.00  0.00     0.157 HD
ATOM     27  H41 UNL     1     -13.626 -11.084   9.880  1.00  0.00     0.157 HD
ENDBRANCH   6  25
BRANCH   1  28
HETATM   28  C2  UNL     1      -7.973  -7.971   7.972  1.00  0.00     0.129 C 
HETATM   29  C1  UNL     1      -7.783  -6.809   8.894  1.00  0.00     0.027 C 
ENDBRANCH   1  28
BRANCH   4  30
HETATM   30  N3  UNL     1      -9.562 -11.828  10.366  1.00  0.00    -0.258 N 
HETATM   31  C4  UNL     1     -10.049 -13.125  10.203  1.00  0.00     0.275 C 
HETATM   32  O1  UNL     1     -10.798 -13.619   9.350  1.00  0.00    -0.268 OA
ATOM     33  H3  UNL     1      -8.990 -11.742  11.206  1.00  0.00     0.190 HD
BRANCH  31  34
HETATM   34  C5  UNL     1      -9.616 -14.191  11.242  1.00  0.00     0.178 C 
HETATM   35  C6  UNL     1      -8.215 -14.642  10.943  1.00  0.00     0.062 C 
HETATM   36  C7  UNL     1     -10.523 -15.396  11.079  1.00  0.00     0.062 C 
HETATM   37  F1  UNL     1      -9.681 -13.628  12.477  1.00  0.00    -0.233 F 
ENDBRANCH  31  34
ENDBRANCH   4  30
TORSDOF 11
ENDMDL
MODEL 4
REMARK VINA RESULT: -6.685554155      2.049      3.420
REMARK  11 active torsions:
REMARK  status: ('A' for Active; 'I' for Inactive)
REMARK    1  A    between atoms: C2_2  and  N1_3 
REMARK    2  A    between atoms: N2_6  and  N3_7 
REMARK       I    between atoms: N3_7  and  C4_9 
REMARK    3  A    between atoms: C4_9  and  C5_11 
REMARK    4  A    between atoms: C9_16  and  N4_17 
REMARK    5  A    between atoms: C10_22  and  S2_23 
REMARK    6  A    between atoms: S2_23  and  C11_24 
REMARK    7  A    between atoms: C11_24  and  C12_25 
REMARK    8  A    between atoms: C12_25  and  O2_26 
REMARK    9  A    between atoms: O2_26  and  C13_27 
REMARK   10  A    between atoms: C13_27  and  C14_29 
REMARK   11  A    between atoms: C14_29  and  N6_31 
ROOT
HETATM    1  N1  UNL     1     -17.401  -9.497   7.737  1.00  0.00    -0.307 N 
HETATM    2  C3  UNL     1     -18.200  -9.607   8.779  1.00  0.00     0.202 A 
HETATM    3  S1  UNL     1     -19.593 -10.467   8.935  1.00  0.00    -0.038 SA
HETATM    4  N2  UNL     1     -17.635  -8.831   9.800  1.00  0.00    -0.220 N 
HETATM    5  C8  UNL     1     -16.518  -8.287   9.306  1.00  0.00     0.147 A 
HETATM    6  C9  UNL     1     -15.557  -7.410   9.749  1.00  0.00     0.134 A 
HETATM    7  N5  UNL     1     -14.526  -7.009   8.938  1.00  0.00    -0.321 N 
ATOM      8  H5  UNL     1     -13.836  -6.359   9.314  1.00  0.00     0.169 HD
HETATM    9  C10 UNL     1     -14.387  -7.429   7.690  1.00  0.00     0.147 A 
HETATM   10  N7  UNL     1     -15.309  -8.278   7.224  1.00  0.00    -0.321 N 
ATOM     11  H7  UNL     1     -15.228  -8.617   6.265  1.00  0.00     0.169 HD
HETATM   12  C17 UNL     1     -16.351  -8.705   7.988  1.00  0.00     0.145 A 
ENDROOT
BRANCH   9  13
HETATM   13  S2  UNL     1     -12.993  -6.850   6.733  1.00  0.00    -0.092 SA
BRANCH  13  14
HETATM   14  C11 UNL     1     -11.986  -8.136   6.078  1.00  0.00     0.109 C 
BRANCH  14  15
HETATM   15  C12 UNL     1     -11.719  -9.261   6.998  1.00  0.00     0.189 C 
BRANCH  15  16
HETATM   16  O2  UNL     1     -11.006  -9.058   8.135  1.00  0.00    -0.319 OA
BRANCH  16  17
HETATM   17  C13 UNL     1     -11.379  -8.988   9.418  1.00  0.00     0.289 C 
HETATM   18  O3  UNL     1     -12.500  -9.277   9.862  1.00  0.00    -0.263 OA
BRANCH  17  19
HETATM   19  C14 UNL     1     -10.354  -8.516  10.422  1.00  0.00     0.280 C 
HETATM   20  C15 UNL     1      -9.123  -8.053   9.699  1.00  0.00     0.051 C 
BRANCH  19  21
HETATM   21  N6  UNL     1     -10.117  -9.574  11.364  1.00  0.00    -0.066 N 
HETATM   22  C16 UNL     1      -9.186 -10.529  10.823  1.00  0.00     0.267 C 
ATOM     23  H62 UNL     1      -9.811  -9.216  12.269  1.00  0.00     0.277 HD
ATOM     24  H61 UNL     1     -10.985 -10.018  11.663  1.00  0.00     0.277 HD
ENDBRANCH  19  21
ENDBRANCH  17  19
ENDBRANCH  16  17
ENDBRANCH  15  16
ENDBRANCH  14  15
ENDBRANCH  13  14
ENDBRANCH   9  13
BRANCH   6  25
HETATM   25  N4  UNL     1     -15.651  -6.878  10.887  1.00  0.00    -0.383 N 
ATOM     26  H42 UNL     1     -16.406  -7.191  11.498  1.00  0.00     0.157 HD
ATOM     27  H41 UNL     1     -14.949  -6.211  11.207  1.00  0.00     0.157 HD
ENDBRANCH   6  25
BRANCH   1  28
HETATM   28  C2  UNL     1     -17.624 -10.155   6.459  1.00  0.00     0.129 C 
HETATM   29  C1  UNL     1     -16.819 -11.414   6.407  1.00  0.00     0.027 C 
ENDBRANCH   1  28
BRANCH   4  30
HETATM   30  N3  UNL     1     -18.288  -8.696  10.994  1.00  0.00    -0.258 N 
HETATM   31  C4  UNL     1     -17.929  -8.521  12.330  1.00  0.00     0.275 C 
HETATM   32  O1  UNL     1     -16.821  -8.469  12.882  1.00  0.00    -0.268 OA
ATOM     33  H3  UNL     1     -19.301  -8.732  10.878  1.00  0.00     0.190 HD
BRANCH  31  34
HETATM   34  C5  UNL     1     -19.070  -8.359  13.366  1.00  0.00     0.178 C 
HETATM   35  C6  UNL     1     -18.689  -9.050  14.643  1.00  0.00     0.062 C 
HETATM   36  C7  UNL     1     -20.299  -9.063  12.821  1.00  0.00     0.062 C 
HETATM   37  F1  UNL     1     -19.260  -7.030  13.582  1.00  0.00    -0.233 F 
ENDBRANCH  31  34
ENDBRANCH   4  30
TORSDOF 11
ENDMDL
MODEL 5
REMARK VINA RESULT: -6.682296369      1.901      2.714
REMARK  11 active torsions:
REMARK  status: ('A' for Active; 'I' for Inactive)
REMARK    1  A    between atoms: C2_2  and  N1_3 
REMARK    2  A    between atoms: N2_6  and  N3_7 
REMARK       I    between atoms: N3_7  and  C4_9 
REMARK    3  A    between atoms: C4_9  and  C5_11 
REMARK    4  A    between atoms: C9_16  and  N4_17 
REMARK    5  A    between atoms: C10_22  and  S2_23 
REMARK    6  A    between atoms: S2_23  and  C11_24 
REMARK    7  A    between atoms: C11_24  and  C12_25 
REMARK    8  A    between atoms: C12_25  and  O2_26 
REMARK    9  A    between atoms: O2_26  and  C13_27 
REMARK   10  A    between atoms: C13_27  and  C14_29 
REMARK   11  A    between atoms: C14_29  and  N6_31 
ROOT
HETATM    1  N1  UNL     1     -17.425  -9.435   7.755  1.00  0.00    -0.307 N 
HETATM    2  C3  UNL     1     -18.225  -9.552   8.796  1.00  0.00     0.202 A 
HETATM    3  S1  UNL     1     -19.626 -10.402   8.941  1.00  0.00    -0.038 SA
HETATM    4  N2  UNL     1     -17.653  -8.795   9.827  1.00  0.00    -0.220 N 
HETATM    5  C8  UNL     1     -16.532  -8.255   9.340  1.00  0.00     0.147 A 
HETATM    6  C9  UNL     1     -15.562  -7.392   9.795  1.00  0.00     0.134 A 
HETATM    7  N5  UNL     1     -14.529  -6.989   8.989  1.00  0.00    -0.321 N 
ATOM      8  H5  UNL     1     -13.832  -6.350   9.373  1.00  0.00     0.169 HD
HETATM    9  C10 UNL     1     -14.393  -7.393   7.735  1.00  0.00     0.147 A 
HETATM   10  N7  UNL     1     -15.323  -8.227   7.258  1.00  0.00    -0.321 N 
ATOM     11  H7  UNL     1     -15.246  -8.554   6.295  1.00  0.00     0.169 HD
HETATM   12  C17 UNL     1     -16.369  -8.656   8.016  1.00  0.00     0.145 A 
ENDROOT
BRANCH   9  13
HETATM   13  S2  UNL     1     -12.995  -6.813   6.786  1.00  0.00    -0.092 SA
BRANCH  13  14
HETATM   14  C11 UNL     1     -11.478  -7.617   7.173  1.00  0.00     0.109 C 
BRANCH  14  15
HETATM   15  C12 UNL     1     -11.154  -8.791   6.338  1.00  0.00     0.189 C 
BRANCH  15  16
HETATM   16  O2  UNL     1     -11.408 -10.045   6.794  1.00  0.00    -0.319 OA
BRANCH  16  17
HETATM   17  C13 UNL     1     -12.433 -10.545   7.491  1.00  0.00     0.289 C 
HETATM   18  O3  UNL     1     -13.579 -10.739   7.056  1.00  0.00    -0.263 OA
BRANCH  17  19
HETATM   19  C14 UNL     1     -12.189 -10.911   8.937  1.00  0.00     0.280 C 
HETATM   20  C15 UNL     1     -11.953 -12.389   9.045  1.00  0.00     0.051 C 
BRANCH  19  21
HETATM   21  N6  UNL     1     -13.294 -10.434   9.721  1.00  0.00    -0.066 N 
HETATM   22  C16 UNL     1     -12.822  -9.664  10.841  1.00  0.00     0.267 C 
ATOM     23  H62 UNL     1     -13.963  -9.911   9.155  1.00  0.00     0.277 HD
ATOM     24  H61 UNL     1     -13.906 -11.195  10.015  1.00  0.00     0.277 HD
ENDBRANCH  19  21
ENDBRANCH  17  19
ENDBRANCH  16  17
ENDBRANCH  15  16
ENDBRANCH  14  15
ENDBRANCH  13  14
ENDBRANCH   9  13
BRANCH   6  25
HETATM   25  N4  UNL     1     -15.652  -6.875  10.940  1.00  0.00    -0.383 N 
ATOM     26  H42 UNL     1     -15.998  -5.918  11.006  1.00  0.00     0.157 HD
ATOM     27  H41 UNL     1     -15.453  -7.428  11.774  1.00  0.00     0.157 HD
ENDBRANCH   6  25
BRANCH   1  28
HETATM   28  C2  UNL     1     -17.655 -10.073   6.468  1.00  0.00     0.129 C 
HETATM   29  C1  UNL     1     -16.947 -11.390   6.439  1.00  0.00     0.027 C 
ENDBRANCH   1  28
BRANCH   4  30
HETATM   30  N3  UNL     1     -18.305  -8.671  11.023  1.00  0.00    -0.258 N 
HETATM   31  C4  UNL     1     -17.943  -8.515  12.361  1.00  0.00     0.275 C 
HETATM   32  O1  UNL     1     -16.835  -8.476  12.912  1.00  0.00    -0.268 OA
ATOM     33  H3  UNL     1     -19.318  -8.700  10.907  1.00  0.00     0.190 HD
BRANCH  31  34
HETATM   34  C5  UNL     1     -19.082  -8.359  13.400  1.00  0.00     0.178 C 
HETATM   35  C6  UNL     1     -18.694  -9.048  14.676  1.00  0.00     0.062 C 
HETATM   36  C7  UNL     1     -20.309  -9.068  12.858  1.00  0.00     0.062 C 
HETATM   37  F1  UNL     1     -19.277  -7.031  13.617  1.00  0.00    -0.233 F 
ENDBRANCH  31  34
ENDBRANCH   4  30
TORSDOF 11
ENDMDL
