MODEL 1
REMARK VINA RESULT: -8.007696589      0.000      0.000
REMARK  8 active torsions:
REMARK  status: ('A' for Active; 'I' for Inactive)
REMARK    1  A    between atoms: C1_4  and  C2_5 
REMARK    2  A    between atoms: C2_5  and  O1_6 
REMARK    3  A    between atoms: O1_6  and  C3_7 
REMARK    4  A    between atoms: C5_9  and  N2_10 
REMARK    5  A    between atoms: N2_10  and  C6_12 
REMARK    6  A    between atoms: C8_14  and  N3_15 
REMARK    7  A    between atoms: C15_26  and  N5_27 
REMARK    8  A    between atoms: C16_30  and  N6_31 
ROOT
HETATM    1  N2  UNL     1     -15.985  -7.633   7.771  1.00  0.00    -0.352 N 
ATOM      2  H2  UNL     1     -16.262  -6.738   7.367  1.00  0.00     0.166 HD
ENDROOT
BRANCH   1   3
HETATM    3  C5  UNL     1     -16.613  -7.944   8.977  1.00  0.00     0.075 A 
HETATM    4  C4  UNL     1     -17.775  -8.650   9.093  1.00  0.00     0.088 A 
HETATM    5  C3  UNL     1     -18.341  -9.000  10.328  1.00  0.00     0.147 A 
HETATM    6  N7  UNL     1     -17.735  -8.639  11.464  1.00  0.00    -0.302 N 
HETATM    7  C17 UNL     1     -16.592  -7.946  11.361  1.00  0.00     0.282 A 
ATOM      8  H7  UNL     1     -18.128  -8.882  12.373  1.00  0.00     0.171 HD
HETATM    9  C16 UNL     1     -16.001  -7.580  10.180  1.00  0.00     0.197 A 
HETATM   10  O6  UNL     1     -16.014  -7.603  12.440  1.00  0.00    -0.265 OA
BRANCH   5  11
HETATM   11  O1  UNL     1     -19.522  -9.717  10.410  1.00  0.00    -0.331 OA
BRANCH  11  12
HETATM   12  C2  UNL     1     -20.375  -9.600  11.549  1.00  0.00     0.221 C 
BRANCH  12  13
HETATM   13  C1  UNL     1     -21.331 -10.716  11.508  1.00  0.00     0.079 C 
HETATM   14  N1  UNL     1     -22.087 -11.091  12.455  1.00  0.00    -0.409 N 
ATOM     15  H12 UNL     1     -22.012 -10.557  13.320  1.00  0.00     0.155 HD
ATOM     16  H11 UNL     1     -22.750 -11.867  12.427  1.00  0.00     0.155 HD
ENDBRANCH  12  13
ENDBRANCH  11  12
ENDBRANCH   5  11
BRANCH   9  17
HETATM   17  N6  UNL     1     -14.780  -6.843  10.185  1.00  0.00    -0.107 N 
HETATM   18  O4  UNL     1     -13.649  -7.363  10.191  1.00  0.00    -0.531 OA
HETATM   19  O5  UNL     1     -14.857  -5.474  10.184  1.00  0.00    -0.531 OA
ENDBRANCH   9  17
ENDBRANCH   1   3
BRANCH   1  20
HETATM   20  C6  UNL     1     -15.035  -8.344   7.021  1.00  0.00     0.068 A 
HETATM   21  C7  UNL     1     -15.254  -9.677   6.666  1.00  0.00     0.063 A 
HETATM   22  C8  UNL     1     -14.386 -10.414   5.881  1.00  0.00     0.054 A 
HETATM   23  C13 UNL     1     -13.259  -9.775   5.441  1.00  0.00     0.063 A 
HETATM   24 CL1  UNL     1     -12.083 -10.634   4.423  1.00  0.00    -0.082 Cl
HETATM   25  C14 UNL     1     -12.966  -8.477   5.736  1.00  0.00     0.064 A 
HETATM   26  C15 UNL     1     -13.883  -7.753   6.546  1.00  0.00     0.131 A 
BRANCH  22  27
HETATM   27  N3  UNL     1     -14.624 -11.764   5.540  1.00  0.00    -0.376 N 
HETATM   28  C9  UNL     1     -14.162 -12.898   6.319  1.00  0.00     0.150 C 
HETATM   29  C10 UNL     1     -15.085 -14.078   5.974  1.00  0.00     0.252 C 
HETATM   30  N4  UNL     1     -14.768 -14.472   4.624  1.00  0.00    -0.072 N 
HETATM   31  C11 UNL     1     -14.843 -13.361   3.695  1.00  0.00     0.252 C 
ATOM     32  H42 UNL     1     -13.857 -14.930   4.578  1.00  0.00     0.277 HD
ATOM     33  H41 UNL     1     -15.355 -15.249   4.320  1.00  0.00     0.277 HD
HETATM   34  C12 UNL     1     -15.391 -12.112   4.335  1.00  0.00     0.150 C 
ENDBRANCH  22  27
BRANCH  26  35
HETATM   35  N5  UNL     1     -13.488  -6.428   6.835  1.00  0.00    -0.113 N 
HETATM   36  O2  UNL     1     -14.244  -5.530   7.126  1.00  0.00    -0.532 OA
HETATM   37  O3  UNL     1     -12.133  -6.120   6.740  1.00  0.00    -0.532 OA
ENDBRANCH  26  35
ENDBRANCH   1  20
TORSDOF 8
ENDMDL
MODEL 2
REMARK VINA RESULT: -7.928565074      2.332      3.781
REMARK  8 active torsions:
REMARK  status: ('A' for Active; 'I' for Inactive)
REMARK    1  A    between atoms: C1_4  and  C2_5 
REMARK    2  A    between atoms: C2_5  and  O1_6 
REMARK    3  A    between atoms: O1_6  and  C3_7 
REMARK    4  A    between atoms: C5_9  and  N2_10 
REMARK    5  A    between atoms: N2_10  and  C6_12 
REMARK    6  A    between atoms: C8_14  and  N3_15 
REMARK    7  A    between atoms: C15_26  and  N5_27 
REMARK    8  A    between atoms: C16_30  and  N6_31 
ROOT
HETATM    1  N2  UNL     1     -16.892  -8.239   7.456  1.00  0.00    -0.352 N 
ATOM      2  H2  UNL     1     -17.440  -7.508   7.002  1.00  0.00     0.166 HD
ENDROOT
BRANCH   1   3
HETATM    3  C5  UNL     1     -16.535  -7.962   8.775  1.00  0.00     0.075 A 
HETATM    4  C4  UNL     1     -17.054  -8.585   9.873  1.00  0.00     0.088 A 
HETATM    5  C3  UNL     1     -16.620  -8.324  11.181  1.00  0.00     0.147 A 
HETATM    6  N7  UNL     1     -15.652  -7.426  11.395  1.00  0.00    -0.302 N 
HETATM    7  C17 UNL     1     -15.134  -6.810  10.323  1.00  0.00     0.282 A 
ATOM      8  H7  UNL     1     -15.320  -7.220  12.337  1.00  0.00     0.171 HD
HETATM    9  C16 UNL     1     -15.524  -7.030   9.027  1.00  0.00     0.197 A 
HETATM   10  O6  UNL     1     -14.212  -5.957  10.523  1.00  0.00    -0.265 OA
BRANCH   5  11
HETATM   11  O1  UNL     1     -17.169  -8.973  12.273  1.00  0.00    -0.331 OA
BRANCH  11  12
HETATM   12  C2  UNL     1     -18.474  -8.640  12.747  1.00  0.00     0.221 C 
BRANCH  12  13
HETATM   13  C1  UNL     1     -18.366  -8.342  14.182  1.00  0.00     0.079 C 
HETATM   14  N1  UNL     1     -18.973  -8.941  15.121  1.00  0.00    -0.409 N 
ATOM     15  H12 UNL     1     -19.592  -9.699  14.835  1.00  0.00     0.155 HD
ATOM     16  H11 UNL     1     -18.899  -8.734  16.117  1.00  0.00     0.155 HD
ENDBRANCH  12  13
ENDBRANCH  11  12
ENDBRANCH   5  11
BRANCH   9  17
HETATM   17  N6  UNL     1     -14.903  -6.319   7.959  1.00  0.00    -0.107 N 
HETATM   18  O4  UNL     1     -13.878  -6.701   7.367  1.00  0.00    -0.531 OA
HETATM   19  O5  UNL     1     -15.471  -5.136   7.559  1.00  0.00    -0.531 OA
ENDBRANCH   9  17
ENDBRANCH   1   3
BRANCH   1  20
HETATM   20  C6  UNL     1     -16.625  -9.357   6.648  1.00  0.00     0.068 A 
HETATM   21  C7  UNL     1     -15.325  -9.642   6.228  1.00  0.00     0.063 A 
HETATM   22  C8  UNL     1     -14.988 -10.757   5.480  1.00  0.00     0.054 A 
HETATM   23  C13 UNL     1     -16.008 -11.609   5.152  1.00  0.00     0.063 A 
HETATM   24 CL1  UNL     1     -15.678 -13.072   4.198  1.00  0.00    -0.082 Cl
HETATM   25  C14 UNL     1     -17.304 -11.410   5.521  1.00  0.00     0.064 A 
HETATM   26  C15 UNL     1     -17.610 -10.253   6.287  1.00  0.00     0.131 A 
BRANCH  22  27
HETATM   27  N3  UNL     1     -13.667 -11.024   5.060  1.00  0.00    -0.376 N 
HETATM   28  C9  UNL     1     -13.103 -10.574   3.801  1.00  0.00     0.150 C 
HETATM   29  C10 UNL     1     -11.578 -10.540   3.986  1.00  0.00     0.252 C 
HETATM   30  N4  UNL     1     -11.138 -11.911   4.056  1.00  0.00    -0.072 N 
HETATM   31  C11 UNL     1     -11.847 -12.665   5.072  1.00  0.00     0.252 C 
ATOM     32  H42 UNL     1     -11.204 -12.367   3.146  1.00  0.00     0.277 HD
ATOM     33  H41 UNL     1     -10.128 -11.968   4.192  1.00  0.00     0.277 HD
HETATM   34  C12 UNL     1     -12.748 -11.795   5.910  1.00  0.00     0.150 C 
ENDBRANCH  22  27
BRANCH  26  35
HETATM   35  N5  UNL     1     -18.980 -10.102   6.598  1.00  0.00    -0.113 N 
HETATM   36  O2  UNL     1     -19.415  -9.854   7.699  1.00  0.00    -0.532 OA
HETATM   37  O3  UNL     1     -19.901 -10.291   5.571  1.00  0.00    -0.532 OA
ENDBRANCH  26  35
ENDBRANCH   1  20
TORSDOF 8
ENDMDL
MODEL 3
REMARK VINA RESULT: -7.574672107      2.965      3.691
REMARK  8 active torsions:
REMARK  status: ('A' for Active; 'I' for Inactive)
REMARK    1  A    between atoms: C1_4  and  C2_5 
REMARK    2  A    between atoms: C2_5  and  O1_6 
REMARK    3  A    between atoms: O1_6  and  C3_7 
REMARK    4  A    between atoms: C5_9  and  N2_10 
REMARK    5  A    between atoms: N2_10  and  C6_12 
REMARK    6  A    between atoms: C8_14  and  N3_15 
REMARK    7  A    between atoms: C15_26  and  N5_27 
REMARK    8  A    between atoms: C16_30  and  N6_31 
ROOT
HETATM    1  N2  UNL     1     -16.484  -8.495   8.570  1.00  0.00    -0.352 N 
ATOM      2  H2  UNL     1     -15.872  -7.694   8.414  1.00  0.00     0.166 HD
ENDROOT
BRANCH   1   3
HETATM    3  C5  UNL     1     -17.138  -8.494   9.802  1.00  0.00     0.075 A 
HETATM    4  C4  UNL     1     -18.342  -9.088  10.048  1.00  0.00     0.088 A 
HETATM    5  C3  UNL     1     -18.937  -9.121  11.317  1.00  0.00     0.147 A 
HETATM    6  N7  UNL     1     -18.319  -8.552  12.358  1.00  0.00    -0.302 N 
HETATM    7  C17 UNL     1     -17.135  -7.967  12.127  1.00  0.00     0.282 A 
ATOM      8  H7  UNL     1     -18.731  -8.564  13.290  1.00  0.00     0.171 HD
HETATM    9  C16 UNL     1     -16.514  -7.908  10.907  1.00  0.00     0.197 A 
HETATM   10  O6  UNL     1     -16.544  -7.427  13.115  1.00  0.00    -0.265 OA
BRANCH   5  11
HETATM   11  O1  UNL     1     -20.161  -9.732  11.532  1.00  0.00    -0.331 OA
BRANCH  11  12
HETATM   12  C2  UNL     1     -20.845  -9.589  12.777  1.00  0.00     0.221 C 
BRANCH  12  13
HETATM   13  C1  UNL     1     -22.158 -10.236  12.641  1.00  0.00     0.079 C 
HETATM   14  N1  UNL     1     -22.369 -11.466  12.412  1.00  0.00    -0.409 N 
ATOM     15  H12 UNL     1     -21.537 -12.047  12.315  1.00  0.00     0.155 HD
ATOM     16  H11 UNL     1     -23.280 -11.915  12.318  1.00  0.00     0.155 HD
ENDBRANCH  12  13
ENDBRANCH  11  12
ENDBRANCH   5  11
BRANCH   9  17
HETATM   17  N6  UNL     1     -15.250  -7.261  10.774  1.00  0.00    -0.107 N 
HETATM   18  O4  UNL     1     -15.086  -6.150  10.236  1.00  0.00    -0.531 OA
HETATM   19  O5  UNL     1     -14.144  -7.903  11.269  1.00  0.00    -0.531 OA
ENDBRANCH   9  17
ENDBRANCH   1   3
BRANCH   1  20
HETATM   20  C6  UNL     1     -16.526  -9.414   7.509  1.00  0.00     0.068 A 
HETATM   21  C7  UNL     1     -17.621  -9.460   6.645  1.00  0.00     0.063 A 
HETATM   22  C8  UNL     1     -17.698 -10.302   5.549  1.00  0.00     0.054 A 
HETATM   23  C13 UNL     1     -16.626 -11.121   5.325  1.00  0.00     0.063 A 
HETATM   24 CL1  UNL     1     -16.625 -12.235   3.941  1.00  0.00    -0.082 Cl
HETATM   25  C14 UNL     1     -15.516 -11.141   6.115  1.00  0.00     0.064 A 
HETATM   26  C15 UNL     1     -15.475 -10.262   7.232  1.00  0.00     0.131 A 
BRANCH  22  27
HETATM   27  N3  UNL     1     -18.819 -10.337   4.691  1.00  0.00    -0.376 N 
HETATM   28  C9  UNL     1     -18.906  -9.625   3.429  1.00  0.00     0.150 C 
HETATM   29  C10 UNL     1     -19.950 -10.362   2.575  1.00  0.00     0.252 C 
HETATM   30  N4  UNL     1     -21.235 -10.101   3.174  1.00  0.00    -0.072 N 
HETATM   31  C11 UNL     1     -21.265 -10.442   4.583  1.00  0.00     0.252 C 
ATOM     32  H42 UNL     1     -21.523  -9.134   3.023  1.00  0.00     0.277 HD
ATOM     33  H41 UNL     1     -21.982 -10.573   2.664  1.00  0.00     0.277 HD
HETATM   34  C12 UNL     1     -20.006 -11.136   5.034  1.00  0.00     0.150 C 
ENDBRANCH  22  27
BRANCH  26  35
HETATM   35  N5  UNL     1     -14.307 -10.371   8.019  1.00  0.00    -0.113 N 
HETATM   36  O2  UNL     1     -13.895 -11.398   8.506  1.00  0.00    -0.532 OA
HETATM   37  O3  UNL     1     -13.597  -9.203   8.288  1.00  0.00    -0.532 OA
ENDBRANCH  26  35
ENDBRANCH   1  20
TORSDOF 8
ENDMDL
MODEL 4
REMARK VINA RESULT: -7.542242799      3.247      4.145
REMARK  8 active torsions:
REMARK  status: ('A' for Active; 'I' for Inactive)
REMARK    1  A    between atoms: C1_4  and  C2_5 
REMARK    2  A    between atoms: C2_5  and  O1_6 
REMARK    3  A    between atoms: O1_6  and  C3_7 
REMARK    4  A    between atoms: C5_9  and  N2_10 
REMARK    5  A    between atoms: N2_10  and  C6_12 
REMARK    6  A    between atoms: C8_14  and  N3_15 
REMARK    7  A    between atoms: C15_26  and  N5_27 
REMARK    8  A    between atoms: C16_30  and  N6_31 
ROOT
HETATM    1  N2  UNL     1     -15.991  -8.264   6.665  1.00  0.00    -0.352 N 
ATOM      2  H2  UNL     1     -15.682  -7.504   6.059  1.00  0.00     0.166 HD
ENDROOT
BRANCH   1   3
HETATM    3  C5  UNL     1     -16.049  -7.939   8.019  1.00  0.00     0.075 A 
HETATM    4  C4  UNL     1     -16.659  -8.694   8.979  1.00  0.00     0.088 A 
HETATM    5  C3  UNL     1     -16.639  -8.367  10.342  1.00  0.00     0.147 A 
HETATM    6  N7  UNL     1     -15.998  -7.268  10.754  1.00  0.00    -0.302 N 
HETATM    7  C17 UNL     1     -15.394  -6.519   9.820  1.00  0.00     0.282 A 
ATOM      8  H7  UNL     1     -15.970  -7.009  11.740  1.00  0.00     0.171 HD
HETATM    9  C16 UNL     1     -15.386  -6.797   8.477  1.00  0.00     0.197 A 
HETATM   10  O6  UNL     1     -14.782  -5.474  10.209  1.00  0.00    -0.265 OA
BRANCH   5  11
HETATM   11  O1  UNL     1     -17.270  -9.154  11.290  1.00  0.00    -0.331 OA
BRANCH  11  12
HETATM   12  C2  UNL     1     -17.609  -8.631  12.573  1.00  0.00     0.221 C 
BRANCH  12  13
HETATM   13  C1  UNL     1     -19.067  -8.744  12.731  1.00  0.00     0.079 C 
HETATM   14  N1  UNL     1     -19.809  -7.977  13.417  1.00  0.00    -0.409 N 
ATOM     15  H12 UNL     1     -19.334  -7.215  13.899  1.00  0.00     0.155 HD
ATOM     16  H11 UNL     1     -20.821  -8.056  13.527  1.00  0.00     0.155 HD
ENDBRANCH  12  13
ENDBRANCH  11  12
ENDBRANCH   5  11
BRANCH   9  17
HETATM   17  N6  UNL     1     -14.708  -5.932   7.569  1.00  0.00    -0.107 N 
HETATM   18  O4  UNL     1     -13.568  -6.145   7.118  1.00  0.00    -0.531 OA
HETATM   19  O5  UNL     1     -15.354  -4.791   7.166  1.00  0.00    -0.531 OA
ENDBRANCH   9  17
ENDBRANCH   1   3
BRANCH   1  20
HETATM   20  C6  UNL     1     -16.286  -9.462   5.994  1.00  0.00     0.068 A 
HETATM   21  C7  UNL     1     -17.488  -9.618   5.301  1.00  0.00     0.063 A 
HETATM   22  C8  UNL     1     -17.813 -10.750   4.574  1.00  0.00     0.054 A 
HETATM   23  C13 UNL     1     -16.884 -11.754   4.552  1.00  0.00     0.063 A 
HETATM   24 CL1  UNL     1     -17.205 -13.248   3.643  1.00  0.00    -0.082 Cl
HETATM   25  C14 UNL     1     -15.686 -11.687   5.197  1.00  0.00     0.064 A 
HETATM   26  C15 UNL     1     -15.390 -10.508   5.934  1.00  0.00     0.131 A 
BRANCH  22  27
HETATM   27  N3  UNL     1     -19.037 -10.889   3.885  1.00  0.00    -0.376 N 
HETATM   28  C9  UNL     1     -19.212 -10.629   2.468  1.00  0.00     0.150 C 
HETATM   29  C10 UNL     1     -20.443 -11.432   2.018  1.00  0.00     0.252 C 
HETATM   30  N4  UNL     1     -21.594 -10.789   2.602  1.00  0.00    -0.072 N 
HETATM   31  C11 UNL     1     -21.470 -10.637   4.039  1.00  0.00     0.252 C 
ATOM     32  H42 UNL     1     -21.784  -9.893   2.152  1.00  0.00     0.277 HD
ATOM     33  H41 UNL     1     -22.454 -11.279   2.355  1.00  0.00     0.277 HD
HETATM   34  C12 UNL     1     -20.251 -11.332   4.587  1.00  0.00     0.150 C 
ENDBRANCH  22  27
BRANCH  26  35
HETATM   35  N5  UNL     1     -14.145 -10.534   6.602  1.00  0.00    -0.113 N 
HETATM   36  O2  UNL     1     -13.819 -11.359   7.423  1.00  0.00    -0.532 OA
HETATM   37  O3  UNL     1     -13.241  -9.511   6.325  1.00  0.00    -0.532 OA
ENDBRANCH  26  35
ENDBRANCH   1  20
TORSDOF 8
ENDMDL
MODEL 5
REMARK VINA RESULT: -7.537389114      2.669      3.373
REMARK  8 active torsions:
REMARK  status: ('A' for Active; 'I' for Inactive)
REMARK    1  A    between atoms: C1_4  and  C2_5 
REMARK    2  A    between atoms: C2_5  and  O1_6 
REMARK    3  A    between atoms: O1_6  and  C3_7 
REMARK    4  A    between atoms: C5_9  and  N2_10 
REMARK    5  A    between atoms: N2_10  and  C6_12 
REMARK    6  A    between atoms: C8_14  and  N3_15 
REMARK    7  A    between atoms: C15_26  and  N5_27 
REMARK    8  A    between atoms: C16_30  and  N6_31 
ROOT
HETATM    1  N2  UNL     1     -15.843  -8.058   8.117  1.00  0.00    -0.352 N 
ATOM      2  H2  UNL     1     -15.988  -7.182   7.615  1.00  0.00     0.166 HD
ENDROOT
BRANCH   1   3
HETATM    3  C5  UNL     1     -16.608  -8.196   9.275  1.00  0.00     0.075 A 
HETATM    4  C4  UNL     1     -17.799  -8.857   9.351  1.00  0.00     0.088 A 
HETATM    5  C3  UNL     1     -18.507  -9.031  10.549  1.00  0.00     0.147 A 
HETATM    6  N7  UNL     1     -18.015  -8.537  11.690  1.00  0.00    -0.302 N 
HETATM    7  C17 UNL     1     -16.845  -7.886  11.628  1.00  0.00     0.282 A 
ATOM      8  H7  UNL     1     -18.512  -8.650  12.574  1.00  0.00     0.171 HD
HETATM    9  C16 UNL     1     -16.117  -7.690  10.482  1.00  0.00     0.197 A 
HETATM   10  O6  UNL     1     -16.375  -7.416  12.712  1.00  0.00    -0.265 OA
BRANCH   5  11
HETATM   11  O1  UNL     1     -19.714  -9.707  10.590  1.00  0.00    -0.331 OA
BRANCH  11  12
HETATM   12  C2  UNL     1     -20.505  -9.727  11.778  1.00  0.00     0.221 C 
BRANCH  12  13
HETATM   13  C1  UNL     1     -21.533 -10.765  11.613  1.00  0.00     0.079 C 
HETATM   14  N1  UNL     1     -22.289 -11.224  12.523  1.00  0.00    -0.409 N 
ATOM     15  H12 UNL     1     -22.157 -10.825  13.452  1.00  0.00     0.155 HD
ATOM     16  H11 UNL     1     -23.002 -11.945  12.408  1.00  0.00     0.155 HD
ENDBRANCH  12  13
ENDBRANCH  11  12
ENDBRANCH   5  11
BRANCH   9  17
HETATM   17  N6  UNL     1     -14.879  -6.984  10.530  1.00  0.00    -0.107 N 
HETATM   18  O4  UNL     1     -13.822  -7.455  10.985  1.00  0.00    -0.531 OA
HETATM   19  O5  UNL     1     -14.853  -5.702  10.043  1.00  0.00    -0.531 OA
ENDBRANCH   9  17
ENDBRANCH   1   3
BRANCH   1  20
HETATM   20  C6  UNL     1     -14.907  -8.922   7.527  1.00  0.00     0.068 A 
HETATM   21  C7  UNL     1     -13.768  -9.328   8.224  1.00  0.00     0.063 A 
HETATM   22  C8  UNL     1     -12.839 -10.222   7.721  1.00  0.00     0.054 A 
HETATM   23  C13 UNL     1     -13.078 -10.719   6.469  1.00  0.00     0.063 A 
HETATM   24 CL1  UNL     1     -11.947 -11.877   5.735  1.00  0.00    -0.082 Cl
HETATM   25  C14 UNL     1     -14.164 -10.380   5.719  1.00  0.00     0.064 A 
HETATM   26  C15 UNL     1     -15.095  -9.458   6.271  1.00  0.00     0.131 A 
BRANCH  22  27
HETATM   27  N3  UNL     1     -11.689 -10.614   8.441  1.00  0.00    -0.376 N 
HETATM   28  C9  UNL     1     -10.489  -9.807   8.570  1.00  0.00     0.150 C 
HETATM   29  C10 UNL     1      -9.771 -10.281   9.842  1.00  0.00     0.252 C 
HETATM   30  N4  UNL     1      -9.240 -11.591   9.556  1.00  0.00    -0.072 N 
HETATM   31  C11 UNL     1     -10.258 -12.502   9.068  1.00  0.00     0.252 C 
ATOM     32  H42 UNL     1      -8.454 -11.537   8.908  1.00  0.00     0.277 HD
ATOM     33  H41 UNL     1      -8.756 -11.978  10.366  1.00  0.00     0.277 HD
HETATM   34  C12 UNL     1     -11.642 -11.909   9.136  1.00  0.00     0.150 C 
ENDBRANCH  22  27
BRANCH  26  35
HETATM   35  N5  UNL     1     -16.172  -9.133   5.416  1.00  0.00    -0.113 N 
HETATM   36  O2  UNL     1     -17.335  -9.359   5.655  1.00  0.00    -0.532 OA
HETATM   37  O3  UNL     1     -15.871  -8.543   4.190  1.00  0.00    -0.532 OA
ENDBRANCH  26  35
ENDBRANCH   1  20
TORSDOF 8
ENDMDL
