MODEL 1
REMARK VINA RESULT: -6.789313661      0.000      0.000
REMARK  11 active torsions:
REMARK  status: ('A' for Active; 'I' for Inactive)
REMARK    1  A    between atoms: O1_2  and  C2_3 
REMARK    2  A    between atoms: C4_5  and  N1_6 
REMARK       I    between atoms: N1_6  and  C5_8 
REMARK       I    between atoms: C5_8  and  N2_10 
REMARK    3  A    between atoms: N2_10  and  C6_11 
REMARK    4  A    between atoms: C7_12  and  S1_13 
REMARK    5  A    between atoms: S1_13  and  C8_14 
REMARK    6  A    between atoms: C8_14  and  C9_15 
REMARK    7  A    between atoms: C9_15  and  O4_17 
REMARK    8  A    between atoms: O4_17  and  C10_18 
REMARK    9  A    between atoms: C11_24  and  N4_25 
REMARK   10  A    between atoms: C13_29  and  O7_30 
REMARK   11  A    between atoms: C15_32  and  O8_33 
ROOT
HETATM    1  C6  UNL     1     -17.460  -8.790  10.881  1.00  0.00     0.200 A 
HETATM    2  C7  UNL     1     -16.315  -8.314  11.578  1.00  0.00     0.180 A 
HETATM    3  O6  UNL     1     -16.679  -7.855  12.734  1.00  0.00    -0.226 OA
HETATM    4  N3  UNL     1     -17.950  -7.969  12.880  1.00  0.00    -0.241 N 
ATOM      5  H3  UNL     1     -18.467  -7.674  13.708  1.00  0.00     0.196 HD
HETATM    6  C11 UNL     1     -18.499  -8.526  11.802  1.00  0.00     0.164 A 
ENDROOT
BRANCH   1   7
HETATM    7  N2  UNL     1     -17.534  -9.353   9.683  1.00  0.00    -0.344 NA
HETATM    8  C5  UNL     1     -17.612  -9.934   8.470  1.00  0.00     0.399 C 
HETATM    9  N1  UNL     1     -17.372  -9.237   7.203  1.00  0.00    -0.297 N 
HETATM   10  O2  UNL     1     -17.915 -11.177   8.285  1.00  0.00    -0.230 OA
ATOM     11  H1  UNL     1     -17.113  -8.251   7.166  1.00  0.00     0.172 HD
BRANCH   9  12
HETATM   12  C4  UNL     1     -17.527 -10.035   6.016  1.00  0.00     0.043 A 
HETATM   13  C3  UNL     1     -16.461 -10.732   5.461  1.00  0.00     0.069 A 
HETATM   14  C2  UNL     1     -16.615 -11.430   4.255  1.00  0.00     0.106 A 
HETATM   15  C15 UNL     1     -17.824 -11.450   3.589  1.00  0.00     0.135 A 
HETATM   16  C13 UNL     1     -18.889 -10.761   4.141  1.00  0.00     0.106 A 
HETATM   17  C12 UNL     1     -18.732 -10.068   5.334  1.00  0.00     0.069 A 
BRANCH  14  18
HETATM   18  O1  UNL     1     -15.580 -12.131   3.668  1.00  0.00    -0.353 OA
HETATM   19  C1  UNL     1     -14.241 -11.835   4.127  1.00  0.00     0.210 C 
ENDBRANCH  14  18
BRANCH  15  20
HETATM   20  O8  UNL     1     -17.944 -12.163   2.381  1.00  0.00    -0.351 OA
HETATM   21  C16 UNL     1     -18.340 -13.541   2.393  1.00  0.00     0.210 C 
ENDBRANCH  15  20
BRANCH  16  22
HETATM   22  O7  UNL     1     -20.069 -10.799   3.472  1.00  0.00    -0.353 OA
HETATM   23  C14 UNL     1     -20.835  -9.695   3.137  1.00  0.00     0.210 C 
ENDBRANCH  16  22
ENDBRANCH   9  12
ENDBRANCH   1   7
BRANCH   2  24
HETATM   24  S1  UNL     1     -14.682  -8.379  10.868  1.00  0.00    -0.089 SA
BRANCH  24  25
HETATM   25  C8  UNL     1     -14.117  -6.754  10.458  1.00  0.00     0.193 C 
BRANCH  25  26
HETATM   26  C9  UNL     1     -15.012  -6.111   9.444  1.00  0.00     0.277 C 
HETATM   27  O3  UNL     1     -15.374  -4.925   9.527  1.00  0.00    -0.264 OA
BRANCH  26  28
HETATM   28  O4  UNL     1     -15.458  -6.875   8.354  1.00  0.00    -0.217 OA
BRANCH  28  29
HETATM   29  C10 UNL     1     -14.737  -6.855   7.177  1.00  0.00     0.452 C 
HETATM   30  O5  UNL     1     -15.039  -7.554   6.164  1.00  0.00    -0.224 OA
HETATM   31  F1  UNL     1     -13.643  -6.022   7.118  1.00  0.00    -0.135 F 
ENDBRANCH  28  29
ENDBRANCH  26  28
ENDBRANCH  25  26
ENDBRANCH  24  25
ENDBRANCH   2  24
BRANCH   6  32
HETATM   32  N4  UNL     1     -19.730  -8.835  11.537  1.00  0.00    -0.381 N 
ATOM     33  H42 UNL     1     -20.327  -8.586  10.749  1.00  0.00     0.157 HD
ATOM     34  H41 UNL     1     -20.282  -9.410  12.173  1.00  0.00     0.157 HD
ENDBRANCH   6  32
TORSDOF 11
ENDMDL
MODEL 2
REMARK VINA RESULT: -6.712551474      0.218      2.349
REMARK  11 active torsions:
REMARK  status: ('A' for Active; 'I' for Inactive)
REMARK    1  A    between atoms: O1_2  and  C2_3 
REMARK    2  A    between atoms: C4_5  and  N1_6 
REMARK       I    between atoms: N1_6  and  C5_8 
REMARK       I    between atoms: C5_8  and  N2_10 
REMARK    3  A    between atoms: N2_10  and  C6_11 
REMARK    4  A    between atoms: C7_12  and  S1_13 
REMARK    5  A    between atoms: S1_13  and  C8_14 
REMARK    6  A    between atoms: C8_14  and  C9_15 
REMARK    7  A    between atoms: C9_15  and  O4_17 
REMARK    8  A    between atoms: O4_17  and  C10_18 
REMARK    9  A    between atoms: C11_24  and  N4_25 
REMARK   10  A    between atoms: C13_29  and  O7_30 
REMARK   11  A    between atoms: C15_32  and  O8_33 
ROOT
HETATM    1  C6  UNL     1     -17.397  -8.800  10.743  1.00  0.00     0.200 A 
HETATM    2  C7  UNL     1     -16.252  -8.354  11.459  1.00  0.00     0.180 A 
HETATM    3  O6  UNL     1     -16.618  -7.925  12.626  1.00  0.00    -0.226 OA
HETATM    4  N3  UNL     1     -17.891  -8.033  12.762  1.00  0.00    -0.241 N 
ATOM      5  H3  UNL     1     -18.410  -7.759  13.596  1.00  0.00     0.196 HD
HETATM    6  C11 UNL     1     -18.438  -8.555  11.666  1.00  0.00     0.164 A 
ENDROOT
BRANCH   1   7
HETATM    7  N2  UNL     1     -17.469  -9.327   9.529  1.00  0.00    -0.344 NA
HETATM    8  C5  UNL     1     -17.545  -9.873   8.299  1.00  0.00     0.399 C 
HETATM    9  N1  UNL     1     -17.217  -9.163   7.059  1.00  0.00    -0.297 N 
HETATM   10  O2  UNL     1     -17.926 -11.087   8.072  1.00  0.00    -0.230 OA
ATOM     11  H1  UNL     1     -16.890  -8.197   7.056  1.00  0.00     0.172 HD
BRANCH   9  12
HETATM   12  C4  UNL     1     -17.385  -9.920   5.847  1.00  0.00     0.043 A 
HETATM   13  C3  UNL     1     -18.606  -9.977   5.186  1.00  0.00     0.069 A 
HETATM   14  C2  UNL     1     -18.769 -10.793   4.057  1.00  0.00     0.106 A 
HETATM   15  C15 UNL     1     -17.726 -11.553   3.567  1.00  0.00     0.135 A 
HETATM   16  C13 UNL     1     -16.508 -11.495   4.220  1.00  0.00     0.106 A 
HETATM   17  C12 UNL     1     -16.351 -10.688   5.340  1.00  0.00     0.069 A 
BRANCH  14  18
HETATM   18  O1  UNL     1     -19.966 -10.882   3.375  1.00  0.00    -0.353 OA
HETATM   19  C1  UNL     1     -20.712  -9.656   3.193  1.00  0.00     0.210 C 
ENDBRANCH  14  18
BRANCH  15  20
HETATM   20  O8  UNL     1     -17.924 -12.359   2.429  1.00  0.00    -0.351 OA
HETATM   21  C16 UNL     1     -18.298 -13.735   2.577  1.00  0.00     0.210 C 
ENDBRANCH  15  20
BRANCH  16  22
HETATM   22  O7  UNL     1     -15.495 -12.246   3.717  1.00  0.00    -0.353 OA
HETATM   23  C14 UNL     1     -14.146 -11.963   3.852  1.00  0.00     0.210 C 
ENDBRANCH  16  22
ENDBRANCH   9  12
ENDBRANCH   1   7
BRANCH   2  24
HETATM   24  S1  UNL     1     -14.615  -8.411  10.756  1.00  0.00    -0.089 SA
BRANCH  24  25
HETATM   25  C8  UNL     1     -14.046  -6.781  10.373  1.00  0.00     0.193 C 
BRANCH  25  26
HETATM   26  C9  UNL     1     -14.997  -6.078   9.453  1.00  0.00     0.277 C 
HETATM   27  O3  UNL     1     -15.400  -4.921   9.664  1.00  0.00    -0.264 OA
BRANCH  26  28
HETATM   28  O4  UNL     1     -15.450  -6.749   8.306  1.00  0.00    -0.217 OA
BRANCH  28  29
HETATM   29  C10 UNL     1     -14.648  -6.780   7.183  1.00  0.00     0.452 C 
HETATM   30  O5  UNL     1     -14.581  -7.777   6.404  1.00  0.00    -0.224 OA
HETATM   31  F1  UNL     1     -13.899  -5.660   6.908  1.00  0.00    -0.135 F 
ENDBRANCH  28  29
ENDBRANCH  26  28
ENDBRANCH  25  26
ENDBRANCH  24  25
ENDBRANCH   2  24
BRANCH   6  32
HETATM   32  N4  UNL     1     -19.670  -8.846  11.385  1.00  0.00    -0.381 N 
ATOM     33  H42 UNL     1     -20.119  -9.071  10.498  1.00  0.00     0.157 HD
ATOM     34  H41 UNL     1     -20.389  -8.865  12.109  1.00  0.00     0.157 HD
ENDBRANCH   6  32
TORSDOF 11
ENDMDL
MODEL 3
REMARK VINA RESULT: -6.610462100      2.144      2.806
REMARK  11 active torsions:
REMARK  status: ('A' for Active; 'I' for Inactive)
REMARK    1  A    between atoms: O1_2  and  C2_3 
REMARK    2  A    between atoms: C4_5  and  N1_6 
REMARK       I    between atoms: N1_6  and  C5_8 
REMARK       I    between atoms: C5_8  and  N2_10 
REMARK    3  A    between atoms: N2_10  and  C6_11 
REMARK    4  A    between atoms: C7_12  and  S1_13 
REMARK    5  A    between atoms: S1_13  and  C8_14 
REMARK    6  A    between atoms: C8_14  and  C9_15 
REMARK    7  A    between atoms: C9_15  and  O4_17 
REMARK    8  A    between atoms: O4_17  and  C10_18 
REMARK    9  A    between atoms: C11_24  and  N4_25 
REMARK   10  A    between atoms: C13_29  and  O7_30 
REMARK   11  A    between atoms: C15_32  and  O8_33 
ROOT
HETATM    1  C6  UNL     1     -17.210  -9.472   9.427  1.00  0.00     0.200 A 
HETATM    2  C7  UNL     1     -15.833  -9.488   9.780  1.00  0.00     0.180 A 
HETATM    3  O6  UNL     1     -15.694  -9.023  10.981  1.00  0.00    -0.226 OA
HETATM    4  N3  UNL     1     -16.836  -8.691  11.467  1.00  0.00    -0.241 N 
ATOM      5  H3  UNL     1     -16.980  -8.299  12.397  1.00  0.00     0.196 HD
HETATM    6  C11 UNL     1     -17.808  -8.931  10.588  1.00  0.00     0.164 A 
ENDROOT
BRANCH   1   7
HETATM    7  N2  UNL     1     -17.789  -9.875   8.304  1.00  0.00    -0.344 NA
HETATM    8  C5  UNL     1     -18.379 -10.295   7.168  1.00  0.00     0.399 C 
HETATM    9  N1  UNL     1     -18.491  -9.489   5.949  1.00  0.00    -0.297 N 
HETATM   10  O2  UNL     1     -18.923 -11.459   7.027  1.00  0.00    -0.230 OA
ATOM     11  H1  UNL     1     -18.108  -8.546   5.883  1.00  0.00     0.172 HD
BRANCH   9  12
HETATM   12  C4  UNL     1     -19.178 -10.115   4.851  1.00  0.00     0.043 A 
HETATM   13  C3  UNL     1     -18.500 -10.561   3.724  1.00  0.00     0.069 A 
HETATM   14  C2  UNL     1     -19.201 -11.086   2.629  1.00  0.00     0.106 A 
HETATM   15  C15 UNL     1     -20.577 -11.182   2.641  1.00  0.00     0.135 A 
HETATM   16  C13 UNL     1     -21.257 -10.744   3.764  1.00  0.00     0.106 A 
HETATM   17  C12 UNL     1     -20.559 -10.221   4.845  1.00  0.00     0.069 A 
BRANCH  14  18
HETATM   18  O1  UNL     1     -18.564 -11.535   1.489  1.00  0.00    -0.353 OA
HETATM   19  C1  UNL     1     -17.886 -12.809   1.572  1.00  0.00     0.210 C 
ENDBRANCH  14  18
BRANCH  15  20
HETATM   20  O8  UNL     1     -21.250 -11.717   1.525  1.00  0.00    -0.351 OA
HETATM   21  C16 UNL     1     -21.573 -13.113   1.480  1.00  0.00     0.210 C 
ENDBRANCH  15  20
BRANCH  16  22
HETATM   22  O7  UNL     1     -22.610 -10.853   3.755  1.00  0.00    -0.353 OA
HETATM   23  C14 UNL     1     -23.358 -11.584   4.663  1.00  0.00     0.210 C 
ENDBRANCH  16  22
ENDBRANCH   9  12
ENDBRANCH   1   7
BRANCH   2  24
HETATM   24  S1  UNL     1     -14.576 -10.070   8.659  1.00  0.00    -0.089 SA
BRANCH  24  25
HETATM   25  C8  UNL     1     -13.797  -8.711   7.838  1.00  0.00     0.193 C 
BRANCH  25  26
HETATM   26  C9  UNL     1     -14.718  -8.086   6.835  1.00  0.00     0.277 C 
HETATM   27  O3  UNL     1     -14.871  -6.856   6.742  1.00  0.00    -0.264 OA
BRANCH  26  28
HETATM   28  O4  UNL     1     -15.435  -8.919   5.963  1.00  0.00    -0.217 OA
BRANCH  28  29
HETATM   29  C10 UNL     1     -15.312  -8.734   4.600  1.00  0.00     0.452 C 
HETATM   30  O5  UNL     1     -14.367  -9.224   3.914  1.00  0.00    -0.224 OA
HETATM   31  F1  UNL     1     -16.279  -7.982   3.973  1.00  0.00    -0.135 F 
ENDBRANCH  28  29
ENDBRANCH  26  28
ENDBRANCH  25  26
ENDBRANCH  24  25
ENDBRANCH   2  24
BRANCH   6  32
HETATM   32  N4  UNL     1     -19.091  -8.762  10.669  1.00  0.00    -0.381 N 
ATOM     33  H42 UNL     1     -19.797  -8.640   9.944  1.00  0.00     0.157 HD
ATOM     34  H41 UNL     1     -19.563  -8.717  11.572  1.00  0.00     0.157 HD
ENDBRANCH   6  32
TORSDOF 11
ENDMDL
MODEL 4
REMARK VINA RESULT: -6.537106145      2.906      4.665
REMARK  11 active torsions:
REMARK  status: ('A' for Active; 'I' for Inactive)
REMARK    1  A    between atoms: O1_2  and  C2_3 
REMARK    2  A    between atoms: C4_5  and  N1_6 
REMARK       I    between atoms: N1_6  and  C5_8 
REMARK       I    between atoms: C5_8  and  N2_10 
REMARK    3  A    between atoms: N2_10  and  C6_11 
REMARK    4  A    between atoms: C7_12  and  S1_13 
REMARK    5  A    between atoms: S1_13  and  C8_14 
REMARK    6  A    between atoms: C8_14  and  C9_15 
REMARK    7  A    between atoms: C9_15  and  O4_17 
REMARK    8  A    between atoms: O4_17  and  C10_18 
REMARK    9  A    between atoms: C11_24  and  N4_25 
REMARK   10  A    between atoms: C13_29  and  O7_30 
REMARK   11  A    between atoms: C15_32  and  O8_33 
ROOT
HETATM    1  C6  UNL     1     -15.563  -7.232   8.530  1.00  0.00     0.200 A 
HETATM    2  C7  UNL     1     -15.430  -7.348   9.941  1.00  0.00     0.180 A 
HETATM    3  O6  UNL     1     -15.118  -6.192  10.437  1.00  0.00    -0.226 OA
HETATM    4  N3  UNL     1     -15.024  -5.316   9.503  1.00  0.00    -0.241 N 
ATOM      5  H3  UNL     1     -14.787  -4.335   9.649  1.00  0.00     0.196 HD
HETATM    6  C11 UNL     1     -15.278  -5.864   8.316  1.00  0.00     0.164 A 
ENDROOT
BRANCH   1   7
HETATM    7  N2  UNL     1     -15.888  -8.162   7.643  1.00  0.00    -0.344 NA
HETATM    8  C5  UNL     1     -16.208  -9.109   6.739  1.00  0.00     0.399 C 
HETATM    9  N1  UNL     1     -17.577  -9.541   6.446  1.00  0.00    -0.297 N 
HETATM   10  O2  UNL     1     -15.338  -9.752   6.032  1.00  0.00    -0.230 OA
ATOM     11  H1  UNL     1     -18.388  -9.131   6.909  1.00  0.00     0.172 HD
BRANCH   9  12
HETATM   12  C4  UNL     1     -17.702 -10.583   5.461  1.00  0.00     0.043 A 
HETATM   13  C3  UNL     1     -18.055 -10.306   4.146  1.00  0.00     0.069 A 
HETATM   14  C2  UNL     1     -18.258 -11.345   3.227  1.00  0.00     0.106 A 
HETATM   15  C15 UNL     1     -18.107 -12.667   3.597  1.00  0.00     0.135 A 
HETATM   16  C13 UNL     1     -17.751 -12.946   4.904  1.00  0.00     0.106 A 
HETATM   17  C12 UNL     1     -17.554 -11.914   5.812  1.00  0.00     0.069 A 
BRANCH  14  18
HETATM   18  O1  UNL     1     -18.615 -11.113   1.913  1.00  0.00    -0.353 OA
HETATM   19  C1  UNL     1     -19.950 -10.615   1.672  1.00  0.00     0.210 C 
ENDBRANCH  14  18
BRANCH  15  20
HETATM   20  O8  UNL     1     -18.316 -13.686   2.648  1.00  0.00    -0.351 OA
HETATM   21  C16 UNL     1     -19.608 -14.295   2.516  1.00  0.00     0.210 C 
ENDBRANCH  15  20
BRANCH  16  22
HETATM   22  O7  UNL     1     -17.602 -14.252   5.243  1.00  0.00    -0.353 OA
HETATM   23  C14 UNL     1     -18.460 -14.968   6.061  1.00  0.00     0.210 C 
ENDBRANCH  16  22
ENDBRANCH   9  12
ENDBRANCH   1   7
BRANCH   2  24
HETATM   24  S1  UNL     1     -15.666  -8.897  10.789  1.00  0.00    -0.089 SA
BRANCH  24  25
HETATM   25  C8  UNL     1     -17.270  -8.961  11.533  1.00  0.00     0.193 C 
BRANCH  25  26
HETATM   26  C9  UNL     1     -17.377  -7.993  12.670  1.00  0.00     0.277 C 
HETATM   27  O3  UNL     1     -16.396  -7.371  13.115  1.00  0.00    -0.264 OA
BRANCH  26  28
HETATM   28  O4  UNL     1     -18.633  -7.774  13.258  1.00  0.00    -0.217 OA
BRANCH  28  29
HETATM   29  C10 UNL     1     -19.235  -8.798  13.960  1.00  0.00     0.452 C 
HETATM   30  O5  UNL     1     -20.341  -9.316  13.624  1.00  0.00    -0.224 OA
HETATM   31  F1  UNL     1     -18.583  -9.272  15.075  1.00  0.00    -0.135 F 
ENDBRANCH  28  29
ENDBRANCH  26  28
ENDBRANCH  25  26
ENDBRANCH  24  25
ENDBRANCH   2  24
BRANCH   6  32
HETATM   32  N4  UNL     1     -15.308  -5.347   7.128  1.00  0.00    -0.381 N 
ATOM     33  H42 UNL     1     -15.968  -4.701   6.695  1.00  0.00     0.157 HD
ATOM     34  H41 UNL     1     -14.599  -5.577   6.431  1.00  0.00     0.157 HD
ENDBRANCH   6  32
TORSDOF 11
ENDMDL
MODEL 5
REMARK VINA RESULT: -6.504068921      4.308      7.945
REMARK  11 active torsions:
REMARK  status: ('A' for Active; 'I' for Inactive)
REMARK    1  A    between atoms: O1_2  and  C2_3 
REMARK    2  A    between atoms: C4_5  and  N1_6 
REMARK       I    between atoms: N1_6  and  C5_8 
REMARK       I    between atoms: C5_8  and  N2_10 
REMARK    3  A    between atoms: N2_10  and  C6_11 
REMARK    4  A    between atoms: C7_12  and  S1_13 
REMARK    5  A    between atoms: S1_13  and  C8_14 
REMARK    6  A    between atoms: C8_14  and  C9_15 
REMARK    7  A    between atoms: C9_15  and  O4_17 
REMARK    8  A    between atoms: O4_17  and  C10_18 
REMARK    9  A    between atoms: C11_24  and  N4_25 
REMARK   10  A    between atoms: C13_29  and  O7_30 
REMARK   11  A    between atoms: C15_32  and  O8_33 
ROOT
HETATM    1  C6  UNL     1     -19.648 -10.751   3.544  1.00  0.00     0.200 A 
HETATM    2  C7  UNL     1     -20.175 -12.054   3.326  1.00  0.00     0.180 A 
HETATM    3  O6  UNL     1     -21.334 -11.955   2.754  1.00  0.00    -0.226 OA
HETATM    4  N3  UNL     1     -21.639 -10.721   2.572  1.00  0.00    -0.241 N 
ATOM      5  H3  UNL     1     -22.503 -10.394   2.141  1.00  0.00     0.196 HD
HETATM    6  C11 UNL     1     -20.670  -9.926   3.024  1.00  0.00     0.164 A 
ENDROOT
BRANCH   1   7
HETATM    7  N2  UNL     1     -18.489 -10.399   4.082  1.00  0.00    -0.344 NA
HETATM    8  C5  UNL     1     -17.311 -10.050   4.636  1.00  0.00     0.399 C 
HETATM    9  N1  UNL     1     -16.448  -8.977   4.134  1.00  0.00    -0.297 N 
HETATM   10  O2  UNL     1     -16.804 -10.630   5.674  1.00  0.00    -0.230 OA
ATOM     11  H1  UNL     1     -16.700  -8.410   3.325  1.00  0.00     0.172 HD
BRANCH   9  12
HETATM   12  C4  UNL     1     -15.220  -8.777   4.858  1.00  0.00     0.043 A 
HETATM   13  C3  UNL     1     -14.050  -9.438   4.507  1.00  0.00     0.069 A 
HETATM   14  C2  UNL     1     -12.890  -9.296   5.282  1.00  0.00     0.106 A 
HETATM   15  C15 UNL     1     -12.874  -8.494   6.405  1.00  0.00     0.135 A 
HETATM   16  C13 UNL     1     -14.036  -7.829   6.754  1.00  0.00     0.106 A 
HETATM   17  C12 UNL     1     -15.184  -7.976   5.987  1.00  0.00     0.069 A 
BRANCH  14  18
HETATM   18  O1  UNL     1     -11.708  -9.940   4.971  1.00  0.00    -0.353 OA
HETATM   19  C1  UNL     1     -11.304  -9.937   3.583  1.00  0.00     0.210 C 
ENDBRANCH  14  18
BRANCH  15  20
HETATM   20  O8  UNL     1     -11.691  -8.371   7.159  1.00  0.00    -0.351 OA
HETATM   21  C16 UNL     1     -11.445  -9.252   8.263  1.00  0.00     0.210 C 
ENDBRANCH  15  20
BRANCH  16  22
HETATM   22  O7  UNL     1     -13.995  -7.042   7.859  1.00  0.00    -0.353 OA
HETATM   23  C14 UNL     1     -14.989  -6.160   8.250  1.00  0.00     0.210 C 
ENDBRANCH  16  22
ENDBRANCH   9  12
ENDBRANCH   1   7
BRANCH   2  24
HETATM   24  S1  UNL     1     -19.295 -13.524   3.815  1.00  0.00    -0.089 SA
BRANCH  24  25
HETATM   25  C8  UNL     1     -18.308 -14.131   2.479  1.00  0.00     0.193 C 
BRANCH  25  26
HETATM   26  C9  UNL     1     -17.358 -13.082   1.990  1.00  0.00     0.277 C 
HETATM   27  O3  UNL     1     -17.596 -12.374   0.996  1.00  0.00    -0.264 OA
BRANCH  26  28
HETATM   28  O4  UNL     1     -16.151 -12.885   2.680  1.00  0.00    -0.217 OA
BRANCH  28  29
HETATM   29  C10 UNL     1     -14.961 -13.211   2.062  1.00  0.00     0.452 C 
HETATM   30  O5  UNL     1     -14.041 -12.369   1.835  1.00  0.00    -0.224 OA
HETATM   31  F1  UNL     1     -14.779 -14.522   1.688  1.00  0.00    -0.135 F 
ENDBRANCH  28  29
ENDBRANCH  26  28
ENDBRANCH  25  26
ENDBRANCH  24  25
ENDBRANCH   2  24
BRANCH   6  32
HETATM   32  N4  UNL     1     -20.561  -8.634   3.026  1.00  0.00    -0.381 N 
ATOM     33  H42 UNL     1     -20.330  -7.980   2.279  1.00  0.00     0.157 HD
ATOM     34  H41 UNL     1     -20.697  -8.092   3.880  1.00  0.00     0.157 HD
ENDBRANCH   6  32
TORSDOF 11
ENDMDL
