MODEL 1
REMARK VINA RESULT: -7.757150899      0.000      0.000
REMARK  5 active torsions:
REMARK  status: ('A' for Active; 'I' for Inactive)
REMARK    1  A    between atoms: O1_1  and  C1_3 
REMARK    2  A    between atoms: C1_3  and  C2_4 
REMARK    3  A    between atoms: C1_3  and  N2_15 
REMARK    4  A    between atoms: N3_18  and  S1_19 
REMARK    5  A    between atoms: S1_19  and  N4_22 
ROOT
HETATM    1  N2  UNL     1     -16.234  -6.047  13.695  1.00  0.00    -0.358 N 
HETATM    2  C10 UNL     1     -14.897  -5.679  13.385  1.00  0.00     0.145 C 
HETATM    3  C11 UNL     1     -13.948  -6.902  13.335  1.00  0.00     0.156 C 
HETATM    4  N3  UNL     1     -14.067  -7.701  14.483  1.00  0.00    -0.295 N 
HETATM    5  C16 UNL     1     -15.384  -8.059  14.849  1.00  0.00     0.156 C 
HETATM    6  C17 UNL     1     -16.411  -7.529  13.862  1.00  0.00     0.145 C 
ENDROOT
BRANCH   1   7
HETATM    7  C1  UNL     1     -17.357  -5.283  13.861  1.00  0.00     0.153 C 
BRANCH   7   8
HETATM    8  O1  UNL     1     -17.282  -4.467  14.909  1.00  0.00    -0.345 OA
ATOM      9  H1  UNL     1     -17.106  -4.946  15.710  1.00  0.00     0.219 HD
ENDBRANCH   7   8
BRANCH   7  10
HETATM   10  C2  UNL     1     -18.619  -5.142  13.171  1.00  0.00     0.079 A 
HETATM   11  C3  UNL     1     -19.832  -4.709  13.647  1.00  0.00     0.203 A 
HETATM   12  F1  UNL     1     -20.250  -4.283  14.857  1.00  0.00    -0.185 F 
HETATM   13  N1  UNL     1     -20.731  -4.752  12.626  1.00  0.00    -0.335 N 
HETATM   14  C4  UNL     1     -20.143  -5.194  11.519  1.00  0.00     0.019 A 
ATOM     15  H1  UNL     1     -21.713  -4.485  12.700  1.00  0.00     0.168 HD
HETATM   16  C5  UNL     1     -18.832  -5.450  11.799  1.00  0.00    -0.016 A 
HETATM   17  C9  UNL     1     -20.650  -5.446  10.127  1.00  0.00     0.057 C 
HETATM   18  C6  UNL     1     -17.892  -5.947  10.779  1.00  0.00     0.042 C 
HETATM   19  C7  UNL     1     -18.387  -5.941   9.385  1.00  0.00     0.005 C 
HETATM   20  C8  UNL     1     -19.582  -5.036   9.175  1.00  0.00     0.006 C 
ENDBRANCH   7  10
ENDBRANCH   1   7
BRANCH   4  21
HETATM   21  S1  UNL     1     -12.772  -8.589  15.045  1.00  0.00     0.300 S 
HETATM   22  O2  UNL     1     -12.301  -8.144  16.432  1.00  0.00    -0.188 OA
HETATM   23  O3  UNL     1     -13.222 -10.031  15.224  1.00  0.00    -0.188 OA
BRANCH  21  24
HETATM   24  N4  UNL     1     -11.401  -8.492  14.045  1.00  0.00    -0.193 NA
HETATM   25  C12 UNL     1     -10.521  -7.399  14.274  1.00  0.00     0.109 C 
HETATM   26  C13 UNL     1      -9.227  -7.815  13.588  1.00  0.00     0.017 C 
HETATM   27  C14 UNL     1      -9.478  -9.193  13.019  1.00  0.00     0.017 C 
HETATM   28  C15 UNL     1     -10.656  -9.686  13.868  1.00  0.00     0.109 C 
ENDBRANCH  21  24
ENDBRANCH   4  21
TORSDOF 5
ENDMDL
MODEL 2
REMARK VINA RESULT: -7.615375143      2.272      3.159
REMARK  5 active torsions:
REMARK  status: ('A' for Active; 'I' for Inactive)
REMARK    1  A    between atoms: O1_1  and  C1_3 
REMARK    2  A    between atoms: C1_3  and  C2_4 
REMARK    3  A    between atoms: C1_3  and  N2_15 
REMARK    4  A    between atoms: N3_18  and  S1_19 
REMARK    5  A    between atoms: S1_19  and  N4_22 
ROOT
HETATM    1  N2  UNL     1     -16.881  -6.842  13.228  1.00  0.00    -0.358 N 
HETATM    2  C10 UNL     1     -17.294  -8.134  13.650  1.00  0.00     0.145 C 
HETATM    3  C11 UNL     1     -16.444  -8.666  14.830  1.00  0.00     0.156 C 
HETATM    4  N3  UNL     1     -15.069  -8.564  14.568  1.00  0.00    -0.295 N 
HETATM    5  C16 UNL     1     -14.622  -7.305  14.110  1.00  0.00     0.156 C 
HETATM    6  C17 UNL     1     -15.751  -6.290  14.048  1.00  0.00     0.145 C 
ENDROOT
BRANCH   1   7
HETATM    7  C1  UNL     1     -17.341  -6.041  12.217  1.00  0.00     0.153 C 
BRANCH   7   8
HETATM    8  O1  UNL     1     -16.369  -5.390  11.586  1.00  0.00    -0.345 OA
ATOM      9  H1  UNL     1     -16.013  -4.691  12.121  1.00  0.00     0.219 HD
ENDBRANCH   7   8
BRANCH   7  10
HETATM   10  C2  UNL     1     -18.636  -5.725  11.661  1.00  0.00     0.079 A 
HETATM   11  C3  UNL     1     -19.183  -6.091  10.456  1.00  0.00     0.203 A 
HETATM   12  F1  UNL     1     -18.731  -6.834   9.424  1.00  0.00    -0.185 F 
HETATM   13  N1  UNL     1     -20.430  -5.550  10.371  1.00  0.00    -0.335 N 
HETATM   14  C4  UNL     1     -20.702  -4.856  11.470  1.00  0.00     0.019 A 
ATOM     15  H1  UNL     1     -21.062  -5.662   9.578  1.00  0.00     0.168 HD
HETATM   16  C5  UNL     1     -19.625  -4.932  12.306  1.00  0.00    -0.016 A 
HETATM   17  C9  UNL     1     -21.900  -4.059  11.902  1.00  0.00     0.057 C 
HETATM   18  C6  UNL     1     -19.604  -4.273  13.625  1.00  0.00     0.042 C 
HETATM   19  C7  UNL     1     -20.893  -3.716  14.090  1.00  0.00     0.005 C 
HETATM   20  C8  UNL     1     -22.092  -4.284  13.360  1.00  0.00     0.006 C 
ENDBRANCH   7  10
ENDBRANCH   1   7
BRANCH   4  21
HETATM   21  S1  UNL     1     -13.989  -9.642  15.243  1.00  0.00     0.300 S 
HETATM   22  O2  UNL     1     -14.626 -10.532  16.314  1.00  0.00    -0.188 OA
HETATM   23  O3  UNL     1     -13.528 -10.601  14.155  1.00  0.00    -0.188 OA
BRANCH  21  24
HETATM   24  N4  UNL     1     -12.667  -8.891  16.001  1.00  0.00    -0.193 NA
HETATM   25  C12 UNL     1     -12.469  -9.187  17.378  1.00  0.00     0.109 C 
HETATM   26  C13 UNL     1     -11.029  -8.768  17.643  1.00  0.00     0.017 C 
HETATM   27  C14 UNL     1     -10.487  -8.268  16.323  1.00  0.00     0.017 C 
HETATM   28  C15 UNL     1     -11.428  -8.934  15.312  1.00  0.00     0.109 C 
ENDBRANCH  21  24
ENDBRANCH   4  21
TORSDOF 5
ENDMDL
MODEL 3
REMARK VINA RESULT: -7.569803297      1.108      1.497
REMARK  5 active torsions:
REMARK  status: ('A' for Active; 'I' for Inactive)
REMARK    1  A    between atoms: O1_1  and  C1_3 
REMARK    2  A    between atoms: C1_3  and  C2_4 
REMARK    3  A    between atoms: C1_3  and  N2_15 
REMARK    4  A    between atoms: N3_18  and  S1_19 
REMARK    5  A    between atoms: S1_19  and  N4_22 
ROOT
HETATM    1  N2  UNL     1     -16.463  -6.287  13.730  1.00  0.00    -0.358 N 
HETATM    2  C10 UNL     1     -15.061  -6.096  13.611  1.00  0.00     0.145 C 
HETATM    3  C11 UNL     1     -14.289  -7.437  13.540  1.00  0.00     0.156 C 
HETATM    4  N3  UNL     1     -14.660  -8.307  14.578  1.00  0.00    -0.295 N 
HETATM    5  C16 UNL     1     -16.049  -8.496  14.754  1.00  0.00     0.156 C 
HETATM    6  C17 UNL     1     -16.861  -7.735  13.719  1.00  0.00     0.145 C 
ENDROOT
BRANCH   1   7
HETATM    7  C1  UNL     1     -17.484  -5.382  13.848  1.00  0.00     0.153 C 
BRANCH   7   8
HETATM    8  O1  UNL     1     -17.288  -4.502  14.825  1.00  0.00    -0.345 OA
ATOM      9  H1  UNL     1     -17.388  -3.610  14.516  1.00  0.00     0.219 HD
ENDBRANCH   7   8
BRANCH   7  10
HETATM   10  C2  UNL     1     -18.734  -5.144  13.165  1.00  0.00     0.079 A 
HETATM   11  C3  UNL     1     -19.911  -4.631  13.650  1.00  0.00     0.203 A 
HETATM   12  F1  UNL     1     -20.295  -4.189  14.866  1.00  0.00    -0.185 F 
HETATM   13  N1  UNL     1     -20.815  -4.599  12.632  1.00  0.00    -0.335 N 
HETATM   14  C4  UNL     1     -20.264  -5.069  11.519  1.00  0.00     0.019 A 
ATOM     15  H1  UNL     1     -21.775  -4.263  12.714  1.00  0.00     0.168 HD
HETATM   16  C5  UNL     1     -18.973  -5.421  11.790  1.00  0.00    -0.016 A 
HETATM   17  C9  UNL     1     -20.793  -5.270  10.127  1.00  0.00     0.057 C 
HETATM   18  C6  UNL     1     -18.075  -5.974  10.761  1.00  0.00     0.042 C 
HETATM   19  C7  UNL     1     -18.573  -5.917   9.369  1.00  0.00     0.005 C 
HETATM   20  C8  UNL     1     -19.702  -4.927   9.174  1.00  0.00     0.006 C 
ENDBRANCH   7  10
ENDBRANCH   1   7
BRANCH   4  21
HETATM   21  S1  UNL     1     -13.579  -9.423  15.185  1.00  0.00     0.300 S 
HETATM   22  O2  UNL     1     -14.151 -10.233  16.351  1.00  0.00    -0.188 OA
HETATM   23  O3  UNL     1     -13.289 -10.447  14.098  1.00  0.00    -0.188 OA
BRANCH  21  24
HETATM   24  N4  UNL     1     -12.145  -8.726  15.772  1.00  0.00    -0.193 NA
HETATM   25  C12 UNL     1     -11.090  -8.553  14.835  1.00  0.00     0.109 C 
HETATM   26  C13 UNL     1     -10.168  -7.540  15.498  1.00  0.00     0.017 C 
HETATM   27  C14 UNL     1     -10.819  -7.177  16.814  1.00  0.00     0.017 C 
HETATM   28  C15 UNL     1     -12.283  -7.560  16.568  1.00  0.00     0.109 C 
ENDBRANCH  21  24
ENDBRANCH   4  21
TORSDOF 5
ENDMDL
MODEL 4
REMARK VINA RESULT: -7.525847818      2.092      3.000
REMARK  5 active torsions:
REMARK  status: ('A' for Active; 'I' for Inactive)
REMARK    1  A    between atoms: O1_1  and  C1_3 
REMARK    2  A    between atoms: C1_3  and  C2_4 
REMARK    3  A    between atoms: C1_3  and  N2_15 
REMARK    4  A    between atoms: N3_18  and  S1_19 
REMARK    5  A    between atoms: S1_19  and  N4_22 
ROOT
HETATM    1  N2  UNL     1     -16.283  -6.625  13.545  1.00  0.00    -0.358 N 
HETATM    2  C10 UNL     1     -14.871  -6.473  13.502  1.00  0.00     0.145 C 
HETATM    3  C11 UNL     1     -14.130  -7.817  13.712  1.00  0.00     0.156 C 
HETATM    4  N3  UNL     1     -14.596  -8.497  14.849  1.00  0.00    -0.295 N 
HETATM    5  C16 UNL     1     -15.998  -8.636  14.949  1.00  0.00     0.156 C 
HETATM    6  C17 UNL     1     -16.715  -8.049  13.744  1.00  0.00     0.145 C 
ENDROOT
BRANCH   1   7
HETATM    7  C1  UNL     1     -17.286  -5.700  13.435  1.00  0.00     0.153 C 
BRANCH   7   8
HETATM    8  O1  UNL     1     -17.287  -4.812  14.425  1.00  0.00    -0.345 OA
ATOM      9  H1  UNL     1     -17.677  -5.171  15.213  1.00  0.00     0.219 HD
ENDBRANCH   7   8
BRANCH   7  10
HETATM   10  C2  UNL     1     -18.357  -5.448  12.498  1.00  0.00     0.079 A 
HETATM   11  C3  UNL     1     -18.457  -5.793  11.173  1.00  0.00     0.203 A 
HETATM   12  F1  UNL     1     -17.640  -6.454  10.326  1.00  0.00    -0.185 F 
HETATM   13  N1  UNL     1     -19.650  -5.336  10.701  1.00  0.00    -0.335 N 
HETATM   14  C4  UNL     1     -20.314  -4.715  11.670  1.00  0.00     0.019 A 
ATOM     15  H1  UNL     1     -19.984  -5.453   9.745  1.00  0.00     0.168 HD
HETATM   16  C5  UNL     1     -19.560  -4.755  12.807  1.00  0.00    -0.016 A 
HETATM   17  C9  UNL     1     -21.647  -4.023  11.708  1.00  0.00     0.057 C 
HETATM   18  C6  UNL     1     -20.016  -4.160  14.075  1.00  0.00     0.042 C 
HETATM   19  C7  UNL     1     -21.426  -3.715  14.112  1.00  0.00     0.005 C 
HETATM   20  C8  UNL     1     -22.278  -4.329  13.022  1.00  0.00     0.006 C 
ENDBRANCH   7  10
ENDBRANCH   1   7
BRANCH   4  21
HETATM   21  S1  UNL     1     -13.589  -9.509  15.711  1.00  0.00     0.300 S 
HETATM   22  O2  UNL     1     -14.350 -10.444  16.654  1.00  0.00    -0.188 OA
HETATM   23  O3  UNL     1     -12.881 -10.430  14.729  1.00  0.00    -0.188 OA
BRANCH  21  24
HETATM   24  N4  UNL     1     -12.475  -8.681  16.691  1.00  0.00    -0.193 NA
HETATM   25  C12 UNL     1     -11.221  -8.360  16.100  1.00  0.00     0.109 C 
HETATM   26  C13 UNL     1     -10.651  -7.277  17.005  1.00  0.00     0.017 C 
HETATM   27  C14 UNL     1     -11.691  -7.035  18.076  1.00  0.00     0.017 C 
HETATM   28  C15 UNL     1     -12.968  -7.566  17.416  1.00  0.00     0.109 C 
ENDBRANCH  21  24
ENDBRANCH   4  21
TORSDOF 5
ENDMDL
MODEL 5
REMARK VINA RESULT: -7.525352413      5.368      8.556
REMARK  5 active torsions:
REMARK  status: ('A' for Active; 'I' for Inactive)
REMARK    1  A    between atoms: O1_1  and  C1_3 
REMARK    2  A    between atoms: C1_3  and  C2_4 
REMARK    3  A    between atoms: C1_3  and  N2_15 
REMARK    4  A    between atoms: N3_18  and  S1_19 
REMARK    5  A    between atoms: S1_19  and  N4_22 
ROOT
HETATM    1  N2  UNL     1     -19.988  -2.943  14.469  1.00  0.00    -0.358 N 
HETATM    2  C10 UNL     1     -19.206  -1.999  15.187  1.00  0.00     0.145 C 
HETATM    3  C11 UNL     1     -19.885  -0.609  15.259  1.00  0.00     0.156 C 
HETATM    4  N3  UNL     1     -20.295  -0.163  13.992  1.00  0.00    -0.295 N 
HETATM    5  C16 UNL     1     -21.044  -1.087  13.229  1.00  0.00     0.156 C 
HETATM    6  C17 UNL     1     -21.294  -2.379  13.988  1.00  0.00     0.145 C 
ENDROOT
BRANCH   1   7
HETATM    7  C1  UNL     1     -19.744  -4.254  14.156  1.00  0.00     0.153 C 
BRANCH   7   8
HETATM    8  O1  UNL     1     -20.354  -5.106  14.973  1.00  0.00    -0.345 OA
ATOM      9  H1  UNL     1     -20.387  -5.981  14.604  1.00  0.00     0.219 HD
ENDBRANCH   7   8
BRANCH   7  10
HETATM   10  C2  UNL     1     -18.979  -4.946  13.144  1.00  0.00     0.079 A 
HETATM   11  C3  UNL     1     -17.707  -5.458  13.209  1.00  0.00     0.203 A 
HETATM   12  F1  UNL     1     -16.775  -5.497  14.184  1.00  0.00    -0.185 F 
HETATM   13  N1  UNL     1     -17.410  -6.018  12.004  1.00  0.00    -0.335 N 
HETATM   14  C4  UNL     1     -18.439  -5.885  11.174  1.00  0.00     0.019 A 
ATOM     15  H1  UNL     1     -16.527  -6.472  11.772  1.00  0.00     0.168 HD
HETATM   16  C5  UNL     1     -19.441  -5.228  11.829  1.00  0.00    -0.016 A 
HETATM   17  C9  UNL     1     -18.656  -6.297   9.746  1.00  0.00     0.057 C 
HETATM   18  C6  UNL     1     -20.734  -4.926  11.189  1.00  0.00     0.042 C 
HETATM   19  C7  UNL     1     -20.973  -5.568   9.879  1.00  0.00     0.005 C 
HETATM   20  C8  UNL     1     -20.067  -6.752   9.614  1.00  0.00     0.006 C 
ENDBRANCH   7  10
ENDBRANCH   1   7
BRANCH   4  21
HETATM   21  S1  UNL     1     -20.365   1.466  13.641  1.00  0.00     0.300 S 
HETATM   22  O2  UNL     1     -21.712   1.890  13.049  1.00  0.00    -0.188 OA
HETATM   23  O3  UNL     1     -20.244   2.242  14.944  1.00  0.00    -0.188 OA
BRANCH  21  24
HETATM   24  N4  UNL     1     -19.194   1.966  12.516  1.00  0.00    -0.193 NA
HETATM   25  C12 UNL     1     -17.846   1.611  12.798  1.00  0.00     0.109 C 
HETATM   26  C13 UNL     1     -17.133   1.774  11.463  1.00  0.00     0.017 C 
HETATM   27  C14 UNL     1     -18.191   2.204  10.471  1.00  0.00     0.017 C 
HETATM   28  C15 UNL     1     -19.482   1.729  11.147  1.00  0.00     0.109 C 
ENDBRANCH  21  24
ENDBRANCH   4  21
TORSDOF 5
ENDMDL
