MODEL 1
REMARK VINA RESULT: -6.492347558      0.000      0.000
REMARK  6 active torsions:
REMARK  status: ('A' for Active; 'I' for Inactive)
REMARK    1  A    between atoms: C4_8  and  C5_9 
REMARK    2  A    between atoms: C5_9  and  C6_10 
REMARK    3  A    between atoms: C7_11  and  O2_12 
REMARK    4  A    between atoms: N2_17  and  C10_18 
REMARK    5  A    between atoms: C10_18  and  C11_19 
REMARK    6  A    between atoms: C12_20  and  C13_21 
ROOT
HETATM    1  C6  UNL     1     -18.120  -5.368  12.211  1.00  0.00     0.086 A 
HETATM    2  C7  UNL     1     -18.860  -4.788  13.221  1.00  0.00     0.112 A 
HETATM    3  C8  UNL     1     -20.197  -4.439  13.059  1.00  0.00     0.063 A 
HETATM    4 BR1  UNL     1     -21.163  -3.650  14.470  1.00  0.00    -0.046 Br
HETATM    5  C9  UNL     1     -20.745  -4.713  11.808  1.00  0.00     0.133 A 
HETATM    6  N2  UNL     1     -20.010  -5.278  10.837  1.00  0.00    -0.289 N 
HETATM    7  N3  UNL     1     -18.741  -5.599  11.017  1.00  0.00    -0.291 N 
HETATM    8  C15 UNL     1     -17.941  -6.206   9.969  1.00  0.00     0.178 C 
ENDROOT
BRANCH   1   9
HETATM    9  C5  UNL     1     -16.721  -5.706  12.447  1.00  0.00     0.051 C 
BRANCH   9  10
HETATM   10  C4  UNL     1     -16.267  -6.476  13.397  1.00  0.00     0.041 A 
HETATM   11  C2  UNL     1     -16.817  -7.723  13.711  1.00  0.00     0.059 A 
HETATM   12  C1  UNL     1     -17.840  -8.302  13.125  1.00  0.00     0.046 C 
HETATM   13  N1  UNL     1     -16.085  -8.207  14.733  1.00  0.00    -0.260 N 
HETATM   14  O1  UNL     1     -15.152  -7.366  15.057  1.00  0.00    -0.225 OA
ATOM     15  H1  UNL     1     -16.243  -9.106  15.188  1.00  0.00     0.195 HD
HETATM   16  C3  UNL     1     -15.225  -6.294  14.267  1.00  0.00     0.177 A 
HETATM   17  S1  UNL     1     -14.261  -4.982  14.302  1.00  0.00    -0.049 SA
ENDBRANCH   9  10
ENDBRANCH   1   9
BRANCH   2  18
HETATM   18  O2  UNL     1     -18.210  -4.557  14.440  1.00  0.00    -0.357 OA
ATOM     19  H2  UNL     1     -17.596  -5.216  14.737  1.00  0.00     0.217 HD
ENDBRANCH   2  18
BRANCH   6  20
HETATM   20  C10 UNL     1     -20.615  -5.547   9.550  1.00  0.00     0.242 C 
BRANCH  20  21
HETATM   21  C11 UNL     1     -20.582  -6.992   9.252  1.00  0.00    -0.085 C 
HETATM   22  C12 UNL     1     -20.538  -8.173   9.013  1.00  0.00    -0.105 C 
BRANCH  22  23
HETATM   23  C13 UNL     1     -20.459  -9.610   8.718  1.00  0.00     0.089 C 
HETATM   24  C14 UNL     1     -19.200 -10.213   9.266  1.00  0.00     0.018 C 
ENDBRANCH  22  23
ENDBRANCH  20  21
ENDBRANCH   6  20
TORSDOF 6
ENDMDL
MODEL 2
REMARK VINA RESULT: -6.473588075      3.424      5.163
REMARK  6 active torsions:
REMARK  status: ('A' for Active; 'I' for Inactive)
REMARK    1  A    between atoms: C4_8  and  C5_9 
REMARK    2  A    between atoms: C5_9  and  C6_10 
REMARK    3  A    between atoms: C7_11  and  O2_12 
REMARK    4  A    between atoms: N2_17  and  C10_18 
REMARK    5  A    between atoms: C10_18  and  C11_19 
REMARK    6  A    between atoms: C12_20  and  C13_21 
ROOT
HETATM    1  C6  UNL     1     -14.453  -7.644  14.331  1.00  0.00     0.086 A 
HETATM    2  C7  UNL     1     -13.750  -6.475  14.534  1.00  0.00     0.112 A 
HETATM    3  C8  UNL     1     -14.342  -5.220  14.423  1.00  0.00     0.063 A 
HETATM    4 BR1  UNL     1     -13.337  -3.653  14.710  1.00  0.00    -0.046 Br
HETATM    5  C9  UNL     1     -15.695  -5.219  14.094  1.00  0.00     0.133 A 
HETATM    6  N2  UNL     1     -16.364  -6.367  13.900  1.00  0.00    -0.289 N 
HETATM    7  N3  UNL     1     -15.776  -7.546  14.011  1.00  0.00    -0.291 N 
HETATM    8  C15 UNL     1     -16.494  -8.789  13.799  1.00  0.00     0.178 C 
ENDROOT
BRANCH   1   9
HETATM    9  C5  UNL     1     -13.770  -8.926  14.460  1.00  0.00     0.051 C 
BRANCH   9  10
HETATM   10  C4  UNL     1     -13.129  -9.352  15.514  1.00  0.00     0.041 A 
HETATM   11  C2  UNL     1     -13.740  -9.589  16.748  1.00  0.00     0.059 A 
HETATM   12  C1  UNL     1     -15.011  -9.428  17.041  1.00  0.00     0.046 C 
HETATM   13  N1  UNL     1     -12.764 -10.013  17.573  1.00  0.00    -0.260 N 
HETATM   14  O1  UNL     1     -11.629 -10.052  16.946  1.00  0.00    -0.225 OA
ATOM     15  H1  UNL     1     -12.899 -10.268  18.552  1.00  0.00     0.195 HD
HETATM   16  C3  UNL     1     -11.804  -9.656  15.685  1.00  0.00     0.177 A 
HETATM   17  S1  UNL     1     -10.666  -9.543  14.525  1.00  0.00    -0.049 SA
ENDBRANCH   9  10
ENDBRANCH   1   9
BRANCH   2  18
HETATM   18  O2  UNL     1     -12.393  -6.590  14.861  1.00  0.00    -0.357 OA
ATOM     19  H2  UNL     1     -11.958  -5.814  15.192  1.00  0.00     0.217 HD
ENDBRANCH   2  18
BRANCH   6  20
HETATM   20  C10 UNL     1     -17.770  -6.324  13.559  1.00  0.00     0.242 C 
BRANCH  20  21
HETATM   21  C11 UNL     1     -17.949  -5.987  12.133  1.00  0.00    -0.085 C 
HETATM   22  C12 UNL     1     -18.110  -5.722  10.968  1.00  0.00    -0.105 C 
BRANCH  22  23
HETATM   23  C13 UNL     1     -18.319  -5.422   9.546  1.00  0.00     0.089 C 
HETATM   24  C14 UNL     1     -19.722  -5.734   9.120  1.00  0.00     0.018 C 
ENDBRANCH  22  23
ENDBRANCH  20  21
ENDBRANCH   6  20
TORSDOF 6
ENDMDL
MODEL 3
REMARK VINA RESULT: -6.364766892      3.485      5.273
REMARK  6 active torsions:
REMARK  status: ('A' for Active; 'I' for Inactive)
REMARK    1  A    between atoms: C4_8  and  C5_9 
REMARK    2  A    between atoms: C5_9  and  C6_10 
REMARK    3  A    between atoms: C7_11  and  O2_12 
REMARK    4  A    between atoms: N2_17  and  C10_18 
REMARK    5  A    between atoms: C10_18  and  C11_19 
REMARK    6  A    between atoms: C12_20  and  C13_21 
ROOT
HETATM    1  C6  UNL     1     -14.415  -7.631  14.195  1.00  0.00     0.086 A 
HETATM    2  C7  UNL     1     -13.705  -6.472  14.433  1.00  0.00     0.112 A 
HETATM    3  C8  UNL     1     -14.298  -5.214  14.400  1.00  0.00     0.063 A 
HETATM    4 BR1  UNL     1     -13.284  -3.662  14.732  1.00  0.00    -0.046 Br
HETATM    5  C9  UNL     1     -15.661  -5.197  14.112  1.00  0.00     0.133 A 
HETATM    6  N2  UNL     1     -16.337  -6.335  13.884  1.00  0.00    -0.289 N 
HETATM    7  N3  UNL     1     -15.747  -7.517  13.920  1.00  0.00    -0.291 N 
HETATM    8  C15 UNL     1     -16.473  -8.749  13.670  1.00  0.00     0.178 C 
ENDROOT
BRANCH   1   9
HETATM    9  C5  UNL     1     -13.730  -8.917  14.242  1.00  0.00     0.051 C 
BRANCH   9  10
HETATM   10  C4  UNL     1     -13.054  -9.391  15.252  1.00  0.00     0.041 A 
HETATM   11  C2  UNL     1     -11.718  -9.795  15.168  1.00  0.00     0.059 A 
HETATM   12  C1  UNL     1     -10.953  -9.766  14.100  1.00  0.00     0.046 C 
HETATM   13  N1  UNL     1     -11.378 -10.219  16.400  1.00  0.00    -0.260 N 
HETATM   14  O1  UNL     1     -12.385 -10.105  17.210  1.00  0.00    -0.225 OA
ATOM     15  H1  UNL     1     -10.459 -10.579  16.659  1.00  0.00     0.195 HD
HETATM   16  C3  UNL     1     -13.430  -9.604  16.552  1.00  0.00     0.177 A 
HETATM   17  S1  UNL     1     -14.909  -9.286  17.156  1.00  0.00    -0.049 SA
ENDBRANCH   9  10
ENDBRANCH   1   9
BRANCH   2  18
HETATM   18  O2  UNL     1     -12.339  -6.603  14.713  1.00  0.00    -0.357 OA
ATOM     19  H2  UNL     1     -11.971  -6.018  15.365  1.00  0.00     0.217 HD
ENDBRANCH   2  18
BRANCH   6  20
HETATM   20  C10 UNL     1     -17.752  -6.276  13.587  1.00  0.00     0.242 C 
BRANCH  20  21
HETATM   21  C11 UNL     1     -17.972  -5.947  12.165  1.00  0.00    -0.085 C 
HETATM   22  C12 UNL     1     -18.166  -5.689  11.003  1.00  0.00    -0.105 C 
BRANCH  22  23
HETATM   23  C13 UNL     1     -18.414  -5.398   9.585  1.00  0.00     0.089 C 
HETATM   24  C14 UNL     1     -19.737  -5.943   9.138  1.00  0.00     0.018 C 
ENDBRANCH  22  23
ENDBRANCH  20  21
ENDBRANCH   6  20
TORSDOF 6
ENDMDL
MODEL 4
REMARK VINA RESULT: -6.321399969      4.926      8.392
REMARK  6 active torsions:
REMARK  status: ('A' for Active; 'I' for Inactive)
REMARK    1  A    between atoms: C4_8  and  C5_9 
REMARK    2  A    between atoms: C5_9  and  C6_10 
REMARK    3  A    between atoms: C7_11  and  O2_12 
REMARK    4  A    between atoms: N2_17  and  C10_18 
REMARK    5  A    between atoms: C10_18  and  C11_19 
REMARK    6  A    between atoms: C12_20  and  C13_21 
ROOT
HETATM    1  C6  UNL     1     -12.898  -7.210  14.540  1.00  0.00     0.086 A 
HETATM    2  C7  UNL     1     -13.287  -5.920  14.836  1.00  0.00     0.112 A 
HETATM    3  C8  UNL     1     -12.369  -4.898  15.061  1.00  0.00     0.063 A 
HETATM    4 BR1  UNL     1     -12.953  -3.153  15.462  1.00  0.00    -0.046 Br
HETATM    5  C9  UNL     1     -11.028  -5.259  14.967  1.00  0.00     0.133 A 
HETATM    6  N2  UNL     1     -10.667  -6.520  14.677  1.00  0.00    -0.289 N 
HETATM    7  N3  UNL     1     -11.559  -7.472  14.468  1.00  0.00    -0.291 N 
HETATM    8  C15 UNL     1     -11.174  -8.836  14.159  1.00  0.00     0.178 C 
ENDROOT
BRANCH   1   9
HETATM    9  C5  UNL     1     -13.911  -8.234  14.319  1.00  0.00     0.051 C 
BRANCH   9  10
HETATM   10  C4  UNL     1     -14.778  -8.658  15.196  1.00  0.00     0.041 A 
HETATM   11  C2  UNL     1     -16.157  -8.695  14.965  1.00  0.00     0.059 A 
HETATM   12  C1  UNL     1     -16.782  -8.325  13.870  1.00  0.00     0.046 C 
HETATM   13  N1  UNL     1     -16.711  -9.187  16.089  1.00  0.00    -0.260 N 
HETATM   14  O1  UNL     1     -15.793  -9.446  16.969  1.00  0.00    -0.225 OA
ATOM     15  H1  UNL     1     -17.710  -9.334  16.230  1.00  0.00     0.195 HD
HETATM   16  C3  UNL     1     -14.597  -9.139  16.466  1.00  0.00     0.177 A 
HETATM   17  S1  UNL     1     -13.153  -9.295  17.203  1.00  0.00    -0.049 SA
ENDBRANCH   9  10
ENDBRANCH   1   9
BRANCH   2  18
HETATM   18  O2  UNL     1     -14.661  -5.665  14.906  1.00  0.00    -0.357 OA
ATOM     19  H2  UNL     1     -14.933  -4.757  14.975  1.00  0.00     0.217 HD
ENDBRANCH   2  18
BRANCH   6  20
HETATM   20  C10 UNL     1      -9.262  -6.857  14.588  1.00  0.00     0.242 C 
BRANCH  20  21
HETATM   21  C11 UNL     1      -8.572  -5.962  13.638  1.00  0.00    -0.085 C 
HETATM   22  C12 UNL     1      -8.016  -5.216  12.870  1.00  0.00    -0.105 C 
BRANCH  22  23
HETATM   23  C13 UNL     1      -7.358  -4.292  11.938  1.00  0.00     0.089 C 
HETATM   24  C14 UNL     1      -7.937  -2.912  12.035  1.00  0.00     0.018 C 
ENDBRANCH  22  23
ENDBRANCH  20  21
ENDBRANCH   6  20
TORSDOF 6
ENDMDL
MODEL 5
REMARK VINA RESULT: -6.296030453      3.982      5.782
REMARK  6 active torsions:
REMARK  status: ('A' for Active; 'I' for Inactive)
REMARK    1  A    between atoms: C4_8  and  C5_9 
REMARK    2  A    between atoms: C5_9  and  C6_10 
REMARK    3  A    between atoms: C7_11  and  O2_12 
REMARK    4  A    between atoms: N2_17  and  C10_18 
REMARK    5  A    between atoms: C10_18  and  C11_19 
REMARK    6  A    between atoms: C12_20  and  C13_21 
ROOT
HETATM    1  C6  UNL     1     -14.582  -7.569  15.196  1.00  0.00     0.086 A 
HETATM    2  C7  UNL     1     -13.846  -6.410  15.323  1.00  0.00     0.112 A 
HETATM    3  C8  UNL     1     -14.169  -5.243  14.638  1.00  0.00     0.063 A 
HETATM    4 BR1  UNL     1     -13.130  -3.686  14.847  1.00  0.00    -0.046 Br
HETATM    5  C9  UNL     1     -15.287  -5.318  13.811  1.00  0.00     0.133 A 
HETATM    6  N2  UNL     1     -15.993  -6.455  13.699  1.00  0.00    -0.289 N 
HETATM    7  N3  UNL     1     -15.664  -7.550  14.362  1.00  0.00    -0.291 N 
HETATM    8  C15 UNL     1     -16.421  -8.782  14.241  1.00  0.00     0.178 C 
ENDROOT
BRANCH   1   9
HETATM    9  C5  UNL     1     -14.188  -8.759  15.940  1.00  0.00     0.051 C 
BRANCH   9  10
HETATM   10  C4  UNL     1     -13.032  -9.361  15.869  1.00  0.00     0.041 A 
HETATM   11  C2  UNL     1     -12.555  -9.984  14.712  1.00  0.00     0.059 A 
HETATM   12  C1  UNL     1     -13.166 -10.064  13.551  1.00  0.00     0.046 C 
HETATM   13  N1  UNL     1     -11.346 -10.485  15.029  1.00  0.00    -0.260 N 
HETATM   14  O1  UNL     1     -11.057 -10.218  16.265  1.00  0.00    -0.225 OA
ATOM     15  H1  UNL     1     -10.743 -11.000  14.388  1.00  0.00     0.195 HD
HETATM   16  C3  UNL     1     -12.060  -9.533  16.817  1.00  0.00     0.177 A 
HETATM   17  S1  UNL     1     -12.144  -8.982  18.347  1.00  0.00    -0.049 SA
ENDBRANCH   9  10
ENDBRANCH   1   9
BRANCH   2  18
HETATM   18  O2  UNL     1     -12.740  -6.444  16.181  1.00  0.00    -0.357 OA
ATOM     19  H2  UNL     1     -12.417  -5.613  16.507  1.00  0.00     0.217 HD
ENDBRANCH   2  18
BRANCH   6  20
HETATM   20  C10 UNL     1     -17.149  -6.493  12.830  1.00  0.00     0.242 C 
BRANCH  20  21
HETATM   21  C11 UNL     1     -18.198  -5.577  13.319  1.00  0.00    -0.085 C 
HETATM   22  C12 UNL     1     -19.067  -4.839  13.712  1.00  0.00    -0.105 C 
BRANCH  22  23
HETATM   23  C13 UNL     1     -20.141  -3.950  14.172  1.00  0.00     0.089 C 
HETATM   24  C14 UNL     1     -21.285  -3.925  13.203  1.00  0.00     0.018 C 
ENDBRANCH  22  23
ENDBRANCH  20  21
ENDBRANCH   6  20
TORSDOF 6
ENDMDL
