MODEL 1
REMARK VINA RESULT: -5.824712205      0.000      0.000
REMARK  3 active torsions:
REMARK  status: ('A' for Active; 'I' for Inactive)
REMARK    1  A    between atoms: C2_2  and  C3_3 
REMARK    2  A    between atoms: C3_3  and  O1_4 
REMARK       I    between atoms: N1_11  and  C9_12 
REMARK    3  A    between atoms: C9_12  and  C10_14 
REMARK       I    between atoms: N2_17  and  C12_18 
REMARK       I    between atoms: C12_18  and  N3_20 
ROOT
HETATM    1  C1  UNL     1     -15.125 -10.230  15.644  1.00  0.00     0.041 C 
HETATM    2  C2  UNL     1     -14.168  -9.223  14.998  1.00  0.00     0.057 C 
HETATM    3  C4  UNL     1     -13.171  -8.696  16.030  1.00  0.00     0.066 C 
HETATM    4  C5  UNL     1     -13.056  -7.261  15.767  1.00  0.00     0.054 C 
HETATM    5  C6  UNL     1     -11.778  -6.891  14.990  1.00  0.00     0.034 C 
HETATM    6  C7  UNL     1     -11.913  -5.382  14.972  1.00  0.00     0.022 C 
HETATM    7  C8  UNL     1     -12.777  -5.059  16.196  1.00  0.00     0.127 C 
HETATM    8  N1  UNL     1     -12.918  -6.366  16.870  1.00  0.00    -0.340 N 
HETATM    9  C9  UNL     1     -12.894  -6.502  18.276  1.00  0.00     0.230 C 
HETATM   10  O2  UNL     1     -13.006  -7.604  18.865  1.00  0.00    -0.273 OA
HETATM   11  C11 UNL     1     -14.228  -6.872  14.890  1.00  0.00     0.160 C 
HETATM   12  N2  UNL     1     -14.953  -8.092  14.593  1.00  0.00    -0.320 N 
HETATM   13  C12 UNL     1     -16.229  -8.110  13.997  1.00  0.00     0.321 C 
HETATM   14  O3  UNL     1     -16.783  -9.237  13.775  1.00  0.00    -0.247 OA
HETATM   15  N3  UNL     1     -16.954  -6.965  13.621  1.00  0.00    -0.334 N 
HETATM   16  C13 UNL     1     -16.820  -5.502  13.632  1.00  0.00     0.129 C 
HETATM   17  C14 UNL     1     -17.649  -5.508  12.340  1.00  0.00     0.040 C 
HETATM   18  C15 UNL     1     -18.267  -6.717  13.007  1.00  0.00     0.129 C 
ENDROOT
BRANCH   2  19
HETATM   19  C3  UNL     1     -13.492  -9.923  13.853  1.00  0.00     0.195 C 
BRANCH  19  20
HETATM   20  O1  UNL     1     -14.401 -10.086  12.810  1.00  0.00    -0.398 OA
ATOM     21  H1  UNL     1     -13.927 -10.215  11.997  1.00  0.00     0.209 HD
ENDBRANCH  19  20
ENDBRANCH   2  19
BRANCH   9  22
HETATM   22  C10 UNL     1     -12.729  -5.310  19.176  1.00  0.00     0.188 C 
HETATM   23 BR1  UNL     1     -14.354  -4.883  20.069  1.00  0.00    -0.087 Br
ENDBRANCH   9  22
TORSDOF 3
ENDMDL
MODEL 2
REMARK VINA RESULT: -5.221626903      1.612      2.088
REMARK  3 active torsions:
REMARK  status: ('A' for Active; 'I' for Inactive)
REMARK    1  A    between atoms: C2_2  and  C3_3 
REMARK    2  A    between atoms: C3_3  and  O1_4 
REMARK       I    between atoms: N1_11  and  C9_12 
REMARK    3  A    between atoms: C9_12  and  C10_14 
REMARK       I    between atoms: N2_17  and  C12_18 
REMARK       I    between atoms: C12_18  and  N3_20 
ROOT
HETATM    1  C1  UNL     1     -13.244  -8.625  15.881  1.00  0.00     0.041 C 
HETATM    2  C2  UNL     1     -12.926  -7.283  15.216  1.00  0.00     0.057 C 
HETATM    3  C4  UNL     1     -12.372  -6.296  16.244  1.00  0.00     0.066 C 
HETATM    4  C5  UNL     1     -13.005  -5.012  15.937  1.00  0.00     0.054 C 
HETATM    5  C6  UNL     1     -12.079  -4.053  15.165  1.00  0.00     0.034 C 
HETATM    6  C7  UNL     1     -12.972  -2.830  15.097  1.00  0.00     0.022 C 
HETATM    7  C8  UNL     1     -13.912  -2.973  16.299  1.00  0.00     0.127 C 
HETATM    8  N1  UNL     1     -13.378  -4.152  17.012  1.00  0.00    -0.340 N 
HETATM    9  C9  UNL     1     -13.326  -4.228  18.422  1.00  0.00     0.230 C 
HETATM   10  O2  UNL     1     -12.871  -5.217  19.044  1.00  0.00    -0.273 OA
HETATM   11  C11 UNL     1     -14.186  -5.302  15.033  1.00  0.00     0.160 C 
HETATM   12  N2  UNL     1     -14.170  -6.727  14.765  1.00  0.00    -0.320 N 
HETATM   13  C12 UNL     1     -15.236  -7.412  14.153  1.00  0.00     0.321 C 
HETATM   14  O3  UNL     1     -15.125  -8.668  13.960  1.00  0.00    -0.247 OA
HETATM   15  N3  UNL     1     -16.437  -6.813  13.731  1.00  0.00    -0.334 N 
HETATM   16  C13 UNL     1     -17.077  -5.491  13.697  1.00  0.00     0.129 C 
HETATM   17  C14 UNL     1     -17.748  -5.950  12.395  1.00  0.00     0.040 C 
HETATM   18  C15 UNL     1     -17.673  -7.291  13.093  1.00  0.00     0.129 C 
ENDROOT
BRANCH   2  19
HETATM   19  C3  UNL     1     -11.955  -7.556  14.102  1.00  0.00     0.195 C 
BRANCH  19  20
HETATM   20  O1  UNL     1     -12.070  -8.886  13.705  1.00  0.00    -0.398 OA
ATOM     21  H1  UNL     1     -12.718  -8.953  13.013  1.00  0.00     0.209 HD
ENDBRANCH  19  20
ENDBRANCH   2  19
BRANCH   9  22
HETATM   22  C10 UNL     1     -13.824  -3.103  19.286  1.00  0.00     0.188 C 
HETATM   23 BR1  UNL     1     -15.299  -3.649  20.357  1.00  0.00    -0.087 Br
ENDBRANCH   9  22
TORSDOF 3
ENDMDL
MODEL 3
REMARK VINA RESULT: -5.109457912      8.179     10.788
REMARK  3 active torsions:
REMARK  status: ('A' for Active; 'I' for Inactive)
REMARK    1  A    between atoms: C2_2  and  C3_3 
REMARK    2  A    between atoms: C3_3  and  O1_4 
REMARK       I    between atoms: N1_11  and  C9_12 
REMARK    3  A    between atoms: C9_12  and  C10_14 
REMARK       I    between atoms: N2_17  and  C12_18 
REMARK       I    between atoms: C12_18  and  N3_20 
ROOT
HETATM    1  C1  UNL     1     -19.078  -0.480  16.715  1.00  0.00     0.041 C 
HETATM    2  C2  UNL     1     -19.552   0.138  15.396  1.00  0.00     0.057 C 
HETATM    3  C4  UNL     1     -20.612   1.208  15.659  1.00  0.00     0.066 C 
HETATM    4  C5  UNL     1     -21.631   1.014  14.627  1.00  0.00     0.054 C 
HETATM    5  C6  UNL     1     -21.521   2.030  13.474  1.00  0.00     0.034 C 
HETATM    6  C7  UNL     1     -22.735   1.629  12.659  1.00  0.00     0.022 C 
HETATM    7  C8  UNL     1     -23.681   0.978  13.674  1.00  0.00     0.127 C 
HETATM    8  N1  UNL     1     -23.003   1.205  14.968  1.00  0.00    -0.340 N 
HETATM    9  C9  UNL     1     -23.709   1.527  16.148  1.00  0.00     0.230 C 
HETATM   10  O2  UNL     1     -23.151   1.729  17.253  1.00  0.00    -0.273 OA
HETATM   11  C11 UNL     1     -21.402  -0.357  14.026  1.00  0.00     0.160 C 
HETATM   12  N2  UNL     1     -20.213  -0.898  14.656  1.00  0.00    -0.320 N 
HETATM   13  C12 UNL     1     -19.812  -2.242  14.528  1.00  0.00     0.321 C 
HETATM   14  O3  UNL     1     -18.750  -2.621  15.122  1.00  0.00    -0.247 OA
HETATM   15  N3  UNL     1     -20.504  -3.218  13.787  1.00  0.00    -0.334 N 
HETATM   16  C13 UNL     1     -21.705  -3.346  12.951  1.00  0.00     0.129 C 
HETATM   17  C14 UNL     1     -20.924  -4.397  12.150  1.00  0.00     0.040 C 
HETATM   18  C15 UNL     1     -20.308  -4.648  13.509  1.00  0.00     0.129 C 
ENDROOT
BRANCH   2  19
HETATM   19  C3  UNL     1     -18.340   0.690  14.701  1.00  0.00     0.195 C 
BRANCH  19  20
HETATM   20  O1  UNL     1     -17.209  -0.007  15.121  1.00  0.00    -0.398 OA
ATOM     21  H1  UNL     1     -17.316  -0.260  16.030  1.00  0.00     0.209 HD
ENDBRANCH  19  20
ENDBRANCH   2  19
BRANCH   9  22
HETATM   22  C10 UNL     1     -25.207   1.651  16.157  1.00  0.00     0.188 C 
HETATM   23 BR1  UNL     1     -26.005   0.369  17.313  1.00  0.00    -0.087 Br
ENDBRANCH   9  22
TORSDOF 3
ENDMDL
MODEL 4
REMARK VINA RESULT: -5.054699679      3.630      5.907
REMARK  3 active torsions:
REMARK  status: ('A' for Active; 'I' for Inactive)
REMARK    1  A    between atoms: C2_2  and  C3_3 
REMARK    2  A    between atoms: C3_3  and  O1_4 
REMARK       I    between atoms: N1_11  and  C9_12 
REMARK    3  A    between atoms: C9_12  and  C10_14 
REMARK       I    between atoms: N2_17  and  C12_18 
REMARK       I    between atoms: C12_18  and  N3_20 
ROOT
HETATM    1  C1  UNL     1     -11.388 -10.826  14.183  1.00  0.00     0.041 C 
HETATM    2  C2  UNL     1     -11.290  -9.629  15.133  1.00  0.00     0.057 C 
HETATM    3  C4  UNL     1     -12.652  -8.950  15.279  1.00  0.00     0.066 C 
HETATM    4  C5  UNL     1     -12.380  -7.513  15.255  1.00  0.00     0.054 C 
HETATM    5  C6  UNL     1     -12.400  -6.871  16.655  1.00  0.00     0.034 C 
HETATM    6  C7  UNL     1     -12.188  -5.419  16.278  1.00  0.00     0.022 C 
HETATM    7  C8  UNL     1     -12.711  -5.315  14.841  1.00  0.00     0.127 C 
HETATM    8  N1  UNL     1     -13.302  -6.647  14.595  1.00  0.00    -0.340 N 
HETATM    9  C9  UNL     1     -14.498  -6.824  13.865  1.00  0.00     0.230 C 
HETATM   10  O2  UNL     1     -15.017  -7.945  13.651  1.00  0.00    -0.273 OA
HETATM   11  C11 UNL     1     -10.977  -7.333  14.711  1.00  0.00     0.160 C 
HETATM   12  N2  UNL     1     -10.432  -8.662  14.509  1.00  0.00    -0.320 N 
HETATM   13  C12 UNL     1      -9.240  -8.911  13.803  1.00  0.00     0.321 C 
HETATM   14  O3  UNL     1      -8.844 -10.117  13.681  1.00  0.00    -0.247 OA
HETATM   15  N3  UNL     1      -8.437  -7.919  13.210  1.00  0.00    -0.334 N 
HETATM   16  C13 UNL     1      -8.401  -6.461  13.043  1.00  0.00     0.129 C 
HETATM   17  C14 UNL     1      -6.872  -6.586  13.082  1.00  0.00     0.040 C 
HETATM   18  C15 UNL     1      -7.189  -7.916  12.433  1.00  0.00     0.129 C 
ENDROOT
BRANCH   2  19
HETATM   19  C3  UNL     1     -10.761 -10.141  16.443  1.00  0.00     0.195 C 
BRANCH  19  20
HETATM   20  O1  UNL     1     -10.120 -11.360  16.237  1.00  0.00    -0.398 OA
ATOM     21  H1  UNL     1      -9.689 -11.629  17.039  1.00  0.00     0.209 HD
ENDBRANCH  19  20
ENDBRANCH   2  19
BRANCH   9  22
HETATM   22  C10 UNL     1     -15.242  -5.654  13.284  1.00  0.00     0.188 C 
HETATM   23 BR1  UNL     1     -17.119  -5.964  13.261  1.00  0.00    -0.087 Br
ENDBRANCH   9  22
TORSDOF 3
ENDMDL
MODEL 5
REMARK VINA RESULT: -4.989811385      2.872      6.060
REMARK  3 active torsions:
REMARK  status: ('A' for Active; 'I' for Inactive)
REMARK    1  A    between atoms: C2_2  and  C3_3 
REMARK    2  A    between atoms: C3_3  and  O1_4 
REMARK       I    between atoms: N1_11  and  C9_12 
REMARK    3  A    between atoms: C9_12  and  C10_14 
REMARK       I    between atoms: N2_17  and  C12_18 
REMARK       I    between atoms: C12_18  and  N3_20 
ROOT
HETATM    1  C1  UNL     1     -10.354  -5.595  14.535  1.00  0.00     0.041 C 
HETATM    2  C2  UNL     1     -10.960  -7.001  14.583  1.00  0.00     0.057 C 
HETATM    3  C4  UNL     1     -12.184  -7.086  13.670  1.00  0.00     0.066 C 
HETATM    4  C5  UNL     1     -13.177  -7.860  14.416  1.00  0.00     0.054 C 
HETATM    5  C6  UNL     1     -13.273  -9.326  13.950  1.00  0.00     0.034 C 
HETATM    6  C7  UNL     1     -14.416  -9.801  14.824  1.00  0.00     0.022 C 
HETATM    7  C8  UNL     1     -15.210  -8.529  15.143  1.00  0.00     0.127 C 
HETATM    8  N1  UNL     1     -14.553  -7.499  14.313  1.00  0.00    -0.340 N 
HETATM    9  C9  UNL     1     -15.277  -6.482  13.651  1.00  0.00     0.230 C 
HETATM   10  O2  UNL     1     -14.737  -5.603  12.938  1.00  0.00    -0.273 OA
HETATM   11  C11 UNL     1     -12.726  -7.890  15.862  1.00  0.00     0.160 C 
HETATM   12  N2  UNL     1     -11.447  -7.208  15.916  1.00  0.00    -0.320 N 
HETATM   13  C12 UNL     1     -10.820  -6.831  17.120  1.00  0.00     0.321 C 
HETATM   14  O3  UNL     1      -9.694  -6.237  17.062  1.00  0.00    -0.247 OA
HETATM   15  N3  UNL     1     -11.348  -7.061  18.404  1.00  0.00    -0.334 N 
HETATM   16  C13 UNL     1     -12.527  -7.664  19.038  1.00  0.00     0.129 C 
HETATM   17  C14 UNL     1     -11.594  -8.053  20.193  1.00  0.00     0.040 C 
HETATM   18  C15 UNL     1     -10.912  -6.768  19.778  1.00  0.00     0.129 C 
ENDROOT
BRANCH   2  19
HETATM   19  C3  UNL     1      -9.879  -7.966  14.184  1.00  0.00     0.195 C 
BRANCH  19  20
HETATM   20  O1  UNL     1      -9.988  -8.244  12.823  1.00  0.00    -0.398 OA
ATOM     21  H1  UNL     1     -10.873  -8.060  12.534  1.00  0.00     0.209 HD
ENDBRANCH  19  20
ENDBRANCH   2  19
BRANCH   9  22
HETATM   22  C10 UNL     1     -16.773  -6.386  13.761  1.00  0.00     0.188 C 
HETATM   23 BR1  UNL     1     -17.553  -5.783  12.134  1.00  0.00    -0.087 Br
ENDBRANCH   9  22
TORSDOF 3
ENDMDL
