MODEL 1
REMARK VINA RESULT: -6.360070382      0.000      0.000
REMARK  7 active torsions:
REMARK  status: ('A' for Active; 'I' for Inactive)
REMARK    1  A    between atoms: C2_2  and  C4_4 
REMARK    2  A    between atoms: C6_11  and  C7_12 
REMARK    3  A    between atoms: C11_17  and  N4_18 
REMARK    4  A    between atoms: N4_18  and  C12_20 
REMARK    5  A    between atoms: C12_20  and  C13_21 
REMARK    6  A    between atoms: C13_21  and  C14_22 
REMARK    7  A    between atoms: C14_22  and  N5_23 
ROOT
HETATM    1  C4  UNL     1      10.096 -16.642   5.407  1.00  0.00     0.059 A 
HETATM    2  N1  UNL     1       8.926 -17.287   5.743  1.00  0.00    -0.335 N 
ATOM      3  H1  UNL     1       8.512 -18.086   5.265  1.00  0.00     0.168 HD
HETATM    4  C5  UNL     1       8.437 -16.655   6.826  1.00  0.00     0.175 A 
HETATM    5  S1  UNL     1       7.135 -16.682   7.939  1.00  0.00     0.025 SA
HETATM    6  N2  UNL     1       7.614 -15.396   8.868  1.00  0.00    -0.312 N 
ATOM      7  H2  UNL     1       7.143 -15.010   9.686  1.00  0.00     0.175 HD
HETATM    8  C6  UNL     1       8.782 -14.966   8.294  1.00  0.00     0.102 A 
HETATM    9  N3  UNL     1       9.186 -15.643   7.232  1.00  0.00    -0.263 N 
HETATM   10  C11 UNL     1      10.255 -15.636   6.317  1.00  0.00     0.134 A 
ENDROOT
BRANCH  10  11
HETATM   11  N4  UNL     1      11.281 -14.659   6.360  1.00  0.00    -0.374 N 
ATOM     12  H4  UNL     1      12.140 -14.879   6.865  1.00  0.00     0.161 HD
BRANCH  11  13
HETATM   13  C12 UNL     1      11.170 -13.374   5.730  1.00  0.00     0.123 C 
BRANCH  13  14
HETATM   14  C13 UNL     1      11.674 -13.452   4.262  1.00  0.00     0.039 C 
BRANCH  14  15
HETATM   15  C14 UNL     1      10.484 -13.442   3.374  1.00  0.00     0.118 C 
BRANCH  15  16
HETATM   16  N5  UNL     1      10.471 -12.409   2.390  1.00  0.00    -0.408 N 
HETATM   17  C15 UNL     1      10.325 -11.077   2.840  1.00  0.00     0.143 C 
HETATM   18  C16 UNL     1      11.542 -10.289   2.343  1.00  0.00     0.187 C 
HETATM   19  O1  UNL     1      11.561 -10.236   0.960  1.00  0.00    -0.388 OA
HETATM   20  C17 UNL     1      11.145 -11.390   0.352  1.00  0.00     0.187 C 
HETATM   21  C18 UNL     1      11.316 -12.605   1.267  1.00  0.00     0.143 C 
ENDBRANCH  15  16
ENDBRANCH  14  15
ENDBRANCH  13  14
ENDBRANCH  11  13
ENDBRANCH  10  11
BRANCH   1  22
HETATM   22  C2  UNL     1      10.959 -17.105   4.291  1.00  0.00     0.031 C 
HETATM   23  C1  UNL     1      10.062 -17.233   3.012  1.00  0.00     0.016 C 
HETATM   24  C3  UNL     1      11.295 -18.582   4.585  1.00  0.00     0.016 C 
ENDBRANCH   1  22
BRANCH   8  25
HETATM   25  C7  UNL     1       9.427 -13.772   8.956  1.00  0.00     0.054 C 
HETATM   26  C8  UNL     1       8.695 -13.301  10.204  1.00  0.00     0.012 C 
HETATM   27  C9  UNL     1      10.090 -12.967  10.753  1.00  0.00     0.002 C 
HETATM   28  C10 UNL     1      10.583 -14.083   9.852  1.00  0.00     0.012 C 
ENDBRANCH   8  25
TORSDOF 7
ENDMDL
MODEL 2
REMARK VINA RESULT: -6.257527058      3.776      6.556
REMARK  7 active torsions:
REMARK  status: ('A' for Active; 'I' for Inactive)
REMARK    1  A    between atoms: C2_2  and  C4_4 
REMARK    2  A    between atoms: C6_11  and  C7_12 
REMARK    3  A    between atoms: C11_17  and  N4_18 
REMARK    4  A    between atoms: N4_18  and  C12_20 
REMARK    5  A    between atoms: C12_20  and  C13_21 
REMARK    6  A    between atoms: C13_21  and  C14_22 
REMARK    7  A    between atoms: C14_22  and  N5_23 
ROOT
HETATM    1  C4  UNL     1      10.176 -16.943   5.434  1.00  0.00     0.059 A 
HETATM    2  N1  UNL     1      10.764 -16.198   6.432  1.00  0.00    -0.335 N 
ATOM      3  H1  UNL     1      10.977 -16.509   7.380  1.00  0.00     0.168 HD
HETATM    4  C5  UNL     1      11.002 -14.979   5.913  1.00  0.00     0.175 A 
HETATM    5  S1  UNL     1      11.661 -13.445   6.299  1.00  0.00     0.025 SA
HETATM    6  N2  UNL     1      11.409 -12.723   4.829  1.00  0.00    -0.312 N 
ATOM      7  H2  UNL     1      11.646 -11.769   4.556  1.00  0.00     0.175 HD
HETATM    8  C6  UNL     1      10.815 -13.689   4.061  1.00  0.00     0.102 A 
HETATM    9  N3  UNL     1      10.616 -14.856   4.654  1.00  0.00    -0.263 N 
HETATM   10  C11 UNL     1      10.084 -16.121   4.346  1.00  0.00     0.134 A 
ENDROOT
BRANCH  10  11
HETATM   11  N4  UNL     1       9.502 -16.411   3.087  1.00  0.00    -0.374 N 
ATOM     12  H4  UNL     1       8.690 -15.870   2.791  1.00  0.00     0.161 HD
BRANCH  11  13
HETATM   13  C12 UNL     1      10.001 -17.430   2.206  1.00  0.00     0.123 C 
BRANCH  13  14
HETATM   14  C13 UNL     1       8.947 -18.560   2.043  1.00  0.00     0.039 C 
BRANCH  14  15
HETATM   15  C14 UNL     1       9.334 -19.373   0.863  1.00  0.00     0.118 C 
BRANCH  15  16
HETATM   16  N5  UNL     1       8.282 -19.636  -0.063  1.00  0.00    -0.408 N 
HETATM   17  C15 UNL     1       6.988 -19.858   0.461  1.00  0.00     0.143 C 
HETATM   18  C16 UNL     1       6.055 -18.815  -0.164  1.00  0.00     0.187 C 
HETATM   19  O1  UNL     1       5.961 -18.998  -1.533  1.00  0.00    -0.388 OA
HETATM   20  C17 UNL     1       7.136 -19.370  -2.128  1.00  0.00     0.187 C 
HETATM   21  C18 UNL     1       8.350 -18.943  -1.300  1.00  0.00     0.143 C 
ENDBRANCH  15  16
ENDBRANCH  14  15
ENDBRANCH  13  14
ENDBRANCH  11  13
ENDBRANCH  10  11
BRANCH   1  22
HETATM   22  C2  UNL     1       9.829 -18.374   5.619  1.00  0.00     0.031 C 
HETATM   23  C1  UNL     1       8.347 -18.447   6.126  1.00  0.00     0.016 C 
HETATM   24  C3  UNL     1      10.608 -18.854   6.861  1.00  0.00     0.016 C 
ENDBRANCH   1  22
BRANCH   8  25
HETATM   25  C7  UNL     1      10.463 -13.273   2.653  1.00  0.00     0.054 C 
HETATM   26  C8  UNL     1      10.764 -11.811   2.361  1.00  0.00     0.012 C 
HETATM   27  C9  UNL     1      11.126 -12.291   0.947  1.00  0.00     0.002 C 
HETATM   28  C10 UNL     1      11.484 -13.605   1.612  1.00  0.00     0.012 C 
ENDBRANCH   8  25
TORSDOF 7
ENDMDL
MODEL 3
REMARK VINA RESULT: -6.166492189      3.941      6.826
REMARK  7 active torsions:
REMARK  status: ('A' for Active; 'I' for Inactive)
REMARK    1  A    between atoms: C2_2  and  C4_4 
REMARK    2  A    between atoms: C6_11  and  C7_12 
REMARK    3  A    between atoms: C11_17  and  N4_18 
REMARK    4  A    between atoms: N4_18  and  C12_20 
REMARK    5  A    between atoms: C12_20  and  C13_21 
REMARK    6  A    between atoms: C13_21  and  C14_22 
REMARK    7  A    between atoms: C14_22  and  N5_23 
ROOT
HETATM    1  C4  UNL     1      10.119 -16.938   5.495  1.00  0.00     0.059 A 
HETATM    2  N1  UNL     1      10.720 -16.190   6.483  1.00  0.00    -0.335 N 
ATOM      3  H1  UNL     1      10.927 -16.492   7.434  1.00  0.00     0.168 HD
HETATM    4  C5  UNL     1      10.979 -14.983   5.948  1.00  0.00     0.175 A 
HETATM    5  S1  UNL     1      11.664 -13.456   6.312  1.00  0.00     0.025 SA
HETATM    6  N2  UNL     1      11.425 -12.749   4.833  1.00  0.00    -0.312 N 
ATOM      7  H2  UNL     1      11.678 -11.803   4.547  1.00  0.00     0.175 HD
HETATM    8  C6  UNL     1      10.814 -13.716   4.078  1.00  0.00     0.102 A 
HETATM    9  N3  UNL     1      10.595 -14.870   4.687  1.00  0.00    -0.263 N 
HETATM   10  C11 UNL     1      10.041 -16.130   4.396  1.00  0.00     0.134 A 
ENDROOT
BRANCH  10  11
HETATM   11  N4  UNL     1       9.454 -16.427   3.140  1.00  0.00    -0.374 N 
ATOM     12  H4  UNL     1       8.582 -15.961   2.890  1.00  0.00     0.161 HD
BRANCH  11  13
HETATM   13  C12 UNL     1      10.028 -17.352   2.203  1.00  0.00     0.123 C 
BRANCH  13  14
HETATM   14  C13 UNL     1       9.254 -18.699   2.237  1.00  0.00     0.039 C 
BRANCH  14  15
HETATM   15  C14 UNL     1       8.668 -18.918   0.892  1.00  0.00     0.118 C 
BRANCH  15  16
HETATM   16  N5  UNL     1       7.265 -19.175   0.875  1.00  0.00    -0.408 N 
HETATM   17  C15 UNL     1       6.500 -18.572  -0.150  1.00  0.00     0.143 C 
HETATM   18  C16 UNL     1       5.798 -19.696  -0.920  1.00  0.00     0.187 C 
HETATM   19  O1  UNL     1       4.902 -20.364  -0.103  1.00  0.00    -0.388 OA
HETATM   20  C17 UNL     1       5.335 -20.527   1.184  1.00  0.00     0.187 C 
HETATM   21  C18 UNL     1       6.861 -20.474   1.279  1.00  0.00     0.143 C 
ENDBRANCH  15  16
ENDBRANCH  14  15
ENDBRANCH  13  14
ENDBRANCH  11  13
ENDBRANCH  10  11
BRANCH   1  22
HETATM   22  C2  UNL     1       9.747 -18.361   5.699  1.00  0.00     0.031 C 
HETATM   23  C1  UNL     1       8.260 -18.402   6.195  1.00  0.00     0.016 C 
HETATM   24  C3  UNL     1      10.508 -18.835   6.954  1.00  0.00     0.016 C 
ENDBRANCH   1  22
BRANCH   8  25
HETATM   25  C7  UNL     1      10.469 -13.312   2.665  1.00  0.00     0.054 C 
HETATM   26  C8  UNL     1      10.743 -11.845   2.369  1.00  0.00     0.012 C 
HETATM   27  C9  UNL     1      11.131 -12.323   0.962  1.00  0.00     0.002 C 
HETATM   28  C10 UNL     1      11.508 -13.627   1.637  1.00  0.00     0.012 C 
ENDBRANCH   8  25
TORSDOF 7
ENDMDL
MODEL 4
REMARK VINA RESULT: -6.127955861      1.378      4.467
REMARK  7 active torsions:
REMARK  status: ('A' for Active; 'I' for Inactive)
REMARK    1  A    between atoms: C2_2  and  C4_4 
REMARK    2  A    between atoms: C6_11  and  C7_12 
REMARK    3  A    between atoms: C11_17  and  N4_18 
REMARK    4  A    between atoms: N4_18  and  C12_20 
REMARK    5  A    between atoms: C12_20  and  C13_21 
REMARK    6  A    between atoms: C13_21  and  C14_22 
REMARK    7  A    between atoms: C14_22  and  N5_23 
ROOT
HETATM    1  C4  UNL     1      10.136 -14.618   8.763  1.00  0.00     0.059 A 
HETATM    2  N1  UNL     1      10.196 -15.801   9.466  1.00  0.00    -0.335 N 
ATOM      3  H1  UNL     1      10.092 -15.917  10.474  1.00  0.00     0.168 HD
HETATM    4  C5  UNL     1      10.420 -16.774   8.564  1.00  0.00     0.175 A 
HETATM    5  S1  UNL     1      10.632 -18.468   8.419  1.00  0.00     0.025 SA
HETATM    6  N2  UNL     1      10.834 -18.524   6.775  1.00  0.00    -0.312 N 
ATOM      7  H2  UNL     1      10.996 -19.348   6.197  1.00  0.00     0.175 HD
HETATM    8  C6  UNL     1      10.733 -17.220   6.365  1.00  0.00     0.102 A 
HETATM    9  N3  UNL     1      10.516 -16.331   7.321  1.00  0.00    -0.263 N 
HETATM   10  C11 UNL     1      10.333 -14.942   7.450  1.00  0.00     0.134 A 
ENDROOT
BRANCH  10  11
HETATM   11  N4  UNL     1      10.412 -14.062   6.342  1.00  0.00    -0.374 N 
ATOM     12  H4  UNL     1       9.573 -13.909   5.782  1.00  0.00     0.161 HD
BRANCH  11  13
HETATM   13  C12 UNL     1      11.617 -13.376   5.967  1.00  0.00     0.123 C 
BRANCH  13  14
HETATM   14  C13 UNL     1      11.760 -13.349   4.420  1.00  0.00     0.039 C 
BRANCH  14  15
HETATM   15  C14 UNL     1      10.421 -13.066   3.846  1.00  0.00     0.118 C 
BRANCH  15  16
HETATM   16  N5  UNL     1      10.422 -12.247   2.679  1.00  0.00    -0.408 N 
HETATM   17  C15 UNL     1      10.318 -10.849   2.858  1.00  0.00     0.143 C 
HETATM   18  C16 UNL     1      11.549 -10.209   2.207  1.00  0.00     0.187 C 
HETATM   19  O1  UNL     1      11.552 -10.430   0.841  1.00  0.00    -0.388 OA
HETATM   20  C17 UNL     1      11.098 -11.668   0.475  1.00  0.00     0.187 C 
HETATM   21  C18 UNL     1      11.247 -12.684   1.609  1.00  0.00     0.143 C 
ENDBRANCH  15  16
ENDBRANCH  14  15
ENDBRANCH  13  14
ENDBRANCH  11  13
ENDBRANCH  10  11
BRANCH   1  22
HETATM   22  C2  UNL     1       9.833 -13.323   9.422  1.00  0.00     0.031 C 
HETATM   23  C1  UNL     1      10.704 -13.231  10.723  1.00  0.00     0.016 C 
HETATM   24  C3  UNL     1       8.412 -13.454  10.008  1.00  0.00     0.016 C 
ENDBRANCH   1  22
BRANCH   8  25
HETATM   25  C7  UNL     1      10.898 -16.993   4.882  1.00  0.00     0.054 C 
HETATM   26  C8  UNL     1      10.968 -18.281   4.076  1.00  0.00     0.012 C 
HETATM   27  C9  UNL     1      10.209 -17.504   2.990  1.00  0.00     0.002 C 
HETATM   28  C10 UNL     1       9.637 -16.693   4.136  1.00  0.00     0.012 C 
ENDBRANCH   8  25
TORSDOF 7
ENDMDL
MODEL 5
REMARK VINA RESULT: -6.107310641      2.328      5.164
REMARK  7 active torsions:
REMARK  status: ('A' for Active; 'I' for Inactive)
REMARK    1  A    between atoms: C2_2  and  C4_4 
REMARK    2  A    between atoms: C6_11  and  C7_12 
REMARK    3  A    between atoms: C11_17  and  N4_18 
REMARK    4  A    between atoms: N4_18  and  C12_20 
REMARK    5  A    between atoms: C12_20  and  C13_21 
REMARK    6  A    between atoms: C13_21  and  C14_22 
REMARK    7  A    between atoms: C14_22  and  N5_23 
ROOT
HETATM    1  C4  UNL     1      10.735 -15.170   5.156  1.00  0.00     0.059 A 
HETATM    2  N1  UNL     1      10.929 -16.182   6.070  1.00  0.00    -0.335 N 
ATOM      3  H1  UNL     1      11.285 -16.085   7.021  1.00  0.00     0.168 HD
HETATM    4  C5  UNL     1      10.558 -17.325   5.464  1.00  0.00     0.175 A 
HETATM    5  S1  UNL     1      10.415 -19.012   5.720  1.00  0.00     0.025 SA
HETATM    6  N2  UNL     1       9.824 -19.413   4.225  1.00  0.00    -0.312 N 
ATOM      7  H2  UNL     1       9.572 -20.340   3.883  1.00  0.00     0.175 HD
HETATM    8  C6  UNL     1       9.748 -18.223   3.549  1.00  0.00     0.102 A 
HETATM    9  N3  UNL     1      10.137 -17.151   4.222  1.00  0.00    -0.263 N 
HETATM   10  C11 UNL     1      10.252 -15.763   4.025  1.00  0.00     0.134 A 
ENDROOT
BRANCH  10  11
HETATM   11  N4  UNL     1       9.945 -15.148   2.785  1.00  0.00    -0.374 N 
ATOM     12  H4  UNL     1       9.033 -14.705   2.675  1.00  0.00     0.161 HD
BRANCH  11  13
HETATM   13  C12 UNL     1      10.857 -15.117   1.676  1.00  0.00     0.123 C 
BRANCH  13  14
HETATM   14  C13 UNL     1      11.312 -13.658   1.396  1.00  0.00     0.039 C 
BRANCH  14  15
HETATM   15  C14 UNL     1      10.324 -12.747   2.026  1.00  0.00     0.118 C 
BRANCH  15  16
HETATM   16  N5  UNL     1      10.493 -11.364   1.721  1.00  0.00    -0.408 N 
HETATM   17  C15 UNL     1      10.530 -10.453   2.802  1.00  0.00     0.143 C 
HETATM   18  C16 UNL     1      11.865  -9.704   2.726  1.00  0.00     0.187 C 
HETATM   19  O1  UNL     1      11.935  -8.945   1.571  1.00  0.00    -0.388 OA
HETATM   20  C17 UNL     1      11.375  -9.543   0.475  1.00  0.00     0.187 C 
HETATM   21  C18 UNL     1      11.336 -11.065   0.618  1.00  0.00     0.143 C 
ENDBRANCH  15  16
ENDBRANCH  14  15
ENDBRANCH  13  14
ENDBRANCH  11  13
ENDBRANCH  10  11
BRANCH   1  22
HETATM   22  C2  UNL     1      10.975 -13.745   5.495  1.00  0.00     0.031 C 
HETATM   23  C1  UNL     1      12.338 -13.321   4.848  1.00  0.00     0.016 C 
HETATM   24  C3  UNL     1      11.318 -13.706   6.999  1.00  0.00     0.016 C 
ENDBRANCH   1  22
BRANCH   8  25
HETATM   25  C7  UNL     1       9.243 -18.315   2.129  1.00  0.00     0.054 C 
HETATM   26  C8  UNL     1       9.222 -19.736   1.585  1.00  0.00     0.012 C 
HETATM   27  C9  UNL     1       7.951 -19.305   0.838  1.00  0.00     0.002 C 
HETATM   28  C10 UNL     1       7.756 -18.324   1.977  1.00  0.00     0.012 C 
ENDBRANCH   8  25
TORSDOF 7
ENDMDL
