MODEL 1
REMARK VINA RESULT: -7.137769325      0.000      0.000
REMARK  8 active torsions:
REMARK  status: ('A' for Active; 'I' for Inactive)
REMARK    1  A    between atoms: N1_10  and  C10_11 
REMARK    2  A    between atoms: C13_14  and  O1_15 
REMARK    3  A    between atoms: N2_17  and  C14_18 
REMARK    4  A    between atoms: C14_18  and  C15_19 
REMARK    5  A    between atoms: N3_21  and  C17_22 
REMARK    6  A    between atoms: C17_22  and  C18_23 
REMARK    7  A    between atoms: C18_23  and  C19_24 
REMARK    8  A    between atoms: C19_24  and  C20_25 
ROOT
HETATM    1  C1  UNL     1       6.017 -14.095   9.322  1.00  0.00     0.036 C 
HETATM    2  C2  UNL     1       7.001 -14.589   8.342  1.00  0.00    -0.023 C 
HETATM    3  C3  UNL     1       8.268 -14.735   8.758  1.00  0.00    -0.052 C 
HETATM    4  C4  UNL     1       8.625 -14.405  10.134  1.00  0.00     0.039 C 
HETATM    5  C5  UNL     1       9.778 -13.379  10.093  1.00  0.00     0.005 C 
HETATM    6  C6  UNL     1      10.812 -13.821   9.142  1.00  0.00     0.005 C 
HETATM    7  C7  UNL     1      10.419 -14.150   7.724  1.00  0.00     0.043 C 
HETATM    8  C8  UNL     1       9.251 -15.127   7.744  1.00  0.00    -0.007 C 
HETATM    9  C9  UNL     1       9.254 -16.285   7.113  1.00  0.00     0.122 A 
HETATM   10  N1  UNL     1       8.348 -17.384   7.341  1.00  0.00    -0.339 N 
HETATM   11  C12 UNL     1       8.534 -18.327   6.310  1.00  0.00     0.149 A 
HETATM   12  C13 UNL     1       9.458 -17.927   5.475  1.00  0.00     0.164 A 
HETATM   13  N2  UNL     1       9.965 -16.675   5.878  1.00  0.00    -0.285 N 
ENDROOT
BRANCH  13  14
HETATM   14  C14 UNL     1      10.921 -15.870   5.228  1.00  0.00     0.133 C 
BRANCH  14  15
HETATM   15  C15 UNL     1      10.711 -15.307   3.905  1.00  0.00     0.082 A 
HETATM   16  C16 UNL     1      10.933 -13.916   3.709  1.00  0.00     0.144 A 
HETATM   17  N3  UNL     1      10.674 -13.650   2.421  1.00  0.00    -0.287 N 
HETATM   18  N4  UNL     1      10.320 -14.786   1.861  1.00  0.00    -0.240 N 
HETATM   19  N5  UNL     1      10.349 -15.738   2.750  1.00  0.00    -0.284 N 
ATOM     20  H4  UNL     1      10.062 -14.904   0.882  1.00  0.00     0.208 HD
ATOM     21  H5  UNL     1      10.114 -16.710   2.552  1.00  0.00     0.188 HD
BRANCH  17  22
HETATM   22  C17 UNL     1      10.779 -12.314   1.817  1.00  0.00     0.150 C 
BRANCH  22  23
HETATM   23  C18 UNL     1      10.517 -11.232   2.814  1.00  0.00     0.022 C 
BRANCH  23  24
HETATM   24  C19 UNL     1      11.281  -9.973   2.501  1.00  0.00     0.001 C 
BRANCH  24  25
HETATM   25  C20 UNL     1      11.505  -9.820   1.000  1.00  0.00    -0.004 C 
HETATM   26  C21 UNL     1      11.906  -8.377   0.745  1.00  0.00     0.005 C 
ENDBRANCH  24  25
ENDBRANCH  23  24
ENDBRANCH  22  23
ENDBRANCH  17  22
ENDBRANCH  14  15
ENDBRANCH  13  14
BRANCH  12  27
HETATM   27  O1  UNL     1       9.870 -18.656   4.346  1.00  0.00    -0.345 OA
ATOM     28  H1  UNL     1       9.867 -18.313   3.460  1.00  0.00     0.219 HD
ENDBRANCH  12  27
BRANCH  10  29
HETATM   29  C10 UNL     1       7.401 -17.641   8.408  1.00  0.00     0.126 C 
HETATM   30  C11 UNL     1       8.204 -18.323   9.561  1.00  0.00     0.027 C 
ENDBRANCH  10  29
TORSDOF 8
ENDMDL
MODEL 2
REMARK VINA RESULT: -7.080572204      2.943      4.698
REMARK  8 active torsions:
REMARK  status: ('A' for Active; 'I' for Inactive)
REMARK    1  A    between atoms: N1_10  and  C10_11 
REMARK    2  A    between atoms: C13_14  and  O1_15 
REMARK    3  A    between atoms: N2_17  and  C14_18 
REMARK    4  A    between atoms: C14_18  and  C15_19 
REMARK    5  A    between atoms: N3_21  and  C17_22 
REMARK    6  A    between atoms: C17_22  and  C18_23 
REMARK    7  A    between atoms: C18_23  and  C19_24 
REMARK    8  A    between atoms: C19_24  and  C20_25 
ROOT
HETATM    1  C1  UNL     1       7.492 -15.063  13.786  1.00  0.00     0.036 C 
HETATM    2  C2  UNL     1       8.369 -14.917  12.611  1.00  0.00    -0.023 C 
HETATM    3  C3  UNL     1       7.899 -14.214  11.570  1.00  0.00    -0.052 C 
HETATM    4  C4  UNL     1       6.563 -13.631  11.631  1.00  0.00     0.039 C 
HETATM    5  C5  UNL     1       5.768 -14.133  10.406  1.00  0.00     0.005 C 
HETATM    6  C6  UNL     1       6.584 -13.999   9.188  1.00  0.00     0.005 C 
HETATM    7  C7  UNL     1       7.959 -14.616   9.147  1.00  0.00     0.043 C 
HETATM    8  C8  UNL     1       8.744 -14.168  10.374  1.00  0.00    -0.007 C 
HETATM    9  C9  UNL     1       9.928 -13.590  10.314  1.00  0.00     0.122 A 
HETATM   10  N1  UNL     1      10.574 -12.857  11.376  1.00  0.00    -0.339 N 
HETATM   11  C12 UNL     1      11.908 -12.613  10.991  1.00  0.00     0.149 A 
HETATM   12  C13 UNL     1      12.149 -13.115   9.807  1.00  0.00     0.164 A 
HETATM   13  N2  UNL     1      10.993 -13.743   9.302  1.00  0.00    -0.285 N 
ENDROOT
BRANCH  13  14
HETATM   14  C14 UNL     1      10.842 -14.456   8.097  1.00  0.00     0.133 C 
BRANCH  14  15
HETATM   15  C15 UNL     1      11.130 -13.877   6.796  1.00  0.00     0.082 A 
HETATM   16  C16 UNL     1      10.429 -14.366   5.658  1.00  0.00     0.144 A 
HETATM   17  N3  UNL     1      10.868 -13.677   4.595  1.00  0.00    -0.287 N 
HETATM   18  N4  UNL     1      11.770 -12.828   5.038  1.00  0.00    -0.240 N 
HETATM   19  N5  UNL     1      11.904 -12.966   6.326  1.00  0.00    -0.284 N 
ATOM     20  H4  UNL     1      12.285 -12.164   4.461  1.00  0.00     0.208 HD
ATOM     21  H5  UNL     1      12.547 -12.415   6.894  1.00  0.00     0.188 HD
BRANCH  17  22
HETATM   22  C17 UNL     1      10.393 -13.890   3.221  1.00  0.00     0.150 C 
BRANCH  22  23
HETATM   23  C18 UNL     1      11.496 -13.741   2.223  1.00  0.00     0.022 C 
BRANCH  23  24
HETATM   24  C19 UNL     1      11.186 -12.695   1.186  1.00  0.00     0.001 C 
BRANCH  24  25
HETATM   25  C20 UNL     1      10.520 -11.474   1.811  1.00  0.00    -0.004 C 
HETATM   26  C21 UNL     1      11.267 -10.246   1.319  1.00  0.00     0.005 C 
ENDBRANCH  24  25
ENDBRANCH  23  24
ENDBRANCH  22  23
ENDBRANCH  17  22
ENDBRANCH  14  15
ENDBRANCH  13  14
BRANCH  12  27
HETATM   27  O1  UNL     1      13.390 -13.028   9.152  1.00  0.00    -0.345 OA
ATOM     28  H1  UNL     1      13.506 -12.688   8.273  1.00  0.00     0.219 HD
ENDBRANCH  12  27
BRANCH  10  29
HETATM   29  C10 UNL     1      10.070 -12.351  12.636  1.00  0.00     0.126 C 
HETATM   30  C11 UNL     1      11.010 -11.174  13.050  1.00  0.00     0.027 C 
ENDBRANCH  10  29
TORSDOF 8
ENDMDL
MODEL 3
REMARK VINA RESULT: -7.048489589      1.615      2.341
REMARK  8 active torsions:
REMARK  status: ('A' for Active; 'I' for Inactive)
REMARK    1  A    between atoms: N1_10  and  C10_11 
REMARK    2  A    between atoms: C13_14  and  O1_15 
REMARK    3  A    between atoms: N2_17  and  C14_18 
REMARK    4  A    between atoms: C14_18  and  C15_19 
REMARK    5  A    between atoms: N3_21  and  C17_22 
REMARK    6  A    between atoms: C17_22  and  C18_23 
REMARK    7  A    between atoms: C18_23  and  C19_24 
REMARK    8  A    between atoms: C19_24  and  C20_25 
ROOT
HETATM    1  C1  UNL     1       7.321 -14.473   9.178  1.00  0.00     0.036 C 
HETATM    2  C2  UNL     1       8.149 -14.493   7.959  1.00  0.00    -0.023 C 
HETATM    3  C3  UNL     1       9.455 -14.767   8.103  1.00  0.00    -0.052 C 
HETATM    4  C4  UNL     1      10.002 -15.025   9.430  1.00  0.00     0.039 C 
HETATM    5  C5  UNL     1      11.173 -14.046   9.661  1.00  0.00     0.005 C 
HETATM    6  C6  UNL     1      12.056 -14.030   8.482  1.00  0.00     0.005 C 
HETATM    7  C7  UNL     1      11.467 -13.755   7.121  1.00  0.00     0.043 C 
HETATM    8  C8  UNL     1      10.280 -14.681   6.894  1.00  0.00    -0.007 C 
HETATM    9  C9  UNL     1      10.161 -15.476   5.848  1.00  0.00     0.122 A 
HETATM   10  N1  UNL     1       9.257 -16.593   5.724  1.00  0.00    -0.339 N 
HETATM   11  C12 UNL     1       9.272 -17.022   4.381  1.00  0.00     0.149 A 
HETATM   12  C13 UNL     1      10.090 -16.290   3.669  1.00  0.00     0.164 A 
HETATM   13  N2  UNL     1      10.687 -15.303   4.479  1.00  0.00    -0.285 N 
ENDROOT
BRANCH  13  14
HETATM   14  C14 UNL     1      11.575 -14.278   4.096  1.00  0.00     0.133 C 
BRANCH  14  15
HETATM   15  C15 UNL     1      11.129 -13.029   3.504  1.00  0.00     0.082 A 
HETATM   16  C16 UNL     1      11.512 -12.728   2.167  1.00  0.00     0.144 A 
HETATM   17  N3  UNL     1      10.980 -11.537   1.860  1.00  0.00    -0.287 N 
HETATM   18  N4  UNL     1      10.318 -11.130   2.922  1.00  0.00    -0.240 N 
HETATM   19  N5  UNL     1      10.422 -12.019   3.867  1.00  0.00    -0.284 N 
ATOM     20  H4  UNL     1       9.804 -10.253   2.994  1.00  0.00     0.208 HD
ATOM     21  H5  UNL     1       9.992 -11.926   4.788  1.00  0.00     0.188 HD
BRANCH  17  22
HETATM   22  C17 UNL     1      11.151 -10.866   0.564  1.00  0.00     0.150 C 
BRANCH  22  23
HETATM   23  C18 UNL     1      11.165  -9.378   0.706  1.00  0.00     0.022 C 
BRANCH  23  24
HETATM   24  C19 UNL     1      12.472  -8.872   1.256  1.00  0.00     0.001 C 
BRANCH  24  25
HETATM   25  C20 UNL     1      12.259  -8.052   2.524  1.00  0.00    -0.004 C 
HETATM   26  C21 UNL     1      13.263  -8.542   3.555  1.00  0.00     0.005 C 
ENDBRANCH  24  25
ENDBRANCH  23  24
ENDBRANCH  22  23
ENDBRANCH  17  22
ENDBRANCH  14  15
ENDBRANCH  13  14
BRANCH  12  27
HETATM   27  O1  UNL     1      10.323 -16.478   2.295  1.00  0.00    -0.345 OA
ATOM     28  H1  UNL     1      11.153 -16.759   1.929  1.00  0.00     0.219 HD
ENDBRANCH  12  27
BRANCH  10  29
HETATM   29  C10 UNL     1       8.452 -17.290   6.707  1.00  0.00     0.126 C 
HETATM   30  C11 UNL     1       7.047 -17.505   6.060  1.00  0.00     0.027 C 
ENDBRANCH  10  29
TORSDOF 8
ENDMDL
MODEL 4
REMARK VINA RESULT: -7.018950135      0.896      1.020
REMARK  8 active torsions:
REMARK  status: ('A' for Active; 'I' for Inactive)
REMARK    1  A    between atoms: N1_10  and  C10_11 
REMARK    2  A    between atoms: C13_14  and  O1_15 
REMARK    3  A    between atoms: N2_17  and  C14_18 
REMARK    4  A    between atoms: C14_18  and  C15_19 
REMARK    5  A    between atoms: N3_21  and  C17_22 
REMARK    6  A    between atoms: C17_22  and  C18_23 
REMARK    7  A    between atoms: C18_23  and  C19_24 
REMARK    8  A    between atoms: C19_24  and  C20_25 
ROOT
HETATM    1  C1  UNL     1       6.430 -14.198   9.227  1.00  0.00     0.036 C 
HETATM    2  C2  UNL     1       7.362 -14.503   8.127  1.00  0.00    -0.023 C 
HETATM    3  C3  UNL     1       8.656 -14.670   8.441  1.00  0.00    -0.052 C 
HETATM    4  C4  UNL     1       9.090 -14.544   9.828  1.00  0.00     0.039 C 
HETATM    5  C5  UNL     1      10.214 -13.487   9.880  1.00  0.00     0.005 C 
HETATM    6  C6  UNL     1      11.196 -13.745   8.813  1.00  0.00     0.005 C 
HETATM    7  C7  UNL     1      10.724 -13.865   7.386  1.00  0.00     0.043 C 
HETATM    8  C8  UNL     1       9.581 -14.870   7.322  1.00  0.00    -0.007 C 
HETATM    9  C9  UNL     1       9.572 -15.917   6.521  1.00  0.00     0.122 A 
HETATM   10  N1  UNL     1       8.707 -17.067   6.628  1.00  0.00    -0.339 N 
HETATM   11  C12 UNL     1       8.849 -17.834   5.454  1.00  0.00     0.149 A 
HETATM   12  C13 UNL     1       9.710 -17.281   4.639  1.00  0.00     0.164 A 
HETATM   13  N2  UNL     1      10.213 -16.090   5.201  1.00  0.00    -0.285 N 
ENDROOT
BRANCH  13  14
HETATM   14  C14 UNL     1      11.107 -15.164   4.629  1.00  0.00     0.133 C 
BRANCH  14  15
HETATM   15  C15 UNL     1      10.998 -14.708   3.254  1.00  0.00     0.082 A 
HETATM   16  C16 UNL     1      11.200 -13.328   2.971  1.00  0.00     0.144 A 
HETATM   17  N3  UNL     1      11.048 -13.167   1.649  1.00  0.00    -0.287 N 
HETATM   18  N4  UNL     1      10.774 -14.353   1.150  1.00  0.00    -0.240 N 
HETATM   19  N5  UNL     1      10.751 -15.235   2.108  1.00  0.00    -0.284 N 
ATOM     20  H4  UNL     1      10.606 -14.551   0.164  1.00  0.00     0.208 HD
ATOM     21  H5  UNL     1      10.559 -16.226   1.965  1.00  0.00     0.188 HD
BRANCH  17  22
HETATM   22  C17 UNL     1      11.170 -11.877   0.956  1.00  0.00     0.150 C 
BRANCH  22  23
HETATM   23  C18 UNL     1      10.972 -10.725   1.888  1.00  0.00     0.022 C 
BRANCH  23  24
HETATM   24  C19 UNL     1      11.192  -9.400   1.208  1.00  0.00     0.001 C 
BRANCH  24  25
HETATM   25  C20 UNL     1      12.548  -8.807   1.576  1.00  0.00    -0.004 C 
HETATM   26  C21 UNL     1      12.552  -8.578   3.078  1.00  0.00     0.005 C 
ENDBRANCH  24  25
ENDBRANCH  23  24
ENDBRANCH  22  23
ENDBRANCH  17  22
ENDBRANCH  14  15
ENDBRANCH  13  14
BRANCH  12  27
HETATM   27  O1  UNL     1      10.067 -17.815   3.388  1.00  0.00    -0.345 OA
ATOM     28  H1  UNL     1      10.193 -17.294   2.603  1.00  0.00     0.219 HD
ENDBRANCH  12  27
BRANCH  10  29
HETATM   29  C10 UNL     1       7.835 -17.515   7.695  1.00  0.00     0.126 C 
HETATM   30  C11 UNL     1       8.738 -18.271   8.721  1.00  0.00     0.027 C 
ENDBRANCH  10  29
TORSDOF 8
ENDMDL
MODEL 5
REMARK VINA RESULT: -6.801360662      2.341      4.815
REMARK  8 active torsions:
REMARK  status: ('A' for Active; 'I' for Inactive)
REMARK    1  A    between atoms: N1_10  and  C10_11 
REMARK    2  A    between atoms: C13_14  and  O1_15 
REMARK    3  A    between atoms: N2_17  and  C14_18 
REMARK    4  A    between atoms: C14_18  and  C15_19 
REMARK    5  A    between atoms: N3_21  and  C17_22 
REMARK    6  A    between atoms: C17_22  and  C18_23 
REMARK    7  A    between atoms: C18_23  and  C19_24 
REMARK    8  A    between atoms: C19_24  and  C20_25 
ROOT
HETATM    1  C1  UNL     1       9.517 -21.501   5.002  1.00  0.00     0.036 C 
HETATM    2  C2  UNL     1       9.896 -20.077   5.018  1.00  0.00    -0.023 C 
HETATM    3  C3  UNL     1       9.346 -19.280   4.090  1.00  0.00    -0.052 C 
HETATM    4  C4  UNL     1       8.415 -19.834   3.114  1.00  0.00     0.039 C 
HETATM    5  C5  UNL     1       8.941 -19.489   1.705  1.00  0.00     0.005 C 
HETATM    6  C6  UNL     1       9.324 -18.068   1.645  1.00  0.00     0.005 C 
HETATM    7  C7  UNL     1      10.292 -17.519   2.661  1.00  0.00     0.043 C 
HETATM    8  C8  UNL     1       9.814 -17.891   4.059  1.00  0.00    -0.007 C 
HETATM    9  C9  UNL     1       9.620 -17.013   5.023  1.00  0.00     0.122 A 
HETATM   10  N1  UNL     1       8.875 -17.232   6.239  1.00  0.00    -0.339 N 
HETATM   11  C12 UNL     1       9.108 -16.139   7.099  1.00  0.00     0.149 A 
HETATM   12  C13 UNL     1       9.914 -15.273   6.541  1.00  0.00     0.164 A 
HETATM   13  N2  UNL     1      10.292 -15.719   5.258  1.00  0.00    -0.285 N 
ENDROOT
BRANCH  13  14
HETATM   14  C14 UNL     1      11.191 -15.118   4.355  1.00  0.00     0.133 C 
BRANCH  14  15
HETATM   15  C15 UNL     1      11.089 -13.728   3.948  1.00  0.00     0.082 A 
HETATM   16  C16 UNL     1      10.688 -13.432   2.615  1.00  0.00     0.144 A 
HETATM   17  N3  UNL     1      10.671 -12.097   2.492  1.00  0.00    -0.287 N 
HETATM   18  N4  UNL     1      11.032 -11.603   3.657  1.00  0.00    -0.240 N 
HETATM   19  N5  UNL     1      11.270 -12.576   4.488  1.00  0.00    -0.284 N 
ATOM     20  H4  UNL     1      11.112 -10.611   3.875  1.00  0.00     0.208 HD
ATOM     21  H5  UNL     1      11.566 -12.441   5.455  1.00  0.00     0.188 HD
BRANCH  17  22
HETATM   22  C17 UNL     1      10.314 -11.386   1.257  1.00  0.00     0.150 C 
BRANCH  22  23
HETATM   23  C18 UNL     1      11.456 -10.579   0.731  1.00  0.00     0.022 C 
BRANCH  23  24
HETATM   24  C19 UNL     1      11.315  -9.116   1.055  1.00  0.00     0.001 C 
BRANCH  24  25
HETATM   25  C20 UNL     1      12.646  -8.516   1.498  1.00  0.00    -0.004 C 
HETATM   26  C21 UNL     1      12.633  -8.454   3.016  1.00  0.00     0.005 C 
ENDBRANCH  24  25
ENDBRANCH  23  24
ENDBRANCH  22  23
ENDBRANCH  17  22
ENDBRANCH  14  15
ENDBRANCH  13  14
BRANCH  12  27
HETATM   27  O1  UNL     1      10.331 -14.077   7.152  1.00  0.00    -0.345 OA
ATOM     28  H1  UNL     1      11.113 -13.597   6.905  1.00  0.00     0.219 HD
ENDBRANCH  12  27
BRANCH  10  29
HETATM   29  C10 UNL     1       7.973 -18.295   6.633  1.00  0.00     0.126 C 
HETATM   30  C11 UNL     1       6.585 -17.960   6.001  1.00  0.00     0.027 C 
ENDBRANCH  10  29
TORSDOF 8
ENDMDL
