MODEL 1
REMARK VINA RESULT: -6.973348837      0.000      0.000
REMARK  7 active torsions:
REMARK  status: ('A' for Active; 'I' for Inactive)
REMARK    1  A    between atoms: C2_2  and  N1_3 
REMARK    2  A    between atoms: C7_8  and  N2_9 
REMARK    3  A    between atoms: C10_12  and  O1_13 
REMARK    4  A    between atoms: C10_12  and  C11_15 
REMARK    5  A    between atoms: C11_15  and  C12_16 
REMARK    6  A    between atoms: C12_16  and  C13_17 
REMARK    7  A    between atoms: C18_24  and  S1_25 
ROOT
HETATM    1  N1  UNL     1       0.533  -1.994  -5.595  1.00  0.00    -0.337 N 
HETATM    2  C3  UNL     1      -0.485  -1.669  -6.408  1.00  0.00     0.010 A 
HETATM    3  C4  UNL     1      -0.454  -1.469  -7.900  1.00  0.00     0.068 C 
HETATM    4  C5  UNL     1      -1.594  -1.550  -5.599  1.00  0.00     0.044 A 
HETATM    5  C6  UNL     1      -1.265  -1.802  -4.279  1.00  0.00     0.054 A 
HETATM    6  C7  UNL     1      -1.957  -1.822  -3.090  1.00  0.00     0.119 A 
HETATM    7  N3  UNL     1      -1.284  -2.117  -1.969  1.00  0.00    -0.322 N 
ATOM      8  H3  UNL     1      -1.780  -2.136  -1.078  1.00  0.00     0.169 HD
HETATM    9  C18 UNL     1       0.044  -2.391  -1.995  1.00  0.00     0.147 A 
HETATM   10  N4  UNL     1       0.709  -2.368  -3.158  1.00  0.00    -0.322 N 
ATOM     11  H4  UNL     1       1.707  -2.577  -3.159  1.00  0.00     0.169 HD
HETATM   12  C20 UNL     1       0.107  -2.081  -4.323  1.00  0.00     0.123 A 
ENDROOT
BRANCH   6  13
HETATM   13  N2  UNL     1      -3.338  -1.540  -3.056  1.00  0.00    -0.366 N 
HETATM   14  C8  UNL     1      -4.068  -1.517  -1.828  1.00  0.00     0.127 C 
HETATM   15  C9  UNL     1      -5.422  -2.141  -1.865  1.00  0.00     0.057 C 
HETATM   16  C10 UNL     1      -6.178  -1.837  -3.121  1.00  0.00     0.061 C 
HETATM   17  C16 UNL     1      -5.458  -0.826  -3.992  1.00  0.00     0.057 C 
HETATM   18  C17 UNL     1      -4.060  -1.259  -4.301  1.00  0.00     0.127 C 
BRANCH  16  19
HETATM   19  O1  UNL     1      -6.302  -3.016  -3.893  1.00  0.00    -0.390 OA
ATOM     20  H1  UNL     1      -6.496  -2.785  -4.794  1.00  0.00     0.210 HD
ENDBRANCH  16  19
BRANCH  16  21
HETATM   21  C11 UNL     1      -7.577  -1.353  -2.816  1.00  0.00     0.038 C 
BRANCH  21  22
HETATM   22  C12 UNL     1      -8.080  -2.072  -1.605  1.00  0.00     0.007 C 
BRANCH  22  23
HETATM   23  C13 UNL     1      -8.820  -1.159  -0.653  1.00  0.00    -0.023 C 
HETATM   24  C14 UNL     1     -10.144  -1.764  -0.209  1.00  0.00     0.009 C 
HETATM   25  C15 UNL     1      -7.952  -1.056   0.601  1.00  0.00     0.009 C 
ENDBRANCH  22  23
ENDBRANCH  21  22
ENDBRANCH  16  21
ENDBRANCH   6  13
BRANCH   9  26
HETATM   26  S1  UNL     1       0.934  -2.782  -0.510  1.00  0.00    -0.098 SA
HETATM   27  C19 UNL     1       0.640  -1.440   0.685  1.00  0.00     0.099 C 
ENDBRANCH   9  26
BRANCH   1  28
HETATM   28  C2  UNL     1       1.894  -2.213  -6.064  1.00  0.00     0.126 C 
HETATM   29  C1  UNL     1       2.736  -0.984  -5.958  1.00  0.00     0.027 C 
ENDBRANCH   1  28
TORSDOF 7
ENDMDL
MODEL 2
REMARK VINA RESULT: -6.830589790      2.152      3.757
REMARK  7 active torsions:
REMARK  status: ('A' for Active; 'I' for Inactive)
REMARK    1  A    between atoms: C2_2  and  N1_3 
REMARK    2  A    between atoms: C7_8  and  N2_9 
REMARK    3  A    between atoms: C10_12  and  O1_13 
REMARK    4  A    between atoms: C10_12  and  C11_15 
REMARK    5  A    between atoms: C11_15  and  C12_16 
REMARK    6  A    between atoms: C12_16  and  C13_17 
REMARK    7  A    between atoms: C18_24  and  S1_25 
ROOT
HETATM    1  N1  UNL     1      -0.059  -2.167  -2.718  1.00  0.00    -0.337 N 
HETATM    2  C3  UNL     1      -0.673  -1.691  -1.623  1.00  0.00     0.010 A 
HETATM    3  C4  UNL     1      -0.056  -1.314  -0.302  1.00  0.00     0.068 C 
HETATM    4  C5  UNL     1      -2.010  -1.609  -1.944  1.00  0.00     0.044 A 
HETATM    5  C6  UNL     1      -2.229  -2.034  -3.242  1.00  0.00     0.054 A 
HETATM    6  C7  UNL     1      -3.333  -2.160  -4.052  1.00  0.00     0.119 A 
HETATM    7  N3  UNL     1      -3.157  -2.626  -5.297  1.00  0.00    -0.322 N 
ATOM      8  H3  UNL     1      -3.964  -2.726  -5.912  1.00  0.00     0.169 HD
HETATM    9  C18 UNL     1      -1.927  -2.966  -5.756  1.00  0.00     0.147 A 
HETATM   10  N4  UNL     1      -0.857  -2.840  -4.958  1.00  0.00    -0.322 N 
ATOM     11  H4  UNL     1       0.060  -3.101  -5.319  1.00  0.00     0.169 HD
HETATM   12  C20 UNL     1      -0.951  -2.383  -3.700  1.00  0.00     0.123 A 
ENDROOT
BRANCH   6  13
HETATM   13  N2  UNL     1      -4.615  -1.807  -3.583  1.00  0.00    -0.366 N 
HETATM   14  C8  UNL     1      -4.861  -1.540  -2.201  1.00  0.00     0.127 C 
HETATM   15  C9  UNL     1      -6.131  -2.093  -1.649  1.00  0.00     0.057 C 
HETATM   16  C10 UNL     1      -7.288  -1.967  -2.590  1.00  0.00     0.061 C 
HETATM   17  C16 UNL     1      -6.939  -1.155  -3.821  1.00  0.00     0.057 C 
HETATM   18  C17 UNL     1      -5.736  -1.704  -4.522  1.00  0.00     0.127 C 
BRANCH  16  19
HETATM   19  O1  UNL     1      -7.663  -3.252  -3.049  1.00  0.00    -0.390 OA
ATOM     20  H1  UNL     1      -7.850  -3.213  -3.980  1.00  0.00     0.210 HD
ENDBRANCH  16  19
BRANCH  16  21
HETATM   21  C11 UNL     1      -8.493  -1.368  -1.902  1.00  0.00     0.038 C 
BRANCH  21  22
HETATM   22  C12 UNL     1      -8.863  -2.236  -0.741  1.00  0.00     0.007 C 
BRANCH  22  23
HETATM   23  C13 UNL     1      -9.373  -1.440   0.440  1.00  0.00    -0.023 C 
HETATM   24  C14 UNL     1      -8.285  -0.558   1.035  1.00  0.00     0.009 C 
HETATM   25  C15 UNL     1     -10.439  -0.494  -0.113  1.00  0.00     0.009 C 
ENDBRANCH  22  23
ENDBRANCH  21  22
ENDBRANCH  16  21
ENDBRANCH   6  13
BRANCH   9  26
HETATM   26  S1  UNL     1      -1.695  -3.581  -7.404  1.00  0.00    -0.098 SA
HETATM   27  C19 UNL     1      -3.238  -3.296  -8.326  1.00  0.00     0.099 C 
ENDBRANCH   9  26
BRANCH   1  28
HETATM   28  C2  UNL     1       1.377  -2.402  -2.793  1.00  0.00     0.126 C 
HETATM   29  C1  UNL     1       1.745  -3.795  -2.402  1.00  0.00     0.027 C 
ENDBRANCH   1  28
TORSDOF 7
ENDMDL
MODEL 3
REMARK VINA RESULT: -6.781116097      3.416      7.060
REMARK  7 active torsions:
REMARK  status: ('A' for Active; 'I' for Inactive)
REMARK    1  A    between atoms: C2_2  and  N1_3 
REMARK    2  A    between atoms: C7_8  and  N2_9 
REMARK    3  A    between atoms: C10_12  and  O1_13 
REMARK    4  A    between atoms: C10_12  and  C11_15 
REMARK    5  A    between atoms: C11_15  and  C12_16 
REMARK    6  A    between atoms: C12_16  and  C13_17 
REMARK    7  A    between atoms: C18_24  and  S1_25 
ROOT
HETATM    1  N1  UNL     1      -5.254  -1.669  -2.533  1.00  0.00    -0.337 N 
HETATM    2  C3  UNL     1      -6.026  -1.872  -3.613  1.00  0.00     0.010 A 
HETATM    3  C4  UNL     1      -7.521  -1.733  -3.724  1.00  0.00     0.068 C 
HETATM    4  C5  UNL     1      -5.170  -2.242  -4.627  1.00  0.00     0.044 A 
HETATM    5  C6  UNL     1      -3.862  -2.268  -4.178  1.00  0.00     0.054 A 
HETATM    6  C7  UNL     1      -2.643  -2.560  -4.746  1.00  0.00     0.119 A 
HETATM    7  N3  UNL     1      -1.549  -2.477  -3.976  1.00  0.00    -0.322 N 
ATOM      8  H3  UNL     1      -0.636  -2.689  -4.380  1.00  0.00     0.169 HD
HETATM    9  C18 UNL     1      -1.629  -2.115  -2.671  1.00  0.00     0.147 A 
HETATM   10  N4  UNL     1      -2.821  -1.834  -2.128  1.00  0.00    -0.322 N 
ATOM     11  H4  UNL     1      -2.863  -1.564  -1.145  1.00  0.00     0.169 HD
HETATM   12  C20 UNL     1      -3.962  -1.895  -2.831  1.00  0.00     0.123 A 
ENDROOT
BRANCH   6  13
HETATM   13  N2  UNL     1      -2.552  -2.935  -6.102  1.00  0.00    -0.366 N 
HETATM   14  C8  UNL     1      -3.019  -2.083  -7.149  1.00  0.00     0.127 C 
HETATM   15  C9  UNL     1      -3.750  -2.759  -8.259  1.00  0.00     0.057 C 
HETATM   16  C10 UNL     1      -3.140  -4.067  -8.657  1.00  0.00     0.061 C 
HETATM   17  C16 UNL     1      -1.822  -4.321  -7.952  1.00  0.00     0.057 C 
HETATM   18  C17 UNL     1      -1.963  -4.227  -6.466  1.00  0.00     0.127 C 
BRANCH  16  19
HETATM   19  O1  UNL     1      -4.005  -5.122  -8.285  1.00  0.00    -0.390 OA
ATOM     20  H1  UNL     1      -3.501  -5.812  -7.869  1.00  0.00     0.210 HD
ENDBRANCH  16  19
BRANCH  16  21
HETATM   21  C11 UNL     1      -2.949  -4.151 -10.154  1.00  0.00     0.038 C 
BRANCH  21  22
HETATM   22  C12 UNL     1      -4.054  -3.395 -10.821  1.00  0.00     0.007 C 
BRANCH  22  23
HETATM   23  C13 UNL     1      -4.958  -4.290 -11.640  1.00  0.00    -0.023 C 
HETATM   24  C14 UNL     1      -4.407  -5.705 -11.740  1.00  0.00     0.009 C 
HETATM   25  C15 UNL     1      -6.271  -4.394 -10.864  1.00  0.00     0.009 C 
ENDBRANCH  22  23
ENDBRANCH  21  22
ENDBRANCH  16  21
ENDBRANCH   6  13
BRANCH   9  26
HETATM   26  S1  UNL     1      -0.179  -2.005  -1.654  1.00  0.00    -0.098 SA
HETATM   27  C19 UNL     1      -0.506  -0.776  -0.351  1.00  0.00     0.099 C 
ENDBRANCH   9  26
BRANCH   1  28
HETATM   28  C2  UNL     1      -5.779  -1.260  -1.238  1.00  0.00     0.126 C 
HETATM   29  C1  UNL     1      -6.460  -2.380  -0.522  1.00  0.00     0.027 C 
ENDBRANCH   1  28
TORSDOF 7
ENDMDL
MODEL 4
REMARK VINA RESULT: -6.716833560      2.440      3.687
REMARK  7 active torsions:
REMARK  status: ('A' for Active; 'I' for Inactive)
REMARK    1  A    between atoms: C2_2  and  N1_3 
REMARK    2  A    between atoms: C7_8  and  N2_9 
REMARK    3  A    between atoms: C10_12  and  O1_13 
REMARK    4  A    between atoms: C10_12  and  C11_15 
REMARK    5  A    between atoms: C11_15  and  C12_16 
REMARK    6  A    between atoms: C12_16  and  C13_17 
REMARK    7  A    between atoms: C18_24  and  S1_25 
ROOT
HETATM    1  N1  UNL     1       0.476   0.325  -0.166  1.00  0.00    -0.337 N 
HETATM    2  C3  UNL     1      -0.524   1.218  -0.080  1.00  0.00     0.010 A 
HETATM    3  C4  UNL     1      -0.501   2.579   0.563  1.00  0.00     0.068 C 
HETATM    4  C5  UNL     1      -1.604   0.638  -0.709  1.00  0.00     0.044 A 
HETATM    5  C6  UNL     1      -1.276  -0.617  -1.188  1.00  0.00     0.054 A 
HETATM    6  C7  UNL     1      -1.947  -1.605  -1.871  1.00  0.00     0.119 A 
HETATM    7  N3  UNL     1      -1.283  -2.729  -2.175  1.00  0.00    -0.322 N 
ATOM      8  H3  UNL     1      -1.765  -3.472  -2.682  1.00  0.00     0.169 HD
HETATM    9  C18 UNL     1       0.016  -2.899  -1.825  1.00  0.00     0.147 A 
HETATM   10  N4  UNL     1       0.660  -1.930  -1.159  1.00  0.00    -0.322 N 
ATOM     11  H4  UNL     1       1.637  -2.075  -0.903  1.00  0.00     0.169 HD
HETATM   12  C20 UNL     1       0.066  -0.777  -0.817  1.00  0.00     0.123 A 
ENDROOT
BRANCH   6  13
HETATM   13  N2  UNL     1      -3.297  -1.435  -2.240  1.00  0.00    -0.366 N 
HETATM   14  C8  UNL     1      -4.364  -1.715  -1.332  1.00  0.00     0.127 C 
HETATM   15  C9  UNL     1      -5.546  -2.413  -1.914  1.00  0.00     0.057 C 
HETATM   16  C10 UNL     1      -5.915  -1.915  -3.277  1.00  0.00     0.061 C 
HETATM   17  C16 UNL     1      -5.105  -0.700  -3.680  1.00  0.00     0.057 C 
HETATM   18  C17 UNL     1      -3.634  -0.959  -3.586  1.00  0.00     0.127 C 
BRANCH  16  19
HETATM   19  O1  UNL     1      -5.639  -2.919  -4.235  1.00  0.00    -0.390 OA
ATOM     20  H1  UNL     1      -6.449  -3.344  -4.489  1.00  0.00     0.210 HD
ENDBRANCH  16  19
BRANCH  16  21
HETATM   21  C11 UNL     1      -7.391  -1.604  -3.366  1.00  0.00     0.038 C 
BRANCH  21  22
HETATM   22  C12 UNL     1      -8.090  -2.264  -2.220  1.00  0.00     0.007 C 
BRANCH  22  23
HETATM   23  C13 UNL     1      -8.705  -1.267  -1.263  1.00  0.00    -0.023 C 
HETATM   24  C14 UNL     1     -10.136  -1.641  -0.905  1.00  0.00     0.009 C 
HETATM   25  C15 UNL     1      -7.899  -1.366   0.032  1.00  0.00     0.009 C 
ENDBRANCH  22  23
ENDBRANCH  21  22
ENDBRANCH  16  21
ENDBRANCH   6  13
BRANCH   9  26
HETATM   26  S1  UNL     1       0.894  -4.387  -2.229  1.00  0.00    -0.098 SA
HETATM   27  C19 UNL     1      -0.313  -5.749  -2.276  1.00  0.00     0.099 C 
ENDBRANCH   9  26
BRANCH   1  28
HETATM   28  C2  UNL     1       1.805   0.556   0.382  1.00  0.00     0.126 C 
HETATM   29  C1  UNL     1       2.692   1.291  -0.568  1.00  0.00     0.027 C 
ENDBRANCH   1  28
TORSDOF 7
ENDMDL
MODEL 5
REMARK VINA RESULT: -6.710821787      3.875      7.071
REMARK  7 active torsions:
REMARK  status: ('A' for Active; 'I' for Inactive)
REMARK    1  A    between atoms: C2_2  and  N1_3 
REMARK    2  A    between atoms: C7_8  and  N2_9 
REMARK    3  A    between atoms: C10_12  and  O1_13 
REMARK    4  A    between atoms: C10_12  and  C11_15 
REMARK    5  A    between atoms: C11_15  and  C12_16 
REMARK    6  A    between atoms: C12_16  and  C13_17 
REMARK    7  A    between atoms: C18_24  and  S1_25 
ROOT
HETATM    1  N1  UNL     1      -1.544  -1.710  -2.147  1.00  0.00    -0.337 N 
HETATM    2  C3  UNL     1      -0.503  -2.024  -2.935  1.00  0.00     0.010 A 
HETATM    3  C4  UNL     1       0.965  -1.954  -2.606  1.00  0.00     0.068 C 
HETATM    4  C5  UNL     1      -1.045  -2.434  -4.134  1.00  0.00     0.044 A 
HETATM    5  C6  UNL     1      -2.426  -2.376  -4.092  1.00  0.00     0.054 A 
HETATM    6  C7  UNL     1      -3.440  -2.659  -4.977  1.00  0.00     0.119 A 
HETATM    7  N3  UNL     1      -4.705  -2.474  -4.573  1.00  0.00    -0.322 N 
ATOM      8  H3  UNL     1      -5.470  -2.678  -5.217  1.00  0.00     0.169 HD
HETATM    9  C18 UNL     1      -4.989  -2.021  -3.327  1.00  0.00     0.147 A 
HETATM   10  N4  UNL     1      -3.994  -1.749  -2.472  1.00  0.00    -0.322 N 
ATOM     11  H4  UNL     1      -4.226  -1.409  -1.539  1.00  0.00     0.169 HD
HETATM   12  C20 UNL     1      -2.702  -1.906  -2.800  1.00  0.00     0.123 A 
ENDROOT
BRANCH   6  13
HETATM   13  N2  UNL     1      -3.152  -3.131  -6.274  1.00  0.00    -0.366 N 
HETATM   14  C8  UNL     1      -3.233  -2.278  -7.418  1.00  0.00     0.127 C 
HETATM   15  C9  UNL     1      -3.842  -2.883  -8.637  1.00  0.00     0.057 C 
HETATM   16  C10 UNL     1      -3.423  -4.302  -8.865  1.00  0.00     0.061 C 
HETATM   17  C16 UNL     1      -2.344  -4.743  -7.896  1.00  0.00     0.057 C 
HETATM   18  C17 UNL     1      -2.758  -4.529  -6.474  1.00  0.00     0.127 C 
BRANCH  16  19
HETATM   19  O1  UNL     1      -4.529  -5.159  -8.652  1.00  0.00    -0.390 OA
ATOM     20  H1  UNL     1      -4.312  -6.034  -8.952  1.00  0.00     0.210 HD
ENDBRANCH  16  19
BRANCH  16  21
HETATM   21  C11 UNL     1      -2.958  -4.515 -10.287  1.00  0.00     0.038 C 
BRANCH  21  22
HETATM   22  C12 UNL     1      -3.566  -3.458 -11.154  1.00  0.00     0.007 C 
BRANCH  22  23
HETATM   23  C13 UNL     1      -4.553  -4.022 -12.152  1.00  0.00    -0.023 C 
HETATM   24  C14 UNL     1      -4.480  -5.540 -12.218  1.00  0.00     0.009 C 
HETATM   25  C15 UNL     1      -5.943  -3.682 -11.615  1.00  0.00     0.009 C 
ENDBRANCH  22  23
ENDBRANCH  21  22
ENDBRANCH  16  21
ENDBRANCH   6  13
BRANCH   9  26
HETATM   26  S1  UNL     1      -6.664  -1.778  -2.793  1.00  0.00    -0.098 SA
HETATM   27  C19 UNL     1      -6.754  -2.214  -1.028  1.00  0.00     0.099 C 
ENDBRANCH   9  26
BRANCH   1  28
HETATM   28  C2  UNL     1      -1.398  -1.228  -0.780  1.00  0.00     0.126 C 
HETATM   29  C1  UNL     1      -1.788   0.206  -0.639  1.00  0.00     0.027 C 
ENDBRANCH   1  28
TORSDOF 7
ENDMDL
