MODEL 1
REMARK VINA RESULT: -6.469401684      0.000      0.000
REMARK  8 active torsions:
REMARK  status: ('A' for Active; 'I' for Inactive)
REMARK    1  A    between atoms: C2_2  and  C3_3 
REMARK    2  A    between atoms: C3_3  and  C4_4 
REMARK    3  A    between atoms: C4_4  and  C6_6 
REMARK    4  A    between atoms: C6_6  and  C8_8 
REMARK    5  A    between atoms: C8_8  and  S1_9 
REMARK    6  A    between atoms: S1_9  and  C9_10 
REMARK       I    between atoms: N2_15  and  C11_17 
REMARK    7  A    between atoms: C11_17  and  O2_19 
REMARK    8  A    between atoms: O2_19  and  C12_20 
ROOT
HETATM    1  C9  UNL     1      -2.155  -1.720  -2.985  1.00  0.00     0.099 A 
HETATM    2  N1  UNL     1      -2.283  -0.897  -1.942  1.00  0.00    -0.318 N 
ATOM      3  H1  UNL     1      -3.004  -0.192  -1.789  1.00  0.00     0.175 HD
HETATM    4  S2  UNL     1      -1.001  -1.275  -0.945  1.00  0.00     0.006 SA
HETATM    5  C10 UNL     1      -0.271  -2.533  -1.893  1.00  0.00     0.118 A 
HETATM    6  N2  UNL     1       0.778  -3.186  -1.581  1.00  0.00    -0.294 N 
ATOM      7  H2  UNL     1       1.156  -2.880  -0.684  1.00  0.00     0.172 HD
HETATM    8  C11 UNL     1       1.526  -4.181  -2.126  1.00  0.00     0.366 C 
HETATM    9  O1  UNL     1       1.361  -5.379  -1.685  1.00  0.00    -0.238 OA
HETATM   10  C16 UNL     1      -1.107  -2.583  -2.974  1.00  0.00     0.113 A 
HETATM   11  C17 UNL     1      -0.840  -3.556  -4.063  1.00  0.00     0.105 C 
HETATM   12  N3  UNL     1      -0.626  -4.331  -4.898  1.00  0.00    -0.191 NA
ENDROOT
BRANCH   1  13
HETATM   13  S1  UNL     1      -3.351  -1.694  -4.378  1.00  0.00    -0.110 SA
BRANCH  13  14
HETATM   14  C8  UNL     1      -4.870  -2.462  -3.888  1.00  0.00     0.089 C 
BRANCH  14  15
HETATM   15  C6  UNL     1      -5.931  -1.597  -3.321  1.00  0.00     0.019 C 
HETATM   16  C7  UNL     1      -6.928  -1.352  -4.479  1.00  0.00     0.015 C 
BRANCH  15  17
HETATM   17  C4  UNL     1      -6.662  -2.097  -2.156  1.00  0.00    -0.081 C 
HETATM   18  C5  UNL     1      -6.067  -2.506  -1.070  1.00  0.00     0.015 C 
BRANCH  17  19
HETATM   19  C3  UNL     1      -8.153  -2.138  -2.217  1.00  0.00     0.060 C 
BRANCH  19  20
HETATM   20  C2  UNL     1      -8.742  -1.837  -0.888  1.00  0.00    -0.033 C 
HETATM   21  C1  UNL     1     -10.020  -1.528  -0.803  1.00  0.00     0.007 C 
ENDBRANCH  19  20
ENDBRANCH  17  19
ENDBRANCH  15  17
ENDBRANCH  14  15
ENDBRANCH  13  14
ENDBRANCH   1  13
BRANCH   8  22
HETATM   22  O2  UNL     1       2.477  -4.082  -3.122  1.00  0.00    -0.294 OA
BRANCH  22  23
HETATM   23  C12 UNL     1       3.278  -2.998  -3.433  1.00  0.00     0.061 C 
HETATM   24  C13 UNL     1       4.434  -3.550  -4.285  1.00  0.00     0.046 C 
HETATM   25  C14 UNL     1       3.886  -2.252  -2.292  1.00  0.00     0.046 C 
HETATM   26  C15 UNL     1       2.571  -1.970  -4.302  1.00  0.00     0.046 C 
ENDBRANCH  22  23
ENDBRANCH   8  22
TORSDOF 8
ENDMDL
MODEL 2
REMARK VINA RESULT: -6.464962931      2.006      3.158
REMARK  8 active torsions:
REMARK  status: ('A' for Active; 'I' for Inactive)
REMARK    1  A    between atoms: C2_2  and  C3_3 
REMARK    2  A    between atoms: C3_3  and  C4_4 
REMARK    3  A    between atoms: C4_4  and  C6_6 
REMARK    4  A    between atoms: C6_6  and  C8_8 
REMARK    5  A    between atoms: C8_8  and  S1_9 
REMARK    6  A    between atoms: S1_9  and  C9_10 
REMARK       I    between atoms: N2_15  and  C11_17 
REMARK    7  A    between atoms: C11_17  and  O2_19 
REMARK    8  A    between atoms: O2_19  and  C12_20 
ROOT
HETATM    1  C9  UNL     1      -3.550  -1.989  -4.398  1.00  0.00     0.099 A 
HETATM    2  N1  UNL     1      -3.581  -2.612  -5.579  1.00  0.00    -0.318 N 
ATOM      3  H1  UNL     1      -4.345  -2.628  -6.254  1.00  0.00     0.175 HD
HETATM    4  S2  UNL     1      -2.094  -3.356  -5.704  1.00  0.00     0.006 SA
HETATM    5  C10 UNL     1      -1.402  -2.855  -4.193  1.00  0.00     0.118 A 
HETATM    6  N2  UNL     1      -0.240  -3.159  -3.770  1.00  0.00    -0.294 N 
ATOM      7  H2  UNL     1       0.259  -3.748  -4.437  1.00  0.00     0.172 HD
HETATM    8  C11 UNL     1       0.512  -2.906  -2.666  1.00  0.00     0.366 C 
HETATM    9  O1  UNL     1       1.420  -1.997  -2.742  1.00  0.00    -0.238 OA
HETATM   10  C16 UNL     1      -2.416  -2.106  -3.661  1.00  0.00     0.113 A 
HETATM   11  C17 UNL     1      -2.237  -1.470  -2.331  1.00  0.00     0.105 C 
HETATM   12  N3  UNL     1      -2.077  -0.966  -1.299  1.00  0.00    -0.191 NA
ENDROOT
BRANCH   1  13
HETATM   13  S1  UNL     1      -4.979  -1.007  -3.795  1.00  0.00    -0.110 SA
BRANCH  13  14
HETATM   14  C8  UNL     1      -6.376  -2.065  -3.538  1.00  0.00     0.089 C 
BRANCH  14  15
HETATM   15  C6  UNL     1      -7.437  -1.597  -2.615  1.00  0.00     0.019 C 
HETATM   16  C7  UNL     1      -8.774  -1.994  -3.285  1.00  0.00     0.015 C 
BRANCH  15  17
HETATM   17  C4  UNL     1      -7.417  -2.110  -1.244  1.00  0.00    -0.081 C 
HETATM   18  C5  UNL     1      -6.374  -2.695  -0.723  1.00  0.00     0.015 C 
BRANCH  17  19
HETATM   19  C3  UNL     1      -8.644  -1.951  -0.409  1.00  0.00     0.060 C 
BRANCH  19  20
HETATM   20  C2  UNL     1      -8.621  -0.658   0.319  1.00  0.00    -0.033 C 
HETATM   21  C1  UNL     1      -8.003  -0.581   1.480  1.00  0.00     0.007 C 
ENDBRANCH  19  20
ENDBRANCH  17  19
ENDBRANCH  15  17
ENDBRANCH  14  15
ENDBRANCH  13  14
ENDBRANCH   1  13
BRANCH   8  22
HETATM   22  O2  UNL     1       0.439  -3.515  -1.430  1.00  0.00    -0.294 OA
BRANCH  22  23
HETATM   23  C12 UNL     1       1.253  -4.509  -0.917  1.00  0.00     0.061 C 
HETATM   24  C13 UNL     1       1.203  -4.359   0.613  1.00  0.00     0.046 C 
HETATM   25  C14 UNL     1       2.690  -4.486  -1.318  1.00  0.00     0.046 C 
HETATM   26  C15 UNL     1       0.737  -5.908  -1.218  1.00  0.00     0.046 C 
ENDBRANCH  22  23
ENDBRANCH   8  22
TORSDOF 8
ENDMDL
MODEL 3
REMARK VINA RESULT: -6.426803714      2.331      3.319
REMARK  8 active torsions:
REMARK  status: ('A' for Active; 'I' for Inactive)
REMARK    1  A    between atoms: C2_2  and  C3_3 
REMARK    2  A    between atoms: C3_3  and  C4_4 
REMARK    3  A    between atoms: C4_4  and  C6_6 
REMARK    4  A    between atoms: C6_6  and  C8_8 
REMARK    5  A    between atoms: C8_8  and  S1_9 
REMARK    6  A    between atoms: S1_9  and  C9_10 
REMARK       I    between atoms: N2_15  and  C11_17 
REMARK    7  A    between atoms: C11_17  and  O2_19 
REMARK    8  A    between atoms: O2_19  and  C12_20 
ROOT
HETATM    1  C9  UNL     1      -2.242  -1.828  -2.600  1.00  0.00     0.099 A 
HETATM    2  N1  UNL     1      -2.167  -2.562  -3.713  1.00  0.00    -0.318 N 
ATOM      3  H1  UNL     1      -2.930  -2.829  -4.335  1.00  0.00     0.175 HD
HETATM    4  S2  UNL     1      -0.551  -2.945  -3.860  1.00  0.00     0.006 SA
HETATM    5  C10 UNL     1       0.057  -2.138  -2.448  1.00  0.00     0.118 A 
HETATM    6  N2  UNL     1       1.273  -2.114  -2.071  1.00  0.00    -0.294 N 
ATOM      7  H2  UNL     1       1.874  -2.636  -2.710  1.00  0.00     0.172 HD
HETATM    8  C11 UNL     1       1.984  -1.576  -1.044  1.00  0.00     0.366 C 
HETATM    9  O1  UNL     1       2.643  -0.492  -1.261  1.00  0.00    -0.238 OA
HETATM   10  C16 UNL     1      -1.087  -1.597  -1.926  1.00  0.00     0.113 A 
HETATM   11  C17 UNL     1      -1.016  -0.799  -0.676  1.00  0.00     0.105 C 
HETATM   12  N3  UNL     1      -0.943  -0.166   0.292  1.00  0.00    -0.191 NA
ENDROOT
BRANCH   1  13
HETATM   13  S1  UNL     1      -3.841  -1.152  -2.005  1.00  0.00    -0.110 SA
BRANCH  13  14
HETATM   14  C8  UNL     1      -5.182  -2.129  -2.626  1.00  0.00     0.089 C 
BRANCH  14  15
HETATM   15  C6  UNL     1      -6.390  -1.418  -3.109  1.00  0.00     0.019 C 
HETATM   16  C7  UNL     1      -6.319  -1.482  -4.653  1.00  0.00     0.015 C 
BRANCH  15  17
HETATM   17  C4  UNL     1      -7.692  -1.919  -2.667  1.00  0.00    -0.081 C 
HETATM   18  C5  UNL     1      -8.740  -1.947  -3.444  1.00  0.00     0.015 C 
BRANCH  17  19
HETATM   19  C3  UNL     1      -7.822  -2.422  -1.267  1.00  0.00     0.060 C 
BRANCH  19  20
HETATM   20  C2  UNL     1      -8.861  -1.659  -0.530  1.00  0.00    -0.033 C 
HETATM   21  C1  UNL     1      -8.515  -0.953   0.527  1.00  0.00     0.007 C 
ENDBRANCH  19  20
ENDBRANCH  17  19
ENDBRANCH  15  17
ENDBRANCH  14  15
ENDBRANCH  13  14
ENDBRANCH   1  13
BRANCH   8  22
HETATM   22  O2  UNL     1       2.105  -2.051   0.246  1.00  0.00    -0.294 OA
BRANCH  22  23
HETATM   23  C12 UNL     1       2.466  -3.321   0.658  1.00  0.00     0.061 C 
HETATM   24  C13 UNL     1       2.975  -3.175   2.102  1.00  0.00     0.046 C 
HETATM   25  C14 UNL     1       3.535  -4.012  -0.122  1.00  0.00     0.046 C 
HETATM   26  C15 UNL     1       1.285  -4.277   0.725  1.00  0.00     0.046 C 
ENDBRANCH  22  23
ENDBRANCH   8  22
TORSDOF 8
ENDMDL
MODEL 4
REMARK VINA RESULT: -6.421991972      0.875      1.139
REMARK  8 active torsions:
REMARK  status: ('A' for Active; 'I' for Inactive)
REMARK    1  A    between atoms: C2_2  and  C3_3 
REMARK    2  A    between atoms: C3_3  and  C4_4 
REMARK    3  A    between atoms: C4_4  and  C6_6 
REMARK    4  A    between atoms: C6_6  and  C8_8 
REMARK    5  A    between atoms: C8_8  and  S1_9 
REMARK    6  A    between atoms: S1_9  and  C9_10 
REMARK       I    between atoms: N2_15  and  C11_17 
REMARK    7  A    between atoms: C11_17  and  O2_19 
REMARK    8  A    between atoms: O2_19  and  C12_20 
ROOT
HETATM    1  C9  UNL     1      -1.880  -1.678  -2.241  1.00  0.00     0.099 A 
HETATM    2  N1  UNL     1      -1.830  -0.844  -1.200  1.00  0.00    -0.318 N 
ATOM      3  H1  UNL     1      -2.524  -0.149  -0.924  1.00  0.00     0.175 HD
HETATM    4  S2  UNL     1      -0.380  -1.188  -0.450  1.00  0.00     0.006 SA
HETATM    5  C10 UNL     1       0.186  -2.447  -1.504  1.00  0.00     0.118 A 
HETATM    6  N2  UNL     1       1.286  -3.078  -1.383  1.00  0.00    -0.294 N 
ATOM      7  H2  UNL     1       1.817  -2.755  -0.573  1.00  0.00     0.172 HD
HETATM    8  C11 UNL     1       1.940  -4.068  -2.047  1.00  0.00     0.366 C 
HETATM    9  O1  UNL     1       1.881  -5.263  -1.572  1.00  0.00    -0.238 OA
HETATM   10  C16 UNL     1      -0.832  -2.524  -2.414  1.00  0.00     0.113 A 
HETATM   11  C17 UNL     1      -0.750  -3.506  -3.524  1.00  0.00     0.105 C 
HETATM   12  N3  UNL     1      -0.679  -4.288  -4.377  1.00  0.00    -0.191 NA
ENDROOT
BRANCH   1  13
HETATM   13  S1  UNL     1      -3.310  -1.689  -3.392  1.00  0.00    -0.110 SA
BRANCH  13  14
HETATM   14  C8  UNL     1      -4.784  -2.150  -2.524  1.00  0.00     0.089 C 
BRANCH  14  15
HETATM   15  C6  UNL     1      -6.037  -1.434  -2.860  1.00  0.00     0.019 C 
HETATM   16  C7  UNL     1      -6.211  -1.597  -4.389  1.00  0.00     0.015 C 
BRANCH  15  17
HETATM   17  C4  UNL     1      -7.264  -1.866  -2.189  1.00  0.00    -0.081 C 
HETATM   18  C5  UNL     1      -8.397  -2.021  -2.817  1.00  0.00     0.015 C 
BRANCH  17  19
HETATM   19  C3  UNL     1      -7.212  -2.141  -0.722  1.00  0.00     0.060 C 
BRANCH  19  20
HETATM   20  C2  UNL     1      -8.214  -1.319   0.002  1.00  0.00    -0.033 C 
HETATM   21  C1  UNL     1      -7.878  -0.747   1.140  1.00  0.00     0.007 C 
ENDBRANCH  19  20
ENDBRANCH  17  19
ENDBRANCH  15  17
ENDBRANCH  14  15
ENDBRANCH  13  14
ENDBRANCH   1  13
BRANCH   8  22
HETATM   22  O2  UNL     1       2.691  -3.966  -3.200  1.00  0.00    -0.294 OA
BRANCH  22  23
HETATM   23  C12 UNL     1       3.450  -2.894  -3.634  1.00  0.00     0.061 C 
HETATM   24  C13 UNL     1       4.401  -3.448  -4.709  1.00  0.00     0.046 C 
HETATM   25  C14 UNL     1       4.290  -2.199  -2.614  1.00  0.00     0.046 C 
HETATM   26  C15 UNL     1       2.619  -1.822  -4.322  1.00  0.00     0.046 C 
ENDBRANCH  22  23
ENDBRANCH   8  22
TORSDOF 8
ENDMDL
MODEL 5
REMARK VINA RESULT: -6.339870740      3.086      4.051
REMARK  8 active torsions:
REMARK  status: ('A' for Active; 'I' for Inactive)
REMARK    1  A    between atoms: C2_2  and  C3_3 
REMARK    2  A    between atoms: C3_3  and  C4_4 
REMARK    3  A    between atoms: C4_4  and  C6_6 
REMARK    4  A    between atoms: C6_6  and  C8_8 
REMARK    5  A    between atoms: C8_8  and  S1_9 
REMARK    6  A    between atoms: S1_9  and  C9_10 
REMARK       I    between atoms: N2_15  and  C11_17 
REMARK    7  A    between atoms: C11_17  and  O2_19 
REMARK    8  A    between atoms: O2_19  and  C12_20 
ROOT
HETATM    1  C9  UNL     1      -2.170  -1.638  -1.992  1.00  0.00     0.099 A 
HETATM    2  N1  UNL     1      -1.924  -2.718  -2.738  1.00  0.00    -0.318 N 
ATOM      3  H1  UNL     1      -2.581  -3.234  -3.322  1.00  0.00     0.175 HD
HETATM    4  S2  UNL     1      -0.304  -3.034  -2.501  1.00  0.00     0.006 SA
HETATM    5  C10 UNL     1       0.077  -1.739  -1.409  1.00  0.00     0.118 A 
HETATM    6  N2  UNL     1       1.221  -1.512  -0.897  1.00  0.00    -0.294 N 
ATOM      7  H2  UNL     1       1.914  -2.194  -1.208  1.00  0.00     0.172 HD
HETATM    8  C11 UNL     1       1.764  -0.601  -0.046  1.00  0.00     0.366 C 
HETATM    9  O1  UNL     1       2.447   0.369  -0.546  1.00  0.00    -0.238 OA
HETATM   10  C16 UNL     1      -1.133  -1.114  -1.290  1.00  0.00     0.113 A 
HETATM   11  C17 UNL     1      -1.258   0.083  -0.421  1.00  0.00     0.105 C 
HETATM   12  N3  UNL     1      -1.335   1.026   0.249  1.00  0.00    -0.191 NA
ENDROOT
BRANCH   1  13
HETATM   13  S1  UNL     1      -3.843  -0.885  -1.920  1.00  0.00    -0.110 SA
BRANCH  13  14
HETATM   14  C8  UNL     1      -5.023  -1.953  -2.699  1.00  0.00     0.089 C 
BRANCH  14  15
HETATM   15  C6  UNL     1      -6.294  -1.354  -3.169  1.00  0.00     0.019 C 
HETATM   16  C7  UNL     1      -6.294  -1.532  -4.706  1.00  0.00     0.015 C 
BRANCH  15  17
HETATM   17  C4  UNL     1      -7.540  -1.894  -2.623  1.00  0.00    -0.081 C 
HETATM   18  C5  UNL     1      -8.630  -2.010  -3.330  1.00  0.00     0.015 C 
BRANCH  17  19
HETATM   19  C3  UNL     1      -7.559  -2.333  -1.196  1.00  0.00     0.060 C 
BRANCH  19  20
HETATM   20  C2  UNL     1      -8.636  -1.639  -0.447  1.00  0.00    -0.033 C 
HETATM   21  C1  UNL     1      -8.325  -0.918   0.611  1.00  0.00     0.007 C 
ENDBRANCH  19  20
ENDBRANCH  17  19
ENDBRANCH  15  17
ENDBRANCH  14  15
ENDBRANCH  13  14
ENDBRANCH   1  13
BRANCH   8  22
HETATM   22  O2  UNL     1       1.685  -0.572   1.332  1.00  0.00    -0.294 OA
BRANCH  22  23
HETATM   23  C12 UNL     1       2.464  -1.256   2.247  1.00  0.00     0.061 C 
HETATM   24  C13 UNL     1       1.857  -0.966   3.630  1.00  0.00     0.046 C 
HETATM   25  C14 UNL     1       3.911  -0.895   2.313  1.00  0.00     0.046 C 
HETATM   26  C15 UNL     1       2.397  -2.765   2.068  1.00  0.00     0.046 C 
ENDBRANCH  22  23
ENDBRANCH   8  22
TORSDOF 8
ENDMDL
