MODEL 1
REMARK VINA RESULT: -6.282031681      0.000      0.000
REMARK  6 active torsions:
REMARK  status: ('A' for Active; 'I' for Inactive)
REMARK    1  A    between atoms: C2_2  and  N1_3 
REMARK    2  A    between atoms: C4_9  and  C5_10 
REMARK    3  A    between atoms: C5_10  and  O1_11 
REMARK    4  A    between atoms: C5_10  and  C6_13 
REMARK    5  A    between atoms: C5_10  and  C8_15 
REMARK    6  A    between atoms: N4_17  and  C10_18 
ROOT
HETATM    1  C8  UNL     1      -1.878  -2.915  -6.425  1.00  0.00     0.024 A 
HETATM    2  C9  UNL     1      -2.528  -2.869  -7.660  1.00  0.00     0.123 A 
HETATM    3  N4  UNL     1      -2.864  -4.109  -8.036  1.00  0.00    -0.293 N 
HETATM    4  N5  UNL     1      -2.457  -4.911  -7.105  1.00  0.00    -0.302 N 
ATOM      5  H5  UNL     1      -2.580  -5.924  -7.125  1.00  0.00     0.186 HD
HETATM    6  C20 UNL     1      -1.845  -4.231  -6.094  1.00  0.00     0.033 A 
HETATM    7  C21 UNL     1      -1.232  -4.903  -4.930  1.00  0.00     0.070 C 
ENDROOT
BRANCH   1   8
HETATM    8  C5  UNL     1      -1.448  -1.690  -5.708  1.00  0.00     0.147 C 
BRANCH   8   9
HETATM    9  C4  UNL     1      -2.155  -1.759  -4.342  1.00  0.00     0.139 A 
HETATM   10  N1  UNL     1      -3.467  -1.781  -4.176  1.00  0.00    -0.328 N 
HETATM   11  C3  UNL     1      -3.665  -1.838  -2.841  1.00  0.00     0.201 A 
HETATM   12  N2  UNL     1      -2.488  -1.853  -2.187  1.00  0.00    -0.295 N 
HETATM   13  N3  UNL     1      -1.570  -1.803  -3.135  1.00  0.00    -0.285 N 
ATOM     14  H2  UNL     1      -2.339  -1.893  -1.179  1.00  0.00     0.187 HD
ATOM     15  H3  UNL     1      -0.563  -1.798  -2.974  1.00  0.00     0.188 HD
BRANCH  10  16
HETATM   16  C2  UNL     1      -4.537  -1.747  -5.123  1.00  0.00     0.127 C 
HETATM   17  C1  UNL     1      -5.820  -1.408  -4.417  1.00  0.00     0.027 C 
ENDBRANCH  10  16
ENDBRANCH   8   9
BRANCH   8  18
HETATM   18  O1  UNL     1      -1.797  -0.532  -6.318  1.00  0.00    -0.377 OA
ATOM     19  H1  UNL     1      -1.219   0.158  -6.014  1.00  0.00     0.211 HD
ENDBRANCH   8  18
BRANCH   8  20
HETATM   20  C6  UNL     1       0.027  -1.809  -5.375  1.00  0.00     0.047 C 
HETATM   21  C7  UNL     1       1.022  -1.250  -6.297  1.00  0.00     0.009 C 
ENDBRANCH   8  20
ENDBRANCH   1   8
BRANCH   3  22
HETATM   22  C10 UNL     1      -3.564  -4.437  -9.285  1.00  0.00     0.054 C 
HETATM   23  C11 UNL     1      -4.261  -3.202  -9.799  1.00  0.00     0.038 C 
HETATM   24  C12 UNL     1      -4.983  -3.521 -11.093  1.00  0.00    -0.011 C 
HETATM   25  C13 UNL     1      -5.959  -4.617 -10.835  1.00  0.00     0.009 C 
HETATM   26  C17 UNL     1      -3.976  -3.960 -12.131  1.00  0.00     0.009 C 
HETATM   27  C14 UNL     1      -5.220  -5.848 -10.379  1.00  0.00    -0.011 C 
HETATM   28  C15 UNL     1      -4.186  -6.285 -11.392  1.00  0.00     0.009 C 
HETATM   29  C19 UNL     1      -4.545  -5.565  -9.065  1.00  0.00     0.038 C 
HETATM   30  C16 UNL     1      -3.216  -5.149 -11.634  1.00  0.00    -0.011 C 
HETATM   31  C18 UNL     1      -2.540  -4.834 -10.320  1.00  0.00     0.038 C 
ENDBRANCH   3  22
TORSDOF 6
ENDMDL
MODEL 2
REMARK VINA RESULT: -6.146976226      6.897     10.342
REMARK  6 active torsions:
REMARK  status: ('A' for Active; 'I' for Inactive)
REMARK    1  A    between atoms: C2_2  and  N1_3 
REMARK    2  A    between atoms: C4_9  and  C5_10 
REMARK    3  A    between atoms: C5_10  and  O1_11 
REMARK    4  A    between atoms: C5_10  and  C6_13 
REMARK    5  A    between atoms: C5_10  and  C8_15 
REMARK    6  A    between atoms: N4_17  and  C10_18 
ROOT
HETATM    1  C8  UNL     1       0.599  -2.799  -0.285  1.00  0.00     0.024 A 
HETATM    2  C9  UNL     1       1.399  -3.559   0.570  1.00  0.00     0.123 A 
HETATM    3  N4  UNL     1       1.621  -4.761   0.025  1.00  0.00    -0.293 N 
HETATM    4  N5  UNL     1       1.003  -4.782  -1.113  1.00  0.00    -0.302 N 
ATOM      5  H5  UNL     1       0.999  -5.579  -1.749  1.00  0.00     0.186 HD
HETATM    6  C20 UNL     1       0.360  -3.604  -1.351  1.00  0.00     0.033 A 
HETATM    7  C21 UNL     1      -0.475  -3.373  -2.549  1.00  0.00     0.070 C 
ENDROOT
BRANCH   1   8
HETATM    8  C5  UNL     1       0.241  -1.389   0.007  1.00  0.00     0.147 C 
BRANCH   8   9
HETATM    9  C4  UNL     1       1.445  -0.562  -0.478  1.00  0.00     0.139 A 
HETATM   10  N1  UNL     1       1.733   0.659  -0.061  1.00  0.00    -0.328 N 
HETATM   11  C3  UNL     1       2.850   1.018  -0.730  1.00  0.00     0.201 A 
HETATM   12  N2  UNL     1       3.250   0.030  -1.552  1.00  0.00    -0.295 N 
HETATM   13  N3  UNL     1       2.366  -0.936  -1.379  1.00  0.00    -0.285 N 
ATOM     14  H2  UNL     1       4.059   0.028  -2.172  1.00  0.00     0.187 HD
ATOM     15  H3  UNL     1       2.381  -1.835  -1.860  1.00  0.00     0.188 HD
BRANCH  10  16
HETATM   16  C2  UNL     1       1.078   1.513   0.880  1.00  0.00     0.127 C 
HETATM   17  C1  UNL     1       0.413   2.646   0.148  1.00  0.00     0.027 C 
ENDBRANCH  10  16
ENDBRANCH   8   9
BRANCH   8  18
HETATM   18  O1  UNL     1       0.034  -1.125   1.319  1.00  0.00    -0.377 OA
ATOM     19  H1  UNL     1      -0.743  -0.584   1.401  1.00  0.00     0.211 HD
ENDBRANCH   8  18
BRANCH   8  20
HETATM   20  C6  UNL     1      -0.895  -0.973  -0.907  1.00  0.00     0.047 C 
HETATM   21  C7  UNL     1      -1.943  -0.083  -0.397  1.00  0.00     0.009 C 
ENDBRANCH   8  20
ENDBRANCH   1   8
BRANCH   3  22
HETATM   22  C10 UNL     1       2.425  -5.821   0.649  1.00  0.00     0.054 C 
HETATM   23  C11 UNL     1       3.395  -6.367  -0.369  1.00  0.00     0.038 C 
HETATM   24  C12 UNL     1       4.239  -7.458   0.260  1.00  0.00    -0.011 C 
HETATM   25  C13 UNL     1       3.332  -8.529   0.763  1.00  0.00     0.009 C 
HETATM   26  C17 UNL     1       5.035  -6.876   1.406  1.00  0.00     0.009 C 
HETATM   27  C14 UNL     1       2.419  -7.958   1.816  1.00  0.00    -0.011 C 
HETATM   28  C15 UNL     1       3.198  -7.343   2.957  1.00  0.00     0.009 C 
HETATM   29  C19 UNL     1       1.534  -6.913   1.193  1.00  0.00     0.038 C 
HETATM   30  C16 UNL     1       4.110  -6.266   2.411  1.00  0.00    -0.011 C 
HETATM   31  C18 UNL     1       3.242  -5.213   1.762  1.00  0.00     0.038 C 
ENDBRANCH   3  22
TORSDOF 6
ENDMDL
MODEL 3
REMARK VINA RESULT: -6.131730556      6.908     10.385
REMARK  6 active torsions:
REMARK  status: ('A' for Active; 'I' for Inactive)
REMARK    1  A    between atoms: C2_2  and  N1_3 
REMARK    2  A    between atoms: C4_9  and  C5_10 
REMARK    3  A    between atoms: C5_10  and  O1_11 
REMARK    4  A    between atoms: C5_10  and  C6_13 
REMARK    5  A    between atoms: C5_10  and  C8_15 
REMARK    6  A    between atoms: N4_17  and  C10_18 
ROOT
HETATM    1  C8  UNL     1       0.619  -2.789  -0.285  1.00  0.00     0.024 A 
HETATM    2  C9  UNL     1       1.443  -3.536   0.558  1.00  0.00     0.123 A 
HETATM    3  N4  UNL     1       1.671  -4.737   0.013  1.00  0.00    -0.293 N 
HETATM    4  N5  UNL     1       1.033  -4.770  -1.113  1.00  0.00    -0.302 N 
ATOM      5  H5  UNL     1       1.027  -5.570  -1.747  1.00  0.00     0.186 HD
HETATM    6  C20 UNL     1       0.371  -3.601  -1.344  1.00  0.00     0.033 A 
HETATM    7  C21 UNL     1      -0.488  -3.385  -2.528  1.00  0.00     0.070 C 
ENDROOT
BRANCH   1   8
HETATM    8  C5  UNL     1       0.248  -1.383   0.008  1.00  0.00     0.147 C 
BRANCH   8   9
HETATM    9  C4  UNL     1       1.445  -0.545  -0.477  1.00  0.00     0.139 A 
HETATM   10  N1  UNL     1       1.730   0.673  -0.049  1.00  0.00    -0.328 N 
HETATM   11  C3  UNL     1       2.840   1.045  -0.722  1.00  0.00     0.201 A 
HETATM   12  N2  UNL     1       3.239   0.068  -1.558  1.00  0.00    -0.295 N 
HETATM   13  N3  UNL     1       2.361  -0.904  -1.389  1.00  0.00    -0.285 N 
ATOM     14  H2  UNL     1       4.043   0.077  -2.185  1.00  0.00     0.187 HD
ATOM     15  H3  UNL     1       2.376  -1.798  -1.880  1.00  0.00     0.188 HD
BRANCH  10  16
HETATM   16  C2  UNL     1       1.078   1.514   0.906  1.00  0.00     0.127 C 
HETATM   17  C1  UNL     1       0.433   2.671   0.196  1.00  0.00     0.027 C 
ENDBRANCH  10  16
ENDBRANCH   8   9
BRANCH   8  18
HETATM   18  O1  UNL     1       0.039  -1.122   1.320  1.00  0.00    -0.377 OA
ATOM     19  H1  UNL     1      -0.636  -1.707   1.644  1.00  0.00     0.211 HD
ENDBRANCH   8  18
BRANCH   8  20
HETATM   20  C6  UNL     1      -0.892  -0.976  -0.905  1.00  0.00     0.047 C 
HETATM   21  C7  UNL     1      -1.932  -0.073  -0.402  1.00  0.00     0.009 C 
ENDBRANCH   8  20
ENDBRANCH   1   8
BRANCH   3  22
HETATM   22  C10 UNL     1       2.499  -5.785   0.626  1.00  0.00     0.054 C 
HETATM   23  C11 UNL     1       3.234  -5.202   1.808  1.00  0.00     0.038 C 
HETATM   24  C12 UNL     1       4.089  -6.272   2.459  1.00  0.00    -0.011 C 
HETATM   25  C13 UNL     1       5.043  -6.801   1.443  1.00  0.00     0.009 C 
HETATM   26  C17 UNL     1       3.199  -7.386   2.960  1.00  0.00     0.009 C 
HETATM   27  C14 UNL     1       4.272  -7.423   0.309  1.00  0.00    -0.011 C 
HETATM   28  C15 UNL     1       3.352  -8.520   0.795  1.00  0.00     0.009 C 
HETATM   29  C19 UNL     1       3.462  -6.362  -0.384  1.00  0.00     0.038 C 
HETATM   30  C16 UNL     1       2.402  -7.951   1.826  1.00  0.00    -0.011 C 
HETATM   31  C18 UNL     1       1.591  -6.867   1.156  1.00  0.00     0.038 C 
ENDBRANCH   3  22
TORSDOF 6
ENDMDL
MODEL 4
REMARK VINA RESULT: -6.081888623      1.101      1.753
REMARK  6 active torsions:
REMARK  status: ('A' for Active; 'I' for Inactive)
REMARK    1  A    between atoms: C2_2  and  N1_3 
REMARK    2  A    between atoms: C4_9  and  C5_10 
REMARK    3  A    between atoms: C5_10  and  O1_11 
REMARK    4  A    between atoms: C5_10  and  C6_13 
REMARK    5  A    between atoms: C5_10  and  C8_15 
REMARK    6  A    between atoms: N4_17  and  C10_18 
ROOT
HETATM    1  C8  UNL     1      -2.507  -3.306  -6.367  1.00  0.00     0.024 A 
HETATM    2  C9  UNL     1      -3.088  -2.999  -7.599  1.00  0.00     0.123 A 
HETATM    3  N4  UNL     1      -3.232  -4.118  -8.318  1.00  0.00    -0.293 N 
HETATM    4  N5  UNL     1      -2.772  -5.092  -7.601  1.00  0.00    -0.302 N 
ATOM      5  H5  UNL     1      -2.754  -6.068  -7.900  1.00  0.00     0.186 HD
HETATM    6  C20 UNL     1      -2.314  -4.650  -6.396  1.00  0.00     0.033 A 
HETATM    7  C21 UNL     1      -1.680  -5.540  -5.401  1.00  0.00     0.070 C 
ENDROOT
BRANCH   1   8
HETATM    8  C5  UNL     1      -2.287  -2.284  -5.315  1.00  0.00     0.147 C 
BRANCH   8   9
HETATM    9  C4  UNL     1      -3.618  -2.212  -4.545  1.00  0.00     0.139 A 
HETATM   10  N1  UNL     1      -3.737  -1.823  -3.286  1.00  0.00    -0.328 N 
HETATM   11  C3  UNL     1      -5.054  -1.911  -3.000  1.00  0.00     0.201 A 
HETATM   12  N2  UNL     1      -5.744  -2.349  -4.069  1.00  0.00    -0.295 N 
HETATM   13  N3  UNL     1      -4.836  -2.529  -5.011  1.00  0.00    -0.285 N 
ATOM     14  H2  UNL     1      -6.749  -2.507  -4.137  1.00  0.00     0.187 HD
ATOM     15  H3  UNL     1      -5.031  -2.860  -5.956  1.00  0.00     0.188 HD
BRANCH  10  16
HETATM   16  C2  UNL     1      -2.759  -1.390  -2.338  1.00  0.00     0.127 C 
HETATM   17  C1  UNL     1      -3.405  -0.477  -1.334  1.00  0.00     0.027 C 
ENDBRANCH  10  16
ENDBRANCH   8   9
BRANCH   8  18
HETATM   18  O1  UNL     1      -1.993  -1.049  -5.787  1.00  0.00    -0.377 OA
ATOM     19  H1  UNL     1      -1.091  -1.044  -6.085  1.00  0.00     0.211 HD
ENDBRANCH   8  18
BRANCH   8  20
HETATM   20  C6  UNL     1      -1.295  -2.826  -4.304  1.00  0.00     0.047 C 
HETATM   21  C7  UNL     1       0.112  -2.421  -4.386  1.00  0.00     0.009 C 
ENDBRANCH   8  20
ENDBRANCH   1   8
BRANCH   3  22
HETATM   22  C10 UNL     1      -3.811  -4.170  -9.668  1.00  0.00     0.054 C 
HETATM   23  C11 UNL     1      -4.086  -2.763 -10.140  1.00  0.00     0.038 C 
HETATM   24  C12 UNL     1      -4.677  -2.797 -11.535  1.00  0.00    -0.011 C 
HETATM   25  C13 UNL     1      -5.930  -3.604 -11.501  1.00  0.00     0.009 C 
HETATM   26  C17 UNL     1      -3.683  -3.427 -12.484  1.00  0.00     0.009 C 
HETATM   27  C14 UNL     1      -5.606  -5.013 -11.081  1.00  0.00    -0.011 C 
HETATM   28  C15 UNL     1      -4.589  -5.650 -12.001  1.00  0.00     0.009 C 
HETATM   29  C19 UNL     1      -5.071  -5.003  -9.675  1.00  0.00     0.038 C 
HETATM   30  C16 UNL     1      -3.335  -4.804 -12.016  1.00  0.00    -0.011 C 
HETATM   31  C18 UNL     1      -2.790  -4.763 -10.607  1.00  0.00     0.038 C 
ENDBRANCH   3  22
TORSDOF 6
ENDMDL
MODEL 5
REMARK VINA RESULT: -6.042703230      3.875      5.920
REMARK  6 active torsions:
REMARK  status: ('A' for Active; 'I' for Inactive)
REMARK    1  A    between atoms: C2_2  and  N1_3 
REMARK    2  A    between atoms: C4_9  and  C5_10 
REMARK    3  A    between atoms: C5_10  and  O1_11 
REMARK    4  A    between atoms: C5_10  and  C6_13 
REMARK    5  A    between atoms: C5_10  and  C8_15 
REMARK    6  A    between atoms: N4_17  and  C10_18 
ROOT
HETATM    1  C8  UNL     1       0.231  -1.873  -1.231  1.00  0.00     0.024 A 
HETATM    2  C9  UNL     1      -0.334  -1.621  -2.482  1.00  0.00     0.123 A 
HETATM    3  N4  UNL     1      -0.491  -2.774  -3.143  1.00  0.00    -0.293 N 
HETATM    4  N5  UNL     1      -0.053  -3.717  -2.372  1.00  0.00    -0.302 N 
ATOM      5  H5  UNL     1      -0.049  -4.707  -2.619  1.00  0.00     0.186 HD
HETATM    6  C20 UNL     1       0.401  -3.219  -1.187  1.00  0.00     0.033 A 
HETATM    7  C21 UNL     1       1.013  -4.066  -0.141  1.00  0.00     0.070 C 
ENDROOT
BRANCH   1   8
HETATM    8  C5  UNL     1       0.459  -0.801  -0.232  1.00  0.00     0.147 C 
BRANCH   8   9
HETATM    9  C4  UNL     1      -0.845   0.018  -0.221  1.00  0.00     0.139 A 
HETATM   10  N1  UNL     1      -0.906   1.328  -0.051  1.00  0.00    -0.328 N 
HETATM   11  C3  UNL     1      -2.219   1.641  -0.104  1.00  0.00     0.201 A 
HETATM   12  N2  UNL     1      -2.963   0.538  -0.306  1.00  0.00    -0.295 N 
HETATM   13  N3  UNL     1      -2.092  -0.453  -0.375  1.00  0.00    -0.285 N 
ATOM     14  H2  UNL     1      -3.977   0.479  -0.387  1.00  0.00     0.187 HD
ATOM     15  H3  UNL     1      -2.331  -1.433  -0.523  1.00  0.00     0.188 HD
BRANCH  10  16
HETATM   16  C2  UNL     1       0.120   2.301   0.160  1.00  0.00     0.127 C 
HETATM   17  C1  UNL     1      -0.248   3.578  -0.544  1.00  0.00     0.027 C 
ENDBRANCH  10  16
ENDBRANCH   8   9
BRANCH   8  18
HETATM   18  O1  UNL     1       1.489   0.028  -0.525  1.00  0.00    -0.377 OA
ATOM     19  H1  UNL     1       1.477   0.756   0.085  1.00  0.00     0.211 HD
ENDBRANCH   8  18
BRANCH   8  20
HETATM   20  C6  UNL     1       0.523  -1.423   1.150  1.00  0.00     0.047 C 
HETATM   21  C7  UNL     1       1.574  -1.002   2.083  1.00  0.00     0.009 C 
ENDBRANCH   8  20
ENDBRANCH   1   8
BRANCH   3  22
HETATM   22  C10 UNL     1      -1.059  -2.887  -4.494  1.00  0.00     0.054 C 
HETATM   23  C11 UNL     1      -2.457  -2.318  -4.489  1.00  0.00     0.038 C 
HETATM   24  C12 UNL     1      -3.056  -2.419  -5.878  1.00  0.00    -0.011 C 
HETATM   25  C13 UNL     1      -3.064  -3.852  -6.289  1.00  0.00     0.009 C 
HETATM   26  C17 UNL     1      -2.221  -1.610  -6.843  1.00  0.00     0.009 C 
HETATM   27  C14 UNL     1      -1.649  -4.366  -6.335  1.00  0.00    -0.011 C 
HETATM   28  C15 UNL     1      -0.789  -3.550  -7.273  1.00  0.00     0.009 C 
HETATM   29  C19 UNL     1      -1.058  -4.326  -4.953  1.00  0.00     0.038 C 
HETATM   30  C16 UNL     1      -0.808  -2.103  -6.832  1.00  0.00    -0.011 C 
HETATM   31  C18 UNL     1      -0.237  -2.041  -5.434  1.00  0.00     0.038 C 
ENDBRANCH   3  22
TORSDOF 6
ENDMDL
