MODEL 1
REMARK VINA RESULT: -3.952034494      0.000      0.000
REMARK  1 active torsions:
REMARK  status: ('A' for Active; 'I' for Inactive)
REMARK    1  A    between atoms: C2_3  and  O1_4 
ROOT
HETATM    1  N1  UNL     1      -0.952 -15.795 -16.503  1.00  0.00    -0.194 NA
HETATM    2  C1  UNL     1      -1.336 -14.759 -16.121  1.00  0.00     0.097 C 
HETATM    3  C2  UNL     1      -1.803 -13.449 -15.640  1.00  0.00     0.146 A 
HETATM    4  C3  UNL     1      -1.599 -13.240 -14.161  1.00  0.00     0.053 A 
HETATM    5  C4  UNL     1      -0.505 -12.237 -14.447  1.00  0.00     0.008 A 
HETATM    6  C5  UNL     1      -0.802 -12.363 -15.926  1.00  0.00     0.053 A 
ENDROOT
BRANCH   3   7
HETATM    7  O1  UNL     1      -3.101 -13.125 -16.094  1.00  0.00    -0.376 OA
ATOM      8  H1  UNL     1      -3.711 -12.955 -15.385  1.00  0.00     0.211 HD
ENDBRANCH   3   7
TORSDOF 1
ENDMDL
MODEL 2
REMARK VINA RESULT: -3.939806371      1.476      1.740
REMARK  1 active torsions:
REMARK  status: ('A' for Active; 'I' for Inactive)
REMARK    1  A    between atoms: C2_3  and  O1_4 
ROOT
HETATM    1  N1  UNL     1      -0.396 -16.213 -16.554  1.00  0.00    -0.194 NA
HETATM    2  C1  UNL     1      -0.713 -15.339 -15.845  1.00  0.00     0.097 C 
HETATM    3  C2  UNL     1      -1.119 -14.230 -14.968  1.00  0.00     0.146 A 
HETATM    4  C3  UNL     1      -0.146 -13.080 -14.958  1.00  0.00     0.053 A 
HETATM    5  C4  UNL     1      -1.132 -12.231 -15.728  1.00  0.00     0.008 A 
HETATM    6  C5  UNL     1      -2.146 -13.350 -15.624  1.00  0.00     0.053 A 
ENDROOT
BRANCH   3   7
HETATM    7  O1  UNL     1      -1.514 -14.661 -13.681  1.00  0.00    -0.376 OA
ATOM      8  H1  UNL     1      -0.823 -15.117 -13.213  1.00  0.00     0.211 HD
ENDBRANCH   3   7
TORSDOF 1
ENDMDL
MODEL 3
REMARK VINA RESULT: -3.783802660      2.064      2.902
REMARK  1 active torsions:
REMARK  status: ('A' for Active; 'I' for Inactive)
REMARK    1  A    between atoms: C2_3  and  O1_4 
ROOT
HETATM    1  N1  UNL     1      -0.262 -11.304 -16.226  1.00  0.00    -0.194 NA
HETATM    2  C1  UNL     1      -0.824 -12.259 -15.854  1.00  0.00     0.097 C 
HETATM    3  C2  UNL     1      -1.519 -13.471 -15.394  1.00  0.00     0.146 A 
HETATM    4  C3  UNL     1      -2.410 -14.091 -16.439  1.00  0.00     0.053 A 
HETATM    5  C4  UNL     1      -1.447 -15.247 -16.583  1.00  0.00     0.008 A 
HETATM    6  C5  UNL     1      -0.625 -14.678 -15.446  1.00  0.00     0.053 A 
ENDROOT
BRANCH   3   7
HETATM    7  O1  UNL     1      -2.138 -13.307 -14.134  1.00  0.00    -0.376 OA
ATOM      8  H1  UNL     1      -2.890 -13.875 -14.013  1.00  0.00     0.211 HD
ENDBRANCH   3   7
TORSDOF 1
ENDMDL
MODEL 4
REMARK VINA RESULT: -3.735912329      1.816      2.133
REMARK  1 active torsions:
REMARK  status: ('A' for Active; 'I' for Inactive)
REMARK    1  A    between atoms: C2_3  and  O1_4 
ROOT
HETATM    1  N1  UNL     1      -1.955 -14.183 -17.264  1.00  0.00    -0.194 NA
HETATM    2  C1  UNL     1      -1.391 -13.941 -16.268  1.00  0.00     0.097 C 
HETATM    3  C2  UNL     1      -0.695 -13.625 -15.012  1.00  0.00     0.146 A 
HETATM    4  C3  UNL     1      -0.036 -12.270 -15.009  1.00  0.00     0.053 A 
HETATM    5  C4  UNL     1      -1.072 -11.760 -14.034  1.00  0.00     0.008 A 
HETATM    6  C5  UNL     1      -1.652 -13.156 -13.950  1.00  0.00     0.053 A 
ENDROOT
BRANCH   3   7
HETATM    7  O1  UNL     1       0.141 -14.674 -14.566  1.00  0.00    -0.376 OA
ATOM      8  H1  UNL     1      -0.339 -15.380 -14.149  1.00  0.00     0.211 HD
ENDBRANCH   3   7
TORSDOF 1
ENDMDL
MODEL 5
REMARK VINA RESULT: -3.716260111      2.216      2.680
REMARK  1 active torsions:
REMARK  status: ('A' for Active; 'I' for Inactive)
REMARK    1  A    between atoms: C2_3  and  O1_4 
ROOT
HETATM    1  N1  UNL     1      -1.698 -12.305 -16.982  1.00  0.00    -0.194 NA
HETATM    2  C1  UNL     1      -1.165 -12.484 -15.957  1.00  0.00     0.097 C 
HETATM    3  C2  UNL     1      -0.505 -12.697 -14.660  1.00  0.00     0.146 A 
HETATM    4  C3  UNL     1       0.465 -11.606 -14.287  1.00  0.00     0.053 A 
HETATM    5  C4  UNL     1      -0.482 -11.122 -13.213  1.00  0.00     0.008 A 
HETATM    6  C5  UNL     1      -1.391 -12.295 -13.513  1.00  0.00     0.053 A 
ENDROOT
BRANCH   3   7
HETATM    7  O1  UNL     1       0.015 -14.004 -14.513  1.00  0.00    -0.376 OA
ATOM      8  H1  UNL     1       0.964 -14.031 -14.540  1.00  0.00     0.211 HD
ENDBRANCH   3   7
TORSDOF 1
ENDMDL
