MODEL 1
REMARK VINA RESULT: -3.805112434      0.000      0.000
REMARK  1 active torsions:
REMARK  status: ('A' for Active; 'I' for Inactive)
REMARK    1  A    between atoms: C2_2  and  C3_3 
ROOT
HETATM    1  C3  UNL     1      -0.958 -14.809 -15.712  1.00  0.00     0.172 A 
HETATM    2  O1  UNL     1      -1.736 -16.059 -15.767  1.00  0.00    -0.372 OA
HETATM    3  C4  UNL     1      -1.920 -15.014 -16.775  1.00  0.00     0.151 A 
HETATM    4  C5  UNL     1      -1.570 -15.568 -18.130  1.00  0.00     0.042 C 
ENDROOT
BRANCH   1   5
HETATM    5  C2  UNL     1      -1.278 -13.920 -14.598  1.00  0.00    -0.003 C 
HETATM    6  C1  UNL     1      -1.347 -12.607 -14.766  1.00  0.00     0.009 C 
ENDBRANCH   1   5
TORSDOF 1
ENDMDL
MODEL 2
REMARK VINA RESULT: -3.745495612      0.521      3.215
REMARK  1 active torsions:
REMARK  status: ('A' for Active; 'I' for Inactive)
REMARK    1  A    between atoms: C2_2  and  C3_3 
ROOT
HETATM    1  C3  UNL     1      -1.904 -15.124 -16.700  1.00  0.00     0.172 A 
HETATM    2  O1  UNL     1      -1.725 -15.961 -15.501  1.00  0.00    -0.372 OA
HETATM    3  C4  UNL     1      -0.971 -14.718 -15.668  1.00  0.00     0.151 A 
HETATM    4  C5  UNL     1      -1.316 -13.777 -14.545  1.00  0.00     0.042 C 
ENDROOT
BRANCH   1   5
HETATM    5  C2  UNL     1      -1.410 -15.700 -17.947  1.00  0.00    -0.003 C 
HETATM    6  C1  UNL     1      -1.994 -15.430 -19.107  1.00  0.00     0.009 C 
ENDBRANCH   1   5
TORSDOF 1
ENDMDL
MODEL 3
REMARK VINA RESULT: -3.624493013      1.164      3.138
REMARK  1 active torsions:
REMARK  status: ('A' for Active; 'I' for Inactive)
REMARK    1  A    between atoms: C2_2  and  C3_3 
ROOT
HETATM    1  C3  UNL     1      -1.398 -14.942 -15.441  1.00  0.00     0.172 A 
HETATM    2  O1  UNL     1      -0.169 -14.684 -14.670  1.00  0.00    -0.372 OA
HETATM    3  C4  UNL     1      -0.966 -13.579 -15.205  1.00  0.00     0.151 A 
HETATM    4  C5  UNL     1      -1.457 -12.727 -14.066  1.00  0.00     0.042 C 
ENDROOT
BRANCH   1   5
HETATM    5  C2  UNL     1      -1.199 -15.556 -16.751  1.00  0.00    -0.003 C 
HETATM    6  C1  UNL     1      -1.847 -15.115 -17.821  1.00  0.00     0.009 C 
ENDBRANCH   1   5
TORSDOF 1
ENDMDL
MODEL 4
REMARK VINA RESULT: -3.476485264      1.502      3.418
REMARK  1 active torsions:
REMARK  status: ('A' for Active; 'I' for Inactive)
REMARK    1  A    between atoms: C2_2  and  C3_3 
ROOT
HETATM    1  C3  UNL     1      -1.415 -13.723 -15.936  1.00  0.00     0.172 A 
HETATM    2  O1  UNL     1      -2.664 -13.051 -15.535  1.00  0.00    -0.372 OA
HETATM    3  C4  UNL     1      -1.609 -13.323 -14.557  1.00  0.00     0.151 A 
HETATM    4  C5  UNL     1      -1.122 -12.019 -13.984  1.00  0.00     0.042 C 
ENDROOT
BRANCH   1   5
HETATM    5  C2  UNL     1      -1.551 -15.126 -16.316  1.00  0.00    -0.003 C 
HETATM    6  C1  UNL     1      -1.515 -15.499 -17.588  1.00  0.00     0.009 C 
ENDBRANCH   1   5
TORSDOF 1
ENDMDL
MODEL 5
REMARK VINA RESULT: -3.377765187      1.778      3.248
REMARK  1 active torsions:
REMARK  status: ('A' for Active; 'I' for Inactive)
REMARK    1  A    between atoms: C2_2  and  C3_3 
ROOT
HETATM    1  C3  UNL     1      -1.754 -13.522 -16.248  1.00  0.00     0.172 A 
HETATM    2  O1  UNL     1      -2.322 -12.858 -15.062  1.00  0.00    -0.372 OA
HETATM    3  C4  UNL     1      -0.888 -12.792 -15.345  1.00  0.00     0.151 A 
HETATM    4  C5  UNL     1      -0.490 -11.353 -15.542  1.00  0.00     0.042 C 
ENDROOT
BRANCH   1   5
HETATM    5  C2  UNL     1      -1.775 -14.982 -16.220  1.00  0.00    -0.003 C 
HETATM    6  C1  UNL     1      -0.651 -15.684 -16.171  1.00  0.00     0.009 C 
ENDBRANCH   1   5
TORSDOF 1
ENDMDL
