MODEL 1
REMARK VINA RESULT: -3.975757441      0.000      0.000
REMARK  1 active torsions:
REMARK  status: ('A' for Active; 'I' for Inactive)
REMARK    1  A    between atoms: C4_5  and  O2_6 
ROOT
HETATM    1  C1  UNL     1      -1.684 -13.308 -14.708  1.00  0.00     0.017 C 
HETATM    2  C2  UNL     1      -1.277 -13.844 -16.040  1.00  0.00     0.060 C 
HETATM    3  C3  UNL     1      -2.368 -14.193 -16.999  1.00  0.00     0.180 C 
HETATM    4  O1  UNL     1      -1.593 -15.282 -17.435  1.00  0.00    -0.360 OA
HETATM    5  C4  UNL     1      -1.055 -15.320 -16.143  1.00  0.00     0.262 C 
ENDROOT
BRANCH   5   6
HETATM    6  O2  UNL     1      -1.806 -16.085 -15.248  1.00  0.00    -0.371 OA
ATOM      7  H2  UNL     1      -1.324 -16.785 -14.824  1.00  0.00     0.212 HD
ENDBRANCH   5   6
TORSDOF 1
ENDMDL
MODEL 2
REMARK VINA RESULT: -3.807254666      1.174      1.352
REMARK  1 active torsions:
REMARK  status: ('A' for Active; 'I' for Inactive)
REMARK    1  A    between atoms: C4_5  and  O2_6 
ROOT
HETATM    1  C1  UNL     1      -2.628 -13.659 -16.536  1.00  0.00     0.017 C 
HETATM    2  C2  UNL     1      -1.435 -14.433 -16.989  1.00  0.00     0.060 C 
HETATM    3  C3  UNL     1      -1.685 -15.642 -17.832  1.00  0.00     0.180 C 
HETATM    4  O1  UNL     1      -0.610 -16.276 -17.185  1.00  0.00    -0.360 OA
HETATM    5  C4  UNL     1      -0.918 -15.492 -16.067  1.00  0.00     0.262 C 
ENDROOT
BRANCH   5   6
HETATM    6  O2  UNL     1      -1.885 -16.062 -15.235  1.00  0.00    -0.371 OA
ATOM      7  H2  UNL     1      -1.876 -15.743 -14.340  1.00  0.00     0.212 HD
ENDBRANCH   5   6
TORSDOF 1
ENDMDL
MODEL 3
REMARK VINA RESULT: -3.693820636      0.891      1.932
REMARK  1 active torsions:
REMARK  status: ('A' for Active; 'I' for Inactive)
REMARK    1  A    between atoms: C4_5  and  O2_6 
ROOT
HETATM    1  C1  UNL     1      -1.028 -12.653 -15.843  1.00  0.00     0.017 C 
HETATM    2  C2  UNL     1      -1.655 -13.939 -15.417  1.00  0.00     0.060 C 
HETATM    3  C3  UNL     1      -0.736 -15.072 -15.088  1.00  0.00     0.180 C 
HETATM    4  O1  UNL     1      -1.672 -15.954 -15.655  1.00  0.00    -0.360 OA
HETATM    5  C4  UNL     1      -2.046 -14.899 -16.497  1.00  0.00     0.262 C 
ENDROOT
BRANCH   5   6
HETATM    6  O2  UNL     1      -1.274 -14.813 -17.659  1.00  0.00    -0.371 OA
ATOM      7  H2  UNL     1      -1.710 -14.396 -18.393  1.00  0.00     0.212 HD
ENDBRANCH   5   6
TORSDOF 1
ENDMDL
MODEL 4
REMARK VINA RESULT: -3.690529685      2.027      2.523
REMARK  1 active torsions:
REMARK  status: ('A' for Active; 'I' for Inactive)
REMARK    1  A    between atoms: C4_5  and  O2_6 
ROOT
HETATM    1  C1  UNL     1      -0.632 -15.654 -16.213  1.00  0.00     0.017 C 
HETATM    2  C2  UNL     1      -1.712 -14.776 -15.675  1.00  0.00     0.060 C 
HETATM    3  C3  UNL     1      -1.887 -13.436 -16.315  1.00  0.00     0.180 C 
HETATM    4  O1  UNL     1      -2.197 -12.908 -15.049  1.00  0.00    -0.360 OA
HETATM    5  C4  UNL     1      -1.364 -13.898 -14.514  1.00  0.00     0.262 C 
ENDROOT
BRANCH   5   6
HETATM    6  O2  UNL     1      -0.020 -13.523 -14.451  1.00  0.00    -0.371 OA
ATOM      7  H2  UNL     1       0.586 -14.159 -14.811  1.00  0.00     0.212 HD
ENDBRANCH   5   6
TORSDOF 1
ENDMDL
MODEL 5
REMARK VINA RESULT: -3.681008930      1.665      2.123
REMARK  1 active torsions:
REMARK  status: ('A' for Active; 'I' for Inactive)
REMARK    1  A    between atoms: C4_5  and  O2_6 
ROOT
HETATM    1  C1  UNL     1      -0.454 -14.849 -15.114  1.00  0.00     0.017 C 
HETATM    2  C2  UNL     1      -1.685 -15.037 -15.938  1.00  0.00     0.060 C 
HETATM    3  C3  UNL     1      -1.496 -15.377 -17.381  1.00  0.00     0.180 C 
HETATM    4  O1  UNL     1      -2.619 -14.586 -17.681  1.00  0.00    -0.360 OA
HETATM    5  C4  UNL     1      -2.282 -13.815 -16.562  1.00  0.00     0.262 C 
ENDROOT
BRANCH   5   6
HETATM    6  O2  UNL     1      -1.366 -12.798 -16.840  1.00  0.00    -0.371 OA
ATOM      7  H2  UNL     1      -1.231 -12.629 -17.765  1.00  0.00     0.212 HD
ENDBRANCH   5   6
TORSDOF 1
ENDMDL
