MODEL 1
REMARK VINA RESULT: -3.721991062      0.000      0.000
REMARK  0 active torsions:
REMARK  status: ('A' for Active; 'I' for Inactive)
ROOT
HETATM    1  C1  UNL     1      -2.346 -14.285 -17.486  1.00  0.00     0.038 C 
HETATM    2  C2  UNL     1      -1.519 -15.493 -17.192  1.00  0.00     0.234 C 
HETATM    3  N1  UNL     1      -1.399 -15.843 -15.828  1.00  0.00    -0.067 N 
ATOM      4  H11 UNL     1      -1.060 -16.799 -15.727  1.00  0.00     0.278 HD
ATOM      5  H12 UNL     1      -2.317 -15.943 -15.396  1.00  0.00     0.278 HD
HETATM    6  C3  UNL     1      -0.577 -14.924 -15.080  1.00  0.00     0.305 C 
HETATM    7  S1  UNL     1      -1.568 -13.381 -14.993  1.00  0.00    -0.142 SA
HETATM    8  C4  UNL     1      -1.990 -13.061 -16.728  1.00  0.00     0.077 C 
ENDROOT
TORSDOF 0
ENDMDL
MODEL 2
REMARK VINA RESULT: -3.574097391      1.625      2.491
REMARK  0 active torsions:
REMARK  status: ('A' for Active; 'I' for Inactive)
ROOT
HETATM    1  C1  UNL     1      -1.859 -13.050 -15.581  1.00  0.00     0.038 C 
HETATM    2  C2  UNL     1      -2.303 -13.105 -17.006  1.00  0.00     0.234 C 
HETATM    3  N1  UNL     1      -2.728 -14.370 -17.472  1.00  0.00    -0.067 N 
ATOM      4  H11 UNL     1      -3.256 -14.278 -18.340  1.00  0.00     0.278 HD
ATOM      5  H12 UNL     1      -3.458 -14.753 -16.871  1.00  0.00     0.278 HD
HETATM    6  C3  UNL     1      -1.644 -15.308 -17.627  1.00  0.00     0.305 C 
HETATM    7  S1  UNL     1      -1.116 -15.691 -15.910  1.00  0.00    -0.142 SA
HETATM    8  C4  UNL     1      -0.839 -14.051 -15.186  1.00  0.00     0.077 C 
ENDROOT
TORSDOF 0
ENDMDL
MODEL 3
REMARK VINA RESULT: -3.519060981      1.246      2.224
REMARK  0 active torsions:
REMARK  status: ('A' for Active; 'I' for Inactive)
ROOT
HETATM    1  C1  UNL     1      -0.623 -15.627 -16.317  1.00  0.00     0.038 C 
HETATM    2  C2  UNL     1      -1.714 -15.423 -17.315  1.00  0.00     0.234 C 
HETATM    3  N1  UNL     1      -2.026 -14.079 -17.624  1.00  0.00    -0.067 N 
ATOM      4  H11 UNL     1      -2.572 -14.020 -18.484  1.00  0.00     0.278 HD
ATOM      5  H12 UNL     1      -1.193 -13.570 -17.919  1.00  0.00     0.278 HD
HETATM    6  C3  UNL     1      -2.691 -13.392 -16.545  1.00  0.00     0.305 C 
HETATM    7  S1  UNL     1      -1.400 -13.197 -15.254  1.00  0.00    -0.142 SA
HETATM    8  C4  UNL     1      -0.770 -14.886 -15.041  1.00  0.00     0.077 C 
ENDROOT
TORSDOF 0
ENDMDL
MODEL 4
REMARK VINA RESULT: -3.479709450      1.660      2.227
REMARK  0 active torsions:
REMARK  status: ('A' for Active; 'I' for Inactive)
ROOT
HETATM    1  C1  UNL     1      -1.282 -12.550 -15.901  1.00  0.00     0.038 C 
HETATM    2  C2  UNL     1      -0.932 -13.314 -14.667  1.00  0.00     0.234 C 
HETATM    3  N1  UNL     1      -0.397 -14.606 -14.871  1.00  0.00    -0.067 N 
ATOM      4  H11 UNL     1       0.057 -14.949 -14.024  1.00  0.00     0.278 HD
ATOM      5  H12 UNL     1       0.411 -14.572 -15.492  1.00  0.00     0.278 HD
HETATM    6  C3  UNL     1      -1.374 -15.552 -15.349  1.00  0.00     0.305 C 
HETATM    7  S1  UNL     1      -1.736 -15.014 -17.067  1.00  0.00    -0.142 SA
HETATM    8  C4  UNL     1      -2.150 -13.258 -16.873  1.00  0.00     0.077 C 
ENDROOT
TORSDOF 0
ENDMDL
MODEL 5
REMARK VINA RESULT: -3.466372810      1.528      2.250
REMARK  0 active torsions:
REMARK  status: ('A' for Active; 'I' for Inactive)
ROOT
HETATM    1  C1  UNL     1      -1.223 -15.716 -16.019  1.00  0.00     0.038 C 
HETATM    2  C2  UNL     1      -0.407 -14.944 -15.036  1.00  0.00     0.234 C 
HETATM    3  N1  UNL     1      -1.010 -13.778 -14.512  1.00  0.00    -0.067 N 
ATOM      4  H11 UNL     1      -0.524 -13.462 -13.673  1.00  0.00     0.278 HD
ATOM      5  H12 UNL     1      -1.922 -13.991 -14.107  1.00  0.00     0.278 HD
HETATM    6  C3  UNL     1      -1.113 -12.713 -15.478  1.00  0.00     0.305 C 
HETATM    7  S1  UNL     1      -2.380 -13.293 -16.674  1.00  0.00    -0.142 SA
HETATM    8  C4  UNL     1      -1.775 -14.936 -17.153  1.00  0.00     0.077 C 
ENDROOT
TORSDOF 0
ENDMDL
