MODEL 1
REMARK VINA RESULT: -4.379691854      0.000      0.000
REMARK  0 active torsions:
REMARK  status: ('A' for Active; 'I' for Inactive)
ROOT
HETATM    1  C1  UNL     1      -1.223 -13.661 -14.713  1.00  0.00     0.054 C 
HETATM    2  C2  UNL     1      -0.575 -14.918 -15.193  1.00  0.00     0.234 C 
HETATM    3  N1  UNL     1      -1.603 -15.754 -15.807  1.00  0.00    -0.073 N 
ATOM      4  H11 UNL     1      -2.493 -15.743 -15.308  1.00  0.00     0.277 HD
ATOM      5  H12 UNL     1      -1.428 -16.755 -15.717  1.00  0.00     0.277 HD
HETATM    6  C3  UNL     1      -1.699 -15.293 -17.195  1.00  0.00     0.258 C 
HETATM    7  C4  UNL     1      -2.449 -13.958 -17.110  1.00  0.00     0.195 C 
HETATM    8  O1  UNL     1      -1.569 -12.914 -16.985  1.00  0.00    -0.389 OA
HETATM    9  C5  UNL     1      -1.247 -12.554 -15.714  1.00  0.00     0.169 C 
ENDROOT
TORSDOF 0
ENDMDL
MODEL 2
REMARK VINA RESULT: -4.198199060      0.981      2.248
REMARK  0 active torsions:
REMARK  status: ('A' for Active; 'I' for Inactive)
ROOT
HETATM    1  C1  UNL     1      -1.441 -15.249 -16.816  1.00  0.00     0.054 C 
HETATM    2  C2  UNL     1      -1.381 -15.498 -15.345  1.00  0.00     0.234 C 
HETATM    3  N1  UNL     1      -0.423 -14.561 -14.764  1.00  0.00    -0.073 N 
ATOM      4  H11 UNL     1       0.409 -14.415 -15.337  1.00  0.00     0.277 HD
ATOM      5  H12 UNL     1       0.061 -14.922 -13.942  1.00  0.00     0.277 HD
HETATM    6  C3  UNL     1      -1.186 -13.335 -14.509  1.00  0.00     0.258 C 
HETATM    7  C4  UNL     1      -1.380 -12.703 -15.894  1.00  0.00     0.195 C 
HETATM    8  O1  UNL     1      -2.551 -13.132 -16.463  1.00  0.00    -0.389 OA
HETATM    9  C5  UNL     1      -2.465 -14.249 -17.235  1.00  0.00     0.169 C 
ENDROOT
TORSDOF 0
ENDMDL
MODEL 3
REMARK VINA RESULT: -4.159960710      1.394      2.289
REMARK  0 active torsions:
REMARK  status: ('A' for Active; 'I' for Inactive)
ROOT
HETATM    1  C1  UNL     1      -1.407 -15.747 -15.914  1.00  0.00     0.054 C 
HETATM    2  C2  UNL     1      -1.585 -15.279 -17.321  1.00  0.00     0.234 C 
HETATM    3  N1  UNL     1      -2.727 -14.369 -17.356  1.00  0.00    -0.073 N 
ATOM      4  H11 UNL     1      -3.506 -14.665 -16.766  1.00  0.00     0.277 HD
ATOM      5  H12 UNL     1      -3.236 -14.382 -18.239  1.00  0.00     0.277 HD
HETATM    6  C3  UNL     1      -2.186 -13.053 -17.004  1.00  0.00     0.258 C 
HETATM    7  C4  UNL     1      -1.943 -13.126 -15.491  1.00  0.00     0.195 C 
HETATM    8  O1  UNL     1      -0.667 -13.552 -15.225  1.00  0.00    -0.389 OA
HETATM    9  C5  UNL     1      -0.503 -14.895 -15.086  1.00  0.00     0.169 C 
ENDROOT
TORSDOF 0
ENDMDL
MODEL 4
REMARK VINA RESULT: -4.108947153      1.748      2.329
REMARK  0 active torsions:
REMARK  status: ('A' for Active; 'I' for Inactive)
ROOT
HETATM    1  C1  UNL     1      -0.909 -13.757 -15.144  1.00  0.00     0.054 C 
HETATM    2  C2  UNL     1      -2.132 -13.106 -15.700  1.00  0.00     0.234 C 
HETATM    3  N1  UNL     1      -2.049 -13.154 -17.158  1.00  0.00    -0.073 N 
ATOM      4  H11 UNL     1      -1.112 -12.978 -17.522  1.00  0.00     0.277 HD
ATOM      5  H12 UNL     1      -2.506 -12.369 -17.622  1.00  0.00     0.277 HD
HETATM    6  C3  UNL     1      -2.592 -14.462 -17.535  1.00  0.00     0.258 C 
HETATM    7  C4  UNL     1      -1.489 -15.462 -17.167  1.00  0.00     0.195 C 
HETATM    8  O1  UNL     1      -1.663 -15.928 -15.890  1.00  0.00    -0.389 OA
HETATM    9  C5  UNL     1      -1.039 -15.225 -14.907  1.00  0.00     0.169 C 
ENDROOT
TORSDOF 0
ENDMDL
MODEL 5
REMARK VINA RESULT: -4.051096538      1.091      1.552
REMARK  0 active torsions:
REMARK  status: ('A' for Active; 'I' for Inactive)
ROOT
HETATM    1  C1  UNL     1      -1.925 -12.987 -15.334  1.00  0.00     0.054 C 
HETATM    2  C2  UNL     1      -0.600 -13.464 -14.836  1.00  0.00     0.234 C 
HETATM    3  N1  UNL     1      -0.709 -14.893 -14.555  1.00  0.00    -0.073 N 
ATOM      4  H11 UNL     1      -1.594 -15.161 -14.123  1.00  0.00     0.277 HD
ATOM      5  H12 UNL     1      -0.105 -15.210 -13.796  1.00  0.00     0.277 HD
HETATM    6  C3  UNL     1      -0.450 -15.560 -15.834  1.00  0.00     0.258 C 
HETATM    7  C4  UNL     1      -1.731 -15.346 -16.650  1.00  0.00     0.195 C 
HETATM    8  O1  UNL     1      -1.641 -14.203 -17.402  1.00  0.00    -0.389 OA
HETATM    9  C5  UNL     1      -2.096 -13.064 -16.814  1.00  0.00     0.169 C 
ENDROOT
TORSDOF 0
ENDMDL
