MODEL 1
REMARK VINA RESULT: -4.946602814      0.000      0.000
REMARK  4 active torsions:
REMARK  status: ('A' for Active; 'I' for Inactive)
REMARK    1  A    between atoms: C2_2  and  N1_3 
REMARK    2  A    between atoms: N1_3  and  C3_4 
REMARK    3  A    between atoms: C3_4  and  N2_5 
REMARK    4  A    between atoms: N2_5  and  C4_7 
ROOT
HETATM    1  C4  UNL     1      -2.018 -14.912 -16.481  1.00  0.00     0.122 A 
HETATM    2  C5  UNL     1      -1.211 -15.751 -17.220  1.00  0.00     0.068 A 
HETATM    3  C6  UNL     1      -1.675 -15.683 -18.530  1.00  0.00     0.111 A 
HETATM    4  N3  UNL     1      -2.726 -14.823 -18.549  1.00  0.00    -0.310 N 
ATOM      5  H3  UNL     1      -3.273 -14.571 -19.371  1.00  0.00     0.186 HD
HETATM    6  N4  UNL     1      -2.926 -14.362 -17.305  1.00  0.00    -0.286 N 
ATOM      7  H4  UNL     1      -3.650 -13.699 -17.028  1.00  0.00     0.188 HD
ENDROOT
BRANCH   1   8
HETATM    8  N2  UNL     1      -1.904 -14.702 -15.213  1.00  0.00    -0.327 N 
ATOM      9  H2  UNL     1      -2.489 -15.224 -14.560  1.00  0.00     0.169 HD
BRANCH   8  10
HETATM   10  C3  UNL     1      -0.972 -13.749 -14.718  1.00  0.00     0.275 C 
BRANCH  10  11
HETATM   11  N1  UNL     1      -0.691 -12.705 -15.349  1.00  0.00    -0.414 NA
BRANCH  11  12
HETATM   12  C2  UNL     1      -0.395 -11.605 -15.858  1.00  0.00     0.173 C 
HETATM   13  C1  UNL     1       0.338 -10.576 -16.227  1.00  0.00     0.045 C 
ENDBRANCH  11  12
ENDBRANCH  10  11
ENDBRANCH   8  10
ENDBRANCH   1   8
TORSDOF 4
ENDMDL
MODEL 2
REMARK VINA RESULT: -4.894703324      1.624      1.728
REMARK  4 active torsions:
REMARK  status: ('A' for Active; 'I' for Inactive)
REMARK    1  A    between atoms: C2_2  and  N1_3 
REMARK    2  A    between atoms: N1_3  and  C3_4 
REMARK    3  A    between atoms: C3_4  and  N2_5 
REMARK    4  A    between atoms: N2_5  and  C4_7 
ROOT
HETATM    1  C4  UNL     1      -2.067 -14.926 -16.504  1.00  0.00     0.122 A 
HETATM    2  C5  UNL     1      -1.173 -15.705 -17.207  1.00  0.00     0.068 A 
HETATM    3  C6  UNL     1      -1.599 -15.688 -18.531  1.00  0.00     0.111 A 
HETATM    4  N3  UNL     1      -2.715 -14.917 -18.593  1.00  0.00    -0.310 N 
ATOM      5  H3  UNL     1      -3.254 -14.719 -19.436  1.00  0.00     0.186 HD
HETATM    6  N4  UNL     1      -2.990 -14.460 -17.362  1.00  0.00    -0.286 N 
ATOM      7  H4  UNL     1      -3.775 -13.855 -17.117  1.00  0.00     0.188 HD
ENDROOT
BRANCH   1   8
HETATM    8  N2  UNL     1      -2.012 -14.694 -15.236  1.00  0.00    -0.327 N 
ATOM      9  H2  UNL     1      -2.026 -15.474 -14.578  1.00  0.00     0.169 HD
BRANCH   8  10
HETATM   10  C3  UNL     1      -1.931 -13.361 -14.747  1.00  0.00     0.275 C 
BRANCH  10  11
HETATM   11  N1  UNL     1      -2.679 -12.451 -15.172  1.00  0.00    -0.414 NA
BRANCH  11  12
HETATM   12  C2  UNL     1      -3.317 -11.498 -15.662  1.00  0.00     0.173 C 
HETATM   13  C1  UNL     1      -3.664 -10.555 -16.512  1.00  0.00     0.045 C 
ENDBRANCH  11  12
ENDBRANCH  10  11
ENDBRANCH   8  10
ENDBRANCH   1   8
TORSDOF 4
ENDMDL
MODEL 3
REMARK VINA RESULT: -4.868759345      1.993      2.072
REMARK  4 active torsions:
REMARK  status: ('A' for Active; 'I' for Inactive)
REMARK    1  A    between atoms: C2_2  and  N1_3 
REMARK    2  A    between atoms: N1_3  and  C3_4 
REMARK    3  A    between atoms: C3_4  and  N2_5 
REMARK    4  A    between atoms: N2_5  and  C4_7 
ROOT
HETATM    1  C4  UNL     1      -0.965 -15.225 -16.550  1.00  0.00     0.122 A 
HETATM    2  C5  UNL     1      -1.743 -14.367 -17.299  1.00  0.00     0.068 A 
HETATM    3  C6  UNL     1      -2.118 -15.075 -18.436  1.00  0.00     0.111 A 
HETATM    4  N3  UNL     1      -1.569 -16.313 -18.348  1.00  0.00    -0.310 N 
ATOM      5  H3  UNL     1      -1.669 -17.058 -19.038  1.00  0.00     0.186 HD
HETATM    6  N4  UNL     1      -0.874 -16.395 -17.203  1.00  0.00    -0.286 N 
ATOM      7  H4  UNL     1      -0.360 -17.215 -16.880  1.00  0.00     0.188 HD
ENDROOT
BRANCH   1   8
HETATM    8  N2  UNL     1      -0.425 -14.935 -15.415  1.00  0.00    -0.327 N 
ATOM      9  H2  UNL     1       0.591 -14.906 -15.331  1.00  0.00     0.169 HD
BRANCH   8  10
HETATM   10  C3  UNL     1      -1.234 -14.657 -14.278  1.00  0.00     0.275 C 
BRANCH  10  11
HETATM   11  N1  UNL     1      -1.438 -13.488 -13.879  1.00  0.00    -0.414 NA
BRANCH  11  12
HETATM   12  C2  UNL     1      -1.728 -12.311 -13.582  1.00  0.00     0.173 C 
HETATM   13  C1  UNL     1      -2.170 -11.079 -13.721  1.00  0.00     0.045 C 
ENDBRANCH  11  12
ENDBRANCH  10  11
ENDBRANCH   8  10
ENDBRANCH   1   8
TORSDOF 4
ENDMDL
MODEL 4
REMARK VINA RESULT: -4.859098295      1.534      1.597
REMARK  4 active torsions:
REMARK  status: ('A' for Active; 'I' for Inactive)
REMARK    1  A    between atoms: C2_2  and  N1_3 
REMARK    2  A    between atoms: N1_3  and  C3_4 
REMARK    3  A    between atoms: C3_4  and  N2_5 
REMARK    4  A    between atoms: N2_5  and  C4_7 
ROOT
HETATM    1  C4  UNL     1      -1.724 -14.928 -16.455  1.00  0.00     0.122 A 
HETATM    2  C5  UNL     1      -1.968 -14.202 -17.602  1.00  0.00     0.068 A 
HETATM    3  C6  UNL     1      -1.961 -15.117 -18.650  1.00  0.00     0.111 A 
HETATM    4  N3  UNL     1      -1.719 -16.344 -18.123  1.00  0.00    -0.310 N 
ATOM      5  H3  UNL     1      -1.655 -17.215 -18.649  1.00  0.00     0.186 HD
HETATM    6  N4  UNL     1      -1.577 -16.220 -16.794  1.00  0.00    -0.286 N 
ATOM      7  H4  UNL     1      -1.388 -16.985 -16.145  1.00  0.00     0.188 HD
ENDROOT
BRANCH   1   8
HETATM    8  N2  UNL     1      -1.653 -14.434 -15.266  1.00  0.00    -0.327 N 
ATOM      9  H2  UNL     1      -2.507 -14.285 -14.728  1.00  0.00     0.169 HD
BRANCH   8  10
HETATM   10  C3  UNL     1      -0.394 -14.095 -14.697  1.00  0.00     0.275 C 
BRANCH  10  11
HETATM   11  N1  UNL     1      -0.121 -12.927 -14.338  1.00  0.00    -0.414 NA
BRANCH  11  12
HETATM   12  C2  UNL     1       0.265 -11.776 -14.048  1.00  0.00     0.173 C 
HETATM   13  C1  UNL     1       1.071 -10.806 -13.673  1.00  0.00     0.045 C 
ENDBRANCH  11  12
ENDBRANCH  10  11
ENDBRANCH   8  10
ENDBRANCH   1   8
TORSDOF 4
ENDMDL
MODEL 5
REMARK VINA RESULT: -4.848157282      2.010      2.294
REMARK  4 active torsions:
REMARK  status: ('A' for Active; 'I' for Inactive)
REMARK    1  A    between atoms: C2_2  and  N1_3 
REMARK    2  A    between atoms: N1_3  and  C3_4 
REMARK    3  A    between atoms: C3_4  and  N2_5 
REMARK    4  A    between atoms: N2_5  and  C4_7 
ROOT
HETATM    1  C4  UNL     1      -2.075 -14.161 -17.458  1.00  0.00     0.122 A 
HETATM    2  C5  UNL     1      -1.191 -14.919 -16.720  1.00  0.00     0.068 A 
HETATM    3  C6  UNL     1      -1.167 -16.177 -17.315  1.00  0.00     0.111 A 
HETATM    4  N3  UNL     1      -2.017 -16.147 -18.372  1.00  0.00    -0.310 N 
ATOM      5  H3  UNL     1      -2.211 -16.926 -19.001  1.00  0.00     0.186 HD
HETATM    6  N4  UNL     1      -2.562 -14.924 -18.452  1.00  0.00    -0.286 N 
ATOM      7  H4  UNL     1      -3.238 -14.621 -19.153  1.00  0.00     0.188 HD
ENDROOT
BRANCH   1   8
HETATM    8  N2  UNL     1      -2.372 -12.928 -17.221  1.00  0.00    -0.327 N 
ATOM      9  H2  UNL     1      -2.022 -12.196 -17.839  1.00  0.00     0.169 HD
BRANCH   8  10
HETATM   10  C3  UNL     1      -3.182 -12.581 -16.105  1.00  0.00     0.275 C 
BRANCH  10  11
HETATM   11  N1  UNL     1      -2.694 -12.355 -14.974  1.00  0.00    -0.414 NA
BRANCH  11  12
HETATM   12  C2  UNL     1      -2.087 -12.153 -13.903  1.00  0.00     0.173 C 
HETATM   13  C1  UNL     1      -1.747 -11.576 -12.770  1.00  0.00     0.045 C 
ENDBRANCH  11  12
ENDBRANCH  10  11
ENDBRANCH   8  10
ENDBRANCH   1   8
TORSDOF 4
ENDMDL
