MODEL 1
REMARK VINA RESULT: -4.935433345      0.000      0.000
REMARK  1 active torsions:
REMARK  status: ('A' for Active; 'I' for Inactive)
REMARK    1  A    between atoms: N1_2  and  C3_4 
ROOT
HETATM    1  C3  UNL     1      -2.077 -14.498 -16.637  1.00  0.00     0.118 A 
HETATM    2  C4  UNL     1      -1.223 -15.481 -17.122  1.00  0.00     0.068 A 
HETATM    3  C5  UNL     1      -1.681 -15.781 -18.377  1.00  0.00     0.111 A 
HETATM    4  N2  UNL     1      -2.761 -15.025 -18.660  1.00  0.00    -0.310 N 
ATOM      5  H2  UNL     1      -3.305 -15.037 -19.523  1.00  0.00     0.186 HD
HETATM    6  N3  UNL     1      -2.979 -14.265 -17.604  1.00  0.00    -0.286 N 
ATOM      7  H3  UNL     1      -3.737 -13.586 -17.530  1.00  0.00     0.188 HD
ENDROOT
BRANCH   1   8
HETATM    8  N1  UNL     1      -1.985 -13.936 -15.464  1.00  0.00    -0.375 N 
HETATM    9  C1  UNL     1      -1.284 -14.690 -14.430  1.00  0.00     0.150 C 
HETATM   10  C2  UNL     1      -2.533 -12.648 -15.173  1.00  0.00     0.150 C 
ENDBRANCH   1   8
TORSDOF 1
ENDMDL
MODEL 2
REMARK VINA RESULT: -4.905542637      0.177      1.258
REMARK  1 active torsions:
REMARK  status: ('A' for Active; 'I' for Inactive)
REMARK    1  A    between atoms: N1_2  and  C3_4 
ROOT
HETATM    1  C3  UNL     1      -2.104 -14.461 -16.678  1.00  0.00     0.118 A 
HETATM    2  C4  UNL     1      -1.240 -15.467 -17.090  1.00  0.00     0.068 A 
HETATM    3  C5  UNL     1      -1.651 -15.812 -18.350  1.00  0.00     0.111 A 
HETATM    4  N2  UNL     1      -2.713 -15.061 -18.704  1.00  0.00    -0.310 N 
ATOM      5  H2  UNL     1      -3.223 -15.103 -19.587  1.00  0.00     0.186 HD
HETATM    6  N3  UNL     1      -2.966 -14.260 -17.687  1.00  0.00    -0.286 N 
ATOM      7  H3  UNL     1      -3.721 -13.573 -17.670  1.00  0.00     0.188 HD
ENDROOT
BRANCH   1   8
HETATM    8  N1  UNL     1      -2.054 -13.854 -15.524  1.00  0.00    -0.375 N 
HETATM    9  C1  UNL     1      -2.752 -12.577 -15.426  1.00  0.00     0.150 C 
HETATM   10  C2  UNL     1      -1.357 -14.386 -14.394  1.00  0.00     0.150 C 
ENDBRANCH   1   8
TORSDOF 1
ENDMDL
MODEL 3
REMARK VINA RESULT: -4.889128387      1.247      1.288
REMARK  1 active torsions:
REMARK  status: ('A' for Active; 'I' for Inactive)
REMARK    1  A    between atoms: N1_2  and  C3_4 
ROOT
HETATM    1  C3  UNL     1      -1.830 -14.836 -16.621  1.00  0.00     0.118 A 
HETATM    2  C4  UNL     1      -1.962 -14.333 -17.909  1.00  0.00     0.068 A 
HETATM    3  C5  UNL     1      -1.822 -15.411 -18.741  1.00  0.00     0.111 A 
HETATM    4  N2  UNL     1      -1.616 -16.526 -18.010  1.00  0.00    -0.310 N 
ATOM      5  H2  UNL     1      -1.480 -17.472 -18.368  1.00  0.00     0.186 HD
HETATM    6  N3  UNL     1      -1.625 -16.156 -16.745  1.00  0.00    -0.286 N 
ATOM      7  H3  UNL     1      -1.492 -16.794 -15.959  1.00  0.00     0.188 HD
ENDROOT
BRANCH   1   8
HETATM    8  N1  UNL     1      -1.899 -14.127 -15.527  1.00  0.00    -0.375 N 
HETATM    9  C1  UNL     1      -1.246 -14.681 -14.346  1.00  0.00     0.150 C 
HETATM   10  C2  UNL     1      -2.575 -12.868 -15.457  1.00  0.00     0.150 C 
ENDBRANCH   1   8
TORSDOF 1
ENDMDL
MODEL 4
REMARK VINA RESULT: -4.879559856      1.260      1.789
REMARK  1 active torsions:
REMARK  status: ('A' for Active; 'I' for Inactive)
REMARK    1  A    between atoms: N1_2  and  C3_4 
ROOT
HETATM    1  C3  UNL     1      -1.826 -14.852 -16.633  1.00  0.00     0.118 A 
HETATM    2  C4  UNL     1      -1.966 -14.341 -17.917  1.00  0.00     0.068 A 
HETATM    3  C5  UNL     1      -1.824 -15.414 -18.756  1.00  0.00     0.111 A 
HETATM    4  N2  UNL     1      -1.608 -16.532 -18.034  1.00  0.00    -0.310 N 
ATOM      5  H2  UNL     1      -1.467 -17.475 -18.398  1.00  0.00     0.186 HD
HETATM    6  N3  UNL     1      -1.613 -16.170 -16.766  1.00  0.00    -0.286 N 
ATOM      7  H3  UNL     1      -1.473 -16.812 -15.985  1.00  0.00     0.188 HD
ENDROOT
BRANCH   1   8
HETATM    8  N1  UNL     1      -1.894 -14.150 -15.534  1.00  0.00    -0.375 N 
HETATM    9  C1  UNL     1      -2.641 -12.899 -15.603  1.00  0.00     0.150 C 
HETATM   10  C2  UNL     1      -1.279 -14.559 -14.310  1.00  0.00     0.150 C 
ENDBRANCH   1   8
TORSDOF 1
ENDMDL
MODEL 5
REMARK VINA RESULT: -4.496512904      2.156      3.929
REMARK  1 active torsions:
REMARK  status: ('A' for Active; 'I' for Inactive)
REMARK    1  A    between atoms: N1_2  and  C3_4 
ROOT
HETATM    1  C3  UNL     1      -0.690 -13.406 -15.465  1.00  0.00     0.118 A 
HETATM    2  C4  UNL     1      -0.571 -12.058 -15.780  1.00  0.00     0.068 A 
HETATM    3  C5  UNL     1       0.241 -11.525 -14.814  1.00  0.00     0.111 A 
HETATM    4  N2  UNL     1       0.609 -12.489 -13.946  1.00  0.00    -0.310 N 
ATOM      5  H2  UNL     1       1.211 -12.377 -13.130  1.00  0.00     0.186 HD
HETATM    6  N3  UNL     1       0.040 -13.606 -14.356  1.00  0.00    -0.286 N 
ATOM      7  H3  UNL     1       0.141 -14.508 -13.890  1.00  0.00     0.188 HD
ENDROOT
BRANCH   1   8
HETATM    8  N1  UNL     1      -1.386 -14.277 -16.144  1.00  0.00    -0.375 N 
HETATM    9  C1  UNL     1      -1.637 -15.560 -15.496  1.00  0.00     0.150 C 
HETATM   10  C2  UNL     1      -1.889 -14.018 -17.456  1.00  0.00     0.150 C 
ENDBRANCH   1   8
TORSDOF 1
ENDMDL
