MODEL 1
REMARK VINA RESULT: -5.842488772      0.000      0.000
REMARK  2 active torsions:
REMARK  status: ('A' for Active; 'I' for Inactive)
REMARK    1  A    between atoms: N1_1  and  N2_4 
REMARK    2  A    between atoms: N2_4  and  C1_5 
ROOT
HETATM    1  C1  UNL     1      -0.743 -15.614 -16.410  1.00  0.00     0.156 A 
HETATM    2  C2  UNL     1      -0.472 -14.867 -15.187  1.00  0.00     0.049 A 
HETATM    3  C3  UNL     1      -1.180 -13.810 -14.830  1.00  0.00     0.003 A 
HETATM    4  C4  UNL     1      -2.285 -13.321 -15.646  1.00  0.00     0.002 A 
HETATM    5  C5  UNL     1      -2.587 -13.948 -16.766  1.00  0.00     0.032 A 
HETATM    6  C6  UNL     1      -1.859 -15.114 -17.225  1.00  0.00     0.069 A 
HETATM    7  N3  UNL     1      -2.163 -15.730 -18.337  1.00  0.00    -0.396 N 
ATOM      8  H31 UNL     1      -2.938 -15.383 -18.903  1.00  0.00     0.156 HD
ATOM      9  H32 UNL     1      -1.651 -16.551 -18.659  1.00  0.00     0.156 HD
ENDROOT
BRANCH   1  10
HETATM   10  N2  UNL     1      -0.087 -16.618 -16.768  1.00  0.00    -0.331 NA
BRANCH  10  11
HETATM   11  N1  UNL     1       0.805 -17.419 -17.120  1.00  0.00    -0.280 N 
ATOM     12  H12 UNL     1       1.034 -17.661 -16.156  1.00  0.00     0.191 HD
ATOM     13  H11 UNL     1       1.463 -18.000 -17.640  1.00  0.00     0.191 HD
ENDBRANCH  10  11
ENDBRANCH   1  10
TORSDOF 2
ENDMDL
MODEL 2
REMARK VINA RESULT: -5.410160453      1.073      2.304
REMARK  2 active torsions:
REMARK  status: ('A' for Active; 'I' for Inactive)
REMARK    1  A    between atoms: N1_1  and  N2_4 
REMARK    2  A    between atoms: N2_4  and  C1_5 
ROOT
HETATM    1  C1  UNL     1      -0.772 -15.416 -16.311  1.00  0.00     0.156 A 
HETATM    2  C2  UNL     1      -1.857 -15.048 -17.213  1.00  0.00     0.049 A 
HETATM    3  C3  UNL     1      -2.669 -14.034 -16.967  1.00  0.00     0.003 A 
HETATM    4  C4  UNL     1      -2.528 -13.215 -15.769  1.00  0.00     0.002 A 
HETATM    5  C5  UNL     1      -1.567 -13.492 -14.909  1.00  0.00     0.032 A 
HETATM    6  C6  UNL     1      -0.637 -14.585 -15.107  1.00  0.00     0.069 A 
HETATM    7  N3  UNL     1       0.313 -14.853 -14.250  1.00  0.00    -0.396 N 
ATOM      8  H31 UNL     1       0.406 -14.277 -13.413  1.00  0.00     0.156 HD
ATOM      9  H32 UNL     1       0.967 -15.623 -14.390  1.00  0.00     0.156 HD
ENDROOT
BRANCH   1  10
HETATM   10  N2  UNL     1       0.010 -16.371 -16.522  1.00  0.00    -0.331 NA
BRANCH  10  11
HETATM   11  N1  UNL     1       0.761 -17.231 -17.029  1.00  0.00    -0.280 N 
ATOM     12  H12 UNL     1       0.970 -16.643 -17.836  1.00  0.00     0.191 HD
ATOM     13  H11 UNL     1       1.310 -18.066 -17.235  1.00  0.00     0.191 HD
ENDBRANCH  10  11
ENDBRANCH   1  10
TORSDOF 2
ENDMDL
MODEL 3
REMARK VINA RESULT: -5.213423299      0.775      2.658
REMARK  2 active torsions:
REMARK  status: ('A' for Active; 'I' for Inactive)
REMARK    1  A    between atoms: N1_1  and  N2_4 
REMARK    2  A    between atoms: N2_4  and  C1_5 
ROOT
HETATM    1  C1  UNL     1      -1.876 -14.483 -17.161  1.00  0.00     0.156 A 
HETATM    2  C2  UNL     1      -2.543 -13.354 -16.523  1.00  0.00     0.049 A 
HETATM    3  C3  UNL     1      -2.343 -13.038 -15.255  1.00  0.00     0.003 A 
HETATM    4  C4  UNL     1      -1.437 -13.807 -14.410  1.00  0.00     0.002 A 
HETATM    5  C5  UNL     1      -0.801 -14.842 -14.921  1.00  0.00     0.032 A 
HETATM    6  C6  UNL     1      -0.965 -15.252 -16.302  1.00  0.00     0.069 A 
HETATM    7  N3  UNL     1      -0.331 -16.279 -16.802  1.00  0.00    -0.396 N 
ATOM      8  H31 UNL     1       0.302 -16.813 -16.205  1.00  0.00     0.156 HD
ATOM      9  H32 UNL     1      -0.447 -16.567 -17.773  1.00  0.00     0.156 HD
ENDROOT
BRANCH   1  10
HETATM   10  N2  UNL     1      -2.048 -14.802 -18.359  1.00  0.00    -0.331 NA
BRANCH  10  11
HETATM   11  N1  UNL     1      -2.392 -14.860 -19.559  1.00  0.00    -0.280 N 
ATOM     12  H12 UNL     1      -1.484 -15.224 -19.851  1.00  0.00     0.191 HD
ATOM     13  H11 UNL     1      -2.891 -14.816 -20.448  1.00  0.00     0.191 HD
ENDBRANCH  10  11
ENDBRANCH   1  10
TORSDOF 2
ENDMDL
MODEL 4
REMARK VINA RESULT: -5.048231311      1.984      2.837
REMARK  2 active torsions:
REMARK  status: ('A' for Active; 'I' for Inactive)
REMARK    1  A    between atoms: N1_1  and  N2_4 
REMARK    2  A    between atoms: N2_4  and  C1_5 
ROOT
HETATM    1  C1  UNL     1      -1.701 -14.197 -16.837  1.00  0.00     0.156 A 
HETATM    2  C2  UNL     1      -0.934 -15.064 -15.951  1.00  0.00     0.049 A 
HETATM    3  C3  UNL     1      -0.245 -14.597 -14.924  1.00  0.00     0.003 A 
HETATM    4  C4  UNL     1      -0.211 -13.173 -14.612  1.00  0.00     0.002 A 
HETATM    5  C5  UNL     1      -0.883 -12.330 -15.372  1.00  0.00     0.032 A 
HETATM    6  C6  UNL     1      -1.660 -12.764 -16.515  1.00  0.00     0.069 A 
HETATM    7  N3  UNL     1      -2.323 -11.922 -17.264  1.00  0.00    -0.396 N 
ATOM      8  H31 UNL     1      -2.295 -10.927 -17.040  1.00  0.00     0.156 HD
ATOM      9  H32 UNL     1      -2.871 -12.228 -18.068  1.00  0.00     0.156 HD
ENDROOT
BRANCH   1  10
HETATM   10  N2  UNL     1      -2.360 -14.615 -17.815  1.00  0.00    -0.331 NA
BRANCH  10  11
HETATM   11  N1  UNL     1      -2.760 -14.958 -18.949  1.00  0.00    -0.280 N 
ATOM     12  H12 UNL     1      -1.810 -15.050 -19.309  1.00  0.00     0.191 HD
ATOM     13  H11 UNL     1      -3.315 -15.210 -19.767  1.00  0.00     0.191 HD
ENDBRANCH  10  11
ENDBRANCH   1  10
TORSDOF 2
ENDMDL
MODEL 5
REMARK VINA RESULT: -5.014278668      1.399      1.823
REMARK  2 active torsions:
REMARK  status: ('A' for Active; 'I' for Inactive)
REMARK    1  A    between atoms: N1_1  and  N2_4 
REMARK    2  A    between atoms: N2_4  and  C1_5 
ROOT
HETATM    1  C1  UNL     1      -1.185 -14.924 -16.473  1.00  0.00     0.156 A 
HETATM    2  C2  UNL     1      -0.413 -15.072 -15.244  1.00  0.00     0.049 A 
HETATM    3  C3  UNL     1      -0.090 -14.042 -14.482  1.00  0.00     0.003 A 
HETATM    4  C4  UNL     1      -0.490 -12.682 -14.826  1.00  0.00     0.002 A 
HETATM    5  C5  UNL     1      -1.190 -12.474 -15.924  1.00  0.00     0.032 A 
HETATM    6  C6  UNL     1      -1.582 -13.551 -16.811  1.00  0.00     0.069 A 
HETATM    7  N3  UNL     1      -2.276 -13.337 -17.898  1.00  0.00    -0.396 N 
ATOM      8  H31 UNL     1      -2.553 -12.384 -18.134  1.00  0.00     0.156 HD
ATOM      9  H32 UNL     1      -2.553 -14.095 -18.522  1.00  0.00     0.156 HD
ENDROOT
BRANCH   1  10
HETATM   10  N2  UNL     1      -1.502 -15.884 -17.211  1.00  0.00    -0.331 NA
BRANCH  10  11
HETATM   11  N1  UNL     1      -1.606 -16.716 -18.137  1.00  0.00    -0.280 N 
ATOM     12  H12 UNL     1      -2.556 -16.972 -17.865  1.00  0.00     0.191 HD
ATOM     13  H11 UNL     1      -1.455 -17.319 -18.945  1.00  0.00     0.191 HD
ENDBRANCH  10  11
ENDBRANCH   1  10
TORSDOF 2
ENDMDL
