MODEL 1
REMARK VINA RESULT: -8.022257196      0.000      0.000
REMARK  17 active torsions:
REMARK  status: ('A' for Active; 'I' for Inactive)
REMARK    1  A    between atoms: C2_2  and  C3_3 
REMARK    2  A    between atoms: C3_3  and  C4_4 
REMARK    3  A    between atoms: C4_4  and  C5_5 
REMARK    4  A    between atoms: C5_5  and  C6_6 
REMARK    5  A    between atoms: C6_6  and  C7_7 
REMARK    6  A    between atoms: C7_7  and  C8_8 
REMARK    7  A    between atoms: C8_8  and  N1_9 
REMARK    8  A    between atoms: N1_9  and  C9_11 
REMARK    9  A    between atoms: C10_14  and  N3_15 
REMARK   10  A    between atoms: N3_15  and  C11_17 
REMARK   11  A    between atoms: C11_17  and  C12_18 
REMARK   12  A    between atoms: C12_18  and  O1_19 
REMARK   13  A    between atoms: N5_24  and  C14_26 
REMARK   14  A    between atoms: C14_26  and  C15_27 
REMARK   15  A    between atoms: C17_32  and  C18_33 
REMARK   16  A    between atoms: C19_36  and  C20_37 
REMARK   17  A    between atoms: C22_39  and  N7_40 
ROOT
HETATM    1  C9  UNL     1      11.730  39.871  -6.124  1.00  0.00     0.694 C 
HETATM    2  N2  UNL     1      11.528  40.981  -6.889  1.00  0.00    -0.022 N 
ATOM      3  H2  UNL     1      11.223  41.811  -6.381  1.00  0.00     0.203 HD
HETATM    4  C10 UNL     1      11.673  41.143  -8.218  1.00  0.00     0.694 C 
HETATM    5  N4  UNL     1      12.197  40.286  -9.127  1.00  0.00    -0.173 N 
ATOM      6  H4  UNL     1      11.960  40.439 -10.107  1.00  0.00     0.186 HD
HETATM    7  C13 UNL     1      13.004  39.251  -8.842  1.00  0.00     0.161 C 
HETATM    8  N5  UNL     1      13.823  38.902  -9.769  1.00  0.00    -0.372 N 
ATOM      9  H5  UNL     1      14.450  38.119  -9.588  1.00  0.00     0.161 HD
HETATM   10  C22 UNL     1      13.050  38.520  -7.662  1.00  0.00     0.159 C 
HETATM   11  N8  UNL     1      12.526  38.843  -6.451  1.00  0.00    -0.173 N 
ATOM     12  H8  UNL     1      12.772  38.217  -5.685  1.00  0.00     0.186 HD
ENDROOT
BRANCH   8  13
HETATM   13  C14 UNL     1      13.905  39.555 -11.051  1.00  0.00     0.128 C 
BRANCH  13  14
HETATM   14  C15 UNL     1      14.707  38.671 -11.975  1.00  0.00     0.035 C 
HETATM   15  C16 UNL     1      15.167  37.409 -11.327  1.00  0.00     0.240 C 
HETATM   16  N6  UNL     1      15.368  36.467 -12.435  1.00  0.00    -0.060 N 
HETATM   17  C17 UNL     1      14.383  36.808 -13.410  1.00  0.00     0.290 C 
ATOM     18  H62 UNL     1      16.320  36.461 -12.799  1.00  0.00     0.278 HD
ATOM     19  H61 UNL     1      15.342  35.488 -12.151  1.00  0.00     0.278 HD
HETATM   20  C19 UNL     1      13.918  38.209 -13.162  1.00  0.00     0.034 C 
BRANCH  17  21
HETATM   21  C18 UNL     1      13.261  35.834 -13.448  1.00  0.00     0.205 C 
HETATM   22  O2  UNL     1      12.797  35.525 -14.572  1.00  0.00    -0.646 OA
HETATM   23  O3  UNL     1      12.733  35.281 -12.319  1.00  0.00    -0.646 OA
ENDBRANCH  17  21
BRANCH  20  24
HETATM   24  C20 UNL     1      14.196  39.119 -14.348  1.00  0.00     0.003 C 
HETATM   25  C21 UNL     1      14.903  38.360 -15.423  1.00  0.00     0.005 C 
ENDBRANCH  20  24
ENDBRANCH  13  14
ENDBRANCH   8  13
BRANCH  10  26
HETATM   26  N7  UNL     1      13.670  37.396  -7.736  1.00  0.00    -0.382 N 
ATOM     27  H72 UNL     1      13.962  37.099  -8.667  1.00  0.00     0.157 HD
ATOM     28  H71 UNL     1      13.806  36.914  -6.848  1.00  0.00     0.157 HD
ENDBRANCH  10  26
BRANCH   4  29
HETATM   29  N3  UNL     1      11.271  42.256  -8.735  1.00  0.00    -0.223 N 
ATOM     30  H3  UNL     1      11.341  43.120  -8.198  1.00  0.00     0.177 HD
BRANCH  29  31
HETATM   31  C11 UNL     1      10.726  42.282 -10.063  1.00  0.00     0.164 C 
BRANCH  31  32
HETATM   32  C12 UNL     1       9.618  43.318 -10.082  1.00  0.00     0.184 C 
BRANCH  32  33
HETATM   33  O1  UNL     1       8.555  42.880 -10.869  1.00  0.00    -0.399 OA
ATOM     34  H1  UNL     1       8.077  43.621 -11.225  1.00  0.00     0.209 HD
ENDBRANCH  32  33
ENDBRANCH  31  32
ENDBRANCH  29  31
ENDBRANCH   4  29
BRANCH   1  35
HETATM   35  N1  UNL     1      11.089  39.862  -5.025  1.00  0.00    -0.226 N 
ATOM     36  H1  UNL     1      10.902  40.759  -4.577  1.00  0.00     0.177 HD
BRANCH  35  37
HETATM   37  C8  UNL     1      10.609  38.667  -4.367  1.00  0.00     0.138 C 
BRANCH  37  38
HETATM   38  C7  UNL     1       9.104  38.796  -4.098  1.00  0.00     0.020 C 
BRANCH  38  39
HETATM   39  C6  UNL     1       8.856  38.530  -2.651  1.00  0.00     0.002 C 
BRANCH  39  40
HETATM   40  C5  UNL     1       9.180  37.097  -2.243  1.00  0.00     0.000 C 
BRANCH  40  41
HETATM   41  C4  UNL     1       9.845  37.004  -0.937  1.00  0.00     0.000 C 
BRANCH  41  42
HETATM   42  C3  UNL     1      10.258  38.286  -0.319  1.00  0.00    -0.000 C 
BRANCH  42  43
HETATM   43  C2  UNL     1       9.608  38.746   0.921  1.00  0.00    -0.005 C 
HETATM   44  C1  UNL     1       8.369  38.049   1.362  1.00  0.00     0.005 C 
ENDBRANCH  42  43
ENDBRANCH  41  42
ENDBRANCH  40  41
ENDBRANCH  39  40
ENDBRANCH  38  39
ENDBRANCH  37  38
ENDBRANCH  35  37
ENDBRANCH   1  35
TORSDOF 17
ENDMDL
MODEL 2
REMARK VINA RESULT: -7.969616528      0.971      1.119
REMARK  17 active torsions:
REMARK  status: ('A' for Active; 'I' for Inactive)
REMARK    1  A    between atoms: C2_2  and  C3_3 
REMARK    2  A    between atoms: C3_3  and  C4_4 
REMARK    3  A    between atoms: C4_4  and  C5_5 
REMARK    4  A    between atoms: C5_5  and  C6_6 
REMARK    5  A    between atoms: C6_6  and  C7_7 
REMARK    6  A    between atoms: C7_7  and  C8_8 
REMARK    7  A    between atoms: C8_8  and  N1_9 
REMARK    8  A    between atoms: N1_9  and  C9_11 
REMARK    9  A    between atoms: C10_14  and  N3_15 
REMARK   10  A    between atoms: N3_15  and  C11_17 
REMARK   11  A    between atoms: C11_17  and  C12_18 
REMARK   12  A    between atoms: C12_18  and  O1_19 
REMARK   13  A    between atoms: N5_24  and  C14_26 
REMARK   14  A    between atoms: C14_26  and  C15_27 
REMARK   15  A    between atoms: C17_32  and  C18_33 
REMARK   16  A    between atoms: C19_36  and  C20_37 
REMARK   17  A    between atoms: C22_39  and  N7_40 
ROOT
HETATM    1  C9  UNL     1      11.659  39.786  -6.169  1.00  0.00     0.694 C 
HETATM    2  N2  UNL     1      11.455  40.868  -6.974  1.00  0.00    -0.022 N 
ATOM      3  H2  UNL     1      11.110  41.703  -6.501  1.00  0.00     0.203 HD
HETATM    4  C10 UNL     1      11.643  40.995  -8.301  1.00  0.00     0.694 C 
HETATM    5  N4  UNL     1      12.222  40.127  -9.165  1.00  0.00    -0.173 N 
ATOM      6  H4  UNL     1      12.015  40.245 -10.157  1.00  0.00     0.186 HD
HETATM    7  C13 UNL     1      13.046  39.123  -8.822  1.00  0.00     0.161 C 
HETATM    8  N5  UNL     1      13.905  38.771  -9.709  1.00  0.00    -0.372 N 
ATOM      9  H5  UNL     1      14.546  38.011  -9.483  1.00  0.00     0.161 HD
HETATM   10  C22 UNL     1      13.069  38.428  -7.620  1.00  0.00     0.159 C 
HETATM   11  N8  UNL     1      12.493  38.772  -6.438  1.00  0.00    -0.173 N 
ATOM     12  H8  UNL     1      12.728  38.175  -5.645  1.00  0.00     0.186 HD
ENDROOT
BRANCH   8  13
HETATM   13  C14 UNL     1      14.016  39.389 -11.006  1.00  0.00     0.128 C 
BRANCH  13  14
HETATM   14  C15 UNL     1      14.796  38.457 -11.902  1.00  0.00     0.035 C 
HETATM   15  C16 UNL     1      15.137  37.163 -11.247  1.00  0.00     0.240 C 
HETATM   16  N6  UNL     1      15.323  36.216 -12.354  1.00  0.00    -0.060 N 
HETATM   17  C17 UNL     1      14.408  36.631 -13.368  1.00  0.00     0.290 C 
ATOM     18  H62 UNL     1      16.287  36.146 -12.676  1.00  0.00     0.278 HD
ATOM     19  H61 UNL     1      15.216  35.239 -12.081  1.00  0.00     0.278 HD
HETATM   20  C19 UNL     1      14.030  38.059 -13.127  1.00  0.00     0.034 C 
BRANCH  17  21
HETATM   21  C18 UNL     1      13.223  35.737 -13.465  1.00  0.00     0.205 C 
HETATM   22  O2  UNL     1      12.713  35.331 -12.393  1.00  0.00    -0.646 OA
HETATM   23  O3  UNL     1      12.691  35.356 -14.660  1.00  0.00    -0.646 OA
ENDBRANCH  17  21
BRANCH  20  24
HETATM   24  C20 UNL     1      14.423  38.956 -14.291  1.00  0.00     0.003 C 
HETATM   25  C21 UNL     1      15.020  38.138 -15.390  1.00  0.00     0.005 C 
ENDBRANCH  20  24
ENDBRANCH  13  14
ENDBRANCH   8  13
BRANCH  10  26
HETATM   26  N7  UNL     1      13.721  37.320  -7.639  1.00  0.00    -0.382 N 
ATOM     27  H72 UNL     1      14.737  37.390  -7.586  1.00  0.00     0.157 HD
ATOM     28  H71 UNL     1      13.148  36.479  -7.704  1.00  0.00     0.157 HD
ENDBRANCH  10  26
BRANCH   4  29
HETATM   29  N3  UNL     1      11.230  42.081  -8.865  1.00  0.00    -0.223 N 
ATOM     30  H3  UNL     1      10.600  42.030  -9.666  1.00  0.00     0.177 HD
BRANCH  29  31
HETATM   31  C11 UNL     1      11.654  43.360  -8.370  1.00  0.00     0.164 C 
BRANCH  31  32
HETATM   32  C12 UNL     1      10.413  44.114  -7.929  1.00  0.00     0.184 C 
BRANCH  32  33
HETATM   33  O1  UNL     1       9.919  43.583  -6.738  1.00  0.00    -0.399 OA
ATOM     34  H1  UNL     1       9.805  44.269  -6.091  1.00  0.00     0.209 HD
ENDBRANCH  32  33
ENDBRANCH  31  32
ENDBRANCH  29  31
ENDBRANCH   4  29
BRANCH   1  35
HETATM   35  N1  UNL     1      10.980  39.791  -5.094  1.00  0.00    -0.226 N 
ATOM     36  H1  UNL     1      10.653  40.691  -4.742  1.00  0.00     0.177 HD
BRANCH  35  37
HETATM   37  C8  UNL     1      10.640  38.608  -4.335  1.00  0.00     0.138 C 
BRANCH  37  38
HETATM   38  C7  UNL     1       9.120  38.543  -4.134  1.00  0.00     0.020 C 
BRANCH  38  39
HETATM   39  C6  UNL     1       8.841  38.359  -2.680  1.00  0.00     0.002 C 
BRANCH  39  40
HETATM   40  C5  UNL     1       9.166  36.955  -2.182  1.00  0.00     0.000 C 
BRANCH  40  41
HETATM   41  C4  UNL     1       9.876  36.947  -0.897  1.00  0.00     0.000 C 
BRANCH  41  42
HETATM   42  C3  UNL     1      10.267  38.270  -0.356  1.00  0.00    -0.000 C 
BRANCH  42  43
HETATM   43  C2  UNL     1       9.662  38.760   0.896  1.00  0.00    -0.005 C 
HETATM   44  C1  UNL     1       8.452  38.061   1.408  1.00  0.00     0.005 C 
ENDBRANCH  42  43
ENDBRANCH  41  42
ENDBRANCH  40  41
ENDBRANCH  39  40
ENDBRANCH  38  39
ENDBRANCH  37  38
ENDBRANCH  35  37
ENDBRANCH   1  35
TORSDOF 17
ENDMDL
MODEL 3
REMARK VINA RESULT: -7.879779805      0.700      1.093
REMARK  17 active torsions:
REMARK  status: ('A' for Active; 'I' for Inactive)
REMARK    1  A    between atoms: C2_2  and  C3_3 
REMARK    2  A    between atoms: C3_3  and  C4_4 
REMARK    3  A    between atoms: C4_4  and  C5_5 
REMARK    4  A    between atoms: C5_5  and  C6_6 
REMARK    5  A    between atoms: C6_6  and  C7_7 
REMARK    6  A    between atoms: C7_7  and  C8_8 
REMARK    7  A    between atoms: C8_8  and  N1_9 
REMARK    8  A    between atoms: N1_9  and  C9_11 
REMARK    9  A    between atoms: C10_14  and  N3_15 
REMARK   10  A    between atoms: N3_15  and  C11_17 
REMARK   11  A    between atoms: C11_17  and  C12_18 
REMARK   12  A    between atoms: C12_18  and  O1_19 
REMARK   13  A    between atoms: N5_24  and  C14_26 
REMARK   14  A    between atoms: C14_26  and  C15_27 
REMARK   15  A    between atoms: C17_32  and  C18_33 
REMARK   16  A    between atoms: C19_36  and  C20_37 
REMARK   17  A    between atoms: C22_39  and  N7_40 
ROOT
HETATM    1  C9  UNL     1      11.787  39.952  -6.399  1.00  0.00     0.694 C 
HETATM    2  N2  UNL     1      11.632  41.042  -7.203  1.00  0.00    -0.022 N 
ATOM      3  H2  UNL     1      11.315  41.890  -6.732  1.00  0.00     0.203 HD
HETATM    4  C10 UNL     1      11.836  41.164  -8.529  1.00  0.00     0.694 C 
HETATM    5  N4  UNL     1      12.389  40.276  -9.389  1.00  0.00    -0.173 N 
ATOM      6  H4  UNL     1      12.196  40.404 -10.382  1.00  0.00     0.186 HD
HETATM    7  C13 UNL     1      13.170  39.241  -9.040  1.00  0.00     0.161 C 
HETATM    8  N5  UNL     1      14.024  38.857  -9.920  1.00  0.00    -0.372 N 
ATOM      9  H5  UNL     1      14.633  38.073  -9.690  1.00  0.00     0.161 HD
HETATM   10  C22 UNL     1      13.156  38.543  -7.839  1.00  0.00     0.159 C 
HETATM   11  N8  UNL     1      12.583  38.907  -6.662  1.00  0.00    -0.173 N 
ATOM     12  H8  UNL     1      12.788  38.301  -5.868  1.00  0.00     0.186 HD
ENDROOT
BRANCH   8  13
HETATM   13  C14 UNL     1      14.169  39.472 -11.215  1.00  0.00     0.128 C 
BRANCH  13  14
HETATM   14  C15 UNL     1      14.892  38.500 -12.116  1.00  0.00     0.035 C 
HETATM   15  C16 UNL     1      15.258  37.227 -11.431  1.00  0.00     0.240 C 
HETATM   16  N6  UNL     1      15.375  36.237 -12.509  1.00  0.00    -0.060 N 
HETATM   17  C17 UNL     1      14.411  36.624 -13.488  1.00  0.00     0.290 C 
ATOM     18  H62 UNL     1      16.321  36.146 -12.880  1.00  0.00     0.278 HD
ATOM     19  H61 UNL     1      15.275  35.273 -12.194  1.00  0.00     0.278 HD
HETATM   20  C19 UNL     1      14.058  38.063 -13.282  1.00  0.00     0.034 C 
BRANCH  17  21
HETATM   21  C18 UNL     1      13.215  35.739 -13.487  1.00  0.00     0.205 C 
HETATM   22  O2  UNL     1      12.716  35.436 -14.597  1.00  0.00    -0.646 OA
HETATM   23  O3  UNL     1      12.661  35.260 -12.338  1.00  0.00    -0.646 OA
ENDBRANCH  17  21
BRANCH  20  24
HETATM   24  C20 UNL     1      14.395  38.912 -14.498  1.00  0.00     0.003 C 
HETATM   25  C21 UNL     1      15.037  38.068 -15.550  1.00  0.00     0.005 C 
ENDBRANCH  20  24
ENDBRANCH  13  14
ENDBRANCH   8  13
BRANCH  10  26
HETATM   26  N7  UNL     1      13.764  37.411  -7.854  1.00  0.00    -0.382 N 
ATOM     27  H72 UNL     1      14.774  37.440  -7.997  1.00  0.00     0.157 HD
ATOM     28  H71 UNL     1      13.169  36.594  -7.721  1.00  0.00     0.157 HD
ENDBRANCH  10  26
BRANCH   4  29
HETATM   29  N3  UNL     1      11.470  42.266  -9.094  1.00  0.00    -0.223 N 
ATOM     30  H3  UNL     1      12.036  42.665  -9.843  1.00  0.00     0.177 HD
BRANCH  29  31
HETATM   31  C11 UNL     1      10.271  42.933  -8.672  1.00  0.00     0.164 C 
BRANCH  31  32
HETATM   32  C12 UNL     1       9.745  43.722  -9.857  1.00  0.00     0.184 C 
BRANCH  32  33
HETATM   33  O1  UNL     1       8.850  42.950 -10.595  1.00  0.00    -0.399 OA
ATOM     34  H1  UNL     1       8.970  43.102 -11.526  1.00  0.00     0.209 HD
ENDBRANCH  32  33
ENDBRANCH  31  32
ENDBRANCH  29  31
ENDBRANCH   4  29
BRANCH   1  35
HETATM   35  N1  UNL     1      11.099  39.982  -5.329  1.00  0.00    -0.226 N 
ATOM     36  H1  UNL     1      11.131  40.832  -4.766  1.00  0.00     0.177 HD
BRANCH  35  37
HETATM   37  C8  UNL     1      10.273  38.892  -4.857  1.00  0.00     0.138 C 
BRANCH  37  38
HETATM   38  C7  UNL     1      10.399  38.773  -3.332  1.00  0.00     0.020 C 
BRANCH  38  39
HETATM   39  C6  UNL     1       9.326  39.596  -2.702  1.00  0.00     0.002 C 
BRANCH  39  40
HETATM   40  C5  UNL     1       9.664  40.031  -1.280  1.00  0.00     0.000 C 
BRANCH  40  41
HETATM   41  C4  UNL     1      10.268  38.961  -0.476  1.00  0.00     0.000 C 
BRANCH  41  42
HETATM   42  C3  UNL     1       9.347  38.199   0.400  1.00  0.00    -0.000 C 
BRANCH  42  43
HETATM   43  C2  UNL     1       8.605  37.046  -0.141  1.00  0.00    -0.005 C 
HETATM   44  C1  UNL     1       9.333  36.102  -1.032  1.00  0.00     0.005 C 
ENDBRANCH  42  43
ENDBRANCH  41  42
ENDBRANCH  40  41
ENDBRANCH  39  40
ENDBRANCH  38  39
ENDBRANCH  37  38
ENDBRANCH  35  37
ENDBRANCH   1  35
TORSDOF 17
ENDMDL
MODEL 4
REMARK VINA RESULT: -7.712786006      1.864      2.257
REMARK  17 active torsions:
REMARK  status: ('A' for Active; 'I' for Inactive)
REMARK    1  A    between atoms: C2_2  and  C3_3 
REMARK    2  A    between atoms: C3_3  and  C4_4 
REMARK    3  A    between atoms: C4_4  and  C5_5 
REMARK    4  A    between atoms: C5_5  and  C6_6 
REMARK    5  A    between atoms: C6_6  and  C7_7 
REMARK    6  A    between atoms: C7_7  and  C8_8 
REMARK    7  A    between atoms: C8_8  and  N1_9 
REMARK    8  A    between atoms: N1_9  and  C9_11 
REMARK    9  A    between atoms: C10_14  and  N3_15 
REMARK   10  A    between atoms: N3_15  and  C11_17 
REMARK   11  A    between atoms: C11_17  and  C12_18 
REMARK   12  A    between atoms: C12_18  and  O1_19 
REMARK   13  A    between atoms: N5_24  and  C14_26 
REMARK   14  A    between atoms: C14_26  and  C15_27 
REMARK   15  A    between atoms: C17_32  and  C18_33 
REMARK   16  A    between atoms: C19_36  and  C20_37 
REMARK   17  A    between atoms: C22_39  and  N7_40 
ROOT
HETATM    1  C9  UNL     1      12.666  38.550  -6.990  1.00  0.00     0.694 C 
HETATM    2  N2  UNL     1      12.462  39.820  -7.442  1.00  0.00    -0.022 N 
ATOM      3  H2  UNL     1      12.112  40.479  -6.746  1.00  0.00     0.203 HD
HETATM    4  C10 UNL     1      12.654  40.333  -8.673  1.00  0.00     0.694 C 
HETATM    5  N4  UNL     1      13.239  39.758  -9.751  1.00  0.00    -0.173 N 
ATOM      6  H4  UNL     1      13.036  40.162 -10.665  1.00  0.00     0.186 HD
HETATM    7  C13 UNL     1      14.064  38.699  -9.714  1.00  0.00     0.161 C 
HETATM    8  N5  UNL     1      14.928  38.624 -10.662  1.00  0.00    -0.372 N 
ATOM      9  H5  UNL     1      15.570  37.832 -10.666  1.00  0.00     0.161 HD
HETATM   10  C22 UNL     1      14.084  37.681  -8.769  1.00  0.00     0.159 C 
HETATM   11  N8  UNL     1      13.503  37.661  -7.541  1.00  0.00    -0.173 N 
ATOM     12  H8  UNL     1      13.737  36.858  -6.958  1.00  0.00     0.186 HD
ENDROOT
BRANCH   8  13
HETATM   13  C14 UNL     1      15.042  39.596 -11.719  1.00  0.00     0.128 C 
BRANCH  13  14
HETATM   14  C15 UNL     1      15.393  38.863 -12.992  1.00  0.00     0.035 C 
HETATM   15  C16 UNL     1      16.080  37.562 -12.748  1.00  0.00     0.240 C 
HETATM   16  N6  UNL     1      15.808  36.761 -13.948  1.00  0.00    -0.060 N 
HETATM   17  C17 UNL     1      14.508  37.158 -14.385  1.00  0.00     0.290 C 
ATOM     18  H62 UNL     1      16.525  36.845 -14.668  1.00  0.00     0.278 HD
ATOM     19  H61 UNL     1      15.902  35.756 -13.801  1.00  0.00     0.278 HD
HETATM   20  C19 UNL     1      14.185  38.496 -13.799  1.00  0.00     0.034 C 
BRANCH  17  21
HETATM   21  C18 UNL     1      13.470  36.137 -14.080  1.00  0.00     0.205 C 
HETATM   22  O2  UNL     1      13.173  35.953 -12.876  1.00  0.00    -0.646 OA
HETATM   23  O3  UNL     1      12.849  35.413 -15.053  1.00  0.00    -0.646 OA
ENDBRANCH  17  21
BRANCH  20  24
HETATM   24  C20 UNL     1      13.949  39.546 -14.873  1.00  0.00     0.003 C 
HETATM   25  C21 UNL     1      14.372  39.021 -16.206  1.00  0.00     0.005 C 
ENDBRANCH  20  24
ENDBRANCH  13  14
ENDBRANCH   8  13
BRANCH  10  26
HETATM   26  N7  UNL     1      14.739  36.629  -9.110  1.00  0.00    -0.382 N 
ATOM     27  H72 UNL     1      15.533  36.770  -9.735  1.00  0.00     0.157 HD
ATOM     28  H71 UNL     1      14.395  35.754  -8.715  1.00  0.00     0.157 HD
ENDBRANCH  10  26
BRANCH   4  29
HETATM   29  N3  UNL     1      12.240  41.535  -8.894  1.00  0.00    -0.223 N 
ATOM     30  H3  UNL     1      11.812  41.769  -9.790  1.00  0.00     0.177 HD
BRANCH  29  31
HETATM   31  C11 UNL     1      12.380  42.547  -7.885  1.00  0.00     0.164 C 
BRANCH  31  32
HETATM   32  C12 UNL     1      13.850  42.914  -7.806  1.00  0.00     0.184 C 
BRANCH  32  33
HETATM   33  O1  UNL     1      14.270  42.956  -6.478  1.00  0.00    -0.399 OA
ATOM     34  H1  UNL     1      15.192  43.183  -6.429  1.00  0.00     0.209 HD
ENDBRANCH  32  33
ENDBRANCH  31  32
ENDBRANCH  29  31
ENDBRANCH   4  29
BRANCH   1  35
HETATM   35  N1  UNL     1      11.982  38.238  -5.964  1.00  0.00    -0.226 N 
ATOM     36  H1  UNL     1      12.247  37.394  -5.455  1.00  0.00     0.177 HD
BRANCH  35  37
HETATM   37  C8  UNL     1      10.856  38.997  -5.468  1.00  0.00     0.138 C 
BRANCH  37  38
HETATM   38  C7  UNL     1      10.416  38.439  -4.109  1.00  0.00     0.020 C 
BRANCH  38  39
HETATM   39  C6  UNL     1       9.198  39.178  -3.663  1.00  0.00     0.002 C 
BRANCH  39  40
HETATM   40  C5  UNL     1       9.318  39.729  -2.247  1.00  0.00     0.000 C 
BRANCH  40  41
HETATM   41  C4  UNL     1      10.411  39.119  -1.479  1.00  0.00     0.000 C 
BRANCH  41  42
HETATM   42  C3  UNL     1      10.018  38.373  -0.260  1.00  0.00    -0.000 C 
BRANCH  42  43
HETATM   43  C2  UNL     1       9.008  37.303  -0.347  1.00  0.00    -0.005 C 
HETATM   44  C1  UNL     1       9.312  36.123  -1.202  1.00  0.00     0.005 C 
ENDBRANCH  42  43
ENDBRANCH  41  42
ENDBRANCH  40  41
ENDBRANCH  39  40
ENDBRANCH  38  39
ENDBRANCH  37  38
ENDBRANCH  35  37
ENDBRANCH   1  35
TORSDOF 17
ENDMDL
MODEL 5
REMARK VINA RESULT: -7.646306850      1.933      2.290
REMARK  17 active torsions:
REMARK  status: ('A' for Active; 'I' for Inactive)
REMARK    1  A    between atoms: C2_2  and  C3_3 
REMARK    2  A    between atoms: C3_3  and  C4_4 
REMARK    3  A    between atoms: C4_4  and  C5_5 
REMARK    4  A    between atoms: C5_5  and  C6_6 
REMARK    5  A    between atoms: C6_6  and  C7_7 
REMARK    6  A    between atoms: C7_7  and  C8_8 
REMARK    7  A    between atoms: C8_8  and  N1_9 
REMARK    8  A    between atoms: N1_9  and  C9_11 
REMARK    9  A    between atoms: C10_14  and  N3_15 
REMARK   10  A    between atoms: N3_15  and  C11_17 
REMARK   11  A    between atoms: C11_17  and  C12_18 
REMARK   12  A    between atoms: C12_18  and  O1_19 
REMARK   13  A    between atoms: N5_24  and  C14_26 
REMARK   14  A    between atoms: C14_26  and  C15_27 
REMARK   15  A    between atoms: C17_32  and  C18_33 
REMARK   16  A    between atoms: C19_36  and  C20_37 
REMARK   17  A    between atoms: C22_39  and  N7_40 
ROOT
HETATM    1  C9  UNL     1      12.353  38.591  -6.580  1.00  0.00     0.694 C 
HETATM    2  N2  UNL     1      11.922  39.840  -6.917  1.00  0.00    -0.022 N 
ATOM      3  H2  UNL     1      11.548  40.394  -6.147  1.00  0.00     0.203 HD
HETATM    4  C10 UNL     1      11.916  40.449  -8.118  1.00  0.00     0.694 C 
HETATM    5  N4  UNL     1      12.472  40.037  -9.283  1.00  0.00    -0.173 N 
ATOM      6  H4  UNL     1      12.123  40.459 -10.143  1.00  0.00     0.186 HD
HETATM    7  C13 UNL     1      13.443  39.117  -9.397  1.00  0.00     0.161 C 
HETATM    8  N5  UNL     1      14.213  39.233 -10.419  1.00  0.00    -0.372 N 
ATOM      9  H5  UNL     1      14.961  38.551 -10.538  1.00  0.00     0.161 HD
HETATM   10  C22 UNL     1      13.705  38.059  -8.535  1.00  0.00     0.159 C 
HETATM   11  N8  UNL     1      13.256  37.876  -7.267  1.00  0.00    -0.173 N 
ATOM     12  H8  UNL     1      13.660  37.085  -6.767  1.00  0.00     0.186 HD
ENDROOT
BRANCH   8  13
HETATM   13  C14 UNL     1      14.079  40.273 -11.407  1.00  0.00     0.128 C 
BRANCH  13  14
HETATM   14  C15 UNL     1      14.362  39.669 -12.762  1.00  0.00     0.035 C 
HETATM   15  C16 UNL     1      15.391  40.421 -13.535  1.00  0.00     0.240 C 
HETATM   16  N6  UNL     1      15.954  39.439 -14.470  1.00  0.00    -0.060 N 
HETATM   17  C17 UNL     1      15.913  38.189 -13.781  1.00  0.00     0.290 C 
ATOM     18  H62 UNL     1      15.487  39.422 -15.376  1.00  0.00     0.278 HD
ATOM     19  H61 UNL     1      16.881  39.686 -14.816  1.00  0.00     0.278 HD
HETATM   20  C19 UNL     1      14.913  38.279 -12.671  1.00  0.00     0.034 C 
BRANCH  17  21
HETATM   21  C18 UNL     1      17.255  37.759 -13.306  1.00  0.00     0.205 C 
HETATM   22  O2  UNL     1      17.345  36.629 -12.768  1.00  0.00    -0.646 OA
HETATM   23  O3  UNL     1      18.362  38.542 -13.436  1.00  0.00    -0.646 OA
ENDBRANCH  17  21
BRANCH  20  24
HETATM   24  C20 UNL     1      13.788  37.269 -12.836  1.00  0.00     0.003 C 
HETATM   25  C21 UNL     1      13.928  36.554 -14.139  1.00  0.00     0.005 C 
ENDBRANCH  20  24
ENDBRANCH  13  14
ENDBRANCH   8  13
BRANCH  10  26
HETATM   26  N7  UNL     1      14.472  37.142  -9.009  1.00  0.00    -0.382 N 
ATOM     27  H72 UNL     1      14.933  37.349  -9.895  1.00  0.00     0.157 HD
ATOM     28  H71 UNL     1      14.540  36.296  -8.444  1.00  0.00     0.157 HD
ENDBRANCH  10  26
BRANCH   4  29
HETATM   29  N3  UNL     1      11.310  41.585  -8.213  1.00  0.00    -0.223 N 
ATOM     30  H3  UNL     1      10.805  41.960  -7.410  1.00  0.00     0.177 HD
BRANCH  29  31
HETATM   31  C11 UNL     1      11.343  42.324  -9.443  1.00  0.00     0.164 C 
BRANCH  31  32
HETATM   32  C12 UNL     1      10.131  43.235  -9.463  1.00  0.00     0.184 C 
BRANCH  32  33
HETATM   33  O1  UNL     1       9.407  43.057 -10.640  1.00  0.00    -0.399 OA
ATOM     34  H1  UNL     1       8.584  42.616 -10.460  1.00  0.00     0.209 HD
ENDBRANCH  32  33
ENDBRANCH  31  32
ENDBRANCH  29  31
ENDBRANCH   4  29
BRANCH   1  35
HETATM   35  N1  UNL     1      11.826  38.116  -5.524  1.00  0.00    -0.226 N 
ATOM     36  H1  UNL     1      12.354  37.415  -5.004  1.00  0.00     0.177 HD
BRANCH  35  37
HETATM   37  C8  UNL     1      10.531  38.503  -5.011  1.00  0.00     0.138 C 
BRANCH  37  38
HETATM   38  C7  UNL     1      10.550  38.457  -3.477  1.00  0.00     0.020 C 
BRANCH  38  39
HETATM   39  C6  UNL     1       9.383  37.651  -3.012  1.00  0.00     0.002 C 
BRANCH  39  40
HETATM   40  C5  UNL     1       9.671  36.862  -1.740  1.00  0.00     0.000 C 
BRANCH  40  41
HETATM   41  C4  UNL     1       8.649  37.046  -0.701  1.00  0.00     0.000 C 
BRANCH  41  42
HETATM   42  C3  UNL     1       8.989  37.986   0.393  1.00  0.00    -0.000 C 
BRANCH  42  43
HETATM   43  C2  UNL     1      10.084  38.956   0.214  1.00  0.00    -0.005 C 
HETATM   44  C1  UNL     1       9.762  40.266  -0.416  1.00  0.00     0.005 C 
ENDBRANCH  42  43
ENDBRANCH  41  42
ENDBRANCH  40  41
ENDBRANCH  39  40
ENDBRANCH  38  39
ENDBRANCH  37  38
ENDBRANCH  35  37
ENDBRANCH   1  35
TORSDOF 17
ENDMDL
