MODEL 1
REMARK VINA RESULT: -7.063697869      0.000      0.000
REMARK  17 active torsions:
REMARK  status: ('A' for Active; 'I' for Inactive)
REMARK    1  A    between atoms: C2_2  and  C3_3 
REMARK    2  A    between atoms: C3_3  and  C4_4 
REMARK    3  A    between atoms: C4_4  and  C5_5 
REMARK    4  A    between atoms: C5_5  and  C6_6 
REMARK    5  A    between atoms: C6_6  and  C7_7 
REMARK    6  A    between atoms: C6_6  and  C8_12 
REMARK    7  A    between atoms: C7_7  and  N1_8 
REMARK    8  A    between atoms: C8_12  and  O1_13 
REMARK    9  A    between atoms: O1_13  and  C9_14 
REMARK   10  A    between atoms: C9_14  and  C10_15 
REMARK   11  A    between atoms: C11_16  and  C12_17 
REMARK   12  A    between atoms: C13_20  and  N3_21 
REMARK   13  A    between atoms: C15_28  and  C16_29 
REMARK   14  A    between atoms: C16_29  and  S1_30 
REMARK   15  A    between atoms: S1_30  and  C17_31 
REMARK   16  A    between atoms: C17_31  and  C18_32 
REMARK       I    between atoms: C18_32  and  N5_34 
REMARK   17  A    between atoms: N5_34  and  C19_36 
ROOT
HETATM    1  C12 UNL     1      12.167  38.757  -6.761  1.00  0.00     0.115 A 
HETATM    2  N2  UNL     1      11.855  38.130  -5.621  1.00  0.00    -0.183 N 
ATOM      3  H2  UNL     1      12.246  37.204  -5.450  1.00  0.00     0.185 HD
HETATM    4  C13 UNL     1      11.047  38.667  -4.693  1.00  0.00     0.679 A 
HETATM    5  N4  UNL     1      10.515  39.882  -4.883  1.00  0.00    -0.156 N 
ATOM      6  H4  UNL     1       9.901  40.293  -4.179  1.00  0.00     0.187 HD
HETATM    7  C14 UNL     1      10.803  40.563  -6.030  1.00  0.00     0.269 A 
HETATM    8  O2  UNL     1      10.282  41.693  -6.146  1.00  0.00    -0.267 OA
HETATM    9  C15 UNL     1      11.618  40.029  -6.977  1.00  0.00     0.056 A 
ENDROOT
BRANCH   1  10
HETATM   10  C11 UNL     1      13.028  38.184  -7.756  1.00  0.00    -0.045 C 
HETATM   11  C10 UNL     1      13.743  37.685  -8.611  1.00  0.00    -0.073 C 
BRANCH  11  12
HETATM   12  C9  UNL     1      14.584  37.068  -9.644  1.00  0.00     0.261 C 
BRANCH  12  13
HETATM   13  O1  UNL     1      13.827  36.473 -10.631  1.00  0.00    -0.379 OA
BRANCH  13  14
HETATM   14  C8  UNL     1      13.228  37.403 -11.443  1.00  0.00     0.175 C 
BRANCH  14  15
HETATM   15  C6  UNL     1      14.274  37.797 -12.528  1.00  0.00     0.035 C 
BRANCH  15  16
HETATM   16  C5  UNL     1      14.199  39.259 -12.633  1.00  0.00     0.008 C 
BRANCH  16  17
HETATM   17  C4  UNL     1      13.751  40.074 -11.497  1.00  0.00     0.000 C 
BRANCH  17  18
HETATM   18  C3  UNL     1      14.577  41.164 -10.954  1.00  0.00    -0.000 C 
BRANCH  18  19
HETATM   19  C2  UNL     1      15.700  40.709 -10.039  1.00  0.00    -0.005 C 
HETATM   20  C1  UNL     1      16.892  41.603 -10.301  1.00  0.00     0.005 C 
ENDBRANCH  18  19
ENDBRANCH  17  18
ENDBRANCH  16  17
ENDBRANCH  15  16
BRANCH  15  21
HETATM   21  C7  UNL     1      14.008  36.921 -13.682  1.00  0.00     0.236 C 
BRANCH  21  22
HETATM   22  N1  UNL     1      14.082  35.513 -13.408  1.00  0.00    -0.079 N 
ATOM     23  H13 UNL     1      13.783  35.325 -12.451  1.00  0.00     0.274 HD
ATOM     24  H12 UNL     1      13.354  35.016 -13.922  1.00  0.00     0.274 HD
ATOM     25  H11 UNL     1      14.991  35.084 -13.583  1.00  0.00     0.274 HD
ENDBRANCH  21  22
ENDBRANCH  15  21
ENDBRANCH  14  15
ENDBRANCH  13  14
ENDBRANCH  12  13
ENDBRANCH  11  12
ENDBRANCH   1  10
BRANCH   9  26
HETATM   26  C16 UNL     1      12.005  40.716  -8.198  1.00  0.00     0.121 C 
BRANCH  26  27
HETATM   27  S1  UNL     1      12.486  42.436  -8.041  1.00  0.00    -0.155 SA
BRANCH  27  28
HETATM   28  C17 UNL     1      14.115  42.665  -7.324  1.00  0.00     0.176 C 
BRANCH  28  29
HETATM   29  C18 UNL     1      14.863  43.763  -8.010  1.00  0.00     0.227 C 
HETATM   30  O3  UNL     1      14.325  44.251  -9.044  1.00  0.00    -0.273 OA
HETATM   31  N5  UNL     1      16.111  44.230  -7.522  1.00  0.00    -0.354 N 
ATOM     32  H5  UNL     1      16.527  43.821  -6.685  1.00  0.00     0.162 HD
BRANCH  31  33
HETATM   33  C19 UNL     1      16.777  45.289  -8.228  1.00  0.00     0.111 C 
HETATM   34  C20 UNL     1      16.667  46.538  -7.374  1.00  0.00     0.054 C 
HETATM   35  C21 UNL     1      17.983  46.645  -6.646  1.00  0.00     0.234 C 
HETATM   36  N6  UNL     1      18.936  45.889  -7.390  1.00  0.00    -0.073 N 
HETATM   37  C22 UNL     1      18.248  45.074  -8.336  1.00  0.00     0.257 C 
ATOM     38  H62 UNL     1      19.643  46.479  -7.828  1.00  0.00     0.277 HD
ATOM     39  H61 UNL     1      19.555  45.346  -6.788  1.00  0.00     0.277 HD
ENDBRANCH  31  33
ENDBRANCH  28  29
ENDBRANCH  27  28
ENDBRANCH  26  27
ENDBRANCH   9  26
BRANCH   4  40
HETATM   40  N3  UNL     1      10.775  38.027  -3.610  1.00  0.00    -0.234 N 
ATOM     41  H32 UNL     1       9.800  37.844  -3.373  1.00  0.00     0.174 HD
ATOM     42  H31 UNL     1      11.523  37.706  -2.995  1.00  0.00     0.174 HD
ENDBRANCH   4  40
TORSDOF 17
ENDMDL
MODEL 2
REMARK VINA RESULT: -7.050484219      2.801      4.096
REMARK  17 active torsions:
REMARK  status: ('A' for Active; 'I' for Inactive)
REMARK    1  A    between atoms: C2_2  and  C3_3 
REMARK    2  A    between atoms: C3_3  and  C4_4 
REMARK    3  A    between atoms: C4_4  and  C5_5 
REMARK    4  A    between atoms: C5_5  and  C6_6 
REMARK    5  A    between atoms: C6_6  and  C7_7 
REMARK    6  A    between atoms: C6_6  and  C8_12 
REMARK    7  A    between atoms: C7_7  and  N1_8 
REMARK    8  A    between atoms: C8_12  and  O1_13 
REMARK    9  A    between atoms: O1_13  and  C9_14 
REMARK   10  A    between atoms: C9_14  and  C10_15 
REMARK   11  A    between atoms: C11_16  and  C12_17 
REMARK   12  A    between atoms: C13_20  and  N3_21 
REMARK   13  A    between atoms: C15_28  and  C16_29 
REMARK   14  A    between atoms: C16_29  and  S1_30 
REMARK   15  A    between atoms: S1_30  and  C17_31 
REMARK   16  A    between atoms: C17_31  and  C18_32 
REMARK       I    between atoms: C18_32  and  N5_34 
REMARK   17  A    between atoms: N5_34  and  C19_36 
ROOT
HETATM    1  C12 UNL     1      12.163  38.731  -6.745  1.00  0.00     0.115 A 
HETATM    2  N2  UNL     1      11.830  38.104  -5.611  1.00  0.00    -0.183 N 
ATOM      3  H2  UNL     1      12.208  37.172  -5.440  1.00  0.00     0.185 HD
HETATM    4  C13 UNL     1      11.021  38.648  -4.688  1.00  0.00     0.679 A 
HETATM    5  N4  UNL     1      10.507  39.870  -4.877  1.00  0.00    -0.156 N 
ATOM      6  H4  UNL     1       9.892  40.286  -4.177  1.00  0.00     0.187 HD
HETATM    7  C14 UNL     1      10.815  40.552  -6.018  1.00  0.00     0.269 A 
HETATM    8  O2  UNL     1      10.310  41.690  -6.134  1.00  0.00    -0.267 OA
HETATM    9  C15 UNL     1      11.632  40.012  -6.959  1.00  0.00     0.056 A 
ENDROOT
BRANCH   1  10
HETATM   10  C11 UNL     1      13.025  38.152  -7.734  1.00  0.00    -0.045 C 
HETATM   11  C10 UNL     1      13.743  37.660  -8.590  1.00  0.00    -0.073 C 
BRANCH  11  12
HETATM   12  C9  UNL     1      14.585  37.065  -9.636  1.00  0.00     0.261 C 
BRANCH  12  13
HETATM   13  O1  UNL     1      13.829  36.474 -10.626  1.00  0.00    -0.379 OA
BRANCH  13  14
HETATM   14  C8  UNL     1      13.206  37.407 -11.416  1.00  0.00     0.175 C 
BRANCH  14  15
HETATM   15  C6  UNL     1      14.199  37.767 -12.560  1.00  0.00     0.035 C 
BRANCH  15  16
HETATM   16  C5  UNL     1      14.123  39.226 -12.702  1.00  0.00     0.008 C 
BRANCH  16  17
HETATM   17  C4  UNL     1      13.878  40.084 -11.536  1.00  0.00     0.000 C 
BRANCH  17  18
HETATM   18  C3  UNL     1      14.829  41.133 -11.135  1.00  0.00    -0.000 C 
BRANCH  18  19
HETATM   19  C2  UNL     1      15.894  40.678 -10.154  1.00  0.00    -0.005 C 
HETATM   20  C1  UNL     1      17.238  41.071 -10.727  1.00  0.00     0.005 C 
ENDBRANCH  18  19
ENDBRANCH  17  18
ENDBRANCH  16  17
ENDBRANCH  15  16
BRANCH  15  21
HETATM   21  C7  UNL     1      13.876  36.861 -13.676  1.00  0.00     0.236 C 
BRANCH  21  22
HETATM   22  N1  UNL     1      14.020  35.461 -13.386  1.00  0.00    -0.079 N 
ATOM     23  H13 UNL     1      13.688  35.262 -12.442  1.00  0.00     0.274 HD
ATOM     24  H12 UNL     1      13.348  34.919 -13.929  1.00  0.00     0.274 HD
ATOM     25  H11 UNL     1      14.960  35.087 -13.514  1.00  0.00     0.274 HD
ENDBRANCH  21  22
ENDBRANCH  15  21
ENDBRANCH  14  15
ENDBRANCH  13  14
ENDBRANCH  12  13
ENDBRANCH  11  12
ENDBRANCH   1  10
BRANCH   9  26
HETATM   26  C16 UNL     1      12.040  40.699  -8.174  1.00  0.00     0.121 C 
BRANCH  26  27
HETATM   27  S1  UNL     1      13.132  42.108  -7.978  1.00  0.00    -0.155 SA
BRANCH  27  28
HETATM   28  C17 UNL     1      12.555  43.588  -8.812  1.00  0.00     0.176 C 
BRANCH  28  29
HETATM   29  C18 UNL     1      11.632  44.380  -7.942  1.00  0.00     0.227 C 
HETATM   30  O3  UNL     1      12.173  45.174  -7.122  1.00  0.00    -0.273 OA
HETATM   31  N5  UNL     1      10.223  44.243  -8.036  1.00  0.00    -0.354 N 
ATOM     32  H5  UNL     1       9.807  43.595  -8.706  1.00  0.00     0.162 HD
BRANCH  31  33
HETATM   33  C19 UNL     1       9.392  45.035  -7.171  1.00  0.00     0.111 C 
HETATM   34  C20 UNL     1       8.980  46.269  -7.950  1.00  0.00     0.054 C 
HETATM   35  C21 UNL     1       7.593  45.976  -8.463  1.00  0.00     0.234 C 
HETATM   36  N6  UNL     1       7.047  44.952  -7.635  1.00  0.00    -0.073 N 
HETATM   37  C22 UNL     1       8.093  44.375  -6.857  1.00  0.00     0.257 C 
ATOM     38  H62 UNL     1       6.276  45.289  -7.058  1.00  0.00     0.277 HD
ATOM     39  H61 UNL     1       6.531  44.254  -8.170  1.00  0.00     0.277 HD
ENDBRANCH  31  33
ENDBRANCH  28  29
ENDBRANCH  27  28
ENDBRANCH  26  27
ENDBRANCH   9  26
BRANCH   4  40
HETATM   40  N3  UNL     1      10.730  38.005  -3.611  1.00  0.00    -0.234 N 
ATOM     41  H32 UNL     1      10.881  36.997  -3.578  1.00  0.00     0.174 HD
ATOM     42  H31 UNL     1      10.350  38.495  -2.800  1.00  0.00     0.174 HD
ENDBRANCH   4  40
TORSDOF 17
ENDMDL
MODEL 3
REMARK VINA RESULT: -6.925183215      2.926      7.619
REMARK  17 active torsions:
REMARK  status: ('A' for Active; 'I' for Inactive)
REMARK    1  A    between atoms: C2_2  and  C3_3 
REMARK    2  A    between atoms: C3_3  and  C4_4 
REMARK    3  A    between atoms: C4_4  and  C5_5 
REMARK    4  A    between atoms: C5_5  and  C6_6 
REMARK    5  A    between atoms: C6_6  and  C7_7 
REMARK    6  A    between atoms: C6_6  and  C8_12 
REMARK    7  A    between atoms: C7_7  and  N1_8 
REMARK    8  A    between atoms: C8_12  and  O1_13 
REMARK    9  A    between atoms: O1_13  and  C9_14 
REMARK   10  A    between atoms: C9_14  and  C10_15 
REMARK   11  A    between atoms: C11_16  and  C12_17 
REMARK   12  A    between atoms: C13_20  and  N3_21 
REMARK   13  A    between atoms: C15_28  and  C16_29 
REMARK   14  A    between atoms: C16_29  and  S1_30 
REMARK   15  A    between atoms: S1_30  and  C17_31 
REMARK   16  A    between atoms: C17_31  and  C18_32 
REMARK       I    between atoms: C18_32  and  N5_34 
REMARK   17  A    between atoms: N5_34  and  C19_36 
ROOT
HETATM    1  C12 UNL     1      14.129  39.128 -11.035  1.00  0.00     0.115 A 
HETATM    2  N2  UNL     1      14.473  38.232 -11.966  1.00  0.00    -0.183 N 
ATOM      3  H2  UNL     1      14.486  38.523 -12.943  1.00  0.00     0.185 HD
HETATM    4  C13 UNL     1      14.803  36.964 -11.669  1.00  0.00     0.679 A 
HETATM    5  N4  UNL     1      14.799  36.546 -10.397  1.00  0.00    -0.156 N 
ATOM      6  H4  UNL     1      15.050  35.584 -10.168  1.00  0.00     0.187 HD
HETATM    7  C14 UNL     1      14.455  37.423  -9.409  1.00  0.00     0.269 A 
HETATM    8  O2  UNL     1      14.475  36.975  -8.242  1.00  0.00    -0.267 OA
HETATM    9  C15 UNL     1      14.118  38.707  -9.697  1.00  0.00     0.056 A 
ENDROOT
BRANCH   1  10
HETATM   10  C11 UNL     1      13.773  40.482 -11.348  1.00  0.00    -0.045 C 
HETATM   11  C10 UNL     1      13.473  41.639 -11.594  1.00  0.00    -0.073 C 
BRANCH  11  12
HETATM   12  C9  UNL     1      13.107  43.036 -11.864  1.00  0.00     0.261 C 
BRANCH  12  13
HETATM   13  O1  UNL     1      11.826  43.320 -11.443  1.00  0.00    -0.379 OA
BRANCH  13  14
HETATM   14  C8  UNL     1      11.809  44.324 -10.506  1.00  0.00     0.175 C 
BRANCH  14  15
HETATM   15  C6  UNL     1      10.927  43.825  -9.324  1.00  0.00     0.035 C 
BRANCH  15  16
HETATM   16  C5  UNL     1      11.867  43.290  -8.332  1.00  0.00     0.008 C 
BRANCH  16  17
HETATM   17  C4  UNL     1      13.178  43.917  -8.122  1.00  0.00     0.000 C 
BRANCH  17  18
HETATM   18  C3  UNL     1      14.316  43.163  -7.572  1.00  0.00    -0.000 C 
BRANCH  18  19
HETATM   19  C2  UNL     1      15.676  43.644  -8.041  1.00  0.00    -0.005 C 
HETATM   20  C1  UNL     1      16.072  42.801  -9.234  1.00  0.00     0.005 C 
ENDBRANCH  18  19
ENDBRANCH  17  18
ENDBRANCH  16  17
ENDBRANCH  15  16
BRANCH  15  21
HETATM   21  C7  UNL     1       9.877  42.987  -9.929  1.00  0.00     0.236 C 
BRANCH  21  22
HETATM   22  N1  UNL     1       8.868  43.706 -10.656  1.00  0.00    -0.079 N 
ATOM     23  H13 UNL     1       7.939  43.397 -10.366  1.00  0.00     0.274 HD
ATOM     24  H12 UNL     1       8.837  44.678 -10.348  1.00  0.00     0.274 HD
ATOM     25  H11 UNL     1       8.951  43.661 -11.672  1.00  0.00     0.274 HD
ENDBRANCH  21  22
ENDBRANCH  15  21
ENDBRANCH  14  15
ENDBRANCH  13  14
ENDBRANCH  12  13
ENDBRANCH  11  12
ENDBRANCH   1  10
BRANCH   9  26
HETATM   26  C16 UNL     1      13.787  39.705  -8.694  1.00  0.00     0.121 C 
BRANCH  26  27
HETATM   27  S1  UNL     1      12.151  39.609  -7.965  1.00  0.00    -0.155 SA
BRANCH  27  28
HETATM   28  C17 UNL     1      12.016  38.385  -6.659  1.00  0.00     0.176 C 
BRANCH  28  29
HETATM   29  C18 UNL     1      11.154  38.876  -5.540  1.00  0.00     0.227 C 
HETATM   30  O3  UNL     1      10.375  39.834  -5.807  1.00  0.00    -0.273 OA
HETATM   31  N5  UNL     1      11.210  38.292  -4.248  1.00  0.00    -0.354 N 
ATOM     32  H5  UNL     1      11.847  37.518  -4.055  1.00  0.00     0.162 HD
BRANCH  31  33
HETATM   33  C19 UNL     1      10.353  38.809  -3.217  1.00  0.00     0.111 C 
HETATM   34  C20 UNL     1       9.210  37.827  -3.048  1.00  0.00     0.054 C 
HETATM   35  C21 UNL     1       9.579  36.982  -1.855  1.00  0.00     0.234 C 
HETATM   36  N6  UNL     1      10.527  37.725  -1.092  1.00  0.00    -0.073 N 
HETATM   37  C22 UNL     1      11.004  38.815  -1.877  1.00  0.00     0.257 C 
ATOM     38  H62 UNL     1      10.150  38.029  -0.194  1.00  0.00     0.277 HD
ATOM     39  H61 UNL     1      11.284  37.141  -0.738  1.00  0.00     0.277 HD
ENDBRANCH  31  33
ENDBRANCH  28  29
ENDBRANCH  27  28
ENDBRANCH  26  27
ENDBRANCH   9  26
BRANCH   4  40
HETATM   40  N3  UNL     1      15.129  36.137 -12.599  1.00  0.00    -0.234 N 
ATOM     41  H32 UNL     1      14.411  35.535 -13.003  1.00  0.00     0.174 HD
ATOM     42  H31 UNL     1      16.093  36.080 -12.930  1.00  0.00     0.174 HD
ENDBRANCH   4  40
TORSDOF 17
ENDMDL
MODEL 4
REMARK VINA RESULT: -6.876781808      2.797      4.005
REMARK  17 active torsions:
REMARK  status: ('A' for Active; 'I' for Inactive)
REMARK    1  A    between atoms: C2_2  and  C3_3 
REMARK    2  A    between atoms: C3_3  and  C4_4 
REMARK    3  A    between atoms: C4_4  and  C5_5 
REMARK    4  A    between atoms: C5_5  and  C6_6 
REMARK    5  A    between atoms: C6_6  and  C7_7 
REMARK    6  A    between atoms: C6_6  and  C8_12 
REMARK    7  A    between atoms: C7_7  and  N1_8 
REMARK    8  A    between atoms: C8_12  and  O1_13 
REMARK    9  A    between atoms: O1_13  and  C9_14 
REMARK   10  A    between atoms: C9_14  and  C10_15 
REMARK   11  A    between atoms: C11_16  and  C12_17 
REMARK   12  A    between atoms: C13_20  and  N3_21 
REMARK   13  A    between atoms: C15_28  and  C16_29 
REMARK   14  A    between atoms: C16_29  and  S1_30 
REMARK   15  A    between atoms: S1_30  and  C17_31 
REMARK   16  A    between atoms: C17_31  and  C18_32 
REMARK       I    between atoms: C18_32  and  N5_34 
REMARK   17  A    between atoms: N5_34  and  C19_36 
ROOT
HETATM    1  C12 UNL     1      12.508  38.715  -7.303  1.00  0.00     0.115 A 
HETATM    2  N2  UNL     1      12.171  38.147  -6.139  1.00  0.00    -0.183 N 
ATOM      3  H2  UNL     1      12.478  37.191  -5.956  1.00  0.00     0.185 HD
HETATM    4  C13 UNL     1      11.447  38.779  -5.202  1.00  0.00     0.679 A 
HETATM    5  N4  UNL     1      11.027  40.035  -5.407  1.00  0.00    -0.156 N 
ATOM      6  H4  UNL     1      10.477  40.518  -4.696  1.00  0.00     0.187 HD
HETATM    7  C14 UNL     1      11.344  40.659  -6.578  1.00  0.00     0.269 A 
HETATM    8  O2  UNL     1      10.929  41.832  -6.708  1.00  0.00    -0.267 OA
HETATM    9  C15 UNL     1      12.075  40.029  -7.534  1.00  0.00     0.056 A 
ENDROOT
BRANCH   1  10
HETATM   10  C11 UNL     1      13.279  38.041  -8.307  1.00  0.00    -0.045 C 
HETATM   11  C10 UNL     1      13.918  37.458  -9.169  1.00  0.00    -0.073 C 
BRANCH  11  12
HETATM   12  C9  UNL     1      14.664  36.741 -10.210  1.00  0.00     0.261 C 
BRANCH  12  13
HETATM   13  O1  UNL     1      13.822  36.099 -11.092  1.00  0.00    -0.379 OA
BRANCH  13  14
HETATM   14  C8  UNL     1      13.291  36.967 -12.013  1.00  0.00     0.175 C 
BRANCH  14  15
HETATM   15  C6  UNL     1      14.468  37.451 -12.910  1.00  0.00     0.035 C 
BRANCH  15  16
HETATM   16  C5  UNL     1      14.163  38.850 -13.237  1.00  0.00     0.008 C 
BRANCH  16  17
HETATM   17  C4  UNL     1      14.050  39.863 -12.180  1.00  0.00     0.000 C 
BRANCH  17  18
HETATM   18  C3  UNL     1      13.822  41.282 -12.491  1.00  0.00    -0.000 C 
BRANCH  18  19
HETATM   19  C2  UNL     1      13.839  41.614 -13.972  1.00  0.00    -0.005 C 
HETATM   20  C1  UNL     1      12.665  42.529 -14.247  1.00  0.00     0.005 C 
ENDBRANCH  18  19
ENDBRANCH  17  18
ENDBRANCH  16  17
ENDBRANCH  15  16
BRANCH  15  21
HETATM   21  C7  UNL     1      14.627  36.427 -13.956  1.00  0.00     0.236 C 
BRANCH  21  22
HETATM   22  N1  UNL     1      13.568  35.459 -14.028  1.00  0.00    -0.079 N 
ATOM     23  H13 UNL     1      12.698  35.911 -14.309  1.00  0.00     0.274 HD
ATOM     24  H12 UNL     1      13.712  34.839 -14.826  1.00  0.00     0.274 HD
ATOM     25  H11 UNL     1      13.422  34.912 -13.179  1.00  0.00     0.274 HD
ENDBRANCH  21  22
ENDBRANCH  15  21
ENDBRANCH  14  15
ENDBRANCH  13  14
ENDBRANCH  12  13
ENDBRANCH  11  12
ENDBRANCH   1  10
BRANCH   9  26
HETATM   26  C16 UNL     1      12.488  40.649  -8.783  1.00  0.00     0.121 C 
BRANCH  26  27
HETATM   27  S1  UNL     1      13.842  41.822  -8.694  1.00  0.00    -0.155 SA
BRANCH  27  28
HETATM   28  C17 UNL     1      13.426  43.450  -9.326  1.00  0.00     0.176 C 
BRANCH  28  29
HETATM   29  C18 UNL     1      12.414  44.128  -8.459  1.00  0.00     0.227 C 
HETATM   30  O3  UNL     1      12.821  44.547  -7.339  1.00  0.00    -0.273 OA
HETATM   31  N5  UNL     1      11.069  44.293  -8.878  1.00  0.00    -0.354 N 
ATOM     32  H5  UNL     1      10.762  43.947  -9.788  1.00  0.00     0.162 HD
BRANCH  31  33
HETATM   33  C19 UNL     1      10.146  44.956  -7.998  1.00  0.00     0.111 C 
HETATM   34  C20 UNL     1       9.926  46.353  -8.547  1.00  0.00     0.054 C 
HETATM   35  C21 UNL     1       8.628  46.283  -9.313  1.00  0.00     0.234 C 
HETATM   36  N6  UNL     1       7.907  45.159  -8.814  1.00  0.00    -0.073 N 
HETATM   37  C22 UNL     1       8.784  44.354  -8.031  1.00  0.00     0.257 C 
ATOM     38  H62 UNL     1       7.069  45.432  -8.301  1.00  0.00     0.277 HD
ATOM     39  H61 UNL     1       7.453  44.629  -9.557  1.00  0.00     0.277 HD
ENDBRANCH  31  33
ENDBRANCH  28  29
ENDBRANCH  27  28
ENDBRANCH  26  27
ENDBRANCH   9  26
BRANCH   4  40
HETATM   40  N3  UNL     1      11.148  38.191  -4.097  1.00  0.00    -0.234 N 
ATOM     41  H32 UNL     1      11.896  37.937  -3.451  1.00  0.00     0.174 HD
ATOM     42  H31 UNL     1      10.177  37.979  -3.867  1.00  0.00     0.174 HD
ENDBRANCH   4  40
TORSDOF 17
ENDMDL
MODEL 5
REMARK VINA RESULT: -6.863044214      2.795      4.006
REMARK  17 active torsions:
REMARK  status: ('A' for Active; 'I' for Inactive)
REMARK    1  A    between atoms: C2_2  and  C3_3 
REMARK    2  A    between atoms: C3_3  and  C4_4 
REMARK    3  A    between atoms: C4_4  and  C5_5 
REMARK    4  A    between atoms: C5_5  and  C6_6 
REMARK    5  A    between atoms: C6_6  and  C7_7 
REMARK    6  A    between atoms: C6_6  and  C8_12 
REMARK    7  A    between atoms: C7_7  and  N1_8 
REMARK    8  A    between atoms: C8_12  and  O1_13 
REMARK    9  A    between atoms: O1_13  and  C9_14 
REMARK   10  A    between atoms: C9_14  and  C10_15 
REMARK   11  A    between atoms: C11_16  and  C12_17 
REMARK   12  A    between atoms: C13_20  and  N3_21 
REMARK   13  A    between atoms: C15_28  and  C16_29 
REMARK   14  A    between atoms: C16_29  and  S1_30 
REMARK   15  A    between atoms: S1_30  and  C17_31 
REMARK   16  A    between atoms: C17_31  and  C18_32 
REMARK       I    between atoms: C18_32  and  N5_34 
REMARK   17  A    between atoms: N5_34  and  C19_36 
ROOT
HETATM    1  C12 UNL     1      12.456  38.749  -7.163  1.00  0.00     0.115 A 
HETATM    2  N2  UNL     1      12.107  38.154  -6.017  1.00  0.00    -0.183 N 
ATOM      3  H2  UNL     1      12.423  37.199  -5.847  1.00  0.00     0.185 HD
HETATM    4  C13 UNL     1      11.357  38.758  -5.082  1.00  0.00     0.679 A 
HETATM    5  N4  UNL     1      10.924  40.012  -5.271  1.00  0.00    -0.156 N 
ATOM      6  H4  UNL     1      10.354  40.474  -4.561  1.00  0.00     0.187 HD
HETATM    7  C14 UNL     1      11.253  40.663  -6.423  1.00  0.00     0.269 A 
HETATM    8  O2  UNL     1      10.825  41.832  -6.538  1.00  0.00    -0.267 OA
HETATM    9  C15 UNL     1      12.010  40.062  -7.377  1.00  0.00     0.056 A 
ENDROOT
BRANCH   1  10
HETATM   10  C11 UNL     1      13.255  38.105  -8.166  1.00  0.00    -0.045 C 
HETATM   11  C10 UNL     1      13.920  37.541  -9.020  1.00  0.00    -0.073 C 
BRANCH  11  12
HETATM   12  C9  UNL     1      14.705  36.841 -10.045  1.00  0.00     0.261 C 
BRANCH  12  13
HETATM   13  O1  UNL     1      13.897  36.169 -10.937  1.00  0.00    -0.379 OA
BRANCH  13  14
HETATM   14  C8  UNL     1      13.336  37.020 -11.856  1.00  0.00     0.175 C 
BRANCH  14  15
HETATM   15  C6  UNL     1      14.494  37.541 -12.756  1.00  0.00     0.035 C 
BRANCH  15  16
HETATM   16  C5  UNL     1      14.159  38.938 -13.058  1.00  0.00     0.008 C 
BRANCH  16  17
HETATM   17  C4  UNL     1      14.022  39.929 -11.983  1.00  0.00     0.000 C 
BRANCH  17  18
HETATM   18  C3  UNL     1      15.079  40.911 -11.697  1.00  0.00    -0.000 C 
BRANCH  18  19
HETATM   19  C2  UNL     1      15.960  40.563 -10.511  1.00  0.00    -0.005 C 
HETATM   20  C1  UNL     1      17.368  41.009 -10.843  1.00  0.00     0.005 C 
ENDBRANCH  18  19
ENDBRANCH  17  18
ENDBRANCH  16  17
ENDBRANCH  15  16
BRANCH  15  21
HETATM   21  C7  UNL     1      14.664  36.536 -13.820  1.00  0.00     0.236 C 
BRANCH  21  22
HETATM   22  N1  UNL     1      13.801  35.392 -13.720  1.00  0.00    -0.079 N 
ATOM     23  H13 UNL     1      14.356  34.538 -13.659  1.00  0.00     0.274 HD
ATOM     24  H12 UNL     1      13.345  35.374 -12.808  1.00  0.00     0.274 HD
ATOM     25  H11 UNL     1      13.107  35.308 -14.463  1.00  0.00     0.274 HD
ENDBRANCH  21  22
ENDBRANCH  15  21
ENDBRANCH  14  15
ENDBRANCH  13  14
ENDBRANCH  12  13
ENDBRANCH  11  12
ENDBRANCH   1  10
BRANCH   9  26
HETATM   26  C16 UNL     1      12.437  40.711  -8.606  1.00  0.00     0.121 C 
BRANCH  26  27
HETATM   27  S1  UNL     1      13.534  42.120  -8.437  1.00  0.00    -0.155 SA
BRANCH  27  28
HETATM   28  C17 UNL     1      13.035  43.541  -9.414  1.00  0.00     0.176 C 
BRANCH  28  29
HETATM   29  C18 UNL     1      11.560  43.545  -9.656  1.00  0.00     0.227 C 
HETATM   30  O3  UNL     1      11.167  43.056 -10.753  1.00  0.00    -0.273 OA
HETATM   31  N5  UNL     1      10.652  44.071  -8.701  1.00  0.00    -0.354 N 
ATOM     32  H5  UNL     1      10.991  44.461  -7.822  1.00  0.00     0.162 HD
BRANCH  31  33
HETATM   33  C19 UNL     1       9.246  44.043  -8.995  1.00  0.00     0.111 C 
HETATM   34  C20 UNL     1       8.510  44.334  -7.701  1.00  0.00     0.054 C 
HETATM   35  C21 UNL     1       8.154  45.798  -7.762  1.00  0.00     0.234 C 
HETATM   36  N6  UNL     1       8.179  46.179  -9.136  1.00  0.00    -0.073 N 
HETATM   37  C22 UNL     1       8.822  45.155  -9.891  1.00  0.00     0.257 C 
ATOM     38  H62 UNL     1       7.249  46.399  -9.494  1.00  0.00     0.277 HD
ATOM     39  H61 UNL     1       8.607  47.093  -9.279  1.00  0.00     0.277 HD
ENDBRANCH  31  33
ENDBRANCH  28  29
ENDBRANCH  27  28
ENDBRANCH  26  27
ENDBRANCH   9  26
BRANCH   4  40
HETATM   40  N3  UNL     1      11.046  38.145  -3.994  1.00  0.00    -0.234 N 
ATOM     41  H32 UNL     1      10.751  37.170  -4.040  1.00  0.00     0.174 HD
ATOM     42  H31 UNL     1      11.092  38.626  -3.095  1.00  0.00     0.174 HD
ENDBRANCH   4  40
TORSDOF 17
ENDMDL
