MODEL 1
REMARK VINA RESULT: -7.500573520      0.000      0.000
REMARK  15 active torsions:
REMARK  status: ('A' for Active; 'I' for Inactive)
REMARK       I    between atoms: C1_4  and  N3_6 
REMARK    1  A    between atoms: N3_6  and  C2_8 
REMARK    2  A    between atoms: C6_15  and  C7_16 
REMARK    3  A    between atoms: C7_16  and  C8_17 
REMARK    4  A    between atoms: C8_17  and  C9_18 
REMARK    5  A    between atoms: C9_18  and  C10_19 
REMARK    6  A    between atoms: C10_19  and  C11_20 
REMARK    7  A    between atoms: C11_20  and  C12_21 
REMARK       I    between atoms: C12_21  and  N5_23 
REMARK    8  A    between atoms: N5_23  and  C13_25 
REMARK    9  A    between atoms: C13_25  and  C14_26 
REMARK   10  A    between atoms: C14_26  and  N6_27 
REMARK   11  A    between atoms: C16_32  and  O2_33 
REMARK   12  A    between atoms: O2_33  and  C17_34 
REMARK   13  A    between atoms: C17_34  and  C18_35 
REMARK   14  A    between atoms: C18_35  and  C19_36 
REMARK   15  A    between atoms: C19_36  and  S1_37 
ROOT
HETATM    1  C2  UNL     1      12.493  41.277  -7.206  1.00  0.00    -0.002 C 
HETATM    2  C3  UNL     1      13.791  42.036  -7.206  1.00  0.00     0.055 C 
HETATM    3  C4  UNL     1      14.005  42.914  -8.376  1.00  0.00     0.041 C 
HETATM    4  C5  UNL     1      12.954  42.978  -9.401  1.00  0.00     0.216 C 
HETATM    5  N4  UNL     1      13.164  41.873 -10.358  1.00  0.00    -0.063 N 
ATOM      6  H41 UNL     1      14.129  41.776 -10.672  1.00  0.00     0.278 HD
ATOM      7  H42 UNL     1      12.758  42.042 -11.278  1.00  0.00     0.278 HD
HETATM    8  C6  UNL     1      12.649  40.710  -9.700  1.00  0.00     0.198 C 
HETATM    9  C15 UNL     1      11.847  41.155  -8.531  1.00  0.00     0.093 C 
HETATM   10  C16 UNL     1      11.566  42.626  -8.914  1.00  0.00     0.163 C 
ENDROOT
BRANCH   8  11
HETATM   11  C7  UNL     1      13.587  39.618  -9.519  1.00  0.00     0.034 C 
BRANCH  11  12
HETATM   12  C8  UNL     1      12.980  38.255  -9.488  1.00  0.00     0.002 C 
BRANCH  12  13
HETATM   13  C9  UNL     1      13.630  37.165 -10.269  1.00  0.00     0.001 C 
BRANCH  13  14
HETATM   14  C10 UNL     1      13.327  37.354 -11.761  1.00  0.00     0.009 C 
BRANCH  14  15
HETATM   15  C11 UNL     1      13.490  36.099 -12.562  1.00  0.00     0.103 C 
BRANCH  15  16
HETATM   16  C12 UNL     1      13.721  36.432 -14.013  1.00  0.00     0.217 C 
HETATM   17  O1  UNL     1      14.228  37.522 -14.335  1.00  0.00    -0.274 OA
HETATM   18  N5  UNL     1      13.364  35.507 -15.021  1.00  0.00    -0.359 N 
ATOM     19  H5  UNL     1      12.950  34.618 -14.741  1.00  0.00     0.162 HD
BRANCH  18  20
HETATM   20  C13 UNL     1      13.558  35.767 -16.424  1.00  0.00     0.150 C 
BRANCH  20  21
HETATM   21  C14 UNL     1      14.419  34.701 -17.061  1.00  0.00     0.249 C 
BRANCH  21  22
HETATM   22  N6  UNL     1      13.772  33.401 -16.985  1.00  0.00    -0.078 N 
ATOM     23  H63 UNL     1      14.156  32.831 -16.231  1.00  0.00     0.274 HD
ATOM     24  H62 UNL     1      12.812  33.475 -16.648  1.00  0.00     0.274 HD
ATOM     25  H61 UNL     1      13.820  32.919 -17.882  1.00  0.00     0.274 HD
ENDBRANCH  21  22
ENDBRANCH  20  21
ENDBRANCH  18  20
ENDBRANCH  15  16
ENDBRANCH  14  15
ENDBRANCH  13  14
ENDBRANCH  12  13
ENDBRANCH  11  12
ENDBRANCH   8  11
BRANCH   1  26
HETATM   26  N3  UNL     1      12.513  40.090  -6.395  1.00  0.00    -0.338 N 
HETATM   27  C1  UNL     1      11.361  39.447  -5.894  1.00  0.00     0.185 C 
HETATM   28  N1  UNL     1      10.960  39.518  -4.686  1.00  0.00    -0.374 N 
HETATM   29  N2  UNL     1      10.606  38.667  -6.811  1.00  0.00    -0.064 NA
ATOM     30  H12 UNL     1      10.127  39.053  -4.324  1.00  0.00     0.158 HD
ATOM     31  H11 UNL     1      11.502  40.078  -4.029  1.00  0.00     0.158 HD
ATOM     32  H3  UNL     1      13.421  39.685  -6.167  1.00  0.00     0.168 HD
ENDBRANCH   1  26
BRANCH  10  33
HETATM   33  O2  UNL     1      10.599  42.749  -9.840  1.00  0.00    -0.383 OA
BRANCH  33  34
HETATM   34  C17 UNL     1       9.665  43.711  -9.459  1.00  0.00     0.169 C 
BRANCH  34  35
HETATM   35  C18 UNL     1       9.797  44.149  -8.049  1.00  0.00     0.044 C 
BRANCH  35  36
HETATM   36  C19 UNL     1       8.508  44.195  -7.282  1.00  0.00     0.167 C 
BRANCH  36  37
HETATM   37  S1  UNL     1       8.489  43.409  -5.727  1.00  0.00     0.101 S 
HETATM   38  O3  UNL     1       7.152  42.776  -5.417  1.00  0.00    -0.595 OA
HETATM   39  O4  UNL     1       9.463  42.233  -5.756  1.00  0.00    -0.595 OA
HETATM   40  O5  UNL     1       8.996  44.382  -4.466  1.00  0.00    -0.595 OA
ENDBRANCH  36  37
ENDBRANCH  35  36
ENDBRANCH  34  35
ENDBRANCH  33  34
ENDBRANCH  10  33
TORSDOF 15
ENDMDL
MODEL 2
REMARK VINA RESULT: -7.452390156      0.898      1.298
REMARK  15 active torsions:
REMARK  status: ('A' for Active; 'I' for Inactive)
REMARK       I    between atoms: C1_4  and  N3_6 
REMARK    1  A    between atoms: N3_6  and  C2_8 
REMARK    2  A    between atoms: C6_15  and  C7_16 
REMARK    3  A    between atoms: C7_16  and  C8_17 
REMARK    4  A    between atoms: C8_17  and  C9_18 
REMARK    5  A    between atoms: C9_18  and  C10_19 
REMARK    6  A    between atoms: C10_19  and  C11_20 
REMARK    7  A    between atoms: C11_20  and  C12_21 
REMARK       I    between atoms: C12_21  and  N5_23 
REMARK    8  A    between atoms: N5_23  and  C13_25 
REMARK    9  A    between atoms: C13_25  and  C14_26 
REMARK   10  A    between atoms: C14_26  and  N6_27 
REMARK   11  A    between atoms: C16_32  and  O2_33 
REMARK   12  A    between atoms: O2_33  and  C17_34 
REMARK   13  A    between atoms: C17_34  and  C18_35 
REMARK   14  A    between atoms: C18_35  and  C19_36 
REMARK   15  A    between atoms: C19_36  and  S1_37 
ROOT
HETATM    1  C2  UNL     1      12.523  41.266  -7.176  1.00  0.00    -0.002 C 
HETATM    2  C3  UNL     1      13.748  42.120  -6.998  1.00  0.00     0.055 C 
HETATM    3  C4  UNL     1      13.962  43.137  -8.050  1.00  0.00     0.041 C 
HETATM    4  C5  UNL     1      12.981  43.231  -9.139  1.00  0.00     0.216 C 
HETATM    5  N4  UNL     1      13.349  42.259 -10.188  1.00  0.00    -0.063 N 
ATOM      6  H41 UNL     1      14.339  42.274 -10.436  1.00  0.00     0.278 HD
ATOM      7  H42 UNL     1      12.993  42.496 -11.114  1.00  0.00     0.278 HD
HETATM    8  C6  UNL     1      12.895  40.993  -9.698  1.00  0.00     0.198 C 
HETATM    9  C15 UNL     1      11.980  41.240  -8.552  1.00  0.00     0.093 C 
HETATM   10  C16 UNL     1      11.599  42.718  -8.799  1.00  0.00     0.163 C 
ENDROOT
BRANCH   8  11
HETATM   11  C7  UNL     1      13.911  39.965  -9.562  1.00  0.00     0.034 C 
BRANCH  11  12
HETATM   12  C8  UNL     1      14.404  39.384 -10.844  1.00  0.00     0.002 C 
BRANCH  12  13
HETATM   13  C9  UNL     1      13.705  38.193 -11.405  1.00  0.00     0.001 C 
BRANCH  13  14
HETATM   14  C10 UNL     1      14.119  36.940 -10.623  1.00  0.00     0.009 C 
BRANCH  14  15
HETATM   15  C11 UNL     1      14.710  35.870 -11.489  1.00  0.00     0.103 C 
BRANCH  15  16
HETATM   16  C12 UNL     1      13.801  35.579 -12.654  1.00  0.00     0.217 C 
HETATM   17  O1  UNL     1      12.665  35.105 -12.462  1.00  0.00    -0.274 OA
HETATM   18  N5  UNL     1      14.229  35.841 -13.975  1.00  0.00    -0.359 N 
ATOM     19  H5  UNL     1      15.161  36.230 -14.116  1.00  0.00     0.162 HD
BRANCH  18  20
HETATM   20  C13 UNL     1      13.407  35.584 -15.129  1.00  0.00     0.150 C 
BRANCH  20  21
HETATM   21  C14 UNL     1      14.253  35.280 -16.343  1.00  0.00     0.249 C 
BRANCH  21  22
HETATM   22  N6  UNL     1      13.853  34.020 -16.950  1.00  0.00    -0.078 N 
ATOM     23  H63 UNL     1      14.596  33.323 -16.900  1.00  0.00     0.274 HD
ATOM     24  H62 UNL     1      13.151  33.537 -16.389  1.00  0.00     0.274 HD
ATOM     25  H61 UNL     1      13.536  34.164 -17.908  1.00  0.00     0.274 HD
ENDBRANCH  21  22
ENDBRANCH  20  21
ENDBRANCH  18  20
ENDBRANCH  15  16
ENDBRANCH  14  15
ENDBRANCH  13  14
ENDBRANCH  12  13
ENDBRANCH  11  12
ENDBRANCH   8  11
BRANCH   1  26
HETATM   26  N3  UNL     1      12.593  40.001  -6.496  1.00  0.00    -0.338 N 
HETATM   27  C1  UNL     1      11.469  39.273  -6.049  1.00  0.00     0.185 C 
HETATM   28  N1  UNL     1      11.087  39.205  -4.835  1.00  0.00    -0.374 N 
HETATM   29  N2  UNL     1      10.720  38.571  -7.032  1.00  0.00    -0.064 NA
ATOM     30  H12 UNL     1      10.274  38.679  -4.512  1.00  0.00     0.158 HD
ATOM     31  H11 UNL     1      11.624  39.710  -4.130  1.00  0.00     0.158 HD
ATOM     32  H3  UNL     1      13.516  39.602  -6.325  1.00  0.00     0.168 HD
ENDBRANCH   1  26
BRANCH  10  33
HETATM   33  O2  UNL     1      10.689  42.866  -9.778  1.00  0.00    -0.383 OA
BRANCH  33  34
HETATM   34  C17 UNL     1       9.671  43.732  -9.383  1.00  0.00     0.169 C 
BRANCH  34  35
HETATM   35  C18 UNL     1       9.784  44.190  -7.978  1.00  0.00     0.044 C 
BRANCH  35  36
HETATM   36  C19 UNL     1       8.500  44.161  -7.202  1.00  0.00     0.167 C 
BRANCH  36  37
HETATM   37  S1  UNL     1       8.524  43.327  -5.672  1.00  0.00     0.101 S 
HETATM   38  O3  UNL     1       8.841  44.249  -4.518  1.00  0.00    -0.595 OA
HETATM   39  O4  UNL     1       7.117  42.815  -5.368  1.00  0.00    -0.595 OA
HETATM   40  O5  UNL     1       9.509  41.977  -5.649  1.00  0.00    -0.595 OA
ENDBRANCH  36  37
ENDBRANCH  35  36
ENDBRANCH  34  35
ENDBRANCH  33  34
ENDBRANCH  10  33
TORSDOF 15
ENDMDL
MODEL 3
REMARK VINA RESULT: -7.189071091      4.306      5.866
REMARK  15 active torsions:
REMARK  status: ('A' for Active; 'I' for Inactive)
REMARK       I    between atoms: C1_4  and  N3_6 
REMARK    1  A    between atoms: N3_6  and  C2_8 
REMARK    2  A    between atoms: C6_15  and  C7_16 
REMARK    3  A    between atoms: C7_16  and  C8_17 
REMARK    4  A    between atoms: C8_17  and  C9_18 
REMARK    5  A    between atoms: C9_18  and  C10_19 
REMARK    6  A    between atoms: C10_19  and  C11_20 
REMARK    7  A    between atoms: C11_20  and  C12_21 
REMARK       I    between atoms: C12_21  and  N5_23 
REMARK    8  A    between atoms: N5_23  and  C13_25 
REMARK    9  A    between atoms: C13_25  and  C14_26 
REMARK   10  A    between atoms: C14_26  and  N6_27 
REMARK   11  A    between atoms: C16_32  and  O2_33 
REMARK   12  A    between atoms: O2_33  and  C17_34 
REMARK   13  A    between atoms: C17_34  and  C18_35 
REMARK   14  A    between atoms: C18_35  and  C19_36 
REMARK   15  A    between atoms: C19_36  and  S1_37 
ROOT
HETATM    1  C2  UNL     1      12.888  41.309  -9.245  1.00  0.00    -0.002 C 
HETATM    2  C3  UNL     1      13.953  41.961  -8.408  1.00  0.00     0.055 C 
HETATM    3  C4  UNL     1      15.258  42.137  -9.080  1.00  0.00     0.041 C 
HETATM    4  C5  UNL     1      15.393  41.685 -10.471  1.00  0.00     0.216 C 
HETATM    5  N4  UNL     1      15.738  40.250 -10.467  1.00  0.00    -0.063 N 
ATOM      6  H41 UNL     1      16.481  40.005  -9.814  1.00  0.00     0.278 HD
ATOM      7  H42 UNL     1      16.217  39.938 -11.312  1.00  0.00     0.278 HD
HETATM    8  C6  UNL     1      14.501  39.572 -10.219  1.00  0.00     0.198 C 
HETATM    9  C15 UNL     1      13.393  40.544 -10.406  1.00  0.00     0.093 C 
HETATM   10  C16 UNL     1      14.099  41.629 -11.252  1.00  0.00     0.163 C 
ENDROOT
BRANCH   8  11
HETATM   11  C7  UNL     1      14.475  38.712  -9.050  1.00  0.00     0.034 C 
BRANCH  11  12
HETATM   12  C8  UNL     1      13.997  37.320  -9.294  1.00  0.00     0.002 C 
BRANCH  12  13
HETATM   13  C9  UNL     1      14.468  36.606 -10.514  1.00  0.00     0.001 C 
BRANCH  13  14
HETATM   14  C10 UNL     1      13.369  36.641 -11.584  1.00  0.00     0.009 C 
BRANCH  14  15
HETATM   15  C11 UNL     1      13.303  35.391 -12.407  1.00  0.00     0.103 C 
BRANCH  15  16
HETATM   16  C12 UNL     1      13.653  35.691 -13.841  1.00  0.00     0.217 C 
HETATM   17  O1  UNL     1      12.788  35.600 -14.732  1.00  0.00    -0.274 OA
HETATM   18  N5  UNL     1      14.967  36.079 -14.186  1.00  0.00    -0.359 N 
ATOM     19  H5  UNL     1      15.664  36.150 -13.445  1.00  0.00     0.162 HD
BRANCH  18  20
HETATM   20  C13 UNL     1      15.364  36.378 -15.538  1.00  0.00     0.150 C 
BRANCH  20  21
HETATM   21  C14 UNL     1      16.719  35.787 -15.850  1.00  0.00     0.249 C 
BRANCH  21  22
HETATM   22  N6  UNL     1      17.587  35.837 -14.684  1.00  0.00    -0.078 N 
ATOM     23  H63 UNL     1      18.437  36.369 -14.868  1.00  0.00     0.274 HD
ATOM     24  H62 UNL     1      17.194  36.423 -13.947  1.00  0.00     0.274 HD
ATOM     25  H61 UNL     1      17.796  34.897 -14.348  1.00  0.00     0.274 HD
ENDBRANCH  21  22
ENDBRANCH  20  21
ENDBRANCH  18  20
ENDBRANCH  15  16
ENDBRANCH  14  15
ENDBRANCH  13  14
ENDBRANCH  12  13
ENDBRANCH  11  12
ENDBRANCH   8  11
BRANCH   1  26
HETATM   26  N3  UNL     1      11.845  40.684  -8.477  1.00  0.00    -0.338 N 
HETATM   27  C1  UNL     1      11.512  41.037  -7.151  1.00  0.00     0.185 C 
HETATM   28  N1  UNL     1      11.829  40.357  -6.120  1.00  0.00    -0.374 N 
HETATM   29  N2  UNL     1      10.769  42.234  -6.968  1.00  0.00    -0.064 NA
ATOM     30  H12 UNL     1      11.588  40.612  -5.162  1.00  0.00     0.158 HD
ATOM     31  H11 UNL     1      12.363  39.498  -6.252  1.00  0.00     0.158 HD
ATOM     32  H3  UNL     1      11.311  39.936  -8.919  1.00  0.00     0.168 HD
ENDBRANCH   1  26
BRANCH  10  33
HETATM   33  O2  UNL     1      14.238  41.277 -12.542  1.00  0.00    -0.383 OA
BRANCH  33  34
HETATM   34  C17 UNL     1      14.937  42.252 -13.251  1.00  0.00     0.169 C 
BRANCH  34  35
HETATM   35  C18 UNL     1      15.928  41.703 -14.206  1.00  0.00     0.044 C 
BRANCH  35  36
HETATM   36  C19 UNL     1      15.933  40.207 -14.318  1.00  0.00     0.167 C 
BRANCH  36  37
HETATM   37  S1  UNL     1      17.245  39.363 -13.543  1.00  0.00     0.101 S 
HETATM   38  O3  UNL     1      17.932  40.205 -12.493  1.00  0.00    -0.595 OA
HETATM   39  O4  UNL     1      16.678  38.179 -12.763  1.00  0.00    -0.595 OA
HETATM   40  O5  UNL     1      18.357  38.710 -14.607  1.00  0.00    -0.595 OA
ENDBRANCH  36  37
ENDBRANCH  35  36
ENDBRANCH  34  35
ENDBRANCH  33  34
ENDBRANCH  10  33
TORSDOF 15
ENDMDL
MODEL 4
REMARK VINA RESULT: -7.154912681      1.279      1.565
REMARK  15 active torsions:
REMARK  status: ('A' for Active; 'I' for Inactive)
REMARK       I    between atoms: C1_4  and  N3_6 
REMARK    1  A    between atoms: N3_6  and  C2_8 
REMARK    2  A    between atoms: C6_15  and  C7_16 
REMARK    3  A    between atoms: C7_16  and  C8_17 
REMARK    4  A    between atoms: C8_17  and  C9_18 
REMARK    5  A    between atoms: C9_18  and  C10_19 
REMARK    6  A    between atoms: C10_19  and  C11_20 
REMARK    7  A    between atoms: C11_20  and  C12_21 
REMARK       I    between atoms: C12_21  and  N5_23 
REMARK    8  A    between atoms: N5_23  and  C13_25 
REMARK    9  A    between atoms: C13_25  and  C14_26 
REMARK   10  A    between atoms: C14_26  and  N6_27 
REMARK   11  A    between atoms: C16_32  and  O2_33 
REMARK   12  A    between atoms: O2_33  and  C17_34 
REMARK   13  A    between atoms: C17_34  and  C18_35 
REMARK   14  A    between atoms: C18_35  and  C19_36 
REMARK   15  A    between atoms: C19_36  and  S1_37 
ROOT
HETATM    1  C2  UNL     1      11.792  40.509  -7.703  1.00  0.00    -0.002 C 
HETATM    2  C3  UNL     1      12.818  41.066  -6.756  1.00  0.00     0.055 C 
HETATM    3  C4  UNL     1      13.752  42.048  -7.348  1.00  0.00     0.041 C 
HETATM    4  C5  UNL     1      13.593  42.393  -8.767  1.00  0.00     0.216 C 
HETATM    5  N4  UNL     1      14.328  41.402  -9.577  1.00  0.00    -0.063 N 
ATOM      6  H41 UNL     1      15.270  41.207  -9.238  1.00  0.00     0.278 HD
ATOM      7  H42 UNL     1      14.603  41.743 -10.498  1.00  0.00     0.278 HD
HETATM    8  C6  UNL     1      13.477  40.250  -9.616  1.00  0.00     0.198 C 
HETATM    9  C15 UNL     1      12.129  40.652  -9.136  1.00  0.00     0.093 C 
HETATM   10  C16 UNL     1      12.201  42.186  -9.322  1.00  0.00     0.163 C 
ENDROOT
BRANCH   8  11
HETATM   11  C7  UNL     1      14.054  39.020  -9.106  1.00  0.00     0.034 C 
BRANCH  11  12
HETATM   12  C8  UNL     1      13.387  37.766  -9.563  1.00  0.00     0.002 C 
BRANCH  12  13
HETATM   13  C9  UNL     1      14.059  36.937 -10.602  1.00  0.00     0.001 C 
BRANCH  13  14
HETATM   14  C10 UNL     1      13.282  37.040 -11.921  1.00  0.00     0.009 C 
BRANCH  14  15
HETATM   15  C11 UNL     1      13.410  35.820 -12.782  1.00  0.00     0.103 C 
BRANCH  15  16
HETATM   16  C12 UNL     1      13.655  36.215 -14.214  1.00  0.00     0.217 C 
HETATM   17  O1  UNL     1      14.204  37.300 -14.483  1.00  0.00    -0.274 OA
HETATM   18  N5  UNL     1      13.263  35.356 -15.266  1.00  0.00    -0.359 N 
ATOM     19  H5  UNL     1      12.815  34.471 -15.030  1.00  0.00     0.162 HD
BRANCH  18  20
HETATM   20  C13 UNL     1      13.468  35.677 -16.655  1.00  0.00     0.150 C 
BRANCH  20  21
HETATM   21  C14 UNL     1      14.240  34.585 -17.358  1.00  0.00     0.249 C 
BRANCH  21  22
HETATM   22  N6  UNL     1      13.737  33.273 -16.982  1.00  0.00    -0.078 N 
ATOM     23  H63 UNL     1      13.311  33.283 -16.055  1.00  0.00     0.274 HD
ATOM     24  H62 UNL     1      12.915  33.013 -17.527  1.00  0.00     0.274 HD
ATOM     25  H61 UNL     1      14.472  32.570 -17.050  1.00  0.00     0.274 HD
ENDBRANCH  21  22
ENDBRANCH  20  21
ENDBRANCH  18  20
ENDBRANCH  15  16
ENDBRANCH  14  15
ENDBRANCH  13  14
ENDBRANCH  12  13
ENDBRANCH  11  12
ENDBRANCH   8  11
BRANCH   1  26
HETATM   26  N3  UNL     1      11.257  39.237  -7.299  1.00  0.00    -0.338 N 
HETATM   27  C1  UNL     1      11.118  38.821  -5.957  1.00  0.00     0.185 C 
HETATM   28  N1  UNL     1      11.887  37.986  -5.376  1.00  0.00    -0.374 N 
HETATM   29  N2  UNL     1      10.042  39.377  -5.215  1.00  0.00    -0.064 NA
ATOM     30  H12 UNL     1      11.786  37.685  -4.406  1.00  0.00     0.158 HD
ATOM     31  H11 UNL     1      12.659  37.587  -5.909  1.00  0.00     0.158 HD
ATOM     32  H3  UNL     1      10.958  38.593  -8.031  1.00  0.00     0.168 HD
ENDBRANCH   1  26
BRANCH  10  33
HETATM   33  O2  UNL     1      12.046  42.564 -10.602  1.00  0.00    -0.383 OA
BRANCH  33  34
HETATM   34  C17 UNL     1      11.138  43.617 -10.702  1.00  0.00     0.169 C 
BRANCH  34  35
HETATM   35  C18 UNL     1       9.922  43.442  -9.874  1.00  0.00     0.044 C 
BRANCH  35  36
HETATM   36  C19 UNL     1       9.530  44.645  -9.068  1.00  0.00     0.167 C 
BRANCH  36  37
HETATM   37  S1  UNL     1      10.041  44.678  -7.403  1.00  0.00     0.101 S 
HETATM   38  O3  UNL     1       9.169  45.570  -6.549  1.00  0.00    -0.595 OA
HETATM   39  O4  UNL     1       9.856  43.287  -6.802  1.00  0.00    -0.595 OA
HETATM   40  O5  UNL     1      11.658  45.047  -7.194  1.00  0.00    -0.595 OA
ENDBRANCH  36  37
ENDBRANCH  35  36
ENDBRANCH  34  35
ENDBRANCH  33  34
ENDBRANCH  10  33
TORSDOF 15
ENDMDL
MODEL 5
REMARK VINA RESULT: -7.113134831      1.968      2.591
REMARK  15 active torsions:
REMARK  status: ('A' for Active; 'I' for Inactive)
REMARK       I    between atoms: C1_4  and  N3_6 
REMARK    1  A    between atoms: N3_6  and  C2_8 
REMARK    2  A    between atoms: C6_15  and  C7_16 
REMARK    3  A    between atoms: C7_16  and  C8_17 
REMARK    4  A    between atoms: C8_17  and  C9_18 
REMARK    5  A    between atoms: C9_18  and  C10_19 
REMARK    6  A    between atoms: C10_19  and  C11_20 
REMARK    7  A    between atoms: C11_20  and  C12_21 
REMARK       I    between atoms: C12_21  and  N5_23 
REMARK    8  A    between atoms: N5_23  and  C13_25 
REMARK    9  A    between atoms: C13_25  and  C14_26 
REMARK   10  A    between atoms: C14_26  and  N6_27 
REMARK   11  A    between atoms: C16_32  and  O2_33 
REMARK   12  A    between atoms: O2_33  and  C17_34 
REMARK   13  A    between atoms: C17_34  and  C18_35 
REMARK   14  A    between atoms: C18_35  and  C19_36 
REMARK   15  A    between atoms: C19_36  and  S1_37 
ROOT
HETATM    1  C2  UNL     1      12.500  41.252  -7.186  1.00  0.00    -0.002 C 
HETATM    2  C3  UNL     1      13.732  42.105  -7.060  1.00  0.00     0.055 C 
HETATM    3  C4  UNL     1      13.916  43.103  -8.135  1.00  0.00     0.041 C 
HETATM    4  C5  UNL     1      12.902  43.182  -9.195  1.00  0.00     0.216 C 
HETATM    5  N4  UNL     1      13.235  42.192 -10.238  1.00  0.00    -0.063 N 
ATOM      6  H41 UNL     1      14.216  42.199 -10.517  1.00  0.00     0.278 HD
ATOM      7  H42 UNL     1      12.850  42.414 -11.156  1.00  0.00     0.278 HD
HETATM    8  C6  UNL     1      12.792  40.935  -9.713  1.00  0.00     0.198 C 
HETATM    9  C15 UNL     1      11.914  41.205  -8.544  1.00  0.00     0.093 C 
HETATM   10  C16 UNL     1      11.530  42.680  -8.804  1.00  0.00     0.163 C 
ENDROOT
BRANCH   8  11
HETATM   11  C7  UNL     1      13.808  39.907  -9.591  1.00  0.00     0.034 C 
BRANCH  11  12
HETATM   12  C8  UNL     1      13.372  38.532  -9.972  1.00  0.00     0.002 C 
BRANCH  12  13
HETATM   13  C9  UNL     1      13.473  38.120 -11.400  1.00  0.00     0.001 C 
BRANCH  13  14
HETATM   14  C10 UNL     1      13.323  36.597 -11.506  1.00  0.00     0.009 C 
BRANCH  14  15
HETATM   15  C11 UNL     1      14.633  35.877 -11.607  1.00  0.00     0.103 C 
BRANCH  15  16
HETATM   16  C12 UNL     1      15.490  36.501 -12.677  1.00  0.00     0.217 C 
HETATM   17  O1  UNL     1      15.147  36.443 -13.872  1.00  0.00    -0.274 OA
HETATM   18  N5  UNL     1      16.692  37.159 -12.331  1.00  0.00    -0.359 N 
ATOM     19  H5  UNL     1      16.960  37.201 -11.348  1.00  0.00     0.162 HD
BRANCH  18  20
HETATM   20  C13 UNL     1      17.555  37.775 -13.307  1.00  0.00     0.150 C 
BRANCH  20  21
HETATM   21  C14 UNL     1      17.717  39.252 -13.035  1.00  0.00     0.249 C 
BRANCH  21  22
HETATM   22  N6  UNL     1      17.067  39.623 -11.789  1.00  0.00    -0.078 N 
ATOM     23  H63 UNL     1      16.062  39.451 -11.821  1.00  0.00     0.274 HD
ATOM     24  H62 UNL     1      17.309  38.983 -11.032  1.00  0.00     0.274 HD
ATOM     25  H61 UNL     1      17.275  40.591 -11.545  1.00  0.00     0.274 HD
ENDBRANCH  21  22
ENDBRANCH  20  21
ENDBRANCH  18  20
ENDBRANCH  15  16
ENDBRANCH  14  15
ENDBRANCH  13  14
ENDBRANCH  12  13
ENDBRANCH  11  12
ENDBRANCH   8  11
BRANCH   1  26
HETATM   26  N3  UNL     1      12.587  39.998  -6.487  1.00  0.00    -0.338 N 
HETATM   27  C1  UNL     1      11.472  39.243  -6.063  1.00  0.00     0.185 C 
HETATM   28  N1  UNL     1      11.057  39.179  -4.860  1.00  0.00    -0.374 N 
HETATM   29  N2  UNL     1      10.774  38.506  -7.058  1.00  0.00    -0.064 NA
ATOM     30  H12 UNL     1      10.251  38.633  -4.553  1.00  0.00     0.158 HD
ATOM     31  H11 UNL     1      11.558  39.708  -4.146  1.00  0.00     0.158 HD
ATOM     32  H3  UNL     1      13.516  39.630  -6.283  1.00  0.00     0.168 HD
ENDBRANCH   1  26
BRANCH  10  33
HETATM   33  O2  UNL     1      10.591  42.815  -9.756  1.00  0.00    -0.383 OA
BRANCH  33  34
HETATM   34  C17 UNL     1       9.602  43.712  -9.356  1.00  0.00     0.169 C 
BRANCH  34  35
HETATM   35  C18 UNL     1       9.730  44.156  -7.948  1.00  0.00     0.044 C 
BRANCH  35  36
HETATM   36  C19 UNL     1       8.455  44.115  -7.157  1.00  0.00     0.167 C 
BRANCH  36  37
HETATM   37  S1  UNL     1       8.503  43.281  -5.628  1.00  0.00     0.101 S 
HETATM   38  O3  UNL     1       8.804  44.209  -4.474  1.00  0.00    -0.595 OA
HETATM   39  O4  UNL     1       7.110  42.736  -5.319  1.00  0.00    -0.595 OA
HETATM   40  O5  UNL     1       9.520  41.954  -5.609  1.00  0.00    -0.595 OA
ENDBRANCH  36  37
ENDBRANCH  35  36
ENDBRANCH  34  35
ENDBRANCH  33  34
ENDBRANCH  10  33
TORSDOF 15
ENDMDL
