MODEL 1
REMARK VINA RESULT: -7.751667841      0.000      0.000
REMARK  16 active torsions:
REMARK  status: ('A' for Active; 'I' for Inactive)
REMARK    1  A    between atoms: C1_2  and  C2_4 
REMARK    2  A    between atoms: C2_4  and  C3_5 
REMARK    3  A    between atoms: C3_5  and  C4_6 
REMARK    4  A    between atoms: C4_6  and  C5_7 
REMARK    5  A    between atoms: C5_7  and  C6_8 
REMARK    6  A    between atoms: C6_8  and  C7_9 
REMARK    7  A    between atoms: C7_9  and  C8_10 
REMARK    8  A    between atoms: C8_10  and  C9_11 
REMARK    9  A    between atoms: C9_11  and  C10_12 
REMARK   10  A    between atoms: C10_12  and  C11_13 
REMARK   11  A    between atoms: C11_13  and  C12_14 
REMARK   12  A    between atoms: C13_15  and  O3_16 
REMARK   13  A    between atoms: C16_23  and  O4_24 
REMARK   14  A    between atoms: C17_26  and  O5_27 
REMARK   15  A    between atoms: C18_29  and  N2_30 
REMARK       I    between atoms: N2_30  and  C19_32 
REMARK   16  A    between atoms: C19_32  and  C20_34 
ROOT
HETATM    1  C12 UNL     1      13.139  39.749  -9.325  1.00  0.00     0.050 C 
HETATM    2  C13 UNL     1      12.293  38.577  -9.062  1.00  0.00     0.157 C 
HETATM    3  C14 UNL     1      12.392  38.373  -7.542  1.00  0.00     0.240 C 
HETATM    4  N1  UNL     1      13.629  38.972  -7.150  1.00  0.00    -0.059 N 
ATOM      5  H11 UNL     1      14.443  38.363  -7.237  1.00  0.00     0.278 HD
ATOM      6  H12 UNL     1      13.725  39.132  -6.147  1.00  0.00     0.278 HD
HETATM    7  C15 UNL     1      13.684  40.160  -7.953  1.00  0.00     0.224 C 
HETATM    8  C16 UNL     1      12.722  41.160  -7.324  1.00  0.00     0.180 C 
HETATM    9  C17 UNL     1      11.329  40.624  -7.251  1.00  0.00     0.173 C 
HETATM   10  C18 UNL     1      11.283  39.146  -6.858  1.00  0.00     0.149 C 
ENDROOT
BRANCH   1  11
HETATM   11  C11 UNL     1      14.169  39.695 -10.363  1.00  0.00     0.009 C 
BRANCH  11  12
HETATM   12  C10 UNL     1      15.465  40.355 -10.164  1.00  0.00     0.001 C 
BRANCH  12  13
HETATM   13  C9  UNL     1      15.773  41.385 -11.258  1.00  0.00     0.000 C 
BRANCH  13  14
HETATM   14  C8  UNL     1      16.357  40.761 -12.475  1.00  0.00     0.000 C 
BRANCH  14  15
HETATM   15  C7  UNL     1      17.709  40.146 -12.276  1.00  0.00     0.000 C 
BRANCH  15  16
HETATM   16  C6  UNL     1      17.950  39.014 -13.284  1.00  0.00     0.000 C 
BRANCH  16  17
HETATM   17  C5  UNL     1      16.683  38.229 -13.430  1.00  0.00     0.000 C 
BRANCH  17  18
HETATM   18  C4  UNL     1      16.751  36.870 -12.824  1.00  0.00     0.001 C 
BRANCH  18  19
HETATM   19  C3  UNL     1      15.485  36.499 -12.131  1.00  0.00     0.010 C 
BRANCH  19  20
HETATM   20  C2  UNL     1      14.239  37.005 -12.790  1.00  0.00     0.113 C 
BRANCH  20  21
HETATM   21  C1  UNL     1      13.265  35.964 -13.130  1.00  0.00     0.172 C 
HETATM   22  O1  UNL     1      12.658  35.397 -12.183  1.00  0.00    -0.648 OA
HETATM   23  O2  UNL     1      12.944  35.540 -14.410  1.00  0.00    -0.648 OA
ENDBRANCH  20  21
ENDBRANCH  19  20
ENDBRANCH  18  19
ENDBRANCH  17  18
ENDBRANCH  16  17
ENDBRANCH  15  16
ENDBRANCH  14  15
ENDBRANCH  13  14
ENDBRANCH  12  13
ENDBRANCH  11  12
ENDBRANCH   1  11
BRANCH   2  24
HETATM   24  O3  UNL     1      12.549  37.428  -9.754  1.00  0.00    -0.393 OA
ATOM     25  H3  UNL     1      12.900  37.502 -10.634  1.00  0.00     0.210 HD
ENDBRANCH   2  24
BRANCH   8  26
HETATM   26  O4  UNL     1      13.142  41.583  -6.090  1.00  0.00    -0.391 OA
ATOM     27  H4  UNL     1      12.419  41.844  -5.531  1.00  0.00     0.210 HD
ENDBRANCH   8  26
BRANCH  10  28
HETATM   28  N2  UNL     1      11.350  39.052  -5.431  1.00  0.00    -0.350 N 
HETATM   29  C19 UNL     1      10.304  38.426  -4.709  1.00  0.00     0.256 C 
HETATM   30  O6  UNL     1       9.326  37.959  -5.343  1.00  0.00    -0.271 OA
ATOM     31  H2  UNL     1      12.152  39.437  -4.932  1.00  0.00     0.163 HD
BRANCH  29  32
HETATM   32  C20 UNL     1      10.318  38.300  -3.226  1.00  0.00     0.345 C 
HETATM   33  N3  UNL     1      11.480  38.879  -2.634  1.00  0.00    -0.055 N 
HETATM   34  C21 UNL     1      11.144  39.122  -1.257  1.00  0.00     0.241 C 
ATOM     35  H32 UNL     1      12.322  38.316  -2.755  1.00  0.00     0.278 HD
ATOM     36  H31 UNL     1      11.814  39.710  -3.123  1.00  0.00     0.278 HD
HETATM   37  C22 UNL     1       9.670  39.546  -1.308  1.00  0.00     0.108 C 
HETATM   38  C23 UNL     1       9.185  38.974  -2.589  1.00  0.00     0.168 C 
HETATM   39  O7  UNL     1       8.053  39.065  -3.001  1.00  0.00    -0.295 OA
ENDBRANCH  29  32
ENDBRANCH  10  28
BRANCH   9  40
HETATM   40  O5  UNL     1      10.607  41.399  -6.367  1.00  0.00    -0.391 OA
ATOM     41  H5  UNL     1      10.732  41.052  -5.490  1.00  0.00     0.210 HD
ENDBRANCH   9  40
TORSDOF 16
ENDMDL
MODEL 2
REMARK VINA RESULT: -7.608046437      4.025     10.142
REMARK  16 active torsions:
REMARK  status: ('A' for Active; 'I' for Inactive)
REMARK    1  A    between atoms: C1_2  and  C2_4 
REMARK    2  A    between atoms: C2_4  and  C3_5 
REMARK    3  A    between atoms: C3_5  and  C4_6 
REMARK    4  A    between atoms: C4_6  and  C5_7 
REMARK    5  A    between atoms: C5_7  and  C6_8 
REMARK    6  A    between atoms: C6_8  and  C7_9 
REMARK    7  A    between atoms: C7_9  and  C8_10 
REMARK    8  A    between atoms: C8_10  and  C9_11 
REMARK    9  A    between atoms: C9_11  and  C10_12 
REMARK   10  A    between atoms: C10_12  and  C11_13 
REMARK   11  A    between atoms: C11_13  and  C12_14 
REMARK   12  A    between atoms: C13_15  and  O3_16 
REMARK   13  A    between atoms: C16_23  and  O4_24 
REMARK   14  A    between atoms: C17_26  and  O5_27 
REMARK   15  A    between atoms: C18_29  and  N2_30 
REMARK       I    between atoms: N2_30  and  C19_32 
REMARK   16  A    between atoms: C19_32  and  C20_34 
ROOT
HETATM    1  C12 UNL     1      13.345  37.832 -11.096  1.00  0.00     0.050 C 
HETATM    2  C13 UNL     1      13.924  38.703 -12.127  1.00  0.00     0.157 C 
HETATM    3  C14 UNL     1      15.113  37.899 -12.677  1.00  0.00     0.240 C 
HETATM    4  N1  UNL     1      15.487  36.997 -11.633  1.00  0.00    -0.059 N 
ATOM      5  H11 UNL     1      16.131  37.388 -10.944  1.00  0.00     0.278 HD
ATOM      6  H12 UNL     1      16.099  36.236 -11.928  1.00  0.00     0.278 HD
HETATM    7  C15 UNL     1      14.225  36.576 -11.098  1.00  0.00     0.224 C 
HETATM    8  C16 UNL     1      13.641  35.573 -12.086  1.00  0.00     0.180 C 
HETATM    9  C17 UNL     1      13.479  36.163 -13.449  1.00  0.00     0.173 C 
HETATM   10  C18 UNL     1      14.652  37.059 -13.851  1.00  0.00     0.149 C 
ENDROOT
BRANCH   1  11
HETATM   11  C11 UNL     1      13.086  38.352  -9.753  1.00  0.00     0.009 C 
BRANCH  11  12
HETATM   12  C10 UNL     1      13.853  37.862  -8.601  1.00  0.00     0.001 C 
BRANCH  12  13
HETATM   13  C9  UNL     1      13.103  38.045  -7.275  1.00  0.00     0.000 C 
BRANCH  13  14
HETATM   14  C8  UNL     1      11.758  38.649  -7.464  1.00  0.00     0.000 C 
BRANCH  14  15
HETATM   15  C7  UNL     1      11.426  39.749  -6.502  1.00  0.00     0.000 C 
BRANCH  15  16
HETATM   16  C6  UNL     1      12.107  41.061  -6.915  1.00  0.00     0.000 C 
BRANCH  16  17
HETATM   17  C5  UNL     1      11.574  41.472  -8.254  1.00  0.00     0.000 C 
BRANCH  17  18
HETATM   18  C4  UNL     1      12.631  41.920  -9.203  1.00  0.00     0.001 C 
BRANCH  18  19
HETATM   19  C3  UNL     1      14.002  41.648  -8.688  1.00  0.00     0.010 C 
BRANCH  19  20
HETATM   20  C2  UNL     1      14.972  42.775  -8.863  1.00  0.00     0.113 C 
BRANCH  20  21
HETATM   21  C1  UNL     1      15.146  43.618  -7.678  1.00  0.00     0.172 C 
HETATM   22  O1  UNL     1      16.276  44.143  -7.491  1.00  0.00    -0.648 OA
HETATM   23  O2  UNL     1      14.172  43.899  -6.732  1.00  0.00    -0.648 OA
ENDBRANCH  20  21
ENDBRANCH  19  20
ENDBRANCH  18  19
ENDBRANCH  17  18
ENDBRANCH  16  17
ENDBRANCH  15  16
ENDBRANCH  14  15
ENDBRANCH  13  14
ENDBRANCH  12  13
ENDBRANCH  11  12
ENDBRANCH   1  11
BRANCH   2  24
HETATM   24  O3  UNL     1      14.280  39.973 -11.774  1.00  0.00    -0.393 OA
ATOM     25  H3  UNL     1      14.924  40.083 -11.084  1.00  0.00     0.210 HD
ENDBRANCH   2  24
BRANCH   8  26
HETATM   26  O4  UNL     1      14.372  34.414 -12.145  1.00  0.00    -0.391 OA
ATOM     27  H4  UNL     1      14.973  34.402 -12.880  1.00  0.00     0.210 HD
ENDBRANCH   8  26
BRANCH  10  28
HETATM   28  N2  UNL     1      15.697  36.234 -14.377  1.00  0.00    -0.350 N 
HETATM   29  C19 UNL     1      16.424  36.648 -15.521  1.00  0.00     0.256 C 
HETATM   30  O6  UNL     1      16.134  37.746 -16.057  1.00  0.00    -0.271 OA
ATOM     31  H2  UNL     1      15.918  35.345 -13.929  1.00  0.00     0.163 HD
BRANCH  29  32
HETATM   32  C20 UNL     1      17.519  35.833 -16.112  1.00  0.00     0.345 C 
HETATM   33  N3  UNL     1      18.249  35.095 -15.133  1.00  0.00    -0.055 N 
HETATM   34  C21 UNL     1      18.904  34.031 -15.844  1.00  0.00     0.241 C 
ATOM     35  H32 UNL     1      18.887  35.671 -14.583  1.00  0.00     0.278 HD
ATOM     36  H31 UNL     1      17.673  34.771 -14.355  1.00  0.00     0.278 HD
HETATM   37  C22 UNL     1      17.885  33.626 -16.918  1.00  0.00     0.108 C 
HETATM   38  C23 UNL     1      17.030  34.830 -17.062  1.00  0.00     0.168 C 
HETATM   39  O7  UNL     1      16.105  34.933 -17.833  1.00  0.00    -0.295 OA
ENDBRANCH  29  32
ENDBRANCH  10  28
BRANCH   9  40
HETATM   40  O5  UNL     1      13.304  35.135 -14.354  1.00  0.00    -0.391 OA
ATOM     41  H5  UNL     1      12.389  34.878 -14.345  1.00  0.00     0.210 HD
ENDBRANCH   9  40
TORSDOF 16
ENDMDL
MODEL 3
REMARK VINA RESULT: -7.542646668      3.932     10.001
REMARK  16 active torsions:
REMARK  status: ('A' for Active; 'I' for Inactive)
REMARK    1  A    between atoms: C1_2  and  C2_4 
REMARK    2  A    between atoms: C2_4  and  C3_5 
REMARK    3  A    between atoms: C3_5  and  C4_6 
REMARK    4  A    between atoms: C4_6  and  C5_7 
REMARK    5  A    between atoms: C5_7  and  C6_8 
REMARK    6  A    between atoms: C6_8  and  C7_9 
REMARK    7  A    between atoms: C7_9  and  C8_10 
REMARK    8  A    between atoms: C8_10  and  C9_11 
REMARK    9  A    between atoms: C9_11  and  C10_12 
REMARK   10  A    between atoms: C10_12  and  C11_13 
REMARK   11  A    between atoms: C11_13  and  C12_14 
REMARK   12  A    between atoms: C13_15  and  O3_16 
REMARK   13  A    between atoms: C16_23  and  O4_24 
REMARK   14  A    between atoms: C17_26  and  O5_27 
REMARK   15  A    between atoms: C18_29  and  N2_30 
REMARK       I    between atoms: N2_30  and  C19_32 
REMARK   16  A    between atoms: C19_32  and  C20_34 
ROOT
HETATM    1  C12 UNL     1      13.769  38.538 -11.928  1.00  0.00     0.050 C 
HETATM    2  C13 UNL     1      14.208  39.010 -13.249  1.00  0.00     0.157 C 
HETATM    3  C14 UNL     1      15.264  37.983 -13.686  1.00  0.00     0.240 C 
HETATM    4  N1  UNL     1      15.767  37.407 -12.478  1.00  0.00    -0.059 N 
ATOM      5  H11 UNL     1      16.526  37.930 -12.042  1.00  0.00     0.278 HD
ATOM      6  H12 UNL     1      16.296  36.544 -12.608  1.00  0.00     0.278 HD
HETATM    7  C15 UNL     1      14.592  37.271 -11.668  1.00  0.00     0.224 C 
HETATM    8  C16 UNL     1      13.823  36.070 -12.206  1.00  0.00     0.180 C 
HETATM    9  C17 UNL     1      13.466  36.238 -13.648  1.00  0.00     0.173 C 
HETATM   10  C18 UNL     1      14.592  36.873 -14.467  1.00  0.00     0.149 C 
ENDROOT
BRANCH   1  11
HETATM   11  C11 UNL     1      13.747  39.455 -10.788  1.00  0.00     0.009 C 
BRANCH  11  12
HETATM   12  C10 UNL     1      14.828  39.439  -9.796  1.00  0.00     0.001 C 
BRANCH  12  13
HETATM   13  C9  UNL     1      15.836  40.575 -10.007  1.00  0.00     0.000 C 
BRANCH  13  14
HETATM   14  C8  UNL     1      15.196  41.917  -9.966  1.00  0.00     0.000 C 
BRANCH  14  15
HETATM   15  C7  UNL     1      15.575  42.755  -8.783  1.00  0.00     0.000 C 
BRANCH  15  16
HETATM   16  C6  UNL     1      14.396  42.895  -7.810  1.00  0.00     0.000 C 
BRANCH  16  17
HETATM   17  C5  UNL     1      13.122  42.791  -8.591  1.00  0.00     0.000 C 
BRANCH  17  18
HETATM   18  C4  UNL     1      11.981  42.253  -7.798  1.00  0.00     0.001 C 
BRANCH  18  19
HETATM   19  C3  UNL     1      11.767  40.797  -8.037  1.00  0.00     0.010 C 
BRANCH  19  20
HETATM   20  C2  UNL     1      12.194  39.908  -6.911  1.00  0.00     0.113 C 
BRANCH  20  21
HETATM   21  C1  UNL     1      11.773  38.511  -7.044  1.00  0.00     0.172 C 
HETATM   22  O1  UNL     1      11.695  38.031  -8.207  1.00  0.00    -0.648 OA
HETATM   23  O2  UNL     1      11.451  37.658  -6.001  1.00  0.00    -0.648 OA
ENDBRANCH  20  21
ENDBRANCH  19  20
ENDBRANCH  18  19
ENDBRANCH  17  18
ENDBRANCH  16  17
ENDBRANCH  15  16
ENDBRANCH  14  15
ENDBRANCH  13  14
ENDBRANCH  12  13
ENDBRANCH  11  12
ENDBRANCH   1  11
BRANCH   2  24
HETATM   24  O3  UNL     1      14.661  40.294 -13.357  1.00  0.00    -0.393 OA
ATOM     25  H3  UNL     1      14.434  40.786 -14.137  1.00  0.00     0.210 HD
ENDBRANCH   2  24
BRANCH   8  26
HETATM   26  O4  UNL     1      14.492  34.890 -12.008  1.00  0.00    -0.391 OA
ATOM     27  H4  UNL     1      14.056  34.153 -12.419  1.00  0.00     0.210 HD
ENDBRANCH   8  26
BRANCH  10  28
HETATM   28  N2  UNL     1      15.509  35.844 -14.856  1.00  0.00    -0.350 N 
HETATM   29  C19 UNL     1      15.928  35.736 -16.204  1.00  0.00     0.256 C 
HETATM   30  O6  UNL     1      15.483  36.556 -17.045  1.00  0.00    -0.271 OA
ATOM     31  H2  UNL     1      15.861  35.186 -14.160  1.00  0.00     0.163 HD
BRANCH  29  32
HETATM   32  C20 UNL     1      16.879  34.688 -16.666  1.00  0.00     0.345 C 
HETATM   33  N3  UNL     1      16.932  34.580 -18.088  1.00  0.00    -0.055 N 
HETATM   34  C21 UNL     1      18.178  33.928 -18.390  1.00  0.00     0.241 C 
ATOM     35  H32 UNL     1      16.120  34.112 -18.491  1.00  0.00     0.278 HD
ATOM     36  H31 UNL     1      16.813  35.471 -18.569  1.00  0.00     0.278 HD
HETATM   37  C22 UNL     1      19.149  34.491 -17.343  1.00  0.00     0.108 C 
HETATM   38  C23 UNL     1      18.258  34.950 -16.249  1.00  0.00     0.168 C 
HETATM   39  O7  UNL     1      18.635  35.446 -15.213  1.00  0.00    -0.295 OA
ENDBRANCH  29  32
ENDBRANCH  10  28
BRANCH   9  40
HETATM   40  O5  UNL     1      13.113  35.005 -14.158  1.00  0.00    -0.391 OA
ATOM     41  H5  UNL     1      12.255  35.080 -14.561  1.00  0.00     0.210 HD
ENDBRANCH   9  40
TORSDOF 16
ENDMDL
MODEL 4
REMARK VINA RESULT: -7.523316274      3.481     10.937
REMARK  16 active torsions:
REMARK  status: ('A' for Active; 'I' for Inactive)
REMARK    1  A    between atoms: C1_2  and  C2_4 
REMARK    2  A    between atoms: C2_4  and  C3_5 
REMARK    3  A    between atoms: C3_5  and  C4_6 
REMARK    4  A    between atoms: C4_6  and  C5_7 
REMARK    5  A    between atoms: C5_7  and  C6_8 
REMARK    6  A    between atoms: C6_8  and  C7_9 
REMARK    7  A    between atoms: C7_9  and  C8_10 
REMARK    8  A    between atoms: C8_10  and  C9_11 
REMARK    9  A    between atoms: C9_11  and  C10_12 
REMARK   10  A    between atoms: C10_12  and  C11_13 
REMARK   11  A    between atoms: C11_13  and  C12_14 
REMARK   12  A    between atoms: C13_15  and  O3_16 
REMARK   13  A    between atoms: C16_23  and  O4_24 
REMARK   14  A    between atoms: C17_26  and  O5_27 
REMARK   15  A    between atoms: C18_29  and  N2_30 
REMARK       I    between atoms: N2_30  and  C19_32 
REMARK   16  A    between atoms: C19_32  and  C20_34 
ROOT
HETATM    1  C12 UNL     1      13.376  37.919 -11.126  1.00  0.00     0.050 C 
HETATM    2  C13 UNL     1      13.931  38.767 -12.189  1.00  0.00     0.157 C 
HETATM    3  C14 UNL     1      15.123  37.963 -12.731  1.00  0.00     0.240 C 
HETATM    4  N1  UNL     1      15.522  37.096 -11.667  1.00  0.00    -0.059 N 
ATOM      5  H11 UNL     1      16.169  37.514 -10.998  1.00  0.00     0.278 HD
ATOM      6  H12 UNL     1      16.140  36.335 -11.948  1.00  0.00     0.278 HD
HETATM    7  C15 UNL     1      14.272  36.675 -11.104  1.00  0.00     0.224 C 
HETATM    8  C16 UNL     1      13.689  35.636 -12.055  1.00  0.00     0.180 C 
HETATM    9  C17 UNL     1      13.502  36.185 -13.433  1.00  0.00     0.173 C 
HETATM   10  C18 UNL     1      14.658  37.084 -13.875  1.00  0.00     0.149 C 
ENDROOT
BRANCH   1  11
HETATM   11  C11 UNL     1      13.128  38.474  -9.795  1.00  0.00     0.009 C 
BRANCH  11  12
HETATM   12  C10 UNL     1      13.725  37.856  -8.605  1.00  0.00     0.001 C 
BRANCH  12  13
HETATM   13  C9  UNL     1      12.980  38.225  -7.316  1.00  0.00     0.000 C 
BRANCH  13  14
HETATM   14  C8  UNL     1      12.403  39.595  -7.366  1.00  0.00     0.000 C 
BRANCH  14  15
HETATM   15  C7  UNL     1      11.432  39.905  -6.268  1.00  0.00     0.000 C 
BRANCH  15  16
HETATM   16  C6  UNL     1      10.750  38.627  -5.762  1.00  0.00     0.000 C 
BRANCH  16  17
HETATM   17  C5  UNL     1      10.657  38.697  -4.268  1.00  0.00     0.000 C 
BRANCH  17  18
HETATM   18  C4  UNL     1       9.274  38.939  -3.769  1.00  0.00     0.001 C 
BRANCH  18  19
HETATM   19  C3  UNL     1       9.248  39.236  -2.309  1.00  0.00     0.010 C 
BRANCH  19  20
HETATM   20  C2  UNL     1       9.866  38.182  -1.444  1.00  0.00     0.113 C 
BRANCH  20  21
HETATM   21  C1  UNL     1       8.947  37.120  -1.028  1.00  0.00     0.172 C 
HETATM   22  O1  UNL     1       8.513  37.150   0.155  1.00  0.00    -0.648 OA
HETATM   23  O2  UNL     1       8.502  36.074  -1.822  1.00  0.00    -0.648 OA
ENDBRANCH  20  21
ENDBRANCH  19  20
ENDBRANCH  18  19
ENDBRANCH  17  18
ENDBRANCH  16  17
ENDBRANCH  15  16
ENDBRANCH  14  15
ENDBRANCH  13  14
ENDBRANCH  12  13
ENDBRANCH  11  12
ENDBRANCH   1  11
BRANCH   2  24
HETATM   24  O3  UNL     1      14.275  40.051 -11.876  1.00  0.00    -0.393 OA
ATOM     25  H3  UNL     1      14.700  40.577 -12.543  1.00  0.00     0.210 HD
ENDBRANCH   2  24
BRANCH   8  26
HETATM   26  O4  UNL     1      14.433  34.486 -12.091  1.00  0.00    -0.391 OA
ATOM     27  H4  UNL     1      13.899  33.713 -12.233  1.00  0.00     0.210 HD
ENDBRANCH   8  26
BRANCH  10  28
HETATM   28  N2  UNL     1      15.707  36.257 -14.391  1.00  0.00    -0.350 N 
HETATM   29  C19 UNL     1      16.438  36.666 -15.534  1.00  0.00     0.256 C 
HETATM   30  O6  UNL     1      16.149  37.760 -16.079  1.00  0.00    -0.271 OA
ATOM     31  H2  UNL     1      15.928  35.372 -13.936  1.00  0.00     0.163 HD
BRANCH  29  32
HETATM   32  C20 UNL     1      17.537  35.848 -16.115  1.00  0.00     0.345 C 
HETATM   33  N3  UNL     1      18.265  35.119 -15.128  1.00  0.00    -0.055 N 
HETATM   34  C21 UNL     1      18.925  34.051 -15.829  1.00  0.00     0.241 C 
ATOM     35  H32 UNL     1      18.899  35.700 -14.580  1.00  0.00     0.278 HD
ATOM     36  H31 UNL     1      17.687  34.799 -14.350  1.00  0.00     0.278 HD
HETATM   37  C22 UNL     1      17.911  33.636 -16.904  1.00  0.00     0.108 C 
HETATM   38  C23 UNL     1      17.054  34.838 -17.060  1.00  0.00     0.168 C 
HETATM   39  O7  UNL     1      16.132  34.933 -17.836  1.00  0.00    -0.295 OA
ENDBRANCH  29  32
ENDBRANCH  10  28
BRANCH   9  40
HETATM   40  O5  UNL     1      13.329  35.130 -14.305  1.00  0.00    -0.391 OA
ATOM     41  H5  UNL     1      13.269  35.475 -15.189  1.00  0.00     0.210 HD
ENDBRANCH   9  40
TORSDOF 16
ENDMDL
MODEL 5
REMARK VINA RESULT: -7.471322110      3.750      9.872
REMARK  16 active torsions:
REMARK  status: ('A' for Active; 'I' for Inactive)
REMARK    1  A    between atoms: C1_2  and  C2_4 
REMARK    2  A    between atoms: C2_4  and  C3_5 
REMARK    3  A    between atoms: C3_5  and  C4_6 
REMARK    4  A    between atoms: C4_6  and  C5_7 
REMARK    5  A    between atoms: C5_7  and  C6_8 
REMARK    6  A    between atoms: C6_8  and  C7_9 
REMARK    7  A    between atoms: C7_9  and  C8_10 
REMARK    8  A    between atoms: C8_10  and  C9_11 
REMARK    9  A    between atoms: C9_11  and  C10_12 
REMARK   10  A    between atoms: C10_12  and  C11_13 
REMARK   11  A    between atoms: C11_13  and  C12_14 
REMARK   12  A    between atoms: C13_15  and  O3_16 
REMARK   13  A    between atoms: C16_23  and  O4_24 
REMARK   14  A    between atoms: C17_26  and  O5_27 
REMARK   15  A    between atoms: C18_29  and  N2_30 
REMARK       I    between atoms: N2_30  and  C19_32 
REMARK   16  A    between atoms: C19_32  and  C20_34 
ROOT
HETATM    1  C12 UNL     1      13.759  38.588 -11.777  1.00  0.00     0.050 C 
HETATM    2  C13 UNL     1      14.120  39.154 -13.084  1.00  0.00     0.157 C 
HETATM    3  C14 UNL     1      15.268  38.261 -13.580  1.00  0.00     0.240 C 
HETATM    4  N1  UNL     1      15.852  37.693 -12.405  1.00  0.00    -0.059 N 
ATOM      5  H11 UNL     1      16.561  38.275 -11.960  1.00  0.00     0.278 HD
ATOM      6  H12 UNL     1      16.465  36.896 -12.578  1.00  0.00     0.278 HD
HETATM    7  C15 UNL     1      14.713  37.404 -11.582  1.00  0.00     0.224 C 
HETATM    8  C16 UNL     1      14.062  36.152 -12.157  1.00  0.00     0.180 C 
HETATM    9  C17 UNL     1      13.661  36.338 -13.585  1.00  0.00     0.173 C 
HETATM   10  C18 UNL     1      14.698  37.118 -14.395  1.00  0.00     0.149 C 
ENDROOT
BRANCH   1  11
HETATM   11  C11 UNL     1      13.665  39.453 -10.601  1.00  0.00     0.009 C 
BRANCH  11  12
HETATM   12  C10 UNL     1      14.773  39.531  -9.641  1.00  0.00     0.001 C 
BRANCH  12  13
HETATM   13  C9  UNL     1      15.749  40.671  -9.962  1.00  0.00     0.000 C 
BRANCH  13  14
HETATM   14  C8  UNL     1      15.111  42.010  -9.855  1.00  0.00     0.000 C 
BRANCH  14  15
HETATM   15  C7  UNL     1      15.552  42.820  -8.675  1.00  0.00     0.000 C 
BRANCH  15  16
HETATM   16  C6  UNL     1      14.344  43.377  -7.910  1.00  0.00     0.000 C 
BRANCH  16  17
HETATM   17  C5  UNL     1      13.540  42.225  -7.389  1.00  0.00     0.000 C 
BRANCH  17  18
HETATM   18  C4  UNL     1      12.127  42.224  -7.861  1.00  0.00     0.001 C 
BRANCH  18  19
HETATM   19  C3  UNL     1      11.514  40.867  -7.797  1.00  0.00     0.010 C 
BRANCH  19  20
HETATM   20  C2  UNL     1      12.241  39.892  -6.923  1.00  0.00     0.113 C 
BRANCH  20  21
HETATM   21  C1  UNL     1      11.772  38.508  -7.034  1.00  0.00     0.172 C 
HETATM   22  O1  UNL     1      11.587  38.042  -8.190  1.00  0.00    -0.648 OA
HETATM   23  O2  UNL     1      11.511  37.653  -5.974  1.00  0.00    -0.648 OA
ENDBRANCH  20  21
ENDBRANCH  19  20
ENDBRANCH  18  19
ENDBRANCH  17  18
ENDBRANCH  16  17
ENDBRANCH  15  16
ENDBRANCH  14  15
ENDBRANCH  13  14
ENDBRANCH  12  13
ENDBRANCH  11  12
ENDBRANCH   1  11
BRANCH   2  24
HETATM   24  O3  UNL     1      14.436  40.482 -13.147  1.00  0.00    -0.393 OA
ATOM     25  H3  UNL     1      13.743  41.115 -13.002  1.00  0.00     0.210 HD
ENDBRANCH   2  24
BRANCH   8  26
HETATM   26  O4  UNL     1      14.853  35.041 -12.017  1.00  0.00    -0.391 OA
ATOM     27  H4  UNL     1      14.396  34.322 -11.598  1.00  0.00     0.210 HD
ENDBRANCH   8  26
BRANCH  10  28
HETATM   28  N2  UNL     1      15.708  36.206 -14.840  1.00  0.00    -0.350 N 
HETATM   29  C19 UNL     1      16.362  36.417 -16.079  1.00  0.00     0.256 C 
HETATM   30  O6  UNL     1      16.039  37.413 -16.772  1.00  0.00    -0.271 OA
ATOM     31  H2  UNL     1      15.958  35.402 -14.263  1.00  0.00     0.163 HD
BRANCH  29  32
HETATM   32  C20 UNL     1      17.419  35.503 -16.592  1.00  0.00     0.345 C 
HETATM   33  N3  UNL     1      18.152  34.866 -15.548  1.00  0.00    -0.055 N 
HETATM   34  C21 UNL     1      18.759  33.704 -16.141  1.00  0.00     0.241 C 
ATOM     35  H32 UNL     1      18.820  35.483 -15.085  1.00  0.00     0.278 HD
ATOM     36  H31 UNL     1      17.588  34.654 -14.725  1.00  0.00     0.278 HD
HETATM   37  C22 UNL     1      17.702  33.206 -17.136  1.00  0.00     0.108 C 
HETATM   38  C23 UNL     1      16.878  34.411 -17.404  1.00  0.00     0.168 C 
HETATM   39  O7  UNL     1      15.937  34.449 -18.162  1.00  0.00    -0.295 OA
ENDBRANCH  29  32
ENDBRANCH  10  28
BRANCH   9  40
HETATM   40  O5  UNL     1      13.426  35.095 -14.139  1.00  0.00    -0.391 OA
ATOM     41  H5  UNL     1      14.260  34.656 -14.260  1.00  0.00     0.210 HD
ENDBRANCH   9  40
TORSDOF 16
ENDMDL
