MODEL 1
REMARK VINA RESULT: -8.406769665      0.000      0.000
REMARK  12 active torsions:
REMARK  status: ('A' for Active; 'I' for Inactive)
REMARK    1  A    between atoms: C2_2  and  C3_3 
REMARK    2  A    between atoms: C3_3  and  C5_5 
REMARK    3  A    between atoms: C5_5  and  C6_6 
REMARK    4  A    between atoms: C5_5  and  N1_14 
REMARK       I    between atoms: N1_14  and  C13_16 
REMARK    5  A    between atoms: C13_16  and  C14_18 
REMARK    6  A    between atoms: C14_18  and  N2_19 
REMARK    7  A    between atoms: C14_18  and  C22_32 
REMARK       I    between atoms: N2_19  and  C15_20 
REMARK    8  A    between atoms: C15_20  and  C16_22 
REMARK    9  A    between atoms: C16_22  and  C17_23 
REMARK   10  A    between atoms: C16_22  and  N3_27 
REMARK   11  A    between atoms: C17_23  and  C18_24 
REMARK   12  A    between atoms: C22_32  and  C24_34 
ROOT
HETATM    1  C14 UNL     1       5.961 129.957 360.124  1.00  0.00     0.180 C 
ENDROOT
BRANCH   1   2
HETATM    2  C13 UNL     1       7.314 129.819 360.867  1.00  0.00     0.283 C 
HETATM    3  N1  UNL     1       8.536 130.274 360.388  1.00  0.00    -0.347 N 
ATOM      4  H1  UNL     1       8.588 130.732 359.478  1.00  0.00     0.163 HD
HETATM    5  O1  UNL     1       7.280 129.251 362.000  1.00  0.00    -0.265 OA
BRANCH   3   6
HETATM    6  C5  UNL     1       9.772 130.093 361.203  1.00  0.00     0.112 C 
BRANCH   6   7
HETATM    7  C3  UNL     1      10.915 130.537 360.416  1.00  0.00     0.008 C 
HETATM    8  C4  UNL     1      10.487 130.804 358.990  1.00  0.00     0.012 C 
BRANCH   7   9
HETATM    9  C2  UNL     1      12.047 129.536 360.325  1.00  0.00     0.002 C 
HETATM   10  C1  UNL     1      13.392 130.197 360.240  1.00  0.00     0.005 C 
ENDBRANCH   7   9
ENDBRANCH   6   7
BRANCH   6  11
HETATM   11  C6  UNL     1       9.551 130.768 362.489  1.00  0.00     0.008 C 
HETATM   12  C7  UNL     1      10.365 131.221 363.381  1.00  0.00    -0.036 C 
HETATM   13  C8  UNL     1       9.940 131.875 364.617  1.00  0.00    -0.058 C 
HETATM   14  C12 UNL     1      11.835 131.210 363.438  1.00  0.00     0.119 C 
HETATM   15  C9  UNL     1       8.560 131.828 365.224  1.00  0.00     0.048 C 
HETATM   16  C10 UNL     1      10.942 132.533 365.149  1.00  0.00    -0.018 C 
HETATM   17  C11 UNL     1      12.180 132.413 364.350  1.00  0.00     0.052 C 
HETATM   18 CL1  UNL     1      12.526 129.790 364.236  1.00  0.00    -0.120 Cl
ENDBRANCH   6  11
ENDBRANCH   3   6
ENDBRANCH   1   2
BRANCH   1  19
HETATM   19  N2  UNL     1       5.966 130.828 359.136  1.00  0.00    -0.363 NA
HETATM   20  C15 UNL     1       5.971 131.777 358.070  1.00  0.00     0.315 C 
HETATM   21  O2  UNL     1       5.935 132.996 358.290  1.00  0.00    -0.255 OA
BRANCH  20  22
HETATM   22  C16 UNL     1       6.010 131.376 356.611  1.00  0.00     0.191 C 
BRANCH  22  23
HETATM   23  C17 UNL     1       7.291 130.806 356.190  1.00  0.00     0.040 C 
BRANCH  23  24
HETATM   24  C18 UNL     1       7.419 129.351 355.973  1.00  0.00    -0.020 C 
HETATM   25  C19 UNL     1       6.161 128.628 355.633  1.00  0.00     0.009 C 
HETATM   26  C20 UNL     1       8.153 128.639 357.099  1.00  0.00     0.009 C 
ENDBRANCH  23  24
ENDBRANCH  22  23
BRANCH  22  27
HETATM   27  N3  UNL     1       5.601 132.534 355.882  1.00  0.00    -0.352 N 
HETATM   28  C21 UNL     1       4.878 132.671 354.858  1.00  0.00     0.197 C 
HETATM   29  N4  UNL     1       4.231 131.662 354.102  1.00  0.00    -0.067 NA
HETATM   30  N5  UNL     1       4.668 134.017 354.358  1.00  0.00    -0.067 NA
ATOM     31  H3  UNL     1       5.960 133.412 356.259  1.00  0.00     0.162 HD
ENDBRANCH  22  27
ENDBRANCH  20  22
ENDBRANCH   1  19
BRANCH   1  32
HETATM   32  C22 UNL     1       5.279 128.672 360.242  1.00  0.00    -0.038 C 
HETATM   33  C23 UNL     1       4.052 128.766 361.150  1.00  0.00     0.047 C 
BRANCH  32  34
HETATM   34  C24 UNL     1       4.982 127.799 359.095  1.00  0.00     0.033 C 
HETATM   35  C25 UNL     1       3.686 128.110 358.373  1.00  0.00     0.010 C 
ENDBRANCH  32  34
ENDBRANCH   1  32
TORSDOF 12
ENDMDL
MODEL 2
REMARK VINA RESULT: -8.343310341      1.269      2.200
REMARK  12 active torsions:
REMARK  status: ('A' for Active; 'I' for Inactive)
REMARK    1  A    between atoms: C2_2  and  C3_3 
REMARK    2  A    between atoms: C3_3  and  C5_5 
REMARK    3  A    between atoms: C5_5  and  C6_6 
REMARK    4  A    between atoms: C5_5  and  N1_14 
REMARK       I    between atoms: N1_14  and  C13_16 
REMARK    5  A    between atoms: C13_16  and  C14_18 
REMARK    6  A    between atoms: C14_18  and  N2_19 
REMARK    7  A    between atoms: C14_18  and  C22_32 
REMARK       I    between atoms: N2_19  and  C15_20 
REMARK    8  A    between atoms: C15_20  and  C16_22 
REMARK    9  A    between atoms: C16_22  and  C17_23 
REMARK   10  A    between atoms: C16_22  and  N3_27 
REMARK   11  A    between atoms: C17_23  and  C18_24 
REMARK   12  A    between atoms: C22_32  and  C24_34 
ROOT
HETATM    1  C14 UNL     1       5.913 129.922 360.134  1.00  0.00     0.180 C 
ENDROOT
BRANCH   1   2
HETATM    2  C13 UNL     1       7.263 129.787 360.884  1.00  0.00     0.283 C 
HETATM    3  N1  UNL     1       8.479 130.283 360.431  1.00  0.00    -0.347 N 
ATOM      4  H1  UNL     1       8.529 130.773 359.538  1.00  0.00     0.163 HD
HETATM    5  O1  UNL     1       7.232 129.181 361.997  1.00  0.00    -0.265 OA
BRANCH   3   6
HETATM    6  C5  UNL     1       9.712 130.101 361.250  1.00  0.00     0.112 C 
BRANCH   6   7
HETATM    7  C3  UNL     1      10.859 130.539 360.467  1.00  0.00     0.008 C 
HETATM    8  C4  UNL     1      10.469 130.671 359.011  1.00  0.00     0.012 C 
BRANCH   7   9
HETATM    9  C2  UNL     1      12.041 129.592 360.491  1.00  0.00     0.002 C 
HETATM   10  C1  UNL     1      13.338 130.288 360.201  1.00  0.00     0.005 C 
ENDBRANCH   7   9
ENDBRANCH   6   7
BRANCH   6  11
HETATM   11  C6  UNL     1       9.489 130.780 362.534  1.00  0.00     0.008 C 
HETATM   12  C7  UNL     1      10.302 131.234 363.427  1.00  0.00    -0.036 C 
HETATM   13  C8  UNL     1       9.874 131.893 364.660  1.00  0.00    -0.058 C 
HETATM   14  C12 UNL     1      11.772 131.221 363.488  1.00  0.00     0.119 C 
HETATM   15  C9  UNL     1       8.493 131.850 365.263  1.00  0.00     0.048 C 
HETATM   16  C10 UNL     1      10.876 132.550 365.192  1.00  0.00    -0.018 C 
HETATM   17  C11 UNL     1      12.116 132.426 364.397  1.00  0.00     0.052 C 
HETATM   18 CL1  UNL     1      12.458 129.802 364.292  1.00  0.00    -0.120 Cl
ENDBRANCH   6  11
ENDBRANCH   3   6
ENDBRANCH   1   2
BRANCH   1  19
HETATM   19  N2  UNL     1       5.941 130.739 359.102  1.00  0.00    -0.363 NA
HETATM   20  C15 UNL     1       5.970 131.631 357.988  1.00  0.00     0.315 C 
HETATM   21  O2  UNL     1       5.912 132.860 358.141  1.00  0.00    -0.255 OA
BRANCH  20  22
HETATM   22  C16 UNL     1       6.061 131.155 356.554  1.00  0.00     0.191 C 
BRANCH  22  23
HETATM   23  C17 UNL     1       6.180 132.239 355.579  1.00  0.00     0.040 C 
BRANCH  23  24
HETATM   24  C18 UNL     1       5.010 132.646 354.776  1.00  0.00    -0.020 C 
HETATM   25  C19 UNL     1       5.127 132.449 353.304  1.00  0.00     0.009 C 
HETATM   26  C20 UNL     1       4.531 134.057 355.087  1.00  0.00     0.009 C 
ENDBRANCH  23  24
ENDBRANCH  22  23
BRANCH  22  27
HETATM   27  N3  UNL     1       4.935 130.296 356.361  1.00  0.00    -0.352 N 
HETATM   28  C21 UNL     1       4.839 129.127 355.898  1.00  0.00     0.197 C 
HETATM   29  N4  UNL     1       5.875 128.290 355.413  1.00  0.00    -0.067 NA
HETATM   30  N5  UNL     1       3.514 128.539 355.828  1.00  0.00    -0.067 NA
ATOM     31  H3  UNL     1       4.046 130.704 356.651  1.00  0.00     0.162 HD
ENDBRANCH  22  27
ENDBRANCH  20  22
ENDBRANCH   1  19
BRANCH   1  32
HETATM   32  C22 UNL     1       5.197 128.663 360.319  1.00  0.00    -0.038 C 
HETATM   33  C23 UNL     1       3.976 128.837 361.222  1.00  0.00     0.047 C 
BRANCH  32  34
HETATM   34  C24 UNL     1       4.874 127.741 359.218  1.00  0.00     0.033 C 
HETATM   35  C25 UNL     1       3.434 127.270 359.180  1.00  0.00     0.010 C 
ENDBRANCH  32  34
ENDBRANCH   1  32
TORSDOF 12
ENDMDL
MODEL 3
REMARK VINA RESULT: -8.339362205      2.450      4.034
REMARK  12 active torsions:
REMARK  status: ('A' for Active; 'I' for Inactive)
REMARK    1  A    between atoms: C2_2  and  C3_3 
REMARK    2  A    between atoms: C3_3  and  C5_5 
REMARK    3  A    between atoms: C5_5  and  C6_6 
REMARK    4  A    between atoms: C5_5  and  N1_14 
REMARK       I    between atoms: N1_14  and  C13_16 
REMARK    5  A    between atoms: C13_16  and  C14_18 
REMARK    6  A    between atoms: C14_18  and  N2_19 
REMARK    7  A    between atoms: C14_18  and  C22_32 
REMARK       I    between atoms: N2_19  and  C15_20 
REMARK    8  A    between atoms: C15_20  and  C16_22 
REMARK    9  A    between atoms: C16_22  and  C17_23 
REMARK   10  A    between atoms: C16_22  and  N3_27 
REMARK   11  A    between atoms: C17_23  and  C18_24 
REMARK   12  A    between atoms: C22_32  and  C24_34 
ROOT
HETATM    1  C14 UNL     1       7.288 128.733 358.736  1.00  0.00     0.180 C 
ENDROOT
BRANCH   1   2
HETATM    2  C13 UNL     1       8.509 128.851 359.683  1.00  0.00     0.283 C 
HETATM    3  N1  UNL     1       9.000 130.041 360.205  1.00  0.00    -0.347 N 
ATOM      4  H1  UNL     1       8.554 130.926 359.962  1.00  0.00     0.163 HD
HETATM    5  O1  UNL     1       9.084 127.767 360.000  1.00  0.00    -0.265 OA
BRANCH   3   6
HETATM    6  C5  UNL     1      10.178 130.027 361.119  1.00  0.00     0.112 C 
BRANCH   6   7
HETATM    7  C3  UNL     1      11.318 130.600 360.417  1.00  0.00     0.008 C 
HETATM    8  C4  UNL     1      10.911 131.006 359.017  1.00  0.00     0.012 C 
BRANCH   7   9
HETATM    9  C2  UNL     1      12.493 129.660 360.245  1.00  0.00     0.002 C 
HETATM   10  C1  UNL     1      13.771 130.237 360.779  1.00  0.00     0.005 C 
ENDBRANCH   7   9
ENDBRANCH   6   7
BRANCH   6  11
HETATM   11  C6  UNL     1       9.771 130.685 362.368  1.00  0.00     0.008 C 
HETATM   12  C7  UNL     1      10.448 131.167 363.354  1.00  0.00    -0.036 C 
HETATM   13  C8  UNL     1       9.845 131.796 364.528  1.00  0.00    -0.058 C 
HETATM   14  C12 UNL     1      11.899 131.218 363.593  1.00  0.00     0.119 C 
HETATM   15  C9  UNL     1       8.404 131.688 364.959  1.00  0.00     0.048 C 
HETATM   16  C10 UNL     1      10.745 132.493 365.180  1.00  0.00    -0.018 C 
HETATM   17  C11 UNL     1      12.076 132.430 364.541  1.00  0.00     0.052 C 
HETATM   18 CL1  UNL     1      12.545 129.824 364.471  1.00  0.00    -0.120 Cl
ENDBRANCH   6  11
ENDBRANCH   3   6
ENDBRANCH   1   2
BRANCH   1  19
HETATM   19  N2  UNL     1       6.128 128.627 359.350  1.00  0.00    -0.363 NA
HETATM   20  C15 UNL     1       4.874 128.514 360.023  1.00  0.00     0.315 C 
HETATM   21  O2  UNL     1       4.748 128.835 361.214  1.00  0.00    -0.255 OA
BRANCH  20  22
HETATM   22  C16 UNL     1       3.623 127.993 359.350  1.00  0.00     0.191 C 
BRANCH  22  23
HETATM   23  C17 UNL     1       3.417 128.518 357.999  1.00  0.00     0.040 C 
BRANCH  23  24
HETATM   24  C18 UNL     1       3.550 127.625 356.831  1.00  0.00    -0.020 C 
HETATM   25  C19 UNL     1       4.087 126.263 357.106  1.00  0.00     0.009 C 
HETATM   26  C20 UNL     1       4.295 128.265 355.669  1.00  0.00     0.009 C 
ENDBRANCH  23  24
ENDBRANCH  22  23
BRANCH  22  27
HETATM   27  N3  UNL     1       2.556 128.256 360.264  1.00  0.00    -0.352 N 
HETATM   28  C21 UNL     1       1.414 127.736 360.395  1.00  0.00     0.197 C 
HETATM   29  N4  UNL     1       0.837 126.688 359.635  1.00  0.00    -0.067 NA
HETATM   30  N5  UNL     1       0.554 128.259 361.440  1.00  0.00    -0.067 NA
ATOM     31  H3  UNL     1       2.754 129.001 360.932  1.00  0.00     0.162 HD
ENDBRANCH  22  27
ENDBRANCH  20  22
ENDBRANCH   1  19
BRANCH   1  32
HETATM   32  C22 UNL     1       7.638 129.430 357.502  1.00  0.00    -0.038 C 
HETATM   33  C23 UNL     1       7.947 128.450 356.370  1.00  0.00     0.047 C 
BRANCH  32  34
HETATM   34  C24 UNL     1       6.885 130.579 356.973  1.00  0.00     0.033 C 
HETATM   35  C25 UNL     1       6.912 131.817 357.846  1.00  0.00     0.010 C 
ENDBRANCH  32  34
ENDBRANCH   1  32
TORSDOF 12
ENDMDL
MODEL 4
REMARK VINA RESULT: -7.970158071      1.092      1.461
REMARK  12 active torsions:
REMARK  status: ('A' for Active; 'I' for Inactive)
REMARK    1  A    between atoms: C2_2  and  C3_3 
REMARK    2  A    between atoms: C3_3  and  C5_5 
REMARK    3  A    between atoms: C5_5  and  C6_6 
REMARK    4  A    between atoms: C5_5  and  N1_14 
REMARK       I    between atoms: N1_14  and  C13_16 
REMARK    5  A    between atoms: C13_16  and  C14_18 
REMARK    6  A    between atoms: C14_18  and  N2_19 
REMARK    7  A    between atoms: C14_18  and  C22_32 
REMARK       I    between atoms: N2_19  and  C15_20 
REMARK    8  A    between atoms: C15_20  and  C16_22 
REMARK    9  A    between atoms: C16_22  and  C17_23 
REMARK   10  A    between atoms: C16_22  and  N3_27 
REMARK   11  A    between atoms: C17_23  and  C18_24 
REMARK   12  A    between atoms: C22_32  and  C24_34 
ROOT
HETATM    1  C14 UNL     1       5.876 129.794 360.070  1.00  0.00     0.180 C 
ENDROOT
BRANCH   1   2
HETATM    2  C13 UNL     1       7.234 129.675 360.806  1.00  0.00     0.283 C 
HETATM    3  N1  UNL     1       8.418 130.276 360.398  1.00  0.00    -0.347 N 
ATOM      4  H1  UNL     1       8.436 130.840 359.548  1.00  0.00     0.163 HD
HETATM    5  O1  UNL     1       7.243 128.978 361.865  1.00  0.00    -0.265 OA
BRANCH   3   6
HETATM    6  C5  UNL     1       9.663 130.098 361.200  1.00  0.00     0.112 C 
BRANCH   6   7
HETATM    7  C3  UNL     1      10.797 130.541 360.401  1.00  0.00     0.008 C 
HETATM    8  C4  UNL     1      10.372 130.732 358.962  1.00  0.00     0.012 C 
BRANCH   7   9
HETATM    9  C2  UNL     1      11.960 129.572 360.360  1.00  0.00     0.002 C 
HETATM   10  C1  UNL     1      13.277 130.264 360.166  1.00  0.00     0.005 C 
ENDBRANCH   7   9
ENDBRANCH   6   7
BRANCH   6  11
HETATM   11  C6  UNL     1       9.454 130.775 362.487  1.00  0.00     0.008 C 
HETATM   12  C7  UNL     1      10.277 131.223 363.373  1.00  0.00    -0.036 C 
HETATM   13  C8  UNL     1       9.864 131.881 364.612  1.00  0.00    -0.058 C 
HETATM   14  C12 UNL     1      11.748 131.203 363.422  1.00  0.00     0.119 C 
HETATM   15  C9  UNL     1       8.487 131.843 365.227  1.00  0.00     0.048 C 
HETATM   16  C10 UNL     1      10.873 132.532 365.137  1.00  0.00    -0.018 C 
HETATM   17  C11 UNL     1      12.105 132.404 364.331  1.00  0.00     0.052 C 
HETATM   18 CL1  UNL     1      12.433 129.779 364.216  1.00  0.00    -0.120 Cl
ENDBRANCH   6  11
ENDBRANCH   3   6
ENDBRANCH   1   2
BRANCH   1  19
HETATM   19  N2  UNL     1       5.937 130.412 358.908  1.00  0.00    -0.363 NA
HETATM   20  C15 UNL     1       6.004 131.088 357.653  1.00  0.00     0.315 C 
HETATM   21  O2  UNL     1       6.294 132.292 357.582  1.00  0.00    -0.255 OA
BRANCH  20  22
HETATM   22  C16 UNL     1       5.721 130.405 356.333  1.00  0.00     0.191 C 
BRANCH  22  23
HETATM   23  C17 UNL     1       5.847 128.947 356.385  1.00  0.00     0.040 C 
BRANCH  23  24
HETATM   24  C18 UNL     1       4.785 128.091 355.821  1.00  0.00    -0.020 C 
HETATM   25  C19 UNL     1       5.119 127.388 354.550  1.00  0.00     0.009 C 
HETATM   26  C20 UNL     1       3.445 128.800 355.699  1.00  0.00     0.009 C 
ENDBRANCH  23  24
ENDBRANCH  22  23
BRANCH  22  27
HETATM   27  N3  UNL     1       6.566 131.046 355.377  1.00  0.00    -0.352 N 
HETATM   28  C21 UNL     1       6.391 131.339 354.163  1.00  0.00     0.197 C 
HETATM   29  N4  UNL     1       5.246 131.103 353.362  1.00  0.00    -0.067 NA
HETATM   30  N5  UNL     1       7.483 131.992 353.465  1.00  0.00    -0.067 NA
ATOM     31  H3  UNL     1       7.478 131.318 355.744  1.00  0.00     0.162 HD
ENDBRANCH  22  27
ENDBRANCH  20  22
ENDBRANCH   1  19
BRANCH   1  32
HETATM   32  C22 UNL     1       5.066 128.654 360.488  1.00  0.00    -0.038 C 
HETATM   33  C23 UNL     1       4.021 129.057 361.528  1.00  0.00     0.047 C 
BRANCH  32  34
HETATM   34  C24 UNL     1       4.482 127.681 359.549  1.00  0.00     0.033 C 
HETATM   35  C25 UNL     1       2.992 127.828 359.320  1.00  0.00     0.010 C 
ENDBRANCH  32  34
ENDBRANCH   1  32
TORSDOF 12
ENDMDL
MODEL 5
REMARK VINA RESULT: -7.956683173      1.545      2.288
REMARK  12 active torsions:
REMARK  status: ('A' for Active; 'I' for Inactive)
REMARK    1  A    between atoms: C2_2  and  C3_3 
REMARK    2  A    between atoms: C3_3  and  C5_5 
REMARK    3  A    between atoms: C5_5  and  C6_6 
REMARK    4  A    between atoms: C5_5  and  N1_14 
REMARK       I    between atoms: N1_14  and  C13_16 
REMARK    5  A    between atoms: C13_16  and  C14_18 
REMARK    6  A    between atoms: C14_18  and  N2_19 
REMARK    7  A    between atoms: C14_18  and  C22_32 
REMARK       I    between atoms: N2_19  and  C15_20 
REMARK    8  A    between atoms: C15_20  and  C16_22 
REMARK    9  A    between atoms: C16_22  and  C17_23 
REMARK   10  A    between atoms: C16_22  and  N3_27 
REMARK   11  A    between atoms: C17_23  and  C18_24 
REMARK   12  A    between atoms: C22_32  and  C24_34 
ROOT
HETATM    1  C14 UNL     1       6.361 129.201 359.146  1.00  0.00     0.180 C 
ENDROOT
BRANCH   1   2
HETATM    2  C13 UNL     1       7.669 129.168 359.977  1.00  0.00     0.283 C 
HETATM    3  N1  UNL     1       8.382 130.287 360.387  1.00  0.00    -0.347 N 
ATOM      4  H1  UNL     1       8.055 131.220 360.134  1.00  0.00     0.163 HD
HETATM    5  O1  UNL     1       8.100 128.021 360.306  1.00  0.00    -0.265 OA
BRANCH   3   6
HETATM    6  C5  UNL     1       9.624 130.128 361.198  1.00  0.00     0.112 C 
BRANCH   6   7
HETATM    7  C3  UNL     1      10.754 130.605 360.414  1.00  0.00     0.008 C 
HETATM    8  C4  UNL     1      10.316 130.882 358.992  1.00  0.00     0.012 C 
BRANCH   7   9
HETATM    9  C2  UNL     1      11.906 129.628 360.305  1.00  0.00     0.002 C 
HETATM   10  C1  UNL     1      13.227 130.318 360.125  1.00  0.00     0.005 C 
ENDBRANCH   7   9
ENDBRANCH   6   7
BRANCH   6  11
HETATM   11  C6  UNL     1       9.389 130.785 362.491  1.00  0.00     0.008 C 
HETATM   12  C7  UNL     1      10.195 131.219 363.400  1.00  0.00    -0.036 C 
HETATM   13  C8  UNL     1       9.757 131.858 364.640  1.00  0.00    -0.058 C 
HETATM   14  C12 UNL     1      11.664 131.199 363.476  1.00  0.00     0.119 C 
HETATM   15  C9  UNL     1       8.369 131.810 365.228  1.00  0.00     0.048 C 
HETATM   16  C10 UNL     1      10.756 132.502 365.194  1.00  0.00    -0.018 C 
HETATM   17  C11 UNL     1      12.003 132.387 364.410  1.00  0.00     0.052 C 
HETATM   18 CL1  UNL     1      12.335 129.763 364.262  1.00  0.00    -0.120 Cl
ENDBRANCH   6  11
ENDBRANCH   3   6
ENDBRANCH   1   2
BRANCH   1  19
HETATM   19  N2  UNL     1       6.538 129.411 357.858  1.00  0.00    -0.363 NA
HETATM   20  C15 UNL     1       6.735 129.633 356.462  1.00  0.00     0.315 C 
HETATM   21  O2  UNL     1       7.531 128.947 355.804  1.00  0.00    -0.255 OA
BRANCH  20  22
HETATM   22  C16 UNL     1       6.008 130.711 355.689  1.00  0.00     0.191 C 
BRANCH  22  23
HETATM   23  C17 UNL     1       6.167 132.052 356.255  1.00  0.00     0.040 C 
BRANCH  23  24
HETATM   24  C18 UNL     1       6.104 133.238 355.379  1.00  0.00    -0.020 C 
HETATM   25  C19 UNL     1       4.798 133.956 355.343  1.00  0.00     0.009 C 
HETATM   26  C20 UNL     1       6.600 132.968 353.966  1.00  0.00     0.009 C 
ENDBRANCH  23  24
ENDBRANCH  22  23
BRANCH  22  27
HETATM   27  N3  UNL     1       4.656 130.264 355.581  1.00  0.00    -0.352 N 
HETATM   28  C21 UNL     1       3.909 130.076 354.582  1.00  0.00     0.197 C 
HETATM   29  N4  UNL     1       4.218 130.265 353.211  1.00  0.00    -0.067 NA
HETATM   30  N5  UNL     1       2.555 129.618 354.830  1.00  0.00    -0.067 NA
ATOM     31  H3  UNL     1       4.212 130.058 356.476  1.00  0.00     0.162 HD
ENDBRANCH  22  27
ENDBRANCH  20  22
ENDBRANCH   1  19
BRANCH   1  32
HETATM   32  C22 UNL     1       5.397 128.350 359.837  1.00  0.00    -0.038 C 
HETATM   33  C23 UNL     1       4.749 129.076 361.016  1.00  0.00     0.047 C 
BRANCH  32  34
HETATM   34  C24 UNL     1       4.390 127.530 359.144  1.00  0.00     0.033 C 
HETATM   35  C25 UNL     1       3.009 127.551 359.767  1.00  0.00     0.010 C 
ENDBRANCH  32  34
ENDBRANCH   1  32
TORSDOF 12
ENDMDL
