MODEL 1
REMARK VINA RESULT: -8.324609616      0.000      0.000
REMARK  12 active torsions:
REMARK  status: ('A' for Active; 'I' for Inactive)
REMARK    1  A    between atoms: C2_2  and  C3_3 
REMARK    2  A    between atoms: C3_3  and  N1_4 
REMARK       I    between atoms: N1_4  and  C4_6 
REMARK       I    between atoms: C4_6  and  N5_28 
REMARK    3  A    between atoms: N2_7  and  C5_9 
REMARK    4  A    between atoms: C5_9  and  C6_10 
REMARK    5  A    between atoms: C6_10  and  C7_11 
REMARK    6  A    between atoms: N3_12  and  C8_14 
REMARK    7  A    between atoms: N5_28  and  C19_30 
REMARK    8  A    between atoms: C19_30  and  C20_31 
REMARK    9  A    between atoms: C20_31  and  C21_32 
REMARK   10  A    between atoms: C21_32  and  C22_33 
REMARK   11  A    between atoms: C22_33  and  C23_34 
REMARK   12  A    between atoms: C23_34  and  O1_35 
ROOT
HETATM    1  C5  UNL     1       9.094 130.836 357.789  1.00  0.00     0.143 C 
ENDROOT
BRANCH   1   2
HETATM    2  N2  UNL     1       7.898 131.258 357.155  1.00  0.00    -0.226 N 
HETATM    3  C4  UNL     1       6.720 131.346 357.581  1.00  0.00     0.673 C 
HETATM    4  N1  UNL     1       6.257 131.024 358.893  1.00  0.00    -0.202 N 
HETATM    5  N5  UNL     1       5.710 131.824 356.667  1.00  0.00    -0.226 N 
ATOM      6  H1  UNL     1       6.669 131.512 359.688  1.00  0.00     0.183 HD
ATOM      7  H5  UNL     1       5.028 131.185 356.258  1.00  0.00     0.177 HD
ATOM      8  H2  UNL     1       8.015 131.540 356.182  1.00  0.00     0.177 HD
BRANCH   4   9
HETATM    9  C3  UNL     1       5.242 130.048 359.140  1.00  0.00     0.105 C 
BRANCH   9  10
HETATM   10  C2  UNL     1       5.439 129.155 360.265  1.00  0.00     0.007 C 
HETATM   11  C1  UNL     1       6.329 129.328 361.219  1.00  0.00     0.012 C 
ENDBRANCH   9  10
ENDBRANCH   4   9
BRANCH   5  12
HETATM   12  C19 UNL     1       5.691 133.219 356.352  1.00  0.00     0.138 C 
BRANCH  12  13
HETATM   13  C20 UNL     1       5.111 133.412 354.973  1.00  0.00     0.020 C 
BRANCH  13  14
HETATM   14  C21 UNL     1       3.939 134.329 355.052  1.00  0.00     0.004 C 
BRANCH  14  15
HETATM   15  C22 UNL     1       4.298 135.729 354.616  1.00  0.00     0.026 C 
BRANCH  15  16
HETATM   16  C23 UNL     1       3.529 136.686 355.521  1.00  0.00     0.164 C 
BRANCH  16  17
HETATM   17  O1  UNL     1       3.500 136.219 356.835  1.00  0.00    -0.401 OA
ATOM     18  H1  UNL     1       3.831 136.874 357.438  1.00  0.00     0.209 HD
ENDBRANCH  16  17
ENDBRANCH  15  16
ENDBRANCH  14  15
ENDBRANCH  13  14
ENDBRANCH  12  13
ENDBRANCH   5  12
ENDBRANCH   1   2
BRANCH   1  19
HETATM   19  C6  UNL     1       9.203 129.366 358.026  1.00  0.00     0.065 C 
BRANCH  19  20
HETATM   20  C7  UNL     1       9.729 129.113 359.451  1.00  0.00     0.063 C 
HETATM   21  N3  UNL     1      10.595 130.032 359.930  1.00  0.00    -0.368 N 
ATOM     22  H3  UNL     1      10.675 130.789 359.252  1.00  0.00     0.165 HD
BRANCH  21  23
HETATM   23  C8  UNL     1      11.318 130.283 360.886  1.00  0.00     0.059 A 
HETATM   24  C9  UNL     1      12.711 130.461 360.587  1.00  0.00     0.053 A 
HETATM   25 BR1  UNL     1      13.272 130.337 358.776  1.00  0.00    -0.047 Br
HETATM   26  C10 UNL     1      13.590 130.722 361.589  1.00  0.00     0.109 A 
HETATM   27  N4  UNL     1      13.171 130.816 362.853  1.00  0.00    -0.367 N 
HETATM   28  C11 UNL     1      11.892 130.657 363.149  1.00  0.00     0.018 A 
ATOM     29  H4  UNL     1      13.842 131.012 363.596  1.00  0.00     0.165 HD
HETATM   30  C12 UNL     1      10.916 130.386 362.178  1.00  0.00    -0.007 A 
HETATM   31  C18 UNL     1      11.373 130.738 364.561  1.00  0.00     0.066 C 
HETATM   32  C13 UNL     1       9.560 130.269 362.696  1.00  0.00     0.044 C 
HETATM   33  C14 UNL     1       9.336 131.605 363.473  1.00  0.00     0.014 C 
HETATM   34  C15 UNL     1      10.269 131.734 364.631  1.00  0.00    -0.042 C 
HETATM   35  C16 UNL     1      10.911 133.123 364.571  1.00  0.00     0.015 C 
HETATM   36  C17 UNL     1       9.524 131.564 365.944  1.00  0.00     0.015 C 
ENDBRANCH  21  23
ENDBRANCH  19  20
ENDBRANCH   1  19
TORSDOF 12
ENDMDL
MODEL 2
REMARK VINA RESULT: -7.900454751      1.461      1.835
REMARK  12 active torsions:
REMARK  status: ('A' for Active; 'I' for Inactive)
REMARK    1  A    between atoms: C2_2  and  C3_3 
REMARK    2  A    between atoms: C3_3  and  N1_4 
REMARK       I    between atoms: N1_4  and  C4_6 
REMARK       I    between atoms: C4_6  and  N5_28 
REMARK    3  A    between atoms: N2_7  and  C5_9 
REMARK    4  A    between atoms: C5_9  and  C6_10 
REMARK    5  A    between atoms: C6_10  and  C7_11 
REMARK    6  A    between atoms: N3_12  and  C8_14 
REMARK    7  A    between atoms: N5_28  and  C19_30 
REMARK    8  A    between atoms: C19_30  and  C20_31 
REMARK    9  A    between atoms: C20_31  and  C21_32 
REMARK   10  A    between atoms: C21_32  and  C22_33 
REMARK   11  A    between atoms: C22_33  and  C23_34 
REMARK   12  A    between atoms: C23_34  and  O1_35 
ROOT
HETATM    1  C5  UNL     1       9.041 130.983 357.754  1.00  0.00     0.143 C 
ENDROOT
BRANCH   1   2
HETATM    2  N2  UNL     1       7.851 131.373 357.090  1.00  0.00    -0.226 N 
HETATM    3  C4  UNL     1       6.656 131.394 357.474  1.00  0.00     0.673 C 
HETATM    4  N1  UNL     1       6.161 131.008 358.757  1.00  0.00    -0.202 N 
HETATM    5  N5  UNL     1       5.658 131.857 356.540  1.00  0.00    -0.226 N 
ATOM      6  H1  UNL     1       6.522 131.486 359.583  1.00  0.00     0.183 HD
ATOM      7  H5  UNL     1       5.021 131.203 356.085  1.00  0.00     0.177 HD
ATOM      8  H2  UNL     1       7.990 131.692 356.131  1.00  0.00     0.177 HD
BRANCH   4   9
HETATM    9  C3  UNL     1       5.184 129.980 358.935  1.00  0.00     0.105 C 
BRANCH   9  10
HETATM   10  C2  UNL     1       5.416 129.019 359.994  1.00  0.00     0.007 C 
HETATM   11  C1  UNL     1       6.251 129.188 360.999  1.00  0.00     0.012 C 
ENDBRANCH   9  10
ENDBRANCH   4   9
BRANCH   5  12
HETATM   12  C19 UNL     1       5.587 133.260 356.269  1.00  0.00     0.138 C 
BRANCH  12  13
HETATM   13  C20 UNL     1       4.658 133.498 355.106  1.00  0.00     0.020 C 
BRANCH  13  14
HETATM   14  C21 UNL     1       5.451 133.900 353.910  1.00  0.00     0.004 C 
BRANCH  14  15
HETATM   15  C22 UNL     1       5.653 132.741 352.963  1.00  0.00     0.026 C 
BRANCH  15  16
HETATM   16  C23 UNL     1       7.149 132.445 352.938  1.00  0.00     0.164 C 
BRANCH  16  17
HETATM   17  O1  UNL     1       7.513 131.614 353.997  1.00  0.00    -0.401 OA
ATOM     18  H1  UNL     1       7.486 132.082 354.824  1.00  0.00     0.209 HD
ENDBRANCH  16  17
ENDBRANCH  15  16
ENDBRANCH  14  15
ENDBRANCH  13  14
ENDBRANCH  12  13
ENDBRANCH   5  12
ENDBRANCH   1   2
BRANCH   1  19
HETATM   19  C6  UNL     1       9.202 129.514 357.961  1.00  0.00     0.065 C 
BRANCH  19  20
HETATM   20  C7  UNL     1       9.683 129.246 359.399  1.00  0.00     0.063 C 
HETATM   21  N3  UNL     1      10.605 130.107 359.881  1.00  0.00    -0.368 N 
ATOM     22  H3  UNL     1      10.752 130.846 359.193  1.00  0.00     0.165 HD
BRANCH  21  23
HETATM   23  C8  UNL     1      11.327 130.321 360.846  1.00  0.00     0.059 A 
HETATM   24  C9  UNL     1      12.726 130.469 360.560  1.00  0.00     0.053 A 
HETATM   25 BR1  UNL     1      13.297 130.366 358.750  1.00  0.00    -0.047 Br
HETATM   26  C10 UNL     1      13.605 130.687 361.573  1.00  0.00     0.109 A 
HETATM   27  N4  UNL     1      13.179 130.767 362.835  1.00  0.00    -0.367 N 
HETATM   28  C11 UNL     1      11.895 130.635 363.120  1.00  0.00     0.018 A 
ATOM     29  H4  UNL     1      13.850 130.931 363.586  1.00  0.00     0.165 HD
HETATM   30  C12 UNL     1      10.919 130.408 362.137  1.00  0.00    -0.007 A 
HETATM   31  C18 UNL     1      11.368 130.701 364.530  1.00  0.00     0.066 C 
HETATM   32  C13 UNL     1       9.557 130.316 362.644  1.00  0.00     0.044 C 
HETATM   33  C14 UNL     1       9.361 131.642 363.446  1.00  0.00     0.014 C 
HETATM   34  C15 UNL     1      10.289 131.723 364.612  1.00  0.00    -0.042 C 
HETATM   35  C16 UNL     1      10.967 133.096 364.584  1.00  0.00     0.015 C 
HETATM   36  C17 UNL     1       9.531 131.547 365.917  1.00  0.00     0.015 C 
ENDBRANCH  21  23
ENDBRANCH  19  20
ENDBRANCH   1  19
TORSDOF 12
ENDMDL
MODEL 3
REMARK VINA RESULT: -7.820677273      2.349      4.508
REMARK  12 active torsions:
REMARK  status: ('A' for Active; 'I' for Inactive)
REMARK    1  A    between atoms: C2_2  and  C3_3 
REMARK    2  A    between atoms: C3_3  and  N1_4 
REMARK       I    between atoms: N1_4  and  C4_6 
REMARK       I    between atoms: C4_6  and  N5_28 
REMARK    3  A    between atoms: N2_7  and  C5_9 
REMARK    4  A    between atoms: C5_9  and  C6_10 
REMARK    5  A    between atoms: C6_10  and  C7_11 
REMARK    6  A    between atoms: N3_12  and  C8_14 
REMARK    7  A    between atoms: N5_28  and  C19_30 
REMARK    8  A    between atoms: C19_30  and  C20_31 
REMARK    9  A    between atoms: C20_31  and  C21_32 
REMARK   10  A    between atoms: C21_32  and  C22_33 
REMARK   11  A    between atoms: C22_33  and  C23_34 
REMARK   12  A    between atoms: C23_34  and  O1_35 
ROOT
HETATM    1  C5  UNL     1       8.025 131.153 358.277  1.00  0.00     0.143 C 
ENDROOT
BRANCH   1   2
HETATM    2  N2  UNL     1       6.742 130.561 358.389  1.00  0.00    -0.226 N 
HETATM    3  C4  UNL     1       5.934 130.161 357.516  1.00  0.00     0.673 C 
HETATM    4  N1  UNL     1       6.111 130.205 356.099  1.00  0.00    -0.202 N 
HETATM    5  N5  UNL     1       4.686 129.591 357.966  1.00  0.00    -0.226 N 
ATOM      6  H1  UNL     1       6.915 129.724 355.694  1.00  0.00     0.183 HD
ATOM      7  H5  UNL     1       3.812 130.110 357.883  1.00  0.00     0.177 HD
ATOM      8  H2  UNL     1       6.419 130.437 359.349  1.00  0.00     0.177 HD
BRANCH   4   9
HETATM    9  C3  UNL     1       5.214 130.893 355.225  1.00  0.00     0.105 C 
BRANCH   9  10
HETATM   10  C2  UNL     1       5.261 132.341 355.231  1.00  0.00     0.007 C 
HETATM   11  C1  UNL     1       6.361 133.061 355.154  1.00  0.00     0.012 C 
ENDBRANCH   9  10
ENDBRANCH   4   9
BRANCH   5  12
HETATM   12  C19 UNL     1       4.711 128.277 358.532  1.00  0.00     0.138 C 
BRANCH  12  13
HETATM   13  C20 UNL     1       4.787 128.382 360.034  1.00  0.00     0.020 C 
BRANCH  13  14
HETATM   14  C21 UNL     1       3.416 128.274 360.610  1.00  0.00     0.004 C 
BRANCH  14  15
HETATM   15  C22 UNL     1       3.319 128.965 361.948  1.00  0.00     0.026 C 
BRANCH  15  16
HETATM   16  C23 UNL     1       2.509 128.051 362.861  1.00  0.00     0.164 C 
BRANCH  16  17
HETATM   17  O1  UNL     1       1.328 128.670 363.270  1.00  0.00    -0.401 OA
ATOM     18  H1  UNL     1       1.244 128.655 364.216  1.00  0.00     0.209 HD
ENDBRANCH  16  17
ENDBRANCH  15  16
ENDBRANCH  14  15
ENDBRANCH  13  14
ENDBRANCH  12  13
ENDBRANCH   5  12
ENDBRANCH   1   2
BRANCH   1  19
HETATM   19  C6  UNL     1       9.121 130.226 357.869  1.00  0.00     0.065 C 
BRANCH  19  20
HETATM   20  C7  UNL     1       9.780 129.625 359.124  1.00  0.00     0.063 C 
HETATM   21  N3  UNL     1      10.555 130.466 359.841  1.00  0.00    -0.368 N 
ATOM     22  H3  UNL     1      10.488 131.399 359.434  1.00  0.00     0.165 HD
BRANCH  21  23
HETATM   23  C8  UNL     1      11.310 130.513 360.804  1.00  0.00     0.059 A 
HETATM   24  C9  UNL     1      12.713 130.518 360.500  1.00  0.00     0.053 A 
HETATM   25 BR1  UNL     1      13.245 130.499 358.676  1.00  0.00    -0.047 Br
HETATM   26  C10 UNL     1      13.625 130.547 361.507  1.00  0.00     0.109 A 
HETATM   27  N4  UNL     1      13.227 130.572 362.781  1.00  0.00    -0.367 N 
HETATM   28  C11 UNL     1      11.940 130.569 363.083  1.00  0.00     0.018 A 
ATOM     29  H4  UNL     1      13.922 130.592 363.528  1.00  0.00     0.165 HD
HETATM   30  C12 UNL     1      10.931 130.541 362.107  1.00  0.00    -0.007 A 
HETATM   31  C18 UNL     1      11.443 130.580 364.505  1.00  0.00     0.066 C 
HETATM   32  C13 UNL     1       9.575 130.568 362.635  1.00  0.00     0.044 C 
HETATM   33  C14 UNL     1       9.549 131.837 363.545  1.00  0.00     0.014 C 
HETATM   34  C15 UNL     1      10.495 131.712 364.693  1.00  0.00    -0.042 C 
HETATM   35  C16 UNL     1      11.331 132.993 364.761  1.00  0.00     0.015 C 
HETATM   36  C17 UNL     1       9.737 131.519 365.996  1.00  0.00     0.015 C 
ENDBRANCH  21  23
ENDBRANCH  19  20
ENDBRANCH   1  19
TORSDOF 12
ENDMDL
MODEL 4
REMARK VINA RESULT: -7.638503391      1.684      2.117
REMARK  12 active torsions:
REMARK  status: ('A' for Active; 'I' for Inactive)
REMARK    1  A    between atoms: C2_2  and  C3_3 
REMARK    2  A    between atoms: C3_3  and  N1_4 
REMARK       I    between atoms: N1_4  and  C4_6 
REMARK       I    between atoms: C4_6  and  N5_28 
REMARK    3  A    between atoms: N2_7  and  C5_9 
REMARK    4  A    between atoms: C5_9  and  C6_10 
REMARK    5  A    between atoms: C6_10  and  C7_11 
REMARK    6  A    between atoms: N3_12  and  C8_14 
REMARK    7  A    between atoms: N5_28  and  C19_30 
REMARK    8  A    between atoms: C19_30  and  C20_31 
REMARK    9  A    between atoms: C20_31  and  C21_32 
REMARK   10  A    between atoms: C21_32  and  C22_33 
REMARK   11  A    between atoms: C22_33  and  C23_34 
REMARK   12  A    between atoms: C23_34  and  O1_35 
ROOT
HETATM    1  C5  UNL     1       7.559 130.173 357.704  1.00  0.00     0.143 C 
ENDROOT
BRANCH   1   2
HETATM    2  N2  UNL     1       7.050 131.081 356.742  1.00  0.00    -0.226 N 
HETATM    3  C4  UNL     1       5.966 131.097 356.109  1.00  0.00     0.673 C 
HETATM    4  N1  UNL     1       4.904 130.147 356.203  1.00  0.00    -0.202 N 
HETATM    5  N5  UNL     1       5.744 132.184 355.184  1.00  0.00    -0.226 N 
ATOM      6  H1  UNL     1       4.467 129.993 357.112  1.00  0.00     0.183 HD
ATOM      7  H5  UNL     1       5.802 132.035 354.177  1.00  0.00     0.177 HD
ATOM      8  H2  UNL     1       7.675 131.858 356.526  1.00  0.00     0.177 HD
BRANCH   4   9
HETATM    9  C3  UNL     1       4.428 129.401 355.081  1.00  0.00     0.105 C 
BRANCH   9  10
HETATM   10  C2  UNL     1       2.995 129.215 354.967  1.00  0.00     0.007 C 
HETATM   11  C1  UNL     1       2.232 128.649 355.880  1.00  0.00     0.012 C 
ENDBRANCH   9  10
ENDBRANCH   4   9
BRANCH   5  12
HETATM   12  C19 UNL     1       5.441 133.474 355.721  1.00  0.00     0.138 C 
BRANCH  12  13
HETATM   13  C20 UNL     1       4.175 133.994 355.087  1.00  0.00     0.020 C 
BRANCH  13  14
HETATM   14  C21 UNL     1       4.390 135.394 354.623  1.00  0.00     0.004 C 
BRANCH  14  15
HETATM   15  C22 UNL     1       3.491 136.365 355.350  1.00  0.00     0.026 C 
BRANCH  15  16
HETATM   16  C23 UNL     1       4.129 137.744 355.218  1.00  0.00     0.164 C 
BRANCH  16  17
HETATM   17  O1  UNL     1       5.488 137.641 354.923  1.00  0.00    -0.401 OA
ATOM     18  H1  UNL     1       5.627 137.172 354.109  1.00  0.00     0.209 HD
ENDBRANCH  16  17
ENDBRANCH  15  16
ENDBRANCH  14  15
ENDBRANCH  13  14
ENDBRANCH  12  13
ENDBRANCH   5  12
ENDBRANCH   1   2
BRANCH   1  19
HETATM   19  C6  UNL     1       9.041 130.198 357.880  1.00  0.00     0.065 C 
BRANCH  19  20
HETATM   20  C7  UNL     1       9.390 129.903 359.350  1.00  0.00     0.063 C 
HETATM   21  N3  UNL     1      10.537 130.451 359.805  1.00  0.00    -0.368 N 
ATOM     22  H3  UNL     1      10.927 131.045 359.073  1.00  0.00     0.165 HD
BRANCH  21  23
HETATM   23  C8  UNL     1      11.277 130.494 360.779  1.00  0.00     0.059 A 
HETATM   24  C9  UNL     1      12.684 130.500 360.496  1.00  0.00     0.053 A 
HETATM   25 BR1  UNL     1      13.243 130.490 358.679  1.00  0.00    -0.047 Br
HETATM   26  C10 UNL     1      13.581 130.525 361.517  1.00  0.00     0.109 A 
HETATM   27  N4  UNL     1      13.165 130.543 362.785  1.00  0.00    -0.367 N 
HETATM   28  C11 UNL     1      11.873 130.538 363.067  1.00  0.00     0.018 A 
ATOM     29  H4  UNL     1      13.849 130.560 363.541  1.00  0.00     0.165 HD
HETATM   30  C12 UNL     1      10.879 130.515 362.076  1.00  0.00    -0.007 A 
HETATM   31  C18 UNL     1      11.355 130.542 364.482  1.00  0.00     0.066 C 
HETATM   32  C13 UNL     1       9.515 130.539 362.584  1.00  0.00     0.044 C 
HETATM   33  C14 UNL     1       9.475 131.803 363.501  1.00  0.00     0.014 C 
HETATM   34  C15 UNL     1      10.404 131.672 364.662  1.00  0.00    -0.042 C 
HETATM   35  C16 UNL     1      11.238 132.954 364.748  1.00  0.00     0.015 C 
HETATM   36  C17 UNL     1       9.627 131.473 365.952  1.00  0.00     0.015 C 
ENDBRANCH  21  23
ENDBRANCH  19  20
ENDBRANCH   1  19
TORSDOF 12
ENDMDL
MODEL 5
REMARK VINA RESULT: -7.569103520      3.135      4.337
REMARK  12 active torsions:
REMARK  status: ('A' for Active; 'I' for Inactive)
REMARK    1  A    between atoms: C2_2  and  C3_3 
REMARK    2  A    between atoms: C3_3  and  N1_4 
REMARK       I    between atoms: N1_4  and  C4_6 
REMARK       I    between atoms: C4_6  and  N5_28 
REMARK    3  A    between atoms: N2_7  and  C5_9 
REMARK    4  A    between atoms: C5_9  and  C6_10 
REMARK    5  A    between atoms: C6_10  and  C7_11 
REMARK    6  A    between atoms: N3_12  and  C8_14 
REMARK    7  A    between atoms: N5_28  and  C19_30 
REMARK    8  A    between atoms: C19_30  and  C20_31 
REMARK    9  A    between atoms: C20_31  and  C21_32 
REMARK   10  A    between atoms: C21_32  and  C22_33 
REMARK   11  A    between atoms: C22_33  and  C23_34 
REMARK   12  A    between atoms: C23_34  and  O1_35 
ROOT
HETATM    1  C5  UNL     1       8.244 131.044 358.145  1.00  0.00     0.143 C 
ENDROOT
BRANCH   1   2
HETATM    2  N2  UNL     1       7.171 130.806 359.042  1.00  0.00    -0.226 N 
HETATM    3  C4  UNL     1       6.225 129.983 359.002  1.00  0.00     0.673 C 
HETATM    4  N1  UNL     1       5.972 129.016 357.981  1.00  0.00    -0.202 N 
HETATM    5  N5  UNL     1       5.280 129.992 360.094  1.00  0.00    -0.226 N 
ATOM      6  H1  UNL     1       6.693 128.323 357.777  1.00  0.00     0.183 HD
ATOM      7  H5  UNL     1       4.344 130.378 359.974  1.00  0.00     0.177 HD
ATOM      8  H2  UNL     1       7.168 131.411 359.863  1.00  0.00     0.177 HD
BRANCH   4   9
HETATM    9  C3  UNL     1       4.754 128.976 357.234  1.00  0.00     0.105 C 
BRANCH   9  10
HETATM   10  C2  UNL     1       3.903 127.816 357.413  1.00  0.00     0.007 C 
HETATM   11  C1  UNL     1       4.156 126.812 358.227  1.00  0.00     0.012 C 
ENDBRANCH   9  10
ENDBRANCH   4   9
BRANCH   5  12
HETATM   12  C19 UNL     1       5.694 129.443 361.348  1.00  0.00     0.138 C 
BRANCH  12  13
HETATM   13  C20 UNL     1       4.477 129.078 362.159  1.00  0.00     0.020 C 
BRANCH  13  14
HETATM   14  C21 UNL     1       3.423 128.532 361.257  1.00  0.00     0.004 C 
BRANCH  14  15
HETATM   15  C22 UNL     1       2.145 128.243 362.006  1.00  0.00     0.026 C 
BRANCH  15  16
HETATM   16  C23 UNL     1       1.045 128.089 360.961  1.00  0.00     0.164 C 
BRANCH  16  17
HETATM   17  O1  UNL     1      -0.119 128.746 361.358  1.00  0.00    -0.401 OA
ATOM     18  H1  UNL     1       0.036 129.676 361.475  1.00  0.00     0.209 HD
ENDBRANCH  16  17
ENDBRANCH  15  16
ENDBRANCH  14  15
ENDBRANCH  13  14
ENDBRANCH  12  13
ENDBRANCH   5  12
ENDBRANCH   1   2
BRANCH   1  19
HETATM   19  C6  UNL     1       9.141 129.877 357.903  1.00  0.00     0.065 C 
BRANCH  19  20
HETATM   20  C7  UNL     1       9.746 129.407 359.238  1.00  0.00     0.063 C 
HETATM   21  N3  UNL     1      10.558 130.289 359.859  1.00  0.00    -0.368 N 
ATOM     22  H3  UNL     1      10.549 131.164 359.335  1.00  0.00     0.165 HD
BRANCH  21  23
HETATM   23  C8  UNL     1      11.300 130.418 360.824  1.00  0.00     0.059 A 
HETATM   24  C9  UNL     1      12.703 130.495 360.529  1.00  0.00     0.053 A 
HETATM   25 BR1  UNL     1      13.251 130.437 358.710  1.00  0.00    -0.047 Br
HETATM   26  C10 UNL     1      13.602 130.617 361.541  1.00  0.00     0.109 A 
HETATM   27  N4  UNL     1      13.193 130.666 362.810  1.00  0.00    -0.367 N 
HETATM   28  C11 UNL     1      11.905 130.599 363.103  1.00  0.00     0.018 A 
ATOM     29  H4  UNL     1      13.879 130.757 363.560  1.00  0.00     0.165 HD
HETATM   30  C12 UNL     1      10.909 130.473 362.123  1.00  0.00    -0.007 A 
HETATM   31  C18 UNL     1      11.395 130.634 364.520  1.00  0.00     0.066 C 
HETATM   32  C13 UNL     1       9.548 130.439 362.640  1.00  0.00     0.044 C 
HETATM   33  C14 UNL     1       9.439 131.738 363.500  1.00  0.00     0.014 C 
HETATM   34  C15 UNL     1      10.380 131.714 364.658  1.00  0.00    -0.042 C 
HETATM   35  C16 UNL     1      11.139 133.044 364.682  1.00  0.00     0.015 C 
HETATM   36  C17 UNL     1       9.624 131.526 365.963  1.00  0.00     0.015 C 
ENDBRANCH  21  23
ENDBRANCH  19  20
ENDBRANCH   1  19
TORSDOF 12
ENDMDL
