MODEL 1
REMARK VINA RESULT: -8.172634078      0.000      0.000
REMARK  12 active torsions:
REMARK  status: ('A' for Active; 'I' for Inactive)
REMARK    1  A    between atoms: C2_2  and  C3_4 
REMARK    2  A    between atoms: C3_4  and  N1_5 
REMARK    3  A    between atoms: C3_4  and  C11_17 
REMARK       I    between atoms: N1_5  and  C4_7 
REMARK       I    between atoms: C4_7  and  N2_9 
REMARK    4  A    between atoms: N2_9  and  C5_11 
REMARK       I    between atoms: C11_17  and  N3_19 
REMARK    5  A    between atoms: N3_19  and  C12_21 
REMARK    6  A    between atoms: C12_21  and  C13_22 
REMARK    7  A    between atoms: C12_21  and  C17_26 
REMARK    8  A    between atoms: C13_22  and  C14_23 
REMARK       I    between atoms: C17_26  and  N4_28 
REMARK    9  A    between atoms: N4_28  and  C18_30 
REMARK   10  A    between atoms: C18_30  and  C19_31 
REMARK   11  A    between atoms: C19_31  and  C20_32 
REMARK   12  A    between atoms: C20_32  and  C21_33 
ROOT
HETATM    1  C11 UNL     1       8.849 129.053 359.541  1.00  0.00     0.250 C 
HETATM    2  O2  UNL     1       9.022 127.898 360.040  1.00  0.00    -0.270 OA
HETATM    3  N3  UNL     1       7.853 129.863 360.107  1.00  0.00    -0.324 N 
ATOM      4  H3  UNL     1       7.694 130.792 359.714  1.00  0.00     0.169 HD
ENDROOT
BRANCH   1   5
HETATM    5  C3  UNL     1       9.726 129.426 358.404  1.00  0.00     0.218 C 
BRANCH   5   6
HETATM    6  C2  UNL     1      11.158 129.512 358.779  1.00  0.00     0.011 C 
HETATM    7  C1  UNL     1      11.645 130.603 359.336  1.00  0.00     0.029 C 
HETATM    8 BR1  UNL     1      12.275 128.010 358.433  1.00  0.00    -0.054 Br
ENDBRANCH   5   6
BRANCH   5   9
HETATM    9  N1  UNL     1       9.342 130.671 357.803  1.00  0.00    -0.325 N 
HETATM   10  C4  UNL     1       8.200 130.742 356.978  1.00  0.00     0.317 C 
HETATM   11  O1  UNL     1       7.520 129.708 356.780  1.00  0.00    -0.247 OA
HETATM   12  N2  UNL     1       7.793 131.947 356.365  1.00  0.00    -0.339 N 
ATOM     13  H2  UNL     1       8.357 132.782 356.522  1.00  0.00     0.164 HD
ATOM     14  H1  UNL     1       9.897 131.509 357.973  1.00  0.00     0.165 HD
BRANCH  12  15
HETATM   15  C5  UNL     1       6.624 132.060 355.530  1.00  0.00     0.086 C 
HETATM   16  C6  UNL     1       5.741 133.209 355.951  1.00  0.00     0.025 C 
HETATM   17  C7  UNL     1       4.634 133.425 354.987  1.00  0.00     0.002 C 
HETATM   18  C8  UNL     1       4.455 132.372 353.950  1.00  0.00     0.000 C 
HETATM   19  C9  UNL     1       5.727 132.000 353.243  1.00  0.00     0.002 C 
HETATM   20  C10 UNL     1       6.969 132.261 354.060  1.00  0.00     0.025 C 
ENDBRANCH  12  15
ENDBRANCH   5   9
ENDBRANCH   1   5
BRANCH   3  21
HETATM   21  C12 UNL     1       7.039 129.430 361.229  1.00  0.00     0.080 C 
BRANCH  21  22
HETATM   22  C13 UNL     1       5.583 129.501 360.929  1.00  0.00     0.067 C 
BRANCH  22  23
HETATM   23  C14 UNL     1       4.985 128.423 360.124  1.00  0.00    -0.017 C 
HETATM   24  C15 UNL     1       4.804 128.635 358.670  1.00  0.00     0.010 C 
HETATM   25  C16 UNL     1       3.571 128.194 360.694  1.00  0.00     0.010 C 
ENDBRANCH  22  23
ENDBRANCH  21  22
BRANCH  21  26
HETATM   26  C17 UNL     1       7.510 129.865 362.532  1.00  0.00     0.264 C 
HETATM   27  O3  UNL     1       6.692 129.692 363.507  1.00  0.00    -0.266 OA
HETATM   28  N4  UNL     1       8.768 130.462 362.789  1.00  0.00    -0.356 N 
ATOM     29  H4  UNL     1       9.416 130.587 362.012  1.00  0.00     0.162 HD
BRANCH  28  30
HETATM   30  C18 UNL     1       9.168 130.895 364.083  1.00  0.00     0.123 C 
BRANCH  30  31
HETATM   31  C19 UNL     1      10.620 131.124 364.322  1.00  0.00     0.020 C 
BRANCH  31  32
HETATM   32  C20 UNL     1      10.851 132.311 365.225  1.00  0.00     0.001 C 
BRANCH  32  33
HETATM   33  C21 UNL     1      12.148 132.987 364.824  1.00  0.00    -0.004 C 
HETATM   34  C22 UNL     1      13.026 131.964 364.099  1.00  0.00     0.005 C 
ENDBRANCH  32  33
ENDBRANCH  31  32
ENDBRANCH  30  31
ENDBRANCH  28  30
ENDBRANCH  21  26
ENDBRANCH   3  21
TORSDOF 12
ENDMDL
MODEL 2
REMARK VINA RESULT: -8.111377054      2.412      4.303
REMARK  12 active torsions:
REMARK  status: ('A' for Active; 'I' for Inactive)
REMARK    1  A    between atoms: C2_2  and  C3_4 
REMARK    2  A    between atoms: C3_4  and  N1_5 
REMARK    3  A    between atoms: C3_4  and  C11_17 
REMARK       I    between atoms: N1_5  and  C4_7 
REMARK       I    between atoms: C4_7  and  N2_9 
REMARK    4  A    between atoms: N2_9  and  C5_11 
REMARK       I    between atoms: C11_17  and  N3_19 
REMARK    5  A    between atoms: N3_19  and  C12_21 
REMARK    6  A    between atoms: C12_21  and  C13_22 
REMARK    7  A    between atoms: C12_21  and  C17_26 
REMARK    8  A    between atoms: C13_22  and  C14_23 
REMARK       I    between atoms: C17_26  and  N4_28 
REMARK    9  A    between atoms: N4_28  and  C18_30 
REMARK   10  A    between atoms: C18_30  and  C19_31 
REMARK   11  A    between atoms: C19_31  and  C20_32 
REMARK   12  A    between atoms: C20_32  and  C21_33 
ROOT
HETATM    1  C11 UNL     1       7.807 130.571 358.949  1.00  0.00     0.250 C 
HETATM    2  O2  UNL     1       8.632 131.236 358.252  1.00  0.00    -0.270 OA
HETATM    3  N3  UNL     1       8.319 129.789 359.996  1.00  0.00    -0.324 N 
ATOM      4  H3  UNL     1       7.671 129.241 360.562  1.00  0.00     0.169 HD
ENDROOT
BRANCH   1   5
HETATM    5  C3  UNL     1       6.374 130.691 358.580  1.00  0.00     0.218 C 
BRANCH   5   6
HETATM    6  C2  UNL     1       5.591 129.470 358.886  1.00  0.00     0.011 C 
HETATM    7  C1  UNL     1       5.339 128.577 357.948  1.00  0.00     0.029 C 
HETATM    8 BR1  UNL     1       4.956 129.223 360.663  1.00  0.00    -0.054 Br
ENDBRANCH   5   6
BRANCH   5   9
HETATM    9  N1  UNL     1       6.193 131.007 357.192  1.00  0.00    -0.325 N 
HETATM   10  C4  UNL     1       5.872 132.323 356.797  1.00  0.00     0.317 C 
HETATM   11  O1  UNL     1       5.755 133.214 357.669  1.00  0.00    -0.247 OA
HETATM   12  N2  UNL     1       5.680 132.671 355.442  1.00  0.00    -0.339 N 
ATOM     13  H2  UNL     1       5.767 131.938 354.738  1.00  0.00     0.164 HD
ATOM     14  H1  UNL     1       6.295 130.277 356.488  1.00  0.00     0.165 HD
BRANCH  12  15
HETATM   15  C5  UNL     1       5.369 134.007 355.000  1.00  0.00     0.086 C 
HETATM   16  C6  UNL     1       5.664 134.198 353.533  1.00  0.00     0.025 C 
HETATM   17  C7  UNL     1       5.183 135.515 353.048  1.00  0.00     0.002 C 
HETATM   18  C8  UNL     1       4.729 136.471 354.096  1.00  0.00     0.000 C 
HETATM   19  C9  UNL     1       3.771 135.872 355.085  1.00  0.00     0.002 C 
HETATM   20  C10 UNL     1       3.909 134.375 355.226  1.00  0.00     0.025 C 
ENDBRANCH  12  15
ENDBRANCH   5   9
ENDBRANCH   1   5
BRANCH   3  21
HETATM   21  C12 UNL     1       9.737 129.731 360.303  1.00  0.00     0.080 C 
BRANCH  21  22
HETATM   22  C13 UNL     1      10.409 128.581 359.639  1.00  0.00     0.067 C 
BRANCH  22  23
HETATM   23  C14 UNL     1      11.362 128.863 358.553  1.00  0.00    -0.017 C 
HETATM   24  C15 UNL     1      12.488 127.928 358.330  1.00  0.00     0.010 C 
HETATM   25  C16 UNL     1      12.007 130.223 358.887  1.00  0.00     0.010 C 
ENDBRANCH  22  23
ENDBRANCH  21  22
BRANCH  21  26
HETATM   26  C17 UNL     1      10.081 130.047 361.677  1.00  0.00     0.264 C 
HETATM   27  O3  UNL     1       9.104 130.046 362.511  1.00  0.00    -0.266 OA
HETATM   28  N4  UNL     1      11.382 130.359 362.144  1.00  0.00    -0.356 N 
ATOM     29  H4  UNL     1      12.154 130.346 361.479  1.00  0.00     0.162 HD
BRANCH  28  30
HETATM   30  C18 UNL     1      11.658 130.687 363.500  1.00  0.00     0.123 C 
BRANCH  30  31
HETATM   31  C19 UNL     1      12.052 132.089 363.809  1.00  0.00     0.020 C 
BRANCH  31  32
HETATM   32  C20 UNL     1      11.226 132.659 364.936  1.00  0.00     0.001 C 
BRANCH  32  33
HETATM   33  C21 UNL     1      10.295 131.580 365.456  1.00  0.00    -0.004 C 
HETATM   34  C22 UNL     1       8.851 132.020 365.204  1.00  0.00     0.005 C 
ENDBRANCH  32  33
ENDBRANCH  31  32
ENDBRANCH  30  31
ENDBRANCH  28  30
ENDBRANCH  21  26
ENDBRANCH   3  21
TORSDOF 12
ENDMDL
MODEL 3
REMARK VINA RESULT: -8.077159903      2.321      4.071
REMARK  12 active torsions:
REMARK  status: ('A' for Active; 'I' for Inactive)
REMARK    1  A    between atoms: C2_2  and  C3_4 
REMARK    2  A    between atoms: C3_4  and  N1_5 
REMARK    3  A    between atoms: C3_4  and  C11_17 
REMARK       I    between atoms: N1_5  and  C4_7 
REMARK       I    between atoms: C4_7  and  N2_9 
REMARK    4  A    between atoms: N2_9  and  C5_11 
REMARK       I    between atoms: C11_17  and  N3_19 
REMARK    5  A    between atoms: N3_19  and  C12_21 
REMARK    6  A    between atoms: C12_21  and  C13_22 
REMARK    7  A    between atoms: C12_21  and  C17_26 
REMARK    8  A    between atoms: C13_22  and  C14_23 
REMARK       I    between atoms: C17_26  and  N4_28 
REMARK    9  A    between atoms: N4_28  and  C18_30 
REMARK   10  A    between atoms: C18_30  and  C19_31 
REMARK   11  A    between atoms: C19_31  and  C20_32 
REMARK   12  A    between atoms: C20_32  and  C21_33 
ROOT
HETATM    1  C11 UNL     1       7.240 130.676 358.982  1.00  0.00     0.250 C 
HETATM    2  O2  UNL     1       8.104 131.490 358.533  1.00  0.00    -0.270 OA
HETATM    3  N3  UNL     1       7.575 129.935 360.126  1.00  0.00    -0.324 N 
ATOM      4  H3  UNL     1       6.896 129.271 360.497  1.00  0.00     0.169 HD
ENDROOT
BRANCH   1   5
HETATM    5  C3  UNL     1       5.955 130.593 358.244  1.00  0.00     0.218 C 
BRANCH   5   6
HETATM    6  C2  UNL     1       5.332 129.250 358.311  1.00  0.00     0.011 C 
HETATM    7  C1  UNL     1       5.401 128.422 357.286  1.00  0.00     0.029 C 
HETATM    8 BR1  UNL     1       4.429 128.750 359.910  1.00  0.00    -0.054 Br
ENDBRANCH   5   6
BRANCH   5   9
HETATM    9  N1  UNL     1       6.095 130.957 356.862  1.00  0.00    -0.325 N 
HETATM   10  C4  UNL     1       5.797 132.268 356.437  1.00  0.00     0.317 C 
HETATM   11  O1  UNL     1       5.417 133.115 357.278  1.00  0.00    -0.247 OA
HETATM   12  N2  UNL     1       5.917 132.662 355.086  1.00  0.00    -0.339 N 
ATOM     13  H2  UNL     1       6.217 131.965 354.405  1.00  0.00     0.164 HD
ATOM     14  H1  UNL     1       6.411 130.264 356.184  1.00  0.00     0.165 HD
BRANCH  12  15
HETATM   15  C5  UNL     1       5.638 133.996 354.618  1.00  0.00     0.086 C 
HETATM   16  C6  UNL     1       5.824 134.121 353.126  1.00  0.00     0.025 C 
HETATM   17  C7  UNL     1       5.372 135.443 352.630  1.00  0.00     0.002 C 
HETATM   18  C8  UNL     1       5.050 136.458 353.671  1.00  0.00     0.000 C 
HETATM   19  C9  UNL     1       4.145 135.944 354.754  1.00  0.00     0.002 C 
HETATM   20  C10 UNL     1       4.220 134.448 354.942  1.00  0.00     0.025 C 
ENDBRANCH  12  15
ENDBRANCH   5   9
ENDBRANCH   1   5
BRANCH   3  21
HETATM   21  C12 UNL     1       8.853 130.080 360.801  1.00  0.00     0.080 C 
BRANCH  21  22
HETATM   22  C13 UNL     1       9.859 129.097 360.316  1.00  0.00     0.067 C 
BRANCH  22  23
HETATM   23  C14 UNL     1      10.916 129.572 359.409  1.00  0.00    -0.017 C 
HETATM   24  C15 UNL     1      11.727 128.575 358.673  1.00  0.00     0.010 C 
HETATM   25  C16 UNL     1      11.912 130.360 360.282  1.00  0.00     0.010 C 
ENDBRANCH  22  23
ENDBRANCH  21  22
BRANCH  21  26
HETATM   26  C17 UNL     1       8.767 130.354 362.224  1.00  0.00     0.264 C 
HETATM   27  O3  UNL     1       7.848 129.721 362.860  1.00  0.00    -0.266 OA
HETATM   28  N4  UNL     1       9.598 131.254 362.935  1.00  0.00    -0.356 N 
ATOM     29  H4  UNL     1      10.333 131.745 362.426  1.00  0.00     0.162 HD
BRANCH  28  30
HETATM   30  C18 UNL     1       9.453 131.504 364.328  1.00  0.00     0.123 C 
BRANCH  30  31
HETATM   31  C19 UNL     1      10.692 131.642 365.142  1.00  0.00     0.020 C 
BRANCH  31  32
HETATM   32  C20 UNL     1      11.862 130.945 364.491  1.00  0.00     0.001 C 
BRANCH  32  33
HETATM   33  C21 UNL     1      12.889 131.985 364.088  1.00  0.00    -0.004 C 
HETATM   34  C22 UNL     1      12.621 133.267 364.881  1.00  0.00     0.005 C 
ENDBRANCH  32  33
ENDBRANCH  31  32
ENDBRANCH  30  31
ENDBRANCH  28  30
ENDBRANCH  21  26
ENDBRANCH   3  21
TORSDOF 12
ENDMDL
MODEL 4
REMARK VINA RESULT: -7.990436823      2.509      4.613
REMARK  12 active torsions:
REMARK  status: ('A' for Active; 'I' for Inactive)
REMARK    1  A    between atoms: C2_2  and  C3_4 
REMARK    2  A    between atoms: C3_4  and  N1_5 
REMARK    3  A    between atoms: C3_4  and  C11_17 
REMARK       I    between atoms: N1_5  and  C4_7 
REMARK       I    between atoms: C4_7  and  N2_9 
REMARK    4  A    between atoms: N2_9  and  C5_11 
REMARK       I    between atoms: C11_17  and  N3_19 
REMARK    5  A    between atoms: N3_19  and  C12_21 
REMARK    6  A    between atoms: C12_21  and  C13_22 
REMARK    7  A    between atoms: C12_21  and  C17_26 
REMARK    8  A    between atoms: C13_22  and  C14_23 
REMARK       I    between atoms: C17_26  and  N4_28 
REMARK    9  A    between atoms: N4_28  and  C18_30 
REMARK   10  A    between atoms: C18_30  and  C19_31 
REMARK   11  A    between atoms: C19_31  and  C20_32 
REMARK   12  A    between atoms: C20_32  and  C21_33 
ROOT
HETATM    1  C11 UNL     1       8.818 130.415 358.506  1.00  0.00     0.250 C 
HETATM    2  O2  UNL     1       9.310 130.429 357.336  1.00  0.00    -0.270 OA
HETATM    3  N3  UNL     1       9.694 130.186 359.578  1.00  0.00    -0.324 N 
ATOM      4  H3  UNL     1       9.316 130.163 360.525  1.00  0.00     0.169 HD
ENDROOT
BRANCH   1   5
HETATM    5  C3  UNL     1       7.356 130.644 358.617  1.00  0.00     0.218 C 
BRANCH   5   6
HETATM    6  C2  UNL     1       6.650 129.556 359.335  1.00  0.00     0.011 C 
HETATM    7  C1  UNL     1       6.014 128.611 358.670  1.00  0.00     0.029 C 
HETATM    8 BR1  UNL     1       6.682 129.558 361.238  1.00  0.00    -0.054 Br
ENDBRANCH   5   6
BRANCH   5   9
HETATM    9  N1  UNL     1       6.732 130.819 357.336  1.00  0.00    -0.325 N 
HETATM   10  C4  UNL     1       6.427 132.112 356.863  1.00  0.00     0.317 C 
HETATM   11  O1  UNL     1       6.713 133.107 357.568  1.00  0.00    -0.247 OA
HETATM   12  N2  UNL     1       5.808 132.324 355.611  1.00  0.00    -0.339 N 
ATOM     13  H2  UNL     1       5.568 131.509 355.048  1.00  0.00     0.164 HD
ATOM     14  H1  UNL     1       6.507 130.004 356.766  1.00  0.00     0.165 HD
BRANCH  12  15
HETATM   15  C5  UNL     1       5.497 133.631 355.089  1.00  0.00     0.086 C 
HETATM   16  C6  UNL     1       5.837 133.746 353.623  1.00  0.00     0.025 C 
HETATM   17  C7  UNL     1       5.358 135.029 353.053  1.00  0.00     0.002 C 
HETATM   18  C8  UNL     1       4.861 136.035 354.033  1.00  0.00     0.000 C 
HETATM   19  C9  UNL     1       3.877 135.478 355.022  1.00  0.00     0.002 C 
HETATM   20  C10 UNL     1       4.026 133.993 355.248  1.00  0.00     0.025 C 
ENDBRANCH  12  15
ENDBRANCH   5   9
ENDBRANCH   1   5
BRANCH   3  21
HETATM   21  C12 UNL     1      11.120 129.979 359.388  1.00  0.00     0.080 C 
BRANCH  21  22
HETATM   22  C13 UNL     1      11.459 128.541 359.206  1.00  0.00     0.067 C 
BRANCH  22  23
HETATM   23  C14 UNL     1      12.671 128.204 358.441  1.00  0.00    -0.017 C 
HETATM   24  C15 UNL     1      12.525 127.728 357.046  1.00  0.00     0.010 C 
HETATM   25  C16 UNL     1      13.358 127.055 359.205  1.00  0.00     0.010 C 
ENDBRANCH  22  23
ENDBRANCH  21  22
BRANCH  21  26
HETATM   26  C17 UNL     1      11.975 130.802 360.224  1.00  0.00     0.264 C 
HETATM   27  O3  UNL     1      12.746 131.618 359.600  1.00  0.00    -0.266 OA
HETATM   28  N4  UNL     1      12.023 130.758 361.639  1.00  0.00    -0.356 N 
ATOM     29  H4  UNL     1      11.400 130.116 362.127  1.00  0.00     0.162 HD
BRANCH  28  30
HETATM   30  C18 UNL     1      12.901 131.571 362.408  1.00  0.00     0.123 C 
BRANCH  30  31
HETATM   31  C19 UNL     1      12.684 131.629 363.880  1.00  0.00     0.020 C 
BRANCH  31  32
HETATM   32  C20 UNL     1      11.400 130.943 364.277  1.00  0.00     0.001 C 
BRANCH  32  33
HETATM   33  C21 UNL     1      10.618 131.860 365.197  1.00  0.00    -0.004 C 
HETATM   34  C22 UNL     1       9.155 131.870 364.747  1.00  0.00     0.005 C 
ENDBRANCH  32  33
ENDBRANCH  31  32
ENDBRANCH  30  31
ENDBRANCH  28  30
ENDBRANCH  21  26
ENDBRANCH   3  21
TORSDOF 12
ENDMDL
MODEL 5
REMARK VINA RESULT: -7.974288652      2.350      4.152
REMARK  12 active torsions:
REMARK  status: ('A' for Active; 'I' for Inactive)
REMARK    1  A    between atoms: C2_2  and  C3_4 
REMARK    2  A    between atoms: C3_4  and  N1_5 
REMARK    3  A    between atoms: C3_4  and  C11_17 
REMARK       I    between atoms: N1_5  and  C4_7 
REMARK       I    between atoms: C4_7  and  N2_9 
REMARK    4  A    between atoms: N2_9  and  C5_11 
REMARK       I    between atoms: C11_17  and  N3_19 
REMARK    5  A    between atoms: N3_19  and  C12_21 
REMARK    6  A    between atoms: C12_21  and  C13_22 
REMARK    7  A    between atoms: C12_21  and  C17_26 
REMARK    8  A    between atoms: C13_22  and  C14_23 
REMARK       I    between atoms: C17_26  and  N4_28 
REMARK    9  A    between atoms: N4_28  and  C18_30 
REMARK   10  A    between atoms: C18_30  and  C19_31 
REMARK   11  A    between atoms: C19_31  and  C20_32 
REMARK   12  A    between atoms: C20_32  and  C21_33 
ROOT
HETATM    1  C11 UNL     1       7.436 130.732 359.089  1.00  0.00     0.250 C 
HETATM    2  O2  UNL     1       8.255 131.461 358.450  1.00  0.00    -0.270 OA
HETATM    3  N3  UNL     1       7.942 129.947 360.136  1.00  0.00    -0.324 N 
ATOM      4  H3  UNL     1       7.300 129.349 360.656  1.00  0.00     0.169 HD
ENDROOT
BRANCH   1   5
HETATM    5  C3  UNL     1       6.017 130.788 358.657  1.00  0.00     0.218 C 
BRANCH   5   6
HETATM    6  C2  UNL     1       5.263 129.551 358.977  1.00  0.00     0.011 C 
HETATM    7  C1  UNL     1       4.826 129.326 360.201  1.00  0.00     0.029 C 
HETATM    8 BR1  UNL     1       4.944 128.299 357.580  1.00  0.00    -0.054 Br
ENDBRANCH   5   6
BRANCH   5   9
HETATM    9  N1  UNL     1       5.884 131.045 357.251  1.00  0.00    -0.325 N 
HETATM   10  C4  UNL     1       5.684 132.361 356.784  1.00  0.00     0.317 C 
HETATM   11  O1  UNL     1       5.632 133.304 357.608  1.00  0.00    -0.247 OA
HETATM   12  N2  UNL     1       5.543 132.654 355.410  1.00  0.00    -0.339 N 
ATOM     13  H2  UNL     1       5.576 131.881 354.746  1.00  0.00     0.164 HD
ATOM     14  H1  UNL     1       5.933 130.274 356.587  1.00  0.00     0.165 HD
BRANCH  12  15
HETATM   15  C5  UNL     1       5.355 133.987 354.895  1.00  0.00     0.086 C 
HETATM   16  C6  UNL     1       5.661 134.069 353.420  1.00  0.00     0.025 C 
HETATM   17  C7  UNL     1       5.301 135.396 352.864  1.00  0.00     0.002 C 
HETATM   18  C8  UNL     1       4.942 136.446 353.857  1.00  0.00     0.000 C 
HETATM   19  C9  UNL     1       3.936 135.993 354.876  1.00  0.00     0.002 C 
HETATM   20  C10 UNL     1       3.936 134.500 355.099  1.00  0.00     0.025 C 
ENDBRANCH  12  15
ENDBRANCH   5   9
ENDBRANCH   1   5
BRANCH   3  21
HETATM   21  C12 UNL     1       9.346 129.955 360.507  1.00  0.00     0.080 C 
BRANCH  21  22
HETATM   22  C13 UNL     1      10.100 128.836 359.878  1.00  0.00     0.067 C 
BRANCH  22  23
HETATM   23  C14 UNL     1      11.456 129.108 359.373  1.00  0.00    -0.017 C 
HETATM   24  C15 UNL     1      11.771 130.463 358.867  1.00  0.00     0.010 C 
HETATM   25  C16 UNL     1      11.670 128.155 358.179  1.00  0.00     0.010 C 
ENDBRANCH  22  23
ENDBRANCH  21  22
BRANCH  21  26
HETATM   26  C17 UNL     1       9.612 130.288 361.895  1.00  0.00     0.264 C 
HETATM   27  O3  UNL     1      10.850 130.306 362.238  1.00  0.00    -0.266 OA
HETATM   28  N4  UNL     1       8.627 130.575 362.870  1.00  0.00    -0.356 N 
ATOM     29  H4  UNL     1       7.647 130.570 362.589  1.00  0.00     0.162 HD
BRANCH  28  30
HETATM   30  C18 UNL     1       8.942 130.870 364.225  1.00  0.00     0.123 C 
BRANCH  30  31
HETATM   31  C19 UNL     1       9.579 132.184 364.521  1.00  0.00     0.020 C 
BRANCH  31  32
HETATM   32  C20 UNL     1      10.784 132.025 365.415  1.00  0.00     0.001 C 
BRANCH  32  33
HETATM   33  C21 UNL     1      11.877 132.960 364.934  1.00  0.00    -0.004 C 
HETATM   34  C22 UNL     1      12.956 132.128 364.236  1.00  0.00     0.005 C 
ENDBRANCH  32  33
ENDBRANCH  31  32
ENDBRANCH  30  31
ENDBRANCH  28  30
ENDBRANCH  21  26
ENDBRANCH   3  21
TORSDOF 12
ENDMDL
