MODEL 1
REMARK VINA RESULT: -7.491911032      0.000      0.000
REMARK  15 active torsions:
REMARK  status: ('A' for Active; 'I' for Inactive)
REMARK    1  A    between atoms: C2_2  and  C3_3 
REMARK    2  A    between atoms: C3_3  and  C4_4 
REMARK    3  A    between atoms: C4_4  and  C5_5 
REMARK    4  A    between atoms: C5_5  and  O1_6 
REMARK    5  A    between atoms: O1_6  and  C6_7 
REMARK    6  A    between atoms: C6_7  and  N1_9 
REMARK    7  A    between atoms: C6_7  and  C8_13 
REMARK    8  A    between atoms: C8_13  and  C9_14 
REMARK    9  A    between atoms: C9_14  and  N2_15 
REMARK   10  A    between atoms: C9_14  and  C18_30 
REMARK       I    between atoms: N2_15  and  C10_17 
REMARK       I    between atoms: N4_19  and  C11_21 
REMARK       I    between atoms: C11_21  and  N5_23 
REMARK   11  A    between atoms: N5_23  and  C12_24 
REMARK   12  A    between atoms: N5_23  and  C14_26 
REMARK   13  A    between atoms: C18_30  and  O3_31 
REMARK   14  A    between atoms: C18_30  and  N6_33 
REMARK   15  A    between atoms: N6_33  and  C19_35 
ROOT
HETATM    1  C9  UNL     1       7.591 129.812 360.542  1.00  0.00     0.163 C 
ENDROOT
BRANCH   1   2
HETATM    2  C8  UNL     1       6.252 130.060 360.054  1.00  0.00     0.101 C 
BRANCH   2   3
HETATM    3  C6  UNL     1       5.716 129.535 358.791  1.00  0.00     0.222 C 
HETATM    4  C7  UNL     1       5.879 130.194 357.508  1.00  0.00     0.078 C 
BRANCH   3   5
HETATM    5  O1  UNL     1       4.347 129.218 359.018  1.00  0.00    -0.355 OA
BRANCH   5   6
HETATM    6  C5  UNL     1       4.158 128.000 359.607  1.00  0.00     0.171 C 
BRANCH   6   7
HETATM    7  C4  UNL     1       3.077 128.029 360.625  1.00  0.00     0.026 C 
BRANCH   7   8
HETATM    8  C3  UNL     1       3.476 128.618 361.928  1.00  0.00     0.002 C 
BRANCH   8   9
HETATM    9  C2  UNL     1       2.787 128.033 363.106  1.00  0.00    -0.004 C 
HETATM   10  C1  UNL     1       1.279 128.257 362.890  1.00  0.00     0.005 C 
ENDBRANCH   8   9
ENDBRANCH   7   8
ENDBRANCH   6   7
ENDBRANCH   5   6
ENDBRANCH   3   5
BRANCH   3  11
HETATM   11  N1  UNL     1       6.399 128.181 358.651  1.00  0.00    -0.047 N 
ATOM     12  H13 UNL     1       6.030 127.461 359.272  1.00  0.00     0.278 HD
ATOM     13  H12 UNL     1       6.188 127.697 357.779  1.00  0.00     0.278 HD
ATOM     14  H11 UNL     1       7.389 128.383 358.788  1.00  0.00     0.278 HD
ENDBRANCH   3  11
ENDBRANCH   2   3
ENDBRANCH   1   2
BRANCH   1  15
HETATM   15  N2  UNL     1       8.582 130.597 359.701  1.00  0.00    -0.352 N 
HETATM   16  C10 UNL     1       9.591 129.851 359.075  1.00  0.00     0.192 C 
HETATM   17  N3  UNL     1       9.323 129.282 357.800  1.00  0.00    -0.063 NA
HETATM   18  N4  UNL     1      10.726 129.711 359.670  1.00  0.00    -0.283 N 
HETATM   19  C11 UNL     1      11.722 128.947 358.999  1.00  0.00     0.325 C 
ATOM     20  H4  UNL     1      10.904 130.130 360.583  1.00  0.00     0.173 HD
HETATM   21  O2  UNL     1      11.344 127.940 358.382  1.00  0.00    -0.247 OA
HETATM   22  N5  UNL     1      13.097 129.303 359.018  1.00  0.00    -0.326 N 
ATOM     23  H2  UNL     1       8.518 131.609 359.597  1.00  0.00     0.163 HD
BRANCH  22  24
HETATM   24  C12 UNL     1      13.495 130.487 359.760  1.00  0.00     0.124 C 
HETATM   25  C13 UNL     1      14.032 130.127 361.130  1.00  0.00     0.026 C 
ENDBRANCH  22  24
BRANCH  22  26
HETATM   26  C14 UNL     1      14.012 128.471 358.302  1.00  0.00     0.026 C 
HETATM   27  C15 UNL     1      13.666 128.279 356.857  1.00  0.00     0.037 C 
HETATM   28  C16 UNL     1      14.044 127.120 359.006  1.00  0.00     0.037 C 
HETATM   29  C17 UNL     1      15.384 129.111 358.363  1.00  0.00     0.037 C 
ENDBRANCH  22  26
ENDBRANCH   1  15
BRANCH   1  30
HETATM   30  C18 UNL     1       8.012 130.161 361.879  1.00  0.00     0.135 C 
BRANCH  30  31
HETATM   31  O3  UNL     1       7.428 129.333 362.785  1.00  0.00    -0.348 OA
ATOM     32  H3  UNL     1       6.593 129.689 363.065  1.00  0.00     0.219 HD
ENDBRANCH  30  31
BRANCH  30  33
HETATM   33  N6  UNL     1       8.838 131.089 362.486  1.00  0.00    -0.368 N 
ATOM     34  H6  UNL     1       8.784 132.074 362.224  1.00  0.00     0.161 HD
BRANCH  33  35
HETATM   35  C19 UNL     1       9.811 130.643 363.525  1.00  0.00     0.083 C 
HETATM   36  C20 UNL     1      11.215 130.688 362.996  1.00  0.00     0.025 C 
HETATM   37  C21 UNL     1      12.140 130.653 364.216  1.00  0.00     0.002 C 
HETATM   38  C22 UNL     1      12.146 132.056 364.779  1.00  0.00     0.000 C 
HETATM   39  C23 UNL     1      10.746 132.603 364.758  1.00  0.00     0.002 C 
HETATM   40  C24 UNL     1       9.699 131.498 364.740  1.00  0.00     0.025 C 
ENDBRANCH  33  35
ENDBRANCH  30  33
ENDBRANCH   1  30
TORSDOF 15
ENDMDL
MODEL 2
REMARK VINA RESULT: -7.465694517      6.854      9.645
REMARK  15 active torsions:
REMARK  status: ('A' for Active; 'I' for Inactive)
REMARK    1  A    between atoms: C2_2  and  C3_3 
REMARK    2  A    between atoms: C3_3  and  C4_4 
REMARK    3  A    between atoms: C4_4  and  C5_5 
REMARK    4  A    between atoms: C5_5  and  O1_6 
REMARK    5  A    between atoms: O1_6  and  C6_7 
REMARK    6  A    between atoms: C6_7  and  N1_9 
REMARK    7  A    between atoms: C6_7  and  C8_13 
REMARK    8  A    between atoms: C8_13  and  C9_14 
REMARK    9  A    between atoms: C9_14  and  N2_15 
REMARK   10  A    between atoms: C9_14  and  C18_30 
REMARK       I    between atoms: N2_15  and  C10_17 
REMARK       I    between atoms: N4_19  and  C11_21 
REMARK       I    between atoms: C11_21  and  N5_23 
REMARK   11  A    between atoms: N5_23  and  C12_24 
REMARK   12  A    between atoms: N5_23  and  C14_26 
REMARK   13  A    between atoms: C18_30  and  O3_31 
REMARK   14  A    between atoms: C18_30  and  N6_33 
REMARK   15  A    between atoms: N6_33  and  C19_35 
ROOT
HETATM    1  C9  UNL     1       6.119 132.257 354.706  1.00  0.00     0.163 C 
ENDROOT
BRANCH   1   2
HETATM    2  C8  UNL     1       6.030 131.023 355.456  1.00  0.00     0.101 C 
BRANCH   2   3
HETATM    3  C6  UNL     1       6.893 130.676 356.592  1.00  0.00     0.222 C 
HETATM    4  C7  UNL     1       7.413 129.341 356.834  1.00  0.00     0.078 C 
BRANCH   3   5
HETATM    5  O1  UNL     1       6.267 131.186 357.764  1.00  0.00    -0.355 OA
BRANCH   5   6
HETATM    6  C5  UNL     1       5.628 130.229 358.502  1.00  0.00     0.171 C 
BRANCH   6   7
HETATM    7  C4  UNL     1       5.910 130.360 359.955  1.00  0.00     0.026 C 
BRANCH   7   8
HETATM    8  C3  UNL     1       5.648 129.130 360.745  1.00  0.00     0.002 C 
BRANCH   8   9
HETATM    9  C2  UNL     1       4.363 128.458 360.432  1.00  0.00    -0.004 C 
HETATM   10  C1  UNL     1       3.448 128.666 361.652  1.00  0.00     0.005 C 
ENDBRANCH   8   9
ENDBRANCH   7   8
ENDBRANCH   6   7
ENDBRANCH   5   6
ENDBRANCH   3   5
BRANCH   3  11
HETATM   11  N1  UNL     1       8.113 131.566 356.397  1.00  0.00    -0.047 N 
ATOM     12  H13 UNL     1       8.619 131.774 357.257  1.00  0.00     0.278 HD
ATOM     13  H12 UNL     1       8.888 131.110 355.916  1.00  0.00     0.278 HD
ATOM     14  H11 UNL     1       7.750 132.389 355.916  1.00  0.00     0.278 HD
ENDBRANCH   3  11
ENDBRANCH   2   3
ENDBRANCH   1   2
BRANCH   1  15
HETATM   15  N2  UNL     1       5.831 131.973 353.242  1.00  0.00    -0.352 N 
HETATM   16  C10 UNL     1       6.866 132.260 352.339  1.00  0.00     0.192 C 
HETATM   17  N3  UNL     1       7.848 131.262 352.094  1.00  0.00    -0.063 NA
HETATM   18  N4  UNL     1       6.889 133.411 351.760  1.00  0.00    -0.283 N 
HETATM   19  C11 UNL     1       7.956 133.660 350.852  1.00  0.00     0.325 C 
ATOM     20  H4  UNL     1       6.173 134.114 351.944  1.00  0.00     0.173 HD
HETATM   21  O2  UNL     1       9.075 133.223 351.158  1.00  0.00    -0.247 OA
HETATM   22  N5  UNL     1       7.772 134.375 349.639  1.00  0.00    -0.326 N 
ATOM     23  H2  UNL     1       4.936 131.595 352.932  1.00  0.00     0.163 HD
BRANCH  22  24
HETATM   24  C12 UNL     1       6.445 134.876 349.324  1.00  0.00     0.124 C 
HETATM   25  C13 UNL     1       5.613 133.830 348.610  1.00  0.00     0.026 C 
ENDBRANCH  22  24
BRANCH  22  26
HETATM   26  C14 UNL     1       8.910 134.561 348.793  1.00  0.00     0.026 C 
HETATM   27  C15 UNL     1      10.161 134.941 349.524  1.00  0.00     0.037 C 
HETATM   28  C16 UNL     1       8.554 135.647 347.786  1.00  0.00     0.037 C 
HETATM   29  C17 UNL     1       9.181 133.259 348.067  1.00  0.00     0.037 C 
ENDBRANCH  22  26
ENDBRANCH   1  15
BRANCH   1  30
HETATM   30  C18 UNL     1       5.252 133.386 354.953  1.00  0.00     0.135 C 
BRANCH  30  31
HETATM   31  O3  UNL     1       3.960 132.974 355.040  1.00  0.00    -0.348 OA
ATOM     32  H3  UNL     1       3.525 133.079 354.202  1.00  0.00     0.219 HD
ENDBRANCH  30  31
BRANCH  30  33
HETATM   33  N6  UNL     1       5.372 134.752 355.131  1.00  0.00    -0.368 N 
ATOM     34  H6  UNL     1       6.179 135.137 355.622  1.00  0.00     0.161 HD
BRANCH  33  35
HETATM   35  C19 UNL     1       4.315 135.661 354.600  1.00  0.00     0.083 C 
HETATM   36  C20 UNL     1       3.658 136.422 355.715  1.00  0.00     0.025 C 
HETATM   37  C21 UNL     1       2.937 137.607 355.065  1.00  0.00     0.002 C 
HETATM   38  C22 UNL     1       4.002 138.643 354.783  1.00  0.00     0.000 C 
HETATM   39  C23 UNL     1       5.225 137.958 354.240  1.00  0.00     0.002 C 
HETATM   40  C24 UNL     1       4.897 136.611 353.611  1.00  0.00     0.025 C 
ENDBRANCH  33  35
ENDBRANCH  30  33
ENDBRANCH   1  30
TORSDOF 15
ENDMDL
MODEL 3
REMARK VINA RESULT: -7.459704724      6.911      9.842
REMARK  15 active torsions:
REMARK  status: ('A' for Active; 'I' for Inactive)
REMARK    1  A    between atoms: C2_2  and  C3_3 
REMARK    2  A    between atoms: C3_3  and  C4_4 
REMARK    3  A    between atoms: C4_4  and  C5_5 
REMARK    4  A    between atoms: C5_5  and  O1_6 
REMARK    5  A    between atoms: O1_6  and  C6_7 
REMARK    6  A    between atoms: C6_7  and  N1_9 
REMARK    7  A    between atoms: C6_7  and  C8_13 
REMARK    8  A    between atoms: C8_13  and  C9_14 
REMARK    9  A    between atoms: C9_14  and  N2_15 
REMARK   10  A    between atoms: C9_14  and  C18_30 
REMARK       I    between atoms: N2_15  and  C10_17 
REMARK       I    between atoms: N4_19  and  C11_21 
REMARK       I    between atoms: C11_21  and  N5_23 
REMARK   11  A    between atoms: N5_23  and  C12_24 
REMARK   12  A    between atoms: N5_23  and  C14_26 
REMARK   13  A    between atoms: C18_30  and  O3_31 
REMARK   14  A    between atoms: C18_30  and  N6_33 
REMARK   15  A    between atoms: N6_33  and  C19_35 
ROOT
HETATM    1  C9  UNL     1       6.630 132.500 354.744  1.00  0.00     0.163 C 
ENDROOT
BRANCH   1   2
HETATM    2  C8  UNL     1       6.960 131.294 355.471  1.00  0.00     0.101 C 
BRANCH   2   3
HETATM    3  C6  UNL     1       6.923 131.167 356.934  1.00  0.00     0.222 C 
HETATM    4  C7  UNL     1       7.090 132.284 357.846  1.00  0.00     0.078 C 
BRANCH   3   5
HETATM    5  O1  UNL     1       7.802 130.103 357.284  1.00  0.00    -0.355 OA
BRANCH   5   6
HETATM    6  C5  UNL     1       8.804 130.480 358.133  1.00  0.00     0.171 C 
BRANCH   6   7
HETATM    7  C4  UNL     1       9.204 129.383 359.051  1.00  0.00     0.026 C 
BRANCH   7   8
HETATM    8  C3  UNL     1       8.069 128.683 359.705  1.00  0.00     0.002 C 
BRANCH   8   9
HETATM    9  C2  UNL     1       7.467 129.418 360.846  1.00  0.00    -0.004 C 
HETATM   10  C1  UNL     1       5.940 129.355 360.653  1.00  0.00     0.005 C 
ENDBRANCH   8   9
ENDBRANCH   7   8
ENDBRANCH   6   7
ENDBRANCH   5   6
ENDBRANCH   3   5
BRANCH   3  11
HETATM   11  N1  UNL     1       5.531 130.613 357.207  1.00  0.00    -0.047 N 
ATOM     12  H13 UNL     1       5.466 129.597 357.140  1.00  0.00     0.278 HD
ATOM     13  H12 UNL     1       5.240 130.681 358.182  1.00  0.00     0.278 HD
ATOM     14  H11 UNL     1       4.927 131.114 356.555  1.00  0.00     0.278 HD
ENDBRANCH   3  11
ENDBRANCH   2   3
ENDBRANCH   1   2
BRANCH   1  15
HETATM   15  N2  UNL     1       6.246 132.136 353.321  1.00  0.00    -0.352 N 
HETATM   16  C10 UNL     1       7.188 132.441 352.327  1.00  0.00     0.192 C 
HETATM   17  N3  UNL     1       8.207 131.492 352.043  1.00  0.00    -0.063 NA
HETATM   18  N4  UNL     1       7.096 133.565 351.702  1.00  0.00    -0.283 N 
HETATM   19  C11 UNL     1       8.071 133.834 350.702  1.00  0.00     0.325 C 
ATOM     20  H4  UNL     1       6.355 134.233 351.916  1.00  0.00     0.173 HD
HETATM   21  O2  UNL     1       9.235 133.477 350.934  1.00  0.00    -0.247 OA
HETATM   22  N5  UNL     1       7.750 134.483 349.480  1.00  0.00    -0.326 N 
ATOM     23  H2  UNL     1       5.355 131.694 353.100  1.00  0.00     0.163 HD
BRANCH  22  24
HETATM   24  C12 UNL     1       6.374 134.893 349.254  1.00  0.00     0.124 C 
HETATM   25  C13 UNL     1       5.552 133.768 348.658  1.00  0.00     0.026 C 
ENDBRANCH  22  24
BRANCH  22  26
HETATM   26  C14 UNL     1       8.804 134.697 348.539  1.00  0.00     0.026 C 
HETATM   27  C15 UNL     1      10.096 135.140 349.155  1.00  0.00     0.037 C 
HETATM   28  C16 UNL     1       8.321 135.747 347.547  1.00  0.00     0.037 C 
HETATM   29  C17 UNL     1       9.067 133.392 347.815  1.00  0.00     0.037 C 
ENDBRANCH  22  26
ENDBRANCH   1  15
BRANCH   1  30
HETATM   30  C18 UNL     1       5.537 133.365 355.122  1.00  0.00     0.135 C 
BRANCH  30  31
HETATM   31  O3  UNL     1       4.368 132.671 355.118  1.00  0.00    -0.348 OA
ATOM     32  H3  UNL     1       3.634 133.266 355.014  1.00  0.00     0.219 HD
ENDBRANCH  30  31
BRANCH  30  33
HETATM   33  N6  UNL     1       5.352 134.686 355.488  1.00  0.00    -0.368 N 
ATOM     34  H6  UNL     1       5.959 135.114 356.187  1.00  0.00     0.161 HD
BRANCH  33  35
HETATM   35  C19 UNL     1       4.261 135.482 354.855  1.00  0.00     0.083 C 
HETATM   36  C20 UNL     1       3.537 136.303 355.881  1.00  0.00     0.025 C 
HETATM   37  C21 UNL     1       2.769 137.382 355.111  1.00  0.00     0.002 C 
HETATM   38  C22 UNL     1       3.783 138.446 354.756  1.00  0.00     0.000 C 
HETATM   39  C23 UNL     1       5.055 137.784 354.302  1.00  0.00     0.002 C 
HETATM   40  C24 UNL     1       4.815 136.369 353.794  1.00  0.00     0.025 C 
ENDBRANCH  33  35
ENDBRANCH  30  33
ENDBRANCH   1  30
TORSDOF 15
ENDMDL
MODEL 4
REMARK VINA RESULT: -7.438425167      2.565      8.453
REMARK  15 active torsions:
REMARK  status: ('A' for Active; 'I' for Inactive)
REMARK    1  A    between atoms: C2_2  and  C3_3 
REMARK    2  A    between atoms: C3_3  and  C4_4 
REMARK    3  A    between atoms: C4_4  and  C5_5 
REMARK    4  A    between atoms: C5_5  and  O1_6 
REMARK    5  A    between atoms: O1_6  and  C6_7 
REMARK    6  A    between atoms: C6_7  and  N1_9 
REMARK    7  A    between atoms: C6_7  and  C8_13 
REMARK    8  A    between atoms: C8_13  and  C9_14 
REMARK    9  A    between atoms: C9_14  and  N2_15 
REMARK   10  A    between atoms: C9_14  and  C18_30 
REMARK       I    between atoms: N2_15  and  C10_17 
REMARK       I    between atoms: N4_19  and  C11_21 
REMARK       I    between atoms: C11_21  and  N5_23 
REMARK   11  A    between atoms: N5_23  and  C12_24 
REMARK   12  A    between atoms: N5_23  and  C14_26 
REMARK   13  A    between atoms: C18_30  and  O3_31 
REMARK   14  A    between atoms: C18_30  and  N6_33 
REMARK   15  A    between atoms: N6_33  and  C19_35 
ROOT
HETATM    1  C9  UNL     1      13.189 130.013 359.654  1.00  0.00     0.163 C 
ENDROOT
BRANCH   1   2
HETATM    2  C8  UNL     1      14.292 129.217 359.163  1.00  0.00     0.101 C 
BRANCH   2   3
HETATM    3  C6  UNL     1      14.854 129.318 357.810  1.00  0.00     0.222 C 
HETATM    4  C7  UNL     1      14.357 128.569 356.670  1.00  0.00     0.078 C 
BRANCH   3   5
HETATM    5  O1  UNL     1      16.264 129.162 357.930  1.00  0.00    -0.355 OA
BRANCH   5   6
HETATM    6  C5  UNL     1      16.965 129.720 356.898  1.00  0.00     0.171 C 
BRANCH   6   7
HETATM    7  C4  UNL     1      18.430 129.531 357.048  1.00  0.00     0.026 C 
BRANCH   7   8
HETATM    8  C3  UNL     1      18.836 128.821 358.287  1.00  0.00     0.002 C 
BRANCH   8   9
HETATM    9  C2  UNL     1      19.800 129.565 359.136  1.00  0.00    -0.004 C 
HETATM   10  C1  UNL     1      19.008 130.085 360.350  1.00  0.00     0.005 C 
ENDBRANCH   8   9
ENDBRANCH   7   8
ENDBRANCH   6   7
ENDBRANCH   5   6
ENDBRANCH   3   5
BRANCH   3  11
HETATM   11  N1  UNL     1      14.664 130.786 357.455  1.00  0.00    -0.047 N 
ATOM     12  H13 UNL     1      14.990 131.434 358.173  1.00  0.00     0.278 HD
ATOM     13  H12 UNL     1      15.281 131.119 356.714  1.00  0.00     0.278 HD
ATOM     14  H11 UNL     1      13.671 130.868 357.240  1.00  0.00     0.278 HD
ENDBRANCH   3  11
ENDBRANCH   2   3
ENDBRANCH   1   2
BRANCH   1  15
HETATM   15  N2  UNL     1      11.989 129.113 359.888  1.00  0.00    -0.352 N 
HETATM   16  C10 UNL     1      10.891 129.309 359.037  1.00  0.00     0.192 C 
HETATM   17  N3  UNL     1      10.866 128.620 357.793  1.00  0.00    -0.063 NA
HETATM   18  N4  UNL     1       9.943 130.098 359.409  1.00  0.00    -0.283 N 
HETATM   19  C11 UNL     1       8.849 130.268 358.516  1.00  0.00     0.325 C 
ATOM     20  H4  UNL     1       9.975 130.581 360.308  1.00  0.00     0.173 HD
HETATM   21  O2  UNL     1       9.109 130.324 357.305  1.00  0.00    -0.247 OA
HETATM   22  N5  UNL     1       7.506 130.370 358.966  1.00  0.00    -0.326 N 
ATOM     23  H2  UNL     1      11.981 128.406 360.622  1.00  0.00     0.163 HD
BRANCH  22  24
HETATM   24  C12 UNL     1       7.248 130.307 360.395  1.00  0.00     0.124 C 
HETATM   25  C13 UNL     1       7.493 128.915 360.941  1.00  0.00     0.026 C 
ENDBRANCH  22  24
BRANCH  22  26
HETATM   26  C14 UNL     1       6.481 130.529 357.983  1.00  0.00     0.026 C 
HETATM   27  C15 UNL     1       6.290 131.940 357.518  1.00  0.00     0.037 C 
HETATM   28  C16 UNL     1       5.184 130.008 358.591  1.00  0.00     0.037 C 
HETATM   29  C17 UNL     1       6.849 129.694 356.773  1.00  0.00     0.037 C 
ENDBRANCH  22  26
ENDBRANCH   1  15
BRANCH   1  30
HETATM   30  C18 UNL     1      13.246 130.742 360.900  1.00  0.00     0.135 C 
BRANCH  30  31
HETATM   31  O3  UNL     1      14.453 130.558 361.495  1.00  0.00    -0.348 OA
ATOM     32  H3  UNL     1      14.469 130.987 362.343  1.00  0.00     0.219 HD
ENDBRANCH  30  31
BRANCH  30  33
HETATM   33  N6  UNL     1      12.425 131.572 361.642  1.00  0.00    -0.368 N 
ATOM     34  H6  UNL     1      12.101 132.457 361.251  1.00  0.00     0.161 HD
BRANCH  33  35
HETATM   35  C19 UNL     1      12.015 131.166 363.017  1.00  0.00     0.083 C 
HETATM   36  C20 UNL     1      11.919 132.362 363.919  1.00  0.00     0.025 C 
HETATM   37  C21 UNL     1      11.089 131.926 365.131  1.00  0.00     0.002 C 
HETATM   38  C22 UNL     1       9.645 131.958 364.685  1.00  0.00     0.000 C 
HETATM   39  C23 UNL     1       9.543 131.380 363.301  1.00  0.00     0.002 C 
HETATM   40  C24 UNL     1      10.707 130.453 362.980  1.00  0.00     0.025 C 
ENDBRANCH  33  35
ENDBRANCH  30  33
ENDBRANCH   1  30
TORSDOF 15
ENDMDL
MODEL 5
REMARK VINA RESULT: -7.343782259      0.919      1.412
REMARK  15 active torsions:
REMARK  status: ('A' for Active; 'I' for Inactive)
REMARK    1  A    between atoms: C2_2  and  C3_3 
REMARK    2  A    between atoms: C3_3  and  C4_4 
REMARK    3  A    between atoms: C4_4  and  C5_5 
REMARK    4  A    between atoms: C5_5  and  O1_6 
REMARK    5  A    between atoms: O1_6  and  C6_7 
REMARK    6  A    between atoms: C6_7  and  N1_9 
REMARK    7  A    between atoms: C6_7  and  C8_13 
REMARK    8  A    between atoms: C8_13  and  C9_14 
REMARK    9  A    between atoms: C9_14  and  N2_15 
REMARK   10  A    between atoms: C9_14  and  C18_30 
REMARK       I    between atoms: N2_15  and  C10_17 
REMARK       I    between atoms: N4_19  and  C11_21 
REMARK       I    between atoms: C11_21  and  N5_23 
REMARK   11  A    between atoms: N5_23  and  C12_24 
REMARK   12  A    between atoms: N5_23  and  C14_26 
REMARK   13  A    between atoms: C18_30  and  O3_31 
REMARK   14  A    between atoms: C18_30  and  N6_33 
REMARK   15  A    between atoms: N6_33  and  C19_35 
ROOT
HETATM    1  C9  UNL     1       7.547 129.679 361.101  1.00  0.00     0.163 C 
ENDROOT
BRANCH   1   2
HETATM    2  C8  UNL     1       6.166 129.888 360.725  1.00  0.00     0.101 C 
BRANCH   2   3
HETATM    3  C6  UNL     1       5.547 129.361 359.501  1.00  0.00     0.222 C 
HETATM    4  C7  UNL     1       5.608 130.028 358.213  1.00  0.00     0.078 C 
BRANCH   3   5
HETATM    5  O1  UNL     1       4.202 129.024 359.824  1.00  0.00    -0.355 OA
BRANCH   5   6
HETATM    6  C5  UNL     1       4.030 128.655 361.128  1.00  0.00     0.171 C 
BRANCH   6   7
HETATM    7  C4  UNL     1       2.712 128.009 361.360  1.00  0.00     0.026 C 
BRANCH   7   8
HETATM    8  C3  UNL     1       1.717 128.239 360.282  1.00  0.00     0.002 C 
BRANCH   8   9
HETATM    9  C2  UNL     1       1.475 127.065 359.406  1.00  0.00    -0.004 C 
HETATM   10  C1  UNL     1       1.521 127.581 357.956  1.00  0.00     0.005 C 
ENDBRANCH   8   9
ENDBRANCH   7   8
ENDBRANCH   6   7
ENDBRANCH   5   6
ENDBRANCH   3   5
BRANCH   3  11
HETATM   11  N1  UNL     1       6.237 128.018 359.305  1.00  0.00    -0.047 N 
ATOM     12  H13 UNL     1       7.033 128.047 358.668  1.00  0.00     0.278 HD
ATOM     13  H12 UNL     1       6.755 127.692 360.120  1.00  0.00     0.278 HD
ATOM     14  H11 UNL     1       5.489 127.391 359.008  1.00  0.00     0.278 HD
ENDBRANCH   3  11
ENDBRANCH   2   3
ENDBRANCH   1   2
BRANCH   1  15
HETATM   15  N2  UNL     1       8.447 130.414 360.125  1.00  0.00    -0.352 N 
HETATM   16  C10 UNL     1       9.420 129.641 359.474  1.00  0.00     0.192 C 
HETATM   17  N3  UNL     1       9.062 128.973 358.271  1.00  0.00    -0.063 NA
HETATM   18  N4  UNL     1      10.602 129.566 359.981  1.00  0.00    -0.283 N 
HETATM   19  C11 UNL     1      11.558 128.771 359.288  1.00  0.00     0.325 C 
ATOM     20  H4  UNL     1      10.843 130.056 360.842  1.00  0.00     0.173 HD
HETATM   21  O2  UNL     1      11.155 127.714 358.782  1.00  0.00    -0.247 OA
HETATM   22  N5  UNL     1      12.920 129.152 359.167  1.00  0.00    -0.326 N 
ATOM     23  H2  UNL     1       8.351 131.414 359.952  1.00  0.00     0.163 HD
BRANCH  22  24
HETATM   24  C12 UNL     1      13.350 130.396 359.783  1.00  0.00     0.124 C 
HETATM   25  C13 UNL     1      12.709 131.595 359.115  1.00  0.00     0.026 C 
ENDBRANCH  22  24
BRANCH  22  26
HETATM   26  C14 UNL     1      13.795 128.284 358.441  1.00  0.00     0.026 C 
HETATM   27  C15 UNL     1      13.368 128.026 357.028  1.00  0.00     0.037 C 
HETATM   28  C16 UNL     1      13.864 126.968 359.205  1.00  0.00     0.037 C 
HETATM   29  C17 UNL     1      15.168 128.922 358.396  1.00  0.00     0.037 C 
ENDBRANCH  22  26
ENDBRANCH   1  15
BRANCH   1  30
HETATM   30  C18 UNL     1       8.085 130.112 362.369  1.00  0.00     0.135 C 
BRANCH  30  31
HETATM   31  O3  UNL     1       7.600 129.336 363.374  1.00  0.00    -0.348 OA
ATOM     32  H3  UNL     1       6.758 128.970 363.128  1.00  0.00     0.219 HD
ENDBRANCH  30  31
BRANCH  30  33
HETATM   33  N6  UNL     1       8.952 131.082 362.838  1.00  0.00    -0.368 N 
ATOM     34  H6  UNL     1       8.762 132.069 362.661  1.00  0.00     0.161 HD
BRANCH  33  35
HETATM   35  C19 UNL     1      10.166 130.679 363.605  1.00  0.00     0.083 C 
HETATM   36  C20 UNL     1      11.413 130.982 362.827  1.00  0.00     0.025 C 
HETATM   37  C21 UNL     1      12.569 130.958 363.832  1.00  0.00     0.002 C 
HETATM   38  C22 UNL     1      12.520 132.282 364.560  1.00  0.00     0.000 C 
HETATM   39  C23 UNL     1      11.090 132.618 364.879  1.00  0.00     0.002 C 
HETATM   40  C24 UNL     1      10.205 131.380 364.919  1.00  0.00     0.025 C 
ENDBRANCH  33  35
ENDBRANCH  30  33
ENDBRANCH   1  30
TORSDOF 15
ENDMDL
