MODEL 1
REMARK VINA RESULT: -8.205300698      0.000      0.000
REMARK  5 active torsions:
REMARK  status: ('A' for Active; 'I' for Inactive)
REMARK    1  A    between atoms: N1_1  and  C1_5 
REMARK    2  A    between atoms: C1_5  and  C2_6 
REMARK    3  A    between atoms: C7_11  and  N2_12 
REMARK    4  A    between atoms: N2_12  and  C8_14 
REMARK    5  A    between atoms: C8_14  and  C9_15 
ROOT
HETATM    1  C2  UNL     1      13.106  10.483   4.298  1.00  0.00    -0.005 A 
HETATM    2  C3  UNL     1      12.090  10.313   3.365  1.00  0.00     0.011 A 
HETATM    3  C4  UNL     1      11.685  11.353   2.547  1.00  0.00     0.002 A 
HETATM    4  C5  UNL     1      12.337  12.565   2.700  1.00  0.00     0.017 A 
HETATM    5  C6  UNL     1      13.347  12.764   3.616  1.00  0.00     0.035 A 
HETATM    6  C7  UNL     1      13.958  14.001   3.719  1.00  0.00     0.114 A 
HETATM    7  N3  UNL     1      14.936  14.119   4.635  1.00  0.00    -0.338 N 
ATOM      8  H3  UNL     1      15.410  15.016   4.739  1.00  0.00     0.168 HD
HETATM    9  C15 UNL     1      15.312  13.084   5.422  1.00  0.00     0.182 A 
HETATM   10  N4  UNL     1      14.723  11.875   5.330  1.00  0.00    -0.351 N 
ATOM     11  H4  UNL     1      15.016  11.105   5.931  1.00  0.00     0.166 HD
HETATM   12  C16 UNL     1      13.742  11.708   4.431  1.00  0.00     0.055 A 
ENDROOT
BRANCH   6  13
HETATM   13  N2  UNL     1      13.560  14.931   2.950  1.00  0.00    -0.371 N 
ATOM     14  H2  UNL     1      13.494  14.698   1.959  1.00  0.00     0.161 HD
BRANCH  13  15
HETATM   15  C8  UNL     1      13.195  16.262   3.310  1.00  0.00     0.160 C 
BRANCH  15  16
HETATM   16  C9  UNL     1      13.557  17.158   2.181  1.00  0.00    -0.041 A 
HETATM   17  C10 UNL     1      14.561  18.100   2.268  1.00  0.00     0.009 A 
HETATM   18  C11 UNL     1      14.873  18.924   1.187  1.00  0.00     0.001 A 
HETATM   19  C12 UNL     1      14.186  18.823  -0.004  1.00  0.00     0.000 A 
HETATM   20  C13 UNL     1      13.183  17.882  -0.090  1.00  0.00     0.001 A 
HETATM   21  C14 UNL     1      12.880  17.070   0.982  1.00  0.00     0.009 A 
ENDBRANCH  15  16
ENDBRANCH  13  15
ENDBRANCH   6  13
BRANCH   1  22
HETATM   22  C1  UNL     1      13.561   9.385   5.190  1.00  0.00     0.270 C 
BRANCH  22  23
HETATM   23  N1  UNL     1      12.429   8.893   5.952  1.00  0.00    -0.075 N 
ATOM     24  H13 UNL     1      12.246   9.457   6.782  1.00  0.00     0.274 HD
ATOM     25  H12 UNL     1      11.542   9.050   5.473  1.00  0.00     0.274 HD
ATOM     26  H11 UNL     1      12.580   7.910   6.177  1.00  0.00     0.274 HD
ENDBRANCH  22  23
ENDBRANCH   1  22
TORSDOF 5
ENDMDL
MODEL 2
REMARK VINA RESULT: -8.008058640      1.416      2.713
REMARK  5 active torsions:
REMARK  status: ('A' for Active; 'I' for Inactive)
REMARK    1  A    between atoms: N1_1  and  C1_5 
REMARK    2  A    between atoms: C1_5  and  C2_6 
REMARK    3  A    between atoms: C7_11  and  N2_12 
REMARK    4  A    between atoms: N2_12  and  C8_14 
REMARK    5  A    between atoms: C8_14  and  C9_15 
ROOT
HETATM    1  C2  UNL     1      13.574  11.148   4.774  1.00  0.00    -0.005 A 
HETATM    2  C3  UNL     1      14.707  11.837   5.191  1.00  0.00     0.011 A 
HETATM    3  C4  UNL     1      15.068  13.040   4.612  1.00  0.00     0.002 A 
HETATM    4  C5  UNL     1      14.253  13.525   3.603  1.00  0.00     0.017 A 
HETATM    5  C6  UNL     1      13.124  12.864   3.169  1.00  0.00     0.035 A 
HETATM    6  C7  UNL     1      12.351  13.401   2.155  1.00  0.00     0.114 A 
HETATM    7  N3  UNL     1      11.264  12.699   1.785  1.00  0.00    -0.338 N 
ATOM      8  H3  UNL     1      10.670  13.065   1.041  1.00  0.00     0.168 HD
HETATM    9  C15 UNL     1      10.935  11.524   2.370  1.00  0.00     0.182 A 
HETATM   10  N4  UNL     1      11.682  10.991   3.358  1.00  0.00    -0.351 N 
ATOM     11  H4  UNL     1      11.421  10.104   3.788  1.00  0.00     0.166 HD
HETATM   12  C16 UNL     1      12.775  11.654   3.762  1.00  0.00     0.055 A 
ENDROOT
BRANCH   6  13
HETATM   13  N2  UNL     1      12.714  14.508   1.649  1.00  0.00    -0.371 N 
ATOM     14  H2  UNL     1      13.658  14.540   1.265  1.00  0.00     0.161 HD
BRANCH  13  15
HETATM   15  C8  UNL     1      11.955  15.712   1.553  1.00  0.00     0.160 C 
BRANCH  15  16
HETATM   16  C9  UNL     1      12.905  16.839   1.359  1.00  0.00    -0.041 A 
HETATM   17  C10 UNL     1      12.989  17.550   0.180  1.00  0.00     0.009 A 
HETATM   18  C11 UNL     1      13.893  18.602   0.035  1.00  0.00     0.001 A 
HETATM   19  C12 UNL     1      14.733  18.964   1.066  1.00  0.00     0.000 A 
HETATM   20  C13 UNL     1      14.648  18.254   2.244  1.00  0.00     0.001 A 
HETATM   21  C14 UNL     1      13.752  17.215   2.382  1.00  0.00     0.009 A 
ENDBRANCH  15  16
ENDBRANCH  13  15
ENDBRANCH   6  13
BRANCH   1  22
HETATM   22  C1  UNL     1      13.163   9.853   5.377  1.00  0.00     0.270 C 
BRANCH  22  23
HETATM   23  N1  UNL     1      14.182   8.858   5.105  1.00  0.00    -0.075 N 
ATOM     24  H13 UNL     1      14.922   9.215   4.500  1.00  0.00     0.274 HD
ATOM     25  H12 UNL     1      14.754   8.654   5.926  1.00  0.00     0.274 HD
ATOM     26  H11 UNL     1      13.739   8.023   4.724  1.00  0.00     0.274 HD
ENDBRANCH  22  23
ENDBRANCH   1  22
TORSDOF 5
ENDMDL
MODEL 3
REMARK VINA RESULT: -7.998238596      2.476      6.032
REMARK  5 active torsions:
REMARK  status: ('A' for Active; 'I' for Inactive)
REMARK    1  A    between atoms: N1_1  and  C1_5 
REMARK    2  A    between atoms: C1_5  and  C2_6 
REMARK    3  A    between atoms: C7_11  and  N2_12 
REMARK    4  A    between atoms: N2_12  and  C8_14 
REMARK    5  A    between atoms: C8_14  and  C9_15 
ROOT
HETATM    1  C2  UNL     1      13.677  16.894   2.566  1.00  0.00    -0.005 A 
HETATM    2  C3  UNL     1      12.781  16.392   1.630  1.00  0.00     0.011 A 
HETATM    3  C4  UNL     1      12.401  15.062   1.640  1.00  0.00     0.002 A 
HETATM    4  C5  UNL     1      12.952  14.257   2.623  1.00  0.00     0.017 A 
HETATM    5  C6  UNL     1      13.843  14.726   3.565  1.00  0.00     0.035 A 
HETATM    6  C7  UNL     1      14.358  13.869   4.521  1.00  0.00     0.114 A 
HETATM    7  N3  UNL     1      15.222  14.399   5.407  1.00  0.00    -0.338 N 
ATOM      8  H3  UNL     1      15.621  13.798   6.127  1.00  0.00     0.168 HD
HETATM    9  C15 UNL     1      15.575  15.705   5.372  1.00  0.00     0.182 A 
HETATM   10  N4  UNL     1      15.079  16.548   4.445  1.00  0.00    -0.351 N 
ATOM     11  H4  UNL     1      15.355  17.529   4.431  1.00  0.00     0.166 HD
HETATM   12  C16 UNL     1      14.214  16.067   3.539  1.00  0.00     0.055 A 
ENDROOT
BRANCH   6  13
HETATM   13  N2  UNL     1      13.986  12.655   4.500  1.00  0.00    -0.371 N 
ATOM     14  H2  UNL     1      12.982  12.493   4.415  1.00  0.00     0.161 HD
BRANCH  13  15
HETATM   15  C8  UNL     1      14.806  11.491   4.581  1.00  0.00     0.160 C 
BRANCH  15  16
HETATM   16  C9  UNL     1      15.856  11.595   3.535  1.00  0.00    -0.041 A 
HETATM   17  C10 UNL     1      15.563  11.741   2.194  1.00  0.00     0.009 A 
HETATM   18  C11 UNL     1      16.577  11.837   1.241  1.00  0.00     0.001 A 
HETATM   19  C12 UNL     1      17.904  11.787   1.608  1.00  0.00     0.000 A 
HETATM   20  C13 UNL     1      18.196  11.642   2.947  1.00  0.00     0.001 A 
HETATM   21  C14 UNL     1      17.190  11.548   3.886  1.00  0.00     0.009 A 
ENDBRANCH  15  16
ENDBRANCH  13  15
ENDBRANCH   6  13
BRANCH   1  22
HETATM   22  C1  UNL     1      14.103  18.317   2.578  1.00  0.00     0.270 C 
BRANCH  22  23
HETATM   23  N1  UNL     1      15.215  18.487   1.662  1.00  0.00    -0.075 N 
ATOM     24  H13 UNL     1      16.117  18.451   2.137  1.00  0.00     0.274 HD
ATOM     25  H12 UNL     1      15.341  17.680   1.051  1.00  0.00     0.274 HD
ATOM     26  H11 UNL     1      15.086  19.353   1.139  1.00  0.00     0.274 HD
ENDBRANCH  22  23
ENDBRANCH   1  22
TORSDOF 5
ENDMDL
MODEL 4
REMARK VINA RESULT: -7.976034054      0.909      1.131
REMARK  5 active torsions:
REMARK  status: ('A' for Active; 'I' for Inactive)
REMARK    1  A    between atoms: N1_1  and  C1_5 
REMARK    2  A    between atoms: C1_5  and  C2_6 
REMARK    3  A    between atoms: C7_11  and  N2_12 
REMARK    4  A    between atoms: N2_12  and  C8_14 
REMARK    5  A    between atoms: C8_14  and  C9_15 
ROOT
HETATM    1  C2  UNL     1      13.507  10.342   4.550  1.00  0.00    -0.005 A 
HETATM    2  C3  UNL     1      12.741  10.466   3.396  1.00  0.00     0.011 A 
HETATM    3  C4  UNL     1      12.666  11.664   2.710  1.00  0.00     0.002 A 
HETATM    4  C5  UNL     1      13.385  12.730   3.222  1.00  0.00     0.017 A 
HETATM    5  C6  UNL     1      14.152  12.638   4.363  1.00  0.00     0.035 A 
HETATM    6  C7  UNL     1      14.848  13.742   4.824  1.00  0.00     0.114 A 
HETATM    7  N3  UNL     1      15.576  13.576   5.943  1.00  0.00    -0.338 N 
ATOM      8  H3  UNL     1      16.103  14.367   6.312  1.00  0.00     0.168 HD
HETATM    9  C15 UNL     1      15.631  12.390   6.595  1.00  0.00     0.182 A 
HETATM   10  N4  UNL     1      14.957  11.309   6.155  1.00  0.00    -0.351 N 
ATOM     11  H4  UNL     1      15.008  10.423   6.656  1.00  0.00     0.166 HD
HETATM   12  C16 UNL     1      14.217  11.425   5.042  1.00  0.00     0.055 A 
ENDROOT
BRANCH   6  13
HETATM   13  N2  UNL     1      14.755  14.825   4.166  1.00  0.00    -0.371 N 
ATOM     14  H2  UNL     1      15.424  14.949   3.407  1.00  0.00     0.161 HD
BRANCH  13  15
HETATM   15  C8  UNL     1      13.825  15.888   4.366  1.00  0.00     0.160 C 
BRANCH  15  16
HETATM   16  C9  UNL     1      13.700  16.635   3.087  1.00  0.00    -0.041 A 
HETATM   17  C10 UNL     1      14.487  17.726   2.780  1.00  0.00     0.009 A 
HETATM   18  C11 UNL     1      14.341  18.402   1.569  1.00  0.00     0.001 A 
HETATM   19  C12 UNL     1      13.405  18.001   0.640  1.00  0.00     0.000 A 
HETATM   20  C13 UNL     1      12.620  16.911   0.947  1.00  0.00     0.001 A 
HETATM   21  C14 UNL     1      12.769  16.246   2.146  1.00  0.00     0.009 A 
ENDBRANCH  15  16
ENDBRANCH  13  15
ENDBRANCH   6  13
BRANCH   1  22
HETATM   22  C1  UNL     1      13.605   9.068   5.308  1.00  0.00     0.270 C 
BRANCH  22  23
HETATM   23  N1  UNL     1      12.378   8.863   6.053  1.00  0.00    -0.075 N 
ATOM     24  H13 UNL     1      12.498   8.206   6.825  1.00  0.00     0.274 HD
ATOM     25  H12 UNL     1      12.116   9.683   6.601  1.00  0.00     0.274 HD
ATOM     26  H11 UNL     1      11.642   8.574   5.409  1.00  0.00     0.274 HD
ENDBRANCH  22  23
ENDBRANCH   1  22
TORSDOF 5
ENDMDL
MODEL 5
REMARK VINA RESULT: -7.920469171      3.230      5.486
REMARK  5 active torsions:
REMARK  status: ('A' for Active; 'I' for Inactive)
REMARK    1  A    between atoms: N1_1  and  C1_5 
REMARK    2  A    between atoms: C1_5  and  C2_6 
REMARK    3  A    between atoms: C7_11  and  N2_12 
REMARK    4  A    between atoms: N2_12  and  C8_14 
REMARK    5  A    between atoms: C8_14  and  C9_15 
ROOT
HETATM    1  C2  UNL     1      12.702  11.995   3.454  1.00  0.00    -0.005 A 
HETATM    2  C3  UNL     1      13.122  13.292   3.184  1.00  0.00     0.011 A 
HETATM    3  C4  UNL     1      14.353  13.752   3.615  1.00  0.00     0.002 A 
HETATM    4  C5  UNL     1      15.145  12.865   4.323  1.00  0.00     0.017 A 
HETATM    5  C6  UNL     1      14.756  11.573   4.606  1.00  0.00     0.035 A 
HETATM    6  C7  UNL     1      15.595  10.736   5.319  1.00  0.00     0.114 A 
HETATM    7  N3  UNL     1      15.148   9.489   5.557  1.00  0.00    -0.338 N 
ATOM      8  H3  UNL     1      15.739   8.843   6.079  1.00  0.00     0.168 HD
HETATM    9  C15 UNL     1      13.937   9.066   5.123  1.00  0.00     0.182 A 
HETATM   10  N4  UNL     1      13.113   9.874   4.427  1.00  0.00    -0.351 N 
ATOM     11  H4  UNL     1      12.203   9.541   4.108  1.00  0.00     0.166 HD
HETATM   12  C16 UNL     1      13.514  11.126   4.166  1.00  0.00     0.055 A 
ENDROOT
BRANCH   6  13
HETATM   13  N2  UNL     1      16.718  11.194   5.697  1.00  0.00    -0.371 N 
ATOM     14  H2  UNL     1      16.689  11.960   6.369  1.00  0.00     0.161 HD
BRANCH  13  15
HETATM   15  C8  UNL     1      18.016  10.762   5.292  1.00  0.00     0.160 C 
BRANCH  15  16
HETATM   16  C9  UNL     1      18.382  11.505   4.058  1.00  0.00    -0.041 A 
HETATM   17  C10 UNL     1      19.108  12.678   4.081  1.00  0.00     0.009 A 
HETATM   18  C11 UNL     1      19.434  13.348   2.903  1.00  0.00     0.001 A 
HETATM   19  C12 UNL     1      19.040  12.859   1.675  1.00  0.00     0.000 A 
HETATM   20  C13 UNL     1      18.315  11.688   1.653  1.00  0.00     0.001 A 
HETATM   21  C14 UNL     1      17.996  11.029   2.822  1.00  0.00     0.009 A 
ENDBRANCH  15  16
ENDBRANCH  13  15
ENDBRANCH   6  13
BRANCH   1  22
HETATM   22  C1  UNL     1      11.385  11.474   3.005  1.00  0.00     0.270 C 
BRANCH  22  23
HETATM   23  N1  UNL     1      10.948  12.226   1.845  1.00  0.00    -0.075 N 
ATOM     24  H13 UNL     1      11.566  12.098   1.044  1.00  0.00     0.274 HD
ATOM     25  H12 UNL     1      10.097  11.843   1.432  1.00  0.00     0.274 HD
ATOM     26  H11 UNL     1      10.846  13.207   2.103  1.00  0.00     0.274 HD
ENDBRANCH  22  23
ENDBRANCH   1  22
TORSDOF 5
ENDMDL
