MODEL 1
REMARK VINA RESULT: -8.712373895      0.000      0.000
REMARK  5 active torsions:
REMARK  status: ('A' for Active; 'I' for Inactive)
REMARK    1  A    between atoms: N1_1  and  N2_4 
REMARK    2  A    between atoms: N2_4  and  C1_6 
REMARK    3  A    between atoms: C3_10  and  C4_11 
REMARK    4  A    between atoms: C4_11  and  C5_12 
REMARK    5  A    between atoms: C5_12  and  C6_13 
ROOT
HETATM    1  C1  UNL     1      16.707  13.259   7.223  1.00  0.00     0.710 A 
HETATM    2  N3  UNL     1      16.030  12.263   6.602  1.00  0.00    -0.197 N 
ATOM      3  H3  UNL     1      16.145  11.296   6.907  1.00  0.00     0.183 HD
HETATM    4  C2  UNL     1      15.200  12.556   5.572  1.00  0.00     0.132 A 
HETATM    5  C3  UNL     1      15.060  13.857   5.176  1.00  0.00     0.042 A 
HETATM    6  N4  UNL     1      15.729  14.833   5.791  1.00  0.00    -0.289 N 
ATOM      7  H4  UNL     1      15.622  15.803   5.492  1.00  0.00     0.187 HD
HETATM    8  N5  UNL     1      16.534  14.524   6.794  1.00  0.00    -0.131 N 
ATOM      9  H5  UNL     1      17.044  15.273   7.261  1.00  0.00     0.205 HD
ENDROOT
BRANCH   5  10
HETATM   10  C4  UNL     1      14.143  14.191   4.042  1.00  0.00     0.064 C 
BRANCH  10  11
HETATM   11  C5  UNL     1      13.962  15.687   3.900  1.00  0.00     0.045 C 
BRANCH  11  12
HETATM   12  C6  UNL     1      13.339  15.960   2.619  1.00  0.00    -0.047 A 
HETATM   13  C7  UNL     1      12.380  15.056   2.159  1.00  0.00     0.008 A 
HETATM   14  C8  UNL     1      11.712  15.245   0.968  1.00  0.00     0.001 A 
HETATM   15  C9  UNL     1      11.982  16.355   0.187  1.00  0.00     0.012 A 
HETATM   16  C10 UNL     1      12.921  17.261   0.615  1.00  0.00    -0.025 A 
HETATM   17  C11 UNL     1      13.210  18.382  -0.168  1.00  0.00     0.012 A 
HETATM   18  C15 UNL     1      13.579  17.053   1.812  1.00  0.00    -0.020 A 
HETATM   19  C12 UNL     1      14.163  19.280   0.268  1.00  0.00     0.001 A 
HETATM   20  C13 UNL     1      14.831  19.088   1.458  1.00  0.00     0.001 A 
HETATM   21  C14 UNL     1      14.517  17.960   2.214  1.00  0.00     0.013 A 
ENDBRANCH  11  12
ENDBRANCH  10  11
ENDBRANCH   5  10
BRANCH   1  22
HETATM   22  N2  UNL     1      17.503  12.982   8.209  1.00  0.00    -0.137 N 
ATOM     23  H2  UNL     1      18.137  12.188   8.113  1.00  0.00     0.205 HD
BRANCH  22  24
HETATM   24  N1  UNL     1      17.534  13.713   9.389  1.00  0.00    -0.331 N 
ATOM     25  H12 UNL     1      16.859  13.465  10.112  1.00  0.00     0.177 HD
ATOM     26  H11 UNL     1      18.193  14.474   9.557  1.00  0.00     0.177 HD
ENDBRANCH  22  24
ENDBRANCH   1  22
TORSDOF 5
ENDMDL
MODEL 2
REMARK VINA RESULT: -8.704012455      0.440      1.045
REMARK  5 active torsions:
REMARK  status: ('A' for Active; 'I' for Inactive)
REMARK    1  A    between atoms: N1_1  and  N2_4 
REMARK    2  A    between atoms: N2_4  and  C1_6 
REMARK    3  A    between atoms: C3_10  and  C4_11 
REMARK    4  A    between atoms: C4_11  and  C5_12 
REMARK    5  A    between atoms: C5_12  and  C6_13 
ROOT
HETATM    1  C1  UNL     1      16.641  13.238   7.206  1.00  0.00     0.710 A 
HETATM    2  N3  UNL     1      16.609  14.506   6.728  1.00  0.00    -0.197 N 
ATOM      3  H3  UNL     1      17.190  15.228   7.152  1.00  0.00     0.183 HD
HETATM    4  C2  UNL     1      15.800  14.808   5.685  1.00  0.00     0.132 A 
HETATM    5  C3  UNL     1      15.028  13.827   5.131  1.00  0.00     0.042 A 
HETATM    6  N4  UNL     1      15.062  12.581   5.606  1.00  0.00    -0.289 N 
ATOM      7  H4  UNL     1      14.484  11.851   5.189  1.00  0.00     0.187 HD
HETATM    8  N5  UNL     1      15.860  12.308   6.625  1.00  0.00    -0.131 N 
ATOM      9  H5  UNL     1      15.883  11.354   6.985  1.00  0.00     0.205 HD
ENDROOT
BRANCH   5  10
HETATM   10  C4  UNL     1      14.134  14.152   3.975  1.00  0.00     0.064 C 
BRANCH  10  11
HETATM   11  C5  UNL     1      13.841  15.635   3.902  1.00  0.00     0.045 C 
BRANCH  11  12
HETATM   12  C6  UNL     1      13.264  15.932   2.606  1.00  0.00    -0.047 A 
HETATM   13  C7  UNL     1      12.307  15.047   2.104  1.00  0.00     0.008 A 
HETATM   14  C8  UNL     1      11.680  15.260   0.895  1.00  0.00     0.001 A 
HETATM   15  C9  UNL     1      11.992  16.374   0.136  1.00  0.00     0.012 A 
HETATM   16  C10 UNL     1      12.930  17.260   0.604  1.00  0.00    -0.025 A 
HETATM   17  C11 UNL     1      13.261  18.386  -0.157  1.00  0.00     0.012 A 
HETATM   18  C15 UNL     1      13.547  17.030   1.819  1.00  0.00    -0.020 A 
HETATM   19  C12 UNL     1      14.213  19.264   0.320  1.00  0.00     0.001 A 
HETATM   20  C13 UNL     1      14.839  19.049   1.528  1.00  0.00     0.001 A 
HETATM   21  C14 UNL     1      14.485  17.917   2.260  1.00  0.00     0.013 A 
ENDBRANCH  11  12
ENDBRANCH  10  11
ENDBRANCH   5  10
BRANCH   1  22
HETATM   22  N2  UNL     1      17.413  12.944   8.206  1.00  0.00    -0.137 N 
ATOM     23  H2  UNL     1      17.963  12.085   8.158  1.00  0.00     0.205 HD
BRANCH  22  24
HETATM   24  N1  UNL     1      17.529  13.740   9.337  1.00  0.00    -0.331 N 
ATOM     25  H12 UNL     1      16.670  14.129   9.727  1.00  0.00     0.177 HD
ATOM     26  H11 UNL     1      18.422  13.946   9.786  1.00  0.00     0.177 HD
ENDBRANCH  22  24
ENDBRANCH   1  22
TORSDOF 5
ENDMDL
MODEL 3
REMARK VINA RESULT: -8.493881341      2.827      3.858
REMARK  5 active torsions:
REMARK  status: ('A' for Active; 'I' for Inactive)
REMARK    1  A    between atoms: N1_1  and  N2_4 
REMARK    2  A    between atoms: N2_4  and  C1_6 
REMARK    3  A    between atoms: C3_10  and  C4_11 
REMARK    4  A    between atoms: C4_11  and  C5_12 
REMARK    5  A    between atoms: C5_12  and  C6_13 
ROOT
HETATM    1  C1  UNL     1      19.856  13.490   4.047  1.00  0.00     0.710 A 
HETATM    2  N3  UNL     1      19.098  14.554   4.408  1.00  0.00    -0.197 N 
ATOM      3  H3  UNL     1      19.462  15.501   4.305  1.00  0.00     0.183 HD
HETATM    4  C2  UNL     1      17.855  14.353   4.905  1.00  0.00     0.132 A 
HETATM    5  C3  UNL     1      17.385  13.077   5.036  1.00  0.00     0.042 A 
HETATM    6  N4  UNL     1      18.135  12.033   4.680  1.00  0.00    -0.289 N 
ATOM      7  H4  UNL     1      17.781  11.082   4.779  1.00  0.00     0.187 HD
HETATM    8  N5  UNL     1      19.347  12.253   4.196  1.00  0.00    -0.131 N 
ATOM      9  H5  UNL     1      19.918  11.452   3.925  1.00  0.00     0.205 HD
ENDROOT
BRANCH   5  10
HETATM   10  C4  UNL     1      16.011  12.846   5.582  1.00  0.00     0.064 C 
BRANCH  10  11
HETATM   11  C5  UNL     1      15.127  14.059   5.387  1.00  0.00     0.045 C 
BRANCH  11  12
HETATM   12  C6  UNL     1      14.216  13.800   4.290  1.00  0.00    -0.047 A 
HETATM   13  C7  UNL     1      13.803  12.481   4.088  1.00  0.00     0.008 A 
HETATM   14  C8  UNL     1      12.915  12.140   3.090  1.00  0.00     0.001 A 
HETATM   15  C9  UNL     1      12.405  13.113   2.250  1.00  0.00     0.012 A 
HETATM   16  C10 UNL     1      12.794  14.418   2.425  1.00  0.00    -0.025 A 
HETATM   17  C11 UNL     1      12.293  15.411   1.577  1.00  0.00     0.012 A 
HETATM   18  C15 UNL     1      13.685  14.740   3.431  1.00  0.00    -0.020 A 
HETATM   19  C12 UNL     1      12.699  16.717   1.756  1.00  0.00     0.001 A 
HETATM   20  C13 UNL     1      13.588  17.056   2.753  1.00  0.00     0.001 A 
HETATM   21  C14 UNL     1      14.067  16.041   3.580  1.00  0.00     0.013 A 
ENDBRANCH  11  12
ENDBRANCH  10  11
ENDBRANCH   5  10
BRANCH   1  22
HETATM   22  N2  UNL     1      21.048  13.678   3.570  1.00  0.00    -0.137 N 
ATOM     23  H2  UNL     1      21.174  14.381   2.841  1.00  0.00     0.205 HD
BRANCH  22  24
HETATM   24  N1  UNL     1      22.160  12.969   4.003  1.00  0.00    -0.331 N 
ATOM     25  H12 UNL     1      22.650  12.398   3.314  1.00  0.00     0.177 HD
ATOM     26  H11 UNL     1      22.501  12.996   4.965  1.00  0.00     0.177 HD
ENDBRANCH  22  24
ENDBRANCH   1  22
TORSDOF 5
ENDMDL
MODEL 4
REMARK VINA RESULT: -8.462804818      2.819      3.675
REMARK  5 active torsions:
REMARK  status: ('A' for Active; 'I' for Inactive)
REMARK    1  A    between atoms: N1_1  and  N2_4 
REMARK    2  A    between atoms: N2_4  and  C1_6 
REMARK    3  A    between atoms: C3_10  and  C4_11 
REMARK    4  A    between atoms: C4_11  and  C5_12 
REMARK    5  A    between atoms: C5_12  and  C6_13 
ROOT
HETATM    1  C1  UNL     1      19.888  13.512   4.043  1.00  0.00     0.710 A 
HETATM    2  N3  UNL     1      19.366  12.265   4.136  1.00  0.00    -0.197 N 
ATOM      3  H3  UNL     1      19.912  11.457   3.837  1.00  0.00     0.183 HD
HETATM    4  C2  UNL     1      18.116  12.097   4.629  1.00  0.00     0.132 A 
HETATM    5  C3  UNL     1      17.400  13.192   5.024  1.00  0.00     0.042 A 
HETATM    6  N4  UNL     1      17.918  14.417   4.929  1.00  0.00    -0.289 N 
ATOM      7  H4  UNL     1      17.380  15.232   5.225  1.00  0.00     0.187 HD
HETATM    8  N5  UNL     1      19.141  14.558   4.445  1.00  0.00    -0.131 N 
ATOM      9  H5  UNL     1      19.533  15.497   4.374  1.00  0.00     0.205 HD
ENDROOT
BRANCH   5  10
HETATM   10  C4  UNL     1      16.019  13.015   5.574  1.00  0.00     0.064 C 
BRANCH  10  11
HETATM   11  C5  UNL     1      15.159  14.231   5.309  1.00  0.00     0.045 C 
BRANCH  11  12
HETATM   12  C6  UNL     1      14.252  13.932   4.219  1.00  0.00    -0.047 A 
HETATM   13  C7  UNL     1      13.861  12.603   4.048  1.00  0.00     0.008 A 
HETATM   14  C8  UNL     1      12.979  12.223   3.058  1.00  0.00     0.001 A 
HETATM   15  C9  UNL     1      12.454  13.168   2.195  1.00  0.00     0.012 A 
HETATM   16  C10 UNL     1      12.822  14.483   2.339  1.00  0.00    -0.025 A 
HETATM   17  C11 UNL     1      12.305  15.447   1.468  1.00  0.00     0.012 A 
HETATM   18  C15 UNL     1      13.706  14.843   3.337  1.00  0.00    -0.020 A 
HETATM   19  C12 UNL     1      12.690  16.764   1.617  1.00  0.00     0.001 A 
HETATM   20  C13 UNL     1      13.573  17.141   2.606  1.00  0.00     0.001 A 
HETATM   21  C14 UNL     1      14.068  16.153   3.456  1.00  0.00     0.013 A 
ENDBRANCH  11  12
ENDBRANCH  10  11
ENDBRANCH   5  10
BRANCH   1  22
HETATM   22  N2  UNL     1      21.085  13.678   3.571  1.00  0.00    -0.137 N 
ATOM     23  H2  UNL     1      21.214  14.328   2.794  1.00  0.00     0.205 HD
BRANCH  22  24
HETATM   24  N1  UNL     1      22.198  13.016   4.070  1.00  0.00    -0.331 N 
ATOM     25  H12 UNL     1      22.057  12.075   4.440  1.00  0.00     0.177 HD
ATOM     26  H11 UNL     1      23.133  13.424   4.080  1.00  0.00     0.177 HD
ENDBRANCH  22  24
ENDBRANCH   1  22
TORSDOF 5
ENDMDL
MODEL 5
REMARK VINA RESULT: -8.391654565      1.232      2.848
REMARK  5 active torsions:
REMARK  status: ('A' for Active; 'I' for Inactive)
REMARK    1  A    between atoms: N1_1  and  N2_4 
REMARK    2  A    between atoms: N2_4  and  C1_6 
REMARK    3  A    between atoms: C3_10  and  C4_11 
REMARK    4  A    between atoms: C4_11  and  C5_12 
REMARK    5  A    between atoms: C5_12  and  C6_13 
ROOT
HETATM    1  C1  UNL     1      15.456  12.337   6.092  1.00  0.00     0.710 A 
HETATM    2  N3  UNL     1      14.620  12.434   5.030  1.00  0.00    -0.197 N 
ATOM      3  H3  UNL     1      14.166  11.600   4.657  1.00  0.00     0.183 HD
HETATM    4  C2  UNL     1      14.391  13.643   4.465  1.00  0.00     0.132 A 
HETATM    5  C3  UNL     1      15.009  14.748   4.976  1.00  0.00     0.042 A 
HETATM    6  N4  UNL     1      15.832  14.648   6.021  1.00  0.00    -0.289 N 
ATOM      7  H4  UNL     1      16.291  15.476   6.401  1.00  0.00     0.187 HD
HETATM    8  N5  UNL     1      16.041  13.457   6.558  1.00  0.00    -0.131 N 
ATOM      9  H5  UNL     1      16.671  13.385   7.357  1.00  0.00     0.205 HD
ENDROOT
BRANCH   5  10
HETATM   10  C4  UNL     1      14.758  16.089   4.361  1.00  0.00     0.064 C 
BRANCH  10  11
HETATM   11  C5  UNL     1      13.442  16.117   3.614  1.00  0.00     0.045 C 
BRANCH  11  12
HETATM   12  C6  UNL     1      13.593  16.948   2.436  1.00  0.00    -0.047 A 
HETATM   13  C7  UNL     1      14.536  17.977   2.485  1.00  0.00     0.008 A 
HETATM   14  C8  UNL     1      14.773  18.801   1.406  1.00  0.00     0.001 A 
HETATM   15  C9  UNL     1      14.070  18.625   0.228  1.00  0.00     0.012 A 
HETATM   16  C10 UNL     1      13.136  17.621   0.151  1.00  0.00    -0.025 A 
HETATM   17  C11 UNL     1      12.411  17.437  -1.031  1.00  0.00     0.012 A 
HETATM   18  C15 UNL     1      12.913  16.806   1.244  1.00  0.00    -0.020 A 
HETATM   19  C12 UNL     1      11.469  16.431  -1.093  1.00  0.00     0.001 A 
HETATM   20  C13 UNL     1      11.232  15.609  -0.012  1.00  0.00     0.001 A 
HETATM   21  C14 UNL     1      11.973  15.821   1.150  1.00  0.00     0.013 A 
ENDBRANCH  11  12
ENDBRANCH  10  11
ENDBRANCH   5  10
BRANCH   1  22
HETATM   22  N2  UNL     1      15.679  11.181   6.636  1.00  0.00    -0.137 N 
ATOM     23  H2  UNL     1      15.753  11.130   7.652  1.00  0.00     0.205 HD
BRANCH  22  24
HETATM   24  N1  UNL     1      15.822  10.011   5.903  1.00  0.00    -0.331 N 
ATOM     25  H12 UNL     1      16.516   9.337   6.228  1.00  0.00     0.177 HD
ATOM     26  H11 UNL     1      15.272   9.802   5.070  1.00  0.00     0.177 HD
ENDBRANCH  22  24
ENDBRANCH   1  22
TORSDOF 5
ENDMDL
