MODEL 1
REMARK VINA RESULT: -7.815387861      0.000      0.000
REMARK  4 active torsions:
REMARK  status: ('A' for Active; 'I' for Inactive)
REMARK    1  A    between atoms: C5_6  and  N2_7 
REMARK    2  A    between atoms: N2_7  and  C6_9 
REMARK    3  A    between atoms: C6_9  and  C7_10 
REMARK    4  A    between atoms: C7_10  and  C8_11 
ROOT
HETATM    1  N1  UNL     1      13.181  18.641  -1.096  1.00  0.00    -0.190 NA
HETATM    2  C1  UNL     1      13.318  18.165  -0.038  1.00  0.00     0.119 C 
HETATM    3  C2  UNL     1      13.502  17.571   1.254  1.00  0.00     0.128 A 
HETATM    4  C3  UNL     1      12.743  16.463   1.614  1.00  0.00     0.046 A 
HETATM    5  C4  UNL     1      12.895  15.851   2.869  1.00  0.00     0.052 A 
HETATM    6  C5  UNL     1      13.812  16.372   3.734  1.00  0.00     0.115 A 
HETATM    7  N4  UNL     1      14.533  17.450   3.352  1.00  0.00    -0.285 N 
ATOM      8  H4  UNL     1      15.218  17.839   4.001  1.00  0.00     0.188 HD
HETATM    9  N5  UNL     1      14.380  18.025   2.153  1.00  0.00    -0.289 N 
ATOM     10  H5  UNL     1      14.952  18.837   1.918  1.00  0.00     0.188 HD
ENDROOT
BRANCH   6  11
HETATM   11  N2  UNL     1      14.029  15.898   4.874  1.00  0.00    -0.375 N 
ATOM     12  H2  UNL     1      13.214  15.744   5.469  1.00  0.00     0.161 HD
BRANCH  11  13
HETATM   13  C6  UNL     1      15.298  15.551   5.428  1.00  0.00     0.126 C 
BRANCH  13  14
HETATM   14  C7  UNL     1      15.967  14.386   4.712  1.00  0.00     0.060 C 
BRANCH  14  15
HETATM   15  C8  UNL     1      15.623  13.133   5.380  1.00  0.00    -0.029 A 
HETATM   16  C9  UNL     1      16.179  12.495   6.462  1.00  0.00     0.096 A 
HETATM   17  N3  UNL     1      15.501  11.332   6.709  1.00  0.00    -0.365 N 
HETATM   18  C10 UNL     1      14.514  11.206   5.806  1.00  0.00     0.042 A 
ATOM     19  H3  UNL     1      15.710  10.671   7.457  1.00  0.00     0.165 HD
HETATM   20  C11 UNL     1      13.539  10.229   5.598  1.00  0.00     0.030 A 
HETATM   21  C15 UNL     1      14.566  12.303   4.973  1.00  0.00    -0.002 A 
HETATM   22  C12 UNL     1      12.621  10.328   4.580  1.00  0.00     0.002 A 
HETATM   23  C13 UNL     1      12.667  11.419   3.747  1.00  0.00     0.001 A 
HETATM   24  C14 UNL     1      13.645  12.399   3.954  1.00  0.00     0.014 A 
ENDBRANCH  14  15
ENDBRANCH  13  14
ENDBRANCH  11  13
ENDBRANCH   6  11
TORSDOF 4
ENDMDL
MODEL 2
REMARK VINA RESULT: -7.806719110      2.267      2.487
REMARK  4 active torsions:
REMARK  status: ('A' for Active; 'I' for Inactive)
REMARK    1  A    between atoms: C5_6  and  N2_7 
REMARK    2  A    between atoms: N2_7  and  C6_9 
REMARK    3  A    between atoms: C6_9  and  C7_10 
REMARK    4  A    between atoms: C7_10  and  C8_11 
ROOT
HETATM    1  N1  UNL     1      13.405  18.498  -1.272  1.00  0.00    -0.190 NA
HETATM    2  C1  UNL     1      13.456  18.064  -0.188  1.00  0.00     0.119 C 
HETATM    3  C2  UNL     1      13.536  17.522   1.137  1.00  0.00     0.128 A 
HETATM    4  C3  UNL     1      12.791  16.395   1.464  1.00  0.00     0.046 A 
HETATM    5  C4  UNL     1      12.842  15.833   2.750  1.00  0.00     0.052 A 
HETATM    6  C5  UNL     1      13.648  16.423   3.679  1.00  0.00     0.115 A 
HETATM    7  N4  UNL     1      14.359  17.518   3.329  1.00  0.00    -0.285 N 
ATOM      8  H4  UNL     1      14.960  17.958   4.026  1.00  0.00     0.188 HD
HETATM    9  N5  UNL     1      14.302  18.045   2.100  1.00  0.00    -0.289 N 
ATOM     10  H5  UNL     1      14.861  18.872   1.891  1.00  0.00     0.188 HD
ENDROOT
BRANCH   6  11
HETATM   11  N2  UNL     1      13.770  15.998   4.853  1.00  0.00    -0.375 N 
ATOM     12  H2  UNL     1      13.263  16.505   5.578  1.00  0.00     0.161 HD
BRANCH  11  13
HETATM   13  C6  UNL     1      14.545  14.877   5.279  1.00  0.00     0.126 C 
BRANCH  13  14
HETATM   14  C7  UNL     1      16.045  15.131   5.227  1.00  0.00     0.060 C 
BRANCH  14  15
HETATM   15  C8  UNL     1      16.763  13.939   5.672  1.00  0.00    -0.029 A 
HETATM   16  C9  UNL     1      17.198  13.548   6.915  1.00  0.00     0.096 A 
HETATM   17  N3  UNL     1      17.833  12.340   6.822  1.00  0.00    -0.365 N 
HETATM   18  C10 UNL     1      17.818  11.940   5.539  1.00  0.00     0.042 A 
ATOM     19  H3  UNL     1      18.249  11.826   7.599  1.00  0.00     0.165 HD
HETATM   20  C11 UNL     1      18.315  10.807   4.893  1.00  0.00     0.030 A 
HETATM   21  C15 UNL     1      17.164  12.908   4.807  1.00  0.00    -0.002 A 
HETATM   22  C12 UNL     1      18.172  10.626   3.539  1.00  0.00     0.002 A 
HETATM   23  C13 UNL     1      17.522  11.586   2.803  1.00  0.00     0.001 A 
HETATM   24  C14 UNL     1      17.023  12.723   3.449  1.00  0.00     0.014 A 
ENDBRANCH  14  15
ENDBRANCH  13  14
ENDBRANCH  11  13
ENDBRANCH   6  11
TORSDOF 4
ENDMDL
MODEL 3
REMARK VINA RESULT: -7.772028484      2.233      7.199
REMARK  4 active torsions:
REMARK  status: ('A' for Active; 'I' for Inactive)
REMARK    1  A    between atoms: C5_6  and  N2_7 
REMARK    2  A    between atoms: N2_7  and  C6_9 
REMARK    3  A    between atoms: C6_9  and  C7_10 
REMARK    4  A    between atoms: C7_10  and  C8_11 
ROOT
HETATM    1  N1  UNL     1      17.638  13.765   9.065  1.00  0.00    -0.190 NA
HETATM    2  C1  UNL     1      16.947  13.557   8.145  1.00  0.00     0.119 C 
HETATM    3  C2  UNL     1      16.116  13.296   7.006  1.00  0.00     0.128 A 
HETATM    4  C3  UNL     1      15.704  14.353   6.201  1.00  0.00     0.046 A 
HETATM    5  C4  UNL     1      14.891  14.139   5.076  1.00  0.00     0.052 A 
HETATM    6  C5  UNL     1      14.512  12.862   4.787  1.00  0.00     0.115 A 
HETATM    7  N4  UNL     1      14.931  11.857   5.590  1.00  0.00    -0.285 N 
ATOM      8  H4  UNL     1      14.646  10.902   5.373  1.00  0.00     0.188 HD
HETATM    9  N5  UNL     1      15.706  12.073   6.660  1.00  0.00    -0.289 N 
ATOM     10  H5  UNL     1      15.992  11.277   7.231  1.00  0.00     0.188 HD
ENDROOT
BRANCH   6  11
HETATM   11  N2  UNL     1      13.794  12.563   3.804  1.00  0.00    -0.375 N 
ATOM     12  H2  UNL     1      13.324  11.658   3.839  1.00  0.00     0.161 HD
BRANCH  11  13
HETATM   13  C6  UNL     1      13.565  13.357   2.640  1.00  0.00     0.126 C 
BRANCH  13  14
HETATM   14  C7  UNL     1      12.288  14.182   2.719  1.00  0.00     0.060 C 
BRANCH  14  15
HETATM   15  C8  UNL     1      12.250  15.139   1.616  1.00  0.00    -0.029 A 
HETATM   16  C9  UNL     1      11.603  15.108   0.405  1.00  0.00     0.096 A 
HETATM   17  N3  UNL     1      11.884  16.249  -0.297  1.00  0.00    -0.365 N 
HETATM   18  C10 UNL     1      12.703  17.019   0.439  1.00  0.00     0.042 A 
ATOM     19  H3  UNL     1      11.529  16.477  -1.226  1.00  0.00     0.165 HD
HETATM   20  C11 UNL     1      13.291  18.264   0.211  1.00  0.00     0.030 A 
HETATM   21  C15 UNL     1      12.945  16.360   1.624  1.00  0.00    -0.002 A 
HETATM   22  C12 UNL     1      14.112  18.857   1.140  1.00  0.00     0.002 A 
HETATM   23  C13 UNL     1      14.358  18.205   2.324  1.00  0.00     0.001 A 
HETATM   24  C14 UNL     1      13.769  16.956   2.553  1.00  0.00     0.014 A 
ENDBRANCH  14  15
ENDBRANCH  13  14
ENDBRANCH  11  13
ENDBRANCH   6  11
TORSDOF 4
ENDMDL
MODEL 4
REMARK VINA RESULT: -7.741571869      2.442      2.962
REMARK  4 active torsions:
REMARK  status: ('A' for Active; 'I' for Inactive)
REMARK    1  A    between atoms: C5_6  and  N2_7 
REMARK    2  A    between atoms: N2_7  and  C6_9 
REMARK    3  A    between atoms: C6_9  and  C7_10 
REMARK    4  A    between atoms: C7_10  and  C8_11 
ROOT
HETATM    1  N1  UNL     1      13.960  19.735   0.457  1.00  0.00    -0.190 NA
HETATM    2  C1  UNL     1      13.993  18.866   1.238  1.00  0.00     0.119 C 
HETATM    3  C2  UNL     1      14.051  17.793   2.188  1.00  0.00     0.128 A 
HETATM    4  C3  UNL     1      13.321  16.632   1.957  1.00  0.00     0.046 A 
HETATM    5  C4  UNL     1      13.352  15.559   2.863  1.00  0.00     0.052 A 
HETATM    6  C5  UNL     1      14.121  15.681   3.982  1.00  0.00     0.115 A 
HETATM    7  N4  UNL     1      14.818  16.824   4.176  1.00  0.00    -0.285 N 
ATOM      8  H4  UNL     1      15.392  16.914   5.014  1.00  0.00     0.188 HD
HETATM    9  N5  UNL     1      14.781  17.841   3.306  1.00  0.00    -0.289 N 
ATOM     10  H5  UNL     1      15.328  18.679   3.503  1.00  0.00     0.188 HD
ENDROOT
BRANCH   6  11
HETATM   11  N2  UNL     1      14.223  14.781   4.849  1.00  0.00    -0.375 N 
ATOM     12  H2  UNL     1      13.426  14.152   4.950  1.00  0.00     0.161 HD
BRANCH  11  13
HETATM   13  C6  UNL     1      15.337  14.544   5.709  1.00  0.00     0.126 C 
BRANCH  13  14
HETATM   14  C7  UNL     1      15.733  13.076   5.787  1.00  0.00     0.060 C 
BRANCH  14  15
HETATM   15  C8  UNL     1      16.923  12.842   4.973  1.00  0.00    -0.029 A 
HETATM   16  C9  UNL     1      18.262  12.925   5.270  1.00  0.00     0.096 A 
HETATM   17  N3  UNL     1      19.000  12.613   4.162  1.00  0.00    -0.365 N 
HETATM   18  C10 UNL     1      18.162  12.328   3.150  1.00  0.00     0.042 A 
ATOM     19  H3  UNL     1      20.019  12.598   4.111  1.00  0.00     0.165 HD
HETATM   20  C11 UNL     1      18.374  11.955   1.821  1.00  0.00     0.030 A 
HETATM   21  C15 UNL     1      16.875  12.461   3.622  1.00  0.00    -0.002 A 
HETATM   22  C12 UNL     1      17.328  11.715   0.963  1.00  0.00     0.002 A 
HETATM   23  C13 UNL     1      16.042  11.846   1.427  1.00  0.00     0.001 A 
HETATM   24  C14 UNL     1      15.829  12.220   2.759  1.00  0.00     0.014 A 
ENDBRANCH  14  15
ENDBRANCH  13  14
ENDBRANCH  11  13
ENDBRANCH   6  11
TORSDOF 4
ENDMDL
MODEL 5
REMARK VINA RESULT: -7.720091782      3.395      5.841
REMARK  4 active torsions:
REMARK  status: ('A' for Active; 'I' for Inactive)
REMARK    1  A    between atoms: C5_6  and  N2_7 
REMARK    2  A    between atoms: N2_7  and  C6_9 
REMARK    3  A    between atoms: C6_9  and  C7_10 
REMARK    4  A    between atoms: C7_10  and  C8_11 
ROOT
HETATM    1  N1  UNL     1      19.587  15.262   4.129  1.00  0.00    -0.190 NA
HETATM    2  C1  UNL     1      18.934  14.336   4.416  1.00  0.00     0.119 C 
HETATM    3  C2  UNL     1      18.150  13.192   4.779  1.00  0.00     0.128 A 
HETATM    4  C3  UNL     1      17.972  12.163   3.861  1.00  0.00     0.046 A 
HETATM    5  C4  UNL     1      17.211  11.025   4.178  1.00  0.00     0.052 A 
HETATM    6  C5  UNL     1      16.648  10.951   5.418  1.00  0.00     0.115 A 
HETATM    7  N4  UNL     1      16.841  11.969   6.287  1.00  0.00    -0.285 N 
ATOM      8  H4  UNL     1      16.418  11.913   7.213  1.00  0.00     0.188 HD
HETATM    9  N5  UNL     1      17.567  13.049   5.973  1.00  0.00    -0.289 N 
ATOM     10  H5  UNL     1      17.680  13.787   6.669  1.00  0.00     0.188 HD
ENDROOT
BRANCH   6  11
HETATM   11  N2  UNL     1      15.957   9.978   5.803  1.00  0.00    -0.375 N 
ATOM     12  H2  UNL     1      16.237   9.536   6.678  1.00  0.00     0.161 HD
BRANCH  11  13
HETATM   13  C6  UNL     1      14.819   9.424   5.143  1.00  0.00     0.126 C 
BRANCH  13  14
HETATM   14  C7  UNL     1      13.515  10.117   5.514  1.00  0.00     0.060 C 
BRANCH  14  15
HETATM   15  C8  UNL     1      12.915  10.710   4.321  1.00  0.00    -0.029 A 
HETATM   16  C9  UNL     1      12.029  10.207   3.400  1.00  0.00     0.096 A 
HETATM   17  N3  UNL     1      11.766  11.154   2.449  1.00  0.00    -0.365 N 
HETATM   18  C10 UNL     1      12.466  12.264   2.738  1.00  0.00     0.042 A 
ATOM     19  H3  UNL     1      11.140  11.037   1.651  1.00  0.00     0.165 HD
HETATM   20  C11 UNL     1      12.570  13.508   2.113  1.00  0.00     0.030 A 
HETATM   21  C15 UNL     1      13.183  12.019   3.888  1.00  0.00    -0.002 A 
HETATM   22  C12 UNL     1      13.374  14.504   2.614  1.00  0.00     0.002 A 
HETATM   23  C13 UNL     1      14.092  14.266   3.760  1.00  0.00     0.001 A 
HETATM   24  C14 UNL     1      13.988  13.019   4.387  1.00  0.00     0.014 A 
ENDBRANCH  14  15
ENDBRANCH  13  14
ENDBRANCH  11  13
ENDBRANCH   6  11
TORSDOF 4
ENDMDL
