MODEL 1
REMARK VINA RESULT: -7.672032699      0.000      0.000
REMARK  4 active torsions:
REMARK  status: ('A' for Active; 'I' for Inactive)
REMARK    1  A    between atoms: C2_3  and  N2_4 
REMARK    2  A    between atoms: N2_4  and  C3_5 
REMARK    3  A    between atoms: C6_12  and  C7_13 
REMARK    4  A    between atoms: C7_13  and  C8_14 
ROOT
HETATM    1  N1  UNL     1      17.807  14.063   9.314  1.00  0.00    -0.190 NA
HETATM    2  C1  UNL     1      16.984  13.550   8.682  1.00  0.00     0.119 C 
HETATM    3  C2  UNL     1      15.934  12.897   7.843  1.00  0.00     0.278 C 
ENDROOT
BRANCH   3   4
HETATM    4  N2  UNL     1      16.423  12.640   6.626  1.00  0.00    -0.389 NA
BRANCH   4   5
HETATM    5  C3  UNL     1      16.838  12.422   5.545  1.00  0.00     0.188 A 
HETATM    6  N3  UNL     1      18.164  12.146   5.317  1.00  0.00    -0.327 N 
HETATM    7  C4  UNL     1      18.642  11.886   4.091  1.00  0.00     0.182 A 
ATOM      8  H3  UNL     1      18.808  12.138   6.108  1.00  0.00     0.169 HD
HETATM    9  N4  UNL     1      17.843  11.886   3.036  1.00  0.00    -0.361 N 
HETATM   10  C5  UNL     1      16.535  12.142   3.147  1.00  0.00     0.101 A 
ATOM     11  H4  UNL     1      18.234  11.685   2.116  1.00  0.00     0.166 HD
HETATM   12  C6  UNL     1      16.033  12.411   4.413  1.00  0.00     0.020 A 
BRANCH  12  13
HETATM   13  C7  UNL     1      14.604  12.711   4.589  1.00  0.00     0.086 C 
BRANCH  13  14
HETATM   14  C8  UNL     1      14.294  14.100   4.172  1.00  0.00    -0.026 A 
HETATM   15  C9  UNL     1      14.771  15.224   4.805  1.00  0.00     0.096 A 
HETATM   16  N5  UNL     1      14.286  16.292   4.152  1.00  0.00    -0.365 N 
HETATM   17  C10 UNL     1      13.519  15.904   3.126  1.00  0.00     0.042 A 
ATOM     18  H5  UNL     1      14.475  17.262   4.403  1.00  0.00     0.165 HD
HETATM   19  C11 UNL     1      12.792  16.595   2.149  1.00  0.00     0.030 A 
HETATM   20  C15 UNL     1      13.516  14.527   3.126  1.00  0.00    -0.002 A 
HETATM   21  C12 UNL     1      12.069  15.938   1.181  1.00  0.00     0.002 A 
HETATM   22  C13 UNL     1      12.072  14.563   1.190  1.00  0.00     0.001 A 
HETATM   23  C14 UNL     1      12.787  13.862   2.151  1.00  0.00     0.014 A 
ENDBRANCH  13  14
ENDBRANCH  12  13
ENDBRANCH   4   5
ENDBRANCH   3   4
TORSDOF 4
ENDMDL
MODEL 2
REMARK VINA RESULT: -7.465343605      1.375      2.044
REMARK  4 active torsions:
REMARK  status: ('A' for Active; 'I' for Inactive)
REMARK    1  A    between atoms: C2_3  and  N2_4 
REMARK    2  A    between atoms: N2_4  and  C3_5 
REMARK    3  A    between atoms: C6_12  and  C7_13 
REMARK    4  A    between atoms: C7_13  and  C8_14 
ROOT
HETATM    1  N1  UNL     1      18.004  13.787   9.489  1.00  0.00    -0.190 NA
HETATM    2  C1  UNL     1      17.175  13.741   8.683  1.00  0.00     0.119 C 
HETATM    3  C2  UNL     1      16.124  13.678   7.623  1.00  0.00     0.278 C 
ENDROOT
BRANCH   3   4
HETATM    4  N2  UNL     1      16.558  12.934   6.600  1.00  0.00    -0.389 NA
BRANCH   4   5
HETATM    5  C3  UNL     1      16.921  12.275   5.693  1.00  0.00     0.188 A 
HETATM    6  N3  UNL     1      18.250  12.161   5.364  1.00  0.00    -0.327 N 
HETATM    7  C4  UNL     1      18.673  11.406   4.340  1.00  0.00     0.182 A 
ATOM      8  H3  UNL     1      18.939  12.667   5.919  1.00  0.00     0.169 HD
HETATM    9  N4  UNL     1      17.813  10.731   3.593  1.00  0.00    -0.361 N 
HETATM   10  C5  UNL     1      16.497  10.773   3.826  1.00  0.00     0.101 A 
ATOM     11  H4  UNL     1      18.163  10.165   2.821  1.00  0.00     0.166 HD
HETATM   12  C6  UNL     1      16.052  11.552   4.885  1.00  0.00     0.020 A 
BRANCH  12  13
HETATM   13  C7  UNL     1      14.614  11.643   5.179  1.00  0.00     0.086 C 
BRANCH  13  14
HETATM   14  C8  UNL     1      13.889  12.337   4.087  1.00  0.00    -0.026 A 
HETATM   15  C9  UNL     1      13.127  11.701   3.135  1.00  0.00     0.096 A 
HETATM   16  N5  UNL     1      12.627  12.644   2.321  1.00  0.00    -0.365 N 
HETATM   17  C10 UNL     1      13.035  13.859   2.708  1.00  0.00     0.042 A 
ATOM     18  H5  UNL     1      12.023  12.460   1.520  1.00  0.00     0.165 HD
HETATM   19  C11 UNL     1      12.810  15.152   2.221  1.00  0.00     0.030 A 
HETATM   20  C15 UNL     1      13.829  13.681   3.818  1.00  0.00    -0.002 A 
HETATM   21  C12 UNL     1      13.361  16.260   2.820  1.00  0.00     0.002 A 
HETATM   22  C13 UNL     1      14.154  16.072   3.928  1.00  0.00     0.001 A 
HETATM   23  C14 UNL     1      14.387  14.797   4.424  1.00  0.00     0.014 A 
ENDBRANCH  13  14
ENDBRANCH  12  13
ENDBRANCH   4   5
ENDBRANCH   3   4
TORSDOF 4
ENDMDL
MODEL 3
REMARK VINA RESULT: -7.421685303      2.311      3.690
REMARK  4 active torsions:
REMARK  status: ('A' for Active; 'I' for Inactive)
REMARK    1  A    between atoms: C2_3  and  N2_4 
REMARK    2  A    between atoms: N2_4  and  C3_5 
REMARK    3  A    between atoms: C6_12  and  C7_13 
REMARK    4  A    between atoms: C7_13  and  C8_14 
ROOT
HETATM    1  N1  UNL     1      17.313  13.749   6.839  1.00  0.00    -0.190 NA
HETATM    2  C1  UNL     1      16.643  14.506   6.276  1.00  0.00     0.119 C 
HETATM    3  C2  UNL     1      15.776  15.467   5.529  1.00  0.00     0.278 C 
ENDROOT
BRANCH   3   4
HETATM    4  N2  UNL     1      15.034  14.804   4.635  1.00  0.00    -0.389 NA
BRANCH   4   5
HETATM    5  C3  UNL     1      14.389  14.203   3.854  1.00  0.00     0.188 A 
HETATM    6  N3  UNL     1      14.671  12.899   3.527  1.00  0.00    -0.327 N 
HETATM    7  C4  UNL     1      13.936  12.205   2.646  1.00  0.00     0.182 A 
ATOM      8  H3  UNL     1      15.468  12.443   3.969  1.00  0.00     0.169 HD
HETATM    9  N4  UNL     1      12.892  12.757   2.049  1.00  0.00    -0.361 N 
HETATM   10  C5  UNL     1      12.529  14.021   2.295  1.00  0.00     0.101 A 
ATOM     11  H4  UNL     1      12.350  12.205   1.384  1.00  0.00     0.166 HD
HETATM   12  C6  UNL     1      13.286  14.746   3.206  1.00  0.00     0.020 A 
BRANCH  12  13
HETATM   13  C7  UNL     1      12.938  16.142   3.504  1.00  0.00     0.086 C 
BRANCH  13  14
HETATM   14  C8  UNL     1      13.600  17.072   2.557  1.00  0.00    -0.026 A 
HETATM   15  C9  UNL     1      14.688  17.853   2.868  1.00  0.00     0.096 A 
HETATM   16  N5  UNL     1      15.009  18.556   1.771  1.00  0.00    -0.365 N 
HETATM   17  C10 UNL     1      14.174  18.261   0.767  1.00  0.00     0.042 A 
ATOM     18  H5  UNL     1      15.780  19.221   1.711  1.00  0.00     0.165 HD
HETATM   19  C11 UNL     1      14.068  18.699  -0.559  1.00  0.00     0.030 A 
HETATM   20  C15 UNL     1      13.283  17.329   1.247  1.00  0.00    -0.002 A 
HETATM   21  C12 UNL     1      13.093  18.224  -1.404  1.00  0.00     0.002 A 
HETATM   22  C13 UNL     1      12.207  17.293  -0.916  1.00  0.00     0.001 A 
HETATM   23  C14 UNL     1      12.298  16.848   0.395  1.00  0.00     0.014 A 
ENDBRANCH  13  14
ENDBRANCH  12  13
ENDBRANCH   4   5
ENDBRANCH   3   4
TORSDOF 4
ENDMDL
MODEL 4
REMARK VINA RESULT: -7.388445788      1.811      2.600
REMARK  4 active torsions:
REMARK  status: ('A' for Active; 'I' for Inactive)
REMARK    1  A    between atoms: C2_3  and  N2_4 
REMARK    2  A    between atoms: N2_4  and  C3_5 
REMARK    3  A    between atoms: C6_12  and  C7_13 
REMARK    4  A    between atoms: C7_13  and  C8_14 
ROOT
HETATM    1  N1  UNL     1      18.032  13.784   9.559  1.00  0.00    -0.190 NA
HETATM    2  C1  UNL     1      17.224  13.757   8.731  1.00  0.00     0.119 C 
HETATM    3  C2  UNL     1      16.201  13.716   7.643  1.00  0.00     0.278 C 
ENDROOT
BRANCH   3   4
HETATM    4  N2  UNL     1      16.621  12.915   6.658  1.00  0.00    -0.389 NA
BRANCH   4   5
HETATM    5  C3  UNL     1      16.986  12.224   5.776  1.00  0.00     0.188 A 
HETATM    6  N3  UNL     1      18.241  12.342   5.232  1.00  0.00    -0.327 N 
HETATM    7  C4  UNL     1      18.667  11.552   4.235  1.00  0.00     0.182 A 
ATOM      8  H3  UNL     1      18.871  13.054   5.599  1.00  0.00     0.169 HD
HETATM    9  N4  UNL     1      17.883  10.614   3.729  1.00  0.00    -0.361 N 
HETATM   10  C5  UNL     1      16.642  10.415   4.185  1.00  0.00     0.101 A 
ATOM     11  H4  UNL     1      18.234  10.029   2.971  1.00  0.00     0.166 HD
HETATM   12  C6  UNL     1      16.194  11.228   5.217  1.00  0.00     0.020 A 
BRANCH  12  13
HETATM   13  C7  UNL     1      14.834  11.059   5.749  1.00  0.00     0.086 C 
BRANCH  13  14
HETATM   14  C8  UNL     1      13.817  11.239   4.683  1.00  0.00    -0.026 A 
HETATM   15  C9  UNL     1      12.947  10.258   4.268  1.00  0.00     0.096 A 
HETATM   16  N5  UNL     1      12.181  10.781   3.298  1.00  0.00    -0.365 N 
HETATM   17  C10 UNL     1      12.521  12.056   3.072  1.00  0.00     0.042 A 
ATOM     18  H5  UNL     1      11.445  10.278   2.804  1.00  0.00     0.165 HD
HETATM   19  C11 UNL     1      12.051  13.038   2.190  1.00  0.00     0.030 A 
HETATM   20  C15 UNL     1      13.549  12.358   3.936  1.00  0.00    -0.002 A 
HETATM   21  C12 UNL     1      12.587  14.303   2.160  1.00  0.00     0.002 A 
HETATM   22  C13 UNL     1      13.614  14.595   3.027  1.00  0.00     0.001 A 
HETATM   23  C14 UNL     1      14.091  13.634   3.907  1.00  0.00     0.014 A 
ENDBRANCH  13  14
ENDBRANCH  12  13
ENDBRANCH   4   5
ENDBRANCH   3   4
TORSDOF 4
ENDMDL
MODEL 5
REMARK VINA RESULT: -7.384053569      1.770      2.822
REMARK  4 active torsions:
REMARK  status: ('A' for Active; 'I' for Inactive)
REMARK    1  A    between atoms: C2_3  and  N2_4 
REMARK    2  A    between atoms: N2_4  and  C3_5 
REMARK    3  A    between atoms: C6_12  and  C7_13 
REMARK    4  A    between atoms: C7_13  and  C8_14 
ROOT
HETATM    1  N1  UNL     1      14.682   8.642   4.027  1.00  0.00    -0.190 NA
HETATM    2  C1  UNL     1      14.867   9.449   4.837  1.00  0.00     0.119 C 
HETATM    3  C2  UNL     1      15.132  10.492   5.873  1.00  0.00     0.278 C 
ENDROOT
BRANCH   3   4
HETATM    4  N2  UNL     1      16.148  11.269   5.483  1.00  0.00    -0.389 NA
BRANCH   4   5
HETATM    5  C3  UNL     1      17.034  11.956   5.120  1.00  0.00     0.188 A 
HETATM    6  N3  UNL     1      18.142  11.442   4.491  1.00  0.00    -0.327 N 
HETATM    7  C4  UNL     1      19.150  12.217   4.068  1.00  0.00     0.182 A 
ATOM      8  H3  UNL     1      18.199  10.435   4.342  1.00  0.00     0.169 HD
HETATM    9  N4  UNL     1      19.117  13.529   4.240  1.00  0.00    -0.361 N 
HETATM   10  C5  UNL     1      18.086  14.132   4.840  1.00  0.00     0.101 A 
ATOM     11  H4  UNL     1      19.899  14.093   3.907  1.00  0.00     0.166 HD
HETATM   12  C6  UNL     1      17.038  13.336   5.282  1.00  0.00     0.020 A 
BRANCH  12  13
HETATM   13  C7  UNL     1      15.885  13.947   5.959  1.00  0.00     0.086 C 
BRANCH  13  14
HETATM   14  C8  UNL     1      15.111  14.804   5.027  1.00  0.00    -0.026 A 
HETATM   15  C9  UNL     1      15.171  16.178   5.007  1.00  0.00     0.096 A 
HETATM   16  N5  UNL     1      14.344  16.604   4.039  1.00  0.00    -0.365 N 
HETATM   17  C10 UNL     1      13.757  15.564   3.435  1.00  0.00     0.042 A 
ATOM     18  H5  UNL     1      14.187  17.583   3.799  1.00  0.00     0.165 HD
HETATM   19  C11 UNL     1      12.833  15.452   2.389  1.00  0.00     0.030 A 
HETATM   20  C15 UNL     1      14.230  14.425   4.046  1.00  0.00    -0.002 A 
HETATM   21  C12 UNL     1      12.379  14.232   1.948  1.00  0.00     0.002 A 
HETATM   22  C13 UNL     1      12.858  13.100   2.565  1.00  0.00     0.001 A 
HETATM   23  C14 UNL     1      13.774  13.192   3.603  1.00  0.00     0.014 A 
ENDBRANCH  13  14
ENDBRANCH  12  13
ENDBRANCH   4   5
ENDBRANCH   3   4
TORSDOF 4
ENDMDL
