MODEL 1
REMARK VINA RESULT: -5.836746580      0.000      0.000
REMARK  3 active torsions:
REMARK  status: ('A' for Active; 'I' for Inactive)
REMARK    1  A    between atoms: C1_2  and  C2_3 
REMARK       I    between atoms: C1_2  and  N1_6 
REMARK    2  A    between atoms: C2_3  and  C3_4 
REMARK    3  A    between atoms: N1_6  and  C4_8 
ROOT
HETATM    1  C4  UNL     1       3.314 144.214 352.762  1.00  0.00     0.088 C 
HETATM    2  C5  UNL     1       2.812 145.424 351.972  1.00  0.00     0.030 C 
HETATM    3  C6  UNL     1       3.708 146.572 352.309  1.00  0.00    -0.012 C 
HETATM    4  C7  UNL     1       4.961 146.445 351.473  1.00  0.00     0.005 C 
HETATM    5  C8  UNL     1       5.500 145.099 351.965  1.00  0.00     0.007 C 
HETATM    6  C9  UNL     1       4.697 144.724 353.170  1.00  0.00     0.009 C 
HETATM    7  C10 UNL     1       4.270 146.117 353.669  1.00  0.00     0.011 C 
ENDROOT
BRANCH   1   8
HETATM    8  N1  UNL     1       3.375 143.029 351.973  1.00  0.00    -0.356 N 
HETATM    9  C1  UNL     1       2.305 142.092 351.970  1.00  0.00     0.220 C 
HETATM   10  O1  UNL     1       1.271 142.294 352.671  1.00  0.00    -0.274 OA
ATOM     11  H1  UNL     1       4.200 142.850 351.401  1.00  0.00     0.162 HD
BRANCH   9  12
HETATM   12  C2  UNL     1       2.343 140.851 351.156  1.00  0.00     0.134 C 
BRANCH  12  13
HETATM   13  C3  UNL     1       3.388 139.905 351.676  1.00  0.00     0.231 C 
HETATM   14  F1  UNL     1       3.252 139.776 353.038  1.00  0.00    -0.255 F 
ENDBRANCH  12  13
ENDBRANCH   9  12
ENDBRANCH   1   8
TORSDOF 3
ENDMDL
MODEL 2
REMARK VINA RESULT: -5.648551129      2.933      5.772
REMARK  3 active torsions:
REMARK  status: ('A' for Active; 'I' for Inactive)
REMARK    1  A    between atoms: C1_2  and  C2_3 
REMARK       I    between atoms: C1_2  and  N1_6 
REMARK    2  A    between atoms: C2_3  and  C3_4 
REMARK    3  A    between atoms: N1_6  and  C4_8 
ROOT
HETATM    1  C4  UNL     1       3.859 140.305 352.240  1.00  0.00     0.088 C 
HETATM    2  C5  UNL     1       3.513 138.942 351.636  1.00  0.00     0.030 C 
HETATM    3  C6  UNL     1       4.359 137.925 352.332  1.00  0.00    -0.012 C 
HETATM    4  C7  UNL     1       3.701 137.597 353.652  1.00  0.00     0.005 C 
HETATM    5  C8  UNL     1       3.726 138.967 354.335  1.00  0.00     0.007 C 
HETATM    6  C9  UNL     1       4.597 139.851 353.501  1.00  0.00     0.009 C 
HETATM    7  C10 UNL     1       5.515 138.805 352.843  1.00  0.00     0.011 C 
ENDROOT
BRANCH   1   8
HETATM    8  N1  UNL     1       2.704 141.086 352.530  1.00  0.00    -0.356 N 
HETATM    9  C1  UNL     1       2.747 142.508 352.482  1.00  0.00     0.220 C 
HETATM   10  O1  UNL     1       3.819 143.108 352.178  1.00  0.00    -0.274 OA
ATOM     11  H1  UNL     1       1.831 140.620 352.777  1.00  0.00     0.162 HD
BRANCH   9  12
HETATM   12  C2  UNL     1       1.558 143.346 352.778  1.00  0.00     0.134 C 
BRANCH  12  13
HETATM   13  C3  UNL     1       1.864 144.801 352.559  1.00  0.00     0.231 C 
HETATM   14  F1  UNL     1       0.705 145.533 352.658  1.00  0.00    -0.255 F 
ENDBRANCH  12  13
ENDBRANCH   9  12
ENDBRANCH   1   8
TORSDOF 3
ENDMDL
MODEL 3
REMARK VINA RESULT: -5.597384981      2.511      5.036
REMARK  3 active torsions:
REMARK  status: ('A' for Active; 'I' for Inactive)
REMARK    1  A    between atoms: C1_2  and  C2_3 
REMARK       I    between atoms: C1_2  and  N1_6 
REMARK    2  A    between atoms: C2_3  and  C3_4 
REMARK    3  A    between atoms: N1_6  and  C4_8 
ROOT
HETATM    1  C4  UNL     1       3.791 141.791 352.853  1.00  0.00     0.088 C 
HETATM    2  C5  UNL     1       5.220 141.269 352.686  1.00  0.00     0.030 C 
HETATM    3  C6  UNL     1       5.143 139.777 352.654  1.00  0.00    -0.012 C 
HETATM    4  C7  UNL     1       4.743 139.362 351.257  1.00  0.00     0.005 C 
HETATM    5  C8  UNL     1       3.373 140.035 351.137  1.00  0.00     0.007 C 
HETATM    6  C9  UNL     1       3.009 140.523 352.504  1.00  0.00     0.009 C 
HETATM    7  C10 UNL     1       3.805 139.536 353.378  1.00  0.00     0.011 C 
ENDROOT
BRANCH   1   8
HETATM    8  N1  UNL     1       3.497 142.877 351.979  1.00  0.00    -0.356 N 
HETATM    9  C1  UNL     1       2.386 143.733 352.220  1.00  0.00     0.220 C 
HETATM   10  O1  UNL     1       1.635 143.545 353.221  1.00  0.00    -0.274 OA
ATOM     11  H1  UNL     1       4.092 143.043 351.168  1.00  0.00     0.162 HD
BRANCH   9  12
HETATM   12  C2  UNL     1       2.058 144.873 351.326  1.00  0.00     0.134 C 
BRANCH  12  13
HETATM   13  C3  UNL     1       2.973 146.035 351.588  1.00  0.00     0.231 C 
HETATM   14  F1  UNL     1       2.651 146.609 352.795  1.00  0.00    -0.255 F 
ENDBRANCH  12  13
ENDBRANCH   9  12
ENDBRANCH   1   8
TORSDOF 3
ENDMDL
MODEL 4
REMARK VINA RESULT: -5.569399200      2.412      3.623
REMARK  3 active torsions:
REMARK  status: ('A' for Active; 'I' for Inactive)
REMARK    1  A    between atoms: C1_2  and  C2_3 
REMARK       I    between atoms: C1_2  and  N1_6 
REMARK    2  A    between atoms: C2_3  and  C3_4 
REMARK    3  A    between atoms: N1_6  and  C4_8 
ROOT
HETATM    1  C4  UNL     1       3.423 141.728 351.960  1.00  0.00     0.088 C 
HETATM    2  C5  UNL     1       3.839 143.012 352.681  1.00  0.00     0.030 C 
HETATM    3  C6  UNL     1       2.788 144.037 352.396  1.00  0.00    -0.012 C 
HETATM    4  C7  UNL     1       1.630 143.789 353.335  1.00  0.00     0.005 C 
HETATM    5  C8  UNL     1       1.217 142.375 352.917  1.00  0.00     0.007 C 
HETATM    6  C9  UNL     1       1.961 142.061 351.657  1.00  0.00     0.009 C 
HETATM    7  C10 UNL     1       2.179 143.479 351.097  1.00  0.00     0.011 C 
ENDROOT
BRANCH   1   8
HETATM    8  N1  UNL     1       3.566 140.569 352.775  1.00  0.00    -0.356 N 
HETATM    9  C1  UNL     1       3.709 139.277 352.197  1.00  0.00     0.220 C 
HETATM   10  O1  UNL     1       3.712 139.132 350.939  1.00  0.00    -0.274 OA
ATOM     11  H1  UNL     1       3.566 140.666 353.790  1.00  0.00     0.162 HD
BRANCH   9  12
HETATM   12  C2  UNL     1       3.861 138.053 353.023  1.00  0.00     0.134 C 
BRANCH  12  13
HETATM   13  C3  UNL     1       4.195 138.408 354.445  1.00  0.00     0.231 C 
HETATM   14  F1  UNL     1       3.036 138.507 355.177  1.00  0.00    -0.255 F 
ENDBRANCH  12  13
ENDBRANCH   9  12
ENDBRANCH   1   8
TORSDOF 3
ENDMDL
MODEL 5
REMARK VINA RESULT: -5.562972259      2.704      3.967
REMARK  3 active torsions:
REMARK  status: ('A' for Active; 'I' for Inactive)
REMARK    1  A    between atoms: C1_2  and  C2_3 
REMARK       I    between atoms: C1_2  and  N1_6 
REMARK    2  A    between atoms: C2_3  and  C3_4 
REMARK    3  A    between atoms: N1_6  and  C4_8 
ROOT
HETATM    1  C4  UNL     1       3.233 141.240 352.155  1.00  0.00     0.088 C 
HETATM    2  C5  UNL     1       3.901 142.539 352.609  1.00  0.00     0.030 C 
HETATM    3  C6  UNL     1       3.015 143.663 352.177  1.00  0.00    -0.012 C 
HETATM    4  C7  UNL     1       1.898 143.790 353.187  1.00  0.00     0.005 C 
HETATM    5  C8  UNL     1       1.232 142.418 353.055  1.00  0.00     0.007 C 
HETATM    6  C9  UNL     1       1.828 141.761 351.849  1.00  0.00     0.009 C 
HETATM    7  C10 UNL     1       2.236 142.998 351.027  1.00  0.00     0.011 C 
ENDROOT
BRANCH   1   8
HETATM    8  N1  UNL     1       3.239 140.236 353.166  1.00  0.00    -0.356 N 
HETATM    9  C1  UNL     1       4.232 139.217 353.184  1.00  0.00     0.220 C 
HETATM   10  O1  UNL     1       5.133 139.182 352.297  1.00  0.00    -0.274 OA
ATOM     11  H1  UNL     1       2.520 140.248 353.890  1.00  0.00     0.162 HD
BRANCH   9  12
HETATM   12  C2  UNL     1       4.261 138.160 354.227  1.00  0.00     0.134 C 
BRANCH  12  13
HETATM   13  C3  UNL     1       4.144 136.797 353.606  1.00  0.00     0.231 C 
HETATM   14  F1  UNL     1       3.056 136.766 352.768  1.00  0.00    -0.255 F 
ENDBRANCH  12  13
ENDBRANCH   9  12
ENDBRANCH   1   8
TORSDOF 3
ENDMDL
