MODEL 1
REMARK VINA RESULT: -6.688860862      0.000      0.000
REMARK  3 active torsions:
REMARK  status: ('A' for Active; 'I' for Inactive)
REMARK    1  A    between atoms: C4_4  and  C5_5 
REMARK    2  A    between atoms: C7_7  and  C8_9 
REMARK       I    between atoms: C8_9  and  N1_11 
REMARK    3  A    between atoms: N1_11  and  C9_13 
ROOT
HETATM    1  C1  UNL     1       1.095 142.760 353.046  1.00  0.00     0.017 C 
HETATM    2  C2  UNL     1       1.847 141.914 352.628  1.00  0.00    -0.090 C 
HETATM    3  C3  UNL     1       2.745 140.915 352.127  1.00  0.00     0.060 C 
HETATM    4  C4  UNL     1       3.443 140.166 352.960  1.00  0.00    -0.013 C 
ENDROOT
BRANCH   4   5
HETATM    5  C5  UNL     1       4.352 139.152 352.402  1.00  0.00     0.016 C 
HETATM    6  C6  UNL     1       4.279 139.011 350.873  1.00  0.00     0.062 C 
HETATM    7  C7  UNL     1       4.488 137.526 351.111  1.00  0.00     0.184 C 
HETATM    8  F1  UNL     1       5.828 137.202 351.297  1.00  0.00    -0.233 F 
HETATM    9  C12 UNL     1       3.796 137.720 352.436  1.00  0.00     0.062 C 
BRANCH   7  10
HETATM   10  C8  UNL     1       3.747 136.620 350.248  1.00  0.00     0.258 C 
HETATM   11  O1  UNL     1       3.160 135.619 350.743  1.00  0.00    -0.270 OA
HETATM   12  N1  UNL     1       3.684 136.863 348.854  1.00  0.00    -0.354 N 
ATOM     13  H1  UNL     1       4.167 137.676 348.472  1.00  0.00     0.163 HD
BRANCH  12  14
HETATM   14  C9  UNL     1       2.950 135.984 347.948  1.00  0.00     0.084 A 
HETATM   15  C10 UNL     1       3.329 135.862 346.534  1.00  0.00     0.027 A 
HETATM   16  C11 UNL     1       2.172 136.760 346.853  1.00  0.00     0.027 A 
ENDBRANCH  12  14
ENDBRANCH   7  10
ENDBRANCH   4   5
TORSDOF 3
ENDMDL
MODEL 2
REMARK VINA RESULT: -6.654369470      4.367      7.410
REMARK  3 active torsions:
REMARK  status: ('A' for Active; 'I' for Inactive)
REMARK    1  A    between atoms: C4_4  and  C5_5 
REMARK    2  A    between atoms: C7_7  and  C8_9 
REMARK       I    between atoms: C8_9  and  N1_11 
REMARK    3  A    between atoms: N1_11  and  C9_13 
ROOT
HETATM    1  C1  UNL     1       4.809 138.061 347.819  1.00  0.00     0.017 C 
HETATM    2  C2  UNL     1       4.128 138.686 348.595  1.00  0.00    -0.090 C 
HETATM    3  C3  UNL     1       3.312 139.423 349.515  1.00  0.00     0.060 C 
HETATM    4  C4  UNL     1       3.700 139.589 350.766  1.00  0.00    -0.013 C 
ENDROOT
BRANCH   4   5
HETATM    5  C5  UNL     1       2.832 140.354 351.676  1.00  0.00     0.016 C 
HETATM    6  C6  UNL     1       1.929 141.381 350.973  1.00  0.00     0.062 C 
HETATM    7  C7  UNL     1       2.175 142.261 352.186  1.00  0.00     0.184 C 
HETATM    8  F1  UNL     1       1.346 141.936 353.255  1.00  0.00    -0.233 F 
HETATM    9  C12 UNL     1       3.510 141.575 352.317  1.00  0.00     0.062 C 
BRANCH   7  10
HETATM   10  C8  UNL     1       2.328 143.685 351.934  1.00  0.00     0.258 C 
HETATM   11  O1  UNL     1       1.877 144.188 350.869  1.00  0.00    -0.270 OA
HETATM   12  N1  UNL     1       2.984 144.505 352.884  1.00  0.00    -0.354 N 
ATOM     13  H1  UNL     1       3.345 144.080 353.738  1.00  0.00     0.163 HD
BRANCH  12  14
HETATM   14  C9  UNL     1       3.160 145.941 352.678  1.00  0.00     0.084 A 
HETATM   15  C10 UNL     1       4.211 146.459 351.793  1.00  0.00     0.027 A 
HETATM   16  C11 UNL     1       4.492 146.477 353.266  1.00  0.00     0.027 A 
ENDBRANCH  12  14
ENDBRANCH   7  10
ENDBRANCH   4   5
TORSDOF 3
ENDMDL
MODEL 3
REMARK VINA RESULT: -6.499681906      4.291      7.408
REMARK  3 active torsions:
REMARK  status: ('A' for Active; 'I' for Inactive)
REMARK    1  A    between atoms: C4_4  and  C5_5 
REMARK    2  A    between atoms: C7_7  and  C8_9 
REMARK       I    between atoms: C8_9  and  N1_11 
REMARK    3  A    between atoms: N1_11  and  C9_13 
ROOT
HETATM    1  C1  UNL     1       6.007 136.814 350.529  1.00  0.00     0.017 C 
HETATM    2  C2  UNL     1       5.136 137.487 351.022  1.00  0.00    -0.090 C 
HETATM    3  C3  UNL     1       4.102 138.284 351.616  1.00  0.00     0.060 C 
HETATM    4  C4  UNL     1       4.049 139.584 351.390  1.00  0.00    -0.013 C 
ENDROOT
BRANCH   4   5
HETATM    5  C5  UNL     1       2.971 140.364 352.019  1.00  0.00     0.016 C 
HETATM    6  C6  UNL     1       2.229 141.305 351.057  1.00  0.00     0.062 C 
HETATM    7  C7  UNL     1       2.159 142.267 352.229  1.00  0.00     0.184 C 
HETATM    8  F1  UNL     1       1.112 141.972 353.097  1.00  0.00    -0.233 F 
HETATM    9  C12 UNL     1       3.446 141.650 352.713  1.00  0.00     0.062 C 
BRANCH   7  10
HETATM   10  C8  UNL     1       2.326 143.679 351.921  1.00  0.00     0.258 C 
HETATM   11  O1  UNL     1       1.857 144.149 350.849  1.00  0.00    -0.270 OA
HETATM   12  N1  UNL     1       3.015 144.524 352.825  1.00  0.00    -0.354 N 
ATOM     13  H1  UNL     1       3.390 144.125 353.685  1.00  0.00     0.163 HD
BRANCH  12  14
HETATM   14  C9  UNL     1       3.206 145.948 352.562  1.00  0.00     0.084 A 
HETATM   15  C10 UNL     1       4.336 146.428 351.756  1.00  0.00     0.027 A 
HETATM   16  C11 UNL     1       4.473 146.524 353.247  1.00  0.00     0.027 A 
ENDBRANCH  12  14
ENDBRANCH   7  10
ENDBRANCH   4   5
TORSDOF 3
ENDMDL
MODEL 4
REMARK VINA RESULT: -6.471963480      1.065      1.068
REMARK  3 active torsions:
REMARK  status: ('A' for Active; 'I' for Inactive)
REMARK    1  A    between atoms: C4_4  and  C5_5 
REMARK    2  A    between atoms: C7_7  and  C8_9 
REMARK       I    between atoms: C8_9  and  N1_11 
REMARK    3  A    between atoms: N1_11  and  C9_13 
ROOT
HETATM    1  C1  UNL     1       1.473 142.327 352.629  1.00  0.00     0.017 C 
HETATM    2  C2  UNL     1       2.230 141.399 352.486  1.00  0.00    -0.090 C 
HETATM    3  C3  UNL     1       3.134 140.300 352.310  1.00  0.00     0.060 C 
HETATM    4  C4  UNL     1       3.689 139.718 353.356  1.00  0.00    -0.013 C 
ENDROOT
BRANCH   4   5
HETATM    5  C5  UNL     1       4.610 138.593 353.129  1.00  0.00     0.016 C 
HETATM    6  C6  UNL     1       5.160 138.505 351.697  1.00  0.00     0.062 C 
HETATM    7  C7  UNL     1       5.060 137.000 351.869  1.00  0.00     0.184 C 
HETATM    8  F1  UNL     1       6.149 136.471 352.554  1.00  0.00    -0.233 F 
HETATM    9  C12 UNL     1       3.912 137.261 352.810  1.00  0.00     0.062 C 
BRANCH   7  10
HETATM   10  C8  UNL     1       4.634 136.240 350.704  1.00  0.00     0.258 C 
HETATM   11  O1  UNL     1       5.162 135.123 350.453  1.00  0.00    -0.270 OA
HETATM   12  N1  UNL     1       3.625 136.755 349.854  1.00  0.00    -0.354 N 
ATOM     13  H1  UNL     1       3.211 137.661 350.071  1.00  0.00     0.163 HD
BRANCH  12  14
HETATM   14  C9  UNL     1       3.161 136.029 348.675  1.00  0.00     0.084 A 
HETATM   15  C10 UNL     1       3.794 136.222 347.364  1.00  0.00     0.027 A 
HETATM   16  C11 UNL     1       2.509 136.954 347.613  1.00  0.00     0.027 A 
ENDBRANCH  12  14
ENDBRANCH   7  10
ENDBRANCH   4   5
TORSDOF 3
ENDMDL
MODEL 5
REMARK VINA RESULT: -6.427771649      3.870      6.339
REMARK  3 active torsions:
REMARK  status: ('A' for Active; 'I' for Inactive)
REMARK    1  A    between atoms: C4_4  and  C5_5 
REMARK    2  A    between atoms: C7_7  and  C8_9 
REMARK       I    between atoms: C8_9  and  N1_11 
REMARK    3  A    between atoms: N1_11  and  C9_13 
ROOT
HETATM    1  C1  UNL     1       3.395 134.276 352.448  1.00  0.00     0.017 C 
HETATM    2  C2  UNL     1       3.578 135.435 352.727  1.00  0.00    -0.090 C 
HETATM    3  C3  UNL     1       3.796 136.811 353.066  1.00  0.00     0.060 C 
HETATM    4  C4  UNL     1       4.816 137.472 352.553  1.00  0.00    -0.013 C 
ENDROOT
BRANCH   4   5
HETATM    5  C5  UNL     1       5.001 138.883 352.928  1.00  0.00     0.016 C 
HETATM    6  C6  UNL     1       3.741 139.557 353.494  1.00  0.00     0.062 C 
HETATM    7  C7  UNL     1       4.209 140.799 352.757  1.00  0.00     0.184 C 
HETATM    8  F1  UNL     1       5.173 141.507 353.468  1.00  0.00    -0.233 F 
HETATM    9  C12 UNL     1       4.854 139.871 351.760  1.00  0.00     0.062 C 
BRANCH   7  10
HETATM   10  C8  UNL     1       3.176 141.615 352.137  1.00  0.00     0.258 C 
HETATM   11  O1  UNL     1       2.214 141.063 351.538  1.00  0.00    -0.270 OA
HETATM   12  N1  UNL     1       3.253 143.027 352.208  1.00  0.00    -0.354 N 
ATOM     13  H1  UNL     1       4.040 143.456 352.695  1.00  0.00     0.163 HD
BRANCH  12  14
HETATM   14  C9  UNL     1       2.239 143.889 351.605  1.00  0.00     0.084 A 
HETATM   15  C10 UNL     1       2.436 145.340 351.504  1.00  0.00     0.027 A 
HETATM   16  C11 UNL     1       1.575 144.848 352.629  1.00  0.00     0.027 A 
ENDBRANCH  12  14
ENDBRANCH   7  10
ENDBRANCH   4   5
TORSDOF 3
ENDMDL
