MODEL 1
REMARK VINA RESULT: -5.783909187      0.000      0.000
REMARK  2 active torsions:
REMARK  status: ('A' for Active; 'I' for Inactive)
REMARK    1  A    between atoms: C1_2  and  C2_4 
REMARK    2  A    between atoms: N2_9  and  C7_10 
ROOT
HETATM    1  C2  UNL     1       3.577 138.448 352.720  1.00  0.00     0.098 C 
HETATM    2  C3  UNL     1       4.237 137.700 351.576  1.00  0.00     0.025 C 
HETATM    3  C4  UNL     1       4.831 138.806 350.732  1.00  0.00     0.042 C 
HETATM    4  C5  UNL     1       5.347 139.715 351.864  1.00  0.00     0.035 C 
HETATM    5  C6  UNL     1       3.948 139.918 352.484  1.00  0.00     0.095 C 
HETATM    6  N2  UNL     1       3.215 140.297 351.357  1.00  0.00    -0.374 N 
HETATM    7  C10 UNL     1       3.727 139.724 350.187  1.00  0.00     0.272 C 
HETATM    8  F1  UNL     1       2.760 138.985 349.541  1.00  0.00    -0.227 F 
ENDROOT
BRANCH   1   9
HETATM    9  C1  UNL     1       3.931 137.972 354.034  1.00  0.00     0.237 C 
HETATM   10  N1  UNL     1       4.567 136.711 354.183  1.00  0.00    -0.062 NA
HETATM   11  O1  UNL     1       3.699 138.630 355.074  1.00  0.00    -0.276 OA
ENDBRANCH   1   9
BRANCH   6  12
HETATM   12  C7  UNL     1       2.156 141.162 351.391  1.00  0.00     0.082 A 
HETATM   13  C8  UNL     1       1.675 141.786 352.678  1.00  0.00     0.027 A 
HETATM   14  C9  UNL     1       2.254 142.651 351.638  1.00  0.00     0.027 A 
ENDBRANCH   6  12
TORSDOF 2
ENDMDL
MODEL 2
REMARK VINA RESULT: -5.661683008      3.474      5.642
REMARK  2 active torsions:
REMARK  status: ('A' for Active; 'I' for Inactive)
REMARK    1  A    between atoms: C1_2  and  C2_4 
REMARK    2  A    between atoms: N2_9  and  C7_10 
ROOT
HETATM    1  C2  UNL     1       3.594 144.349 351.832  1.00  0.00     0.098 C 
HETATM    2  C3  UNL     1       2.162 144.196 351.353  1.00  0.00     0.025 C 
HETATM    3  C4  UNL     1       1.608 143.111 352.251  1.00  0.00     0.042 C 
HETATM    4  C5  UNL     1       2.260 143.547 353.578  1.00  0.00     0.035 C 
HETATM    5  C6  UNL     1       3.700 143.408 353.039  1.00  0.00     0.095 C 
HETATM    6  N2  UNL     1       3.654 142.121 352.498  1.00  0.00    -0.374 N 
HETATM    7  C10 UNL     1       2.371 141.795 352.043  1.00  0.00     0.272 C 
HETATM    8  F1  UNL     1       2.397 141.457 350.708  1.00  0.00    -0.227 F 
ENDROOT
BRANCH   1   9
HETATM    9  C1  UNL     1       3.990 145.705 352.126  1.00  0.00     0.237 C 
HETATM   10  N1  UNL     1       5.362 146.015 352.317  1.00  0.00    -0.062 NA
HETATM   11  O1  UNL     1       3.164 146.641 352.221  1.00  0.00    -0.276 OA
ENDBRANCH   1   9
BRANCH   6  12
HETATM   12  C7  UNL     1       4.724 141.270 352.463  1.00  0.00     0.082 A 
HETATM   13  C8  UNL     1       5.949 141.490 353.316  1.00  0.00     0.027 A 
HETATM   14  C9  UNL     1       5.108 140.308 353.564  1.00  0.00     0.027 A 
ENDBRANCH   6  12
TORSDOF 2
ENDMDL
MODEL 3
REMARK VINA RESULT: -5.529632043      2.159      2.497
REMARK  2 active torsions:
REMARK  status: ('A' for Active; 'I' for Inactive)
REMARK    1  A    between atoms: C1_2  and  C2_4 
REMARK    2  A    between atoms: N2_9  and  C7_10 
ROOT
HETATM    1  C2  UNL     1       4.241 137.166 352.609  1.00  0.00     0.098 C 
HETATM    2  C3  UNL     1       3.768 136.796 351.215  1.00  0.00     0.025 C 
HETATM    3  C4  UNL     1       4.647 137.636 350.314  1.00  0.00     0.042 C 
HETATM    4  C5  UNL     1       5.978 137.484 351.076  1.00  0.00     0.035 C 
HETATM    5  C6  UNL     1       5.428 138.109 352.376  1.00  0.00     0.095 C 
HETATM    6  N2  UNL     1       4.862 139.286 351.881  1.00  0.00    -0.374 N 
HETATM    7  C10 UNL     1       4.409 139.131 350.566  1.00  0.00     0.272 C 
HETATM    8  F1  UNL     1       3.067 139.429 350.472  1.00  0.00    -0.227 F 
ENDROOT
BRANCH   1   9
HETATM    9  C1  UNL     1       4.559 136.042 353.455  1.00  0.00     0.237 C 
HETATM   10  N1  UNL     1       5.634 136.133 354.377  1.00  0.00    -0.062 NA
HETATM   11  O1  UNL     1       3.917 134.967 353.416  1.00  0.00    -0.276 OA
ENDBRANCH   1   9
BRANCH   6  12
HETATM   12  C7  UNL     1       4.802 140.458 352.583  1.00  0.00     0.082 A 
HETATM   13  C8  UNL     1       5.580 140.665 353.860  1.00  0.00     0.027 A 
HETATM   14  C9  UNL     1       5.918 141.474 352.679  1.00  0.00     0.027 A 
ENDBRANCH   6  12
TORSDOF 2
ENDMDL
MODEL 4
REMARK VINA RESULT: -5.523987121      2.612      3.387
REMARK  2 active torsions:
REMARK  status: ('A' for Active; 'I' for Inactive)
REMARK    1  A    between atoms: C1_2  and  C2_4 
REMARK    2  A    between atoms: N2_9  and  C7_10 
ROOT
HETATM    1  C2  UNL     1       5.377 137.913 351.879  1.00  0.00     0.098 C 
HETATM    2  C3  UNL     1       5.633 137.440 353.298  1.00  0.00     0.025 C 
HETATM    3  C4  UNL     1       4.300 137.649 353.981  1.00  0.00     0.042 C 
HETATM    4  C5  UNL     1       3.374 137.183 352.840  1.00  0.00     0.035 C 
HETATM    5  C6  UNL     1       3.882 138.252 351.849  1.00  0.00     0.095 C 
HETATM    6  N2  UNL     1       3.758 139.407 352.624  1.00  0.00    -0.374 N 
HETATM    7  C10 UNL     1       3.922 139.137 353.988  1.00  0.00     0.272 C 
HETATM    8  F1  UNL     1       4.945 139.893 354.517  1.00  0.00    -0.227 F 
ENDROOT
BRANCH   1   9
HETATM    9  C1  UNL     1       5.776 136.982 350.852  1.00  0.00     0.237 C 
HETATM   10  N1  UNL     1       5.942 137.431 349.515  1.00  0.00    -0.062 NA
HETATM   11  O1  UNL     1       5.987 135.770 351.087  1.00  0.00    -0.276 OA
ENDBRANCH   1   9
BRANCH   6  12
HETATM   12  C7  UNL     1       3.465 140.641 352.113  1.00  0.00     0.082 A 
HETATM   13  C8  UNL     1       2.448 140.830 351.013  1.00  0.00     0.027 A 
HETATM   14  C9  UNL     1       2.175 141.396 352.343  1.00  0.00     0.027 A 
ENDBRANCH   6  12
TORSDOF 2
ENDMDL
MODEL 5
REMARK VINA RESULT: -5.488295519      2.289      2.661
REMARK  2 active torsions:
REMARK  status: ('A' for Active; 'I' for Inactive)
REMARK    1  A    between atoms: C1_2  and  C2_4 
REMARK    2  A    between atoms: N2_9  and  C7_10 
ROOT
HETATM    1  C2  UNL     1       3.863 136.900 351.943  1.00  0.00     0.098 C 
HETATM    2  C3  UNL     1       3.849 136.669 350.443  1.00  0.00     0.025 C 
HETATM    3  C4  UNL     1       5.048 137.453 349.957  1.00  0.00     0.042 C 
HETATM    4  C5  UNL     1       6.032 137.106 351.092  1.00  0.00     0.035 C 
HETATM    5  C6  UNL     1       5.139 137.713 352.195  1.00  0.00     0.095 C 
HETATM    6  N2  UNL     1       4.876 138.974 351.655  1.00  0.00    -0.374 N 
HETATM    7  C10 UNL     1       4.874 138.949 350.255  1.00  0.00     0.272 C 
HETATM    8  F1  UNL     1       3.671 139.403 349.760  1.00  0.00    -0.227 F 
ENDROOT
BRANCH   1   9
HETATM    9  C1  UNL     1       3.780 135.701 352.739  1.00  0.00     0.237 C 
HETATM   10  N1  UNL     1       3.080 134.570 352.243  1.00  0.00    -0.062 NA
HETATM   11  O1  UNL     1       4.308 135.606 353.870  1.00  0.00    -0.276 OA
ENDBRANCH   1   9
BRANCH   6  12
HETATM   12  C7  UNL     1       4.691 140.103 352.405  1.00  0.00     0.082 A 
HETATM   13  C8  UNL     1       5.306 140.261 353.775  1.00  0.00     0.027 A 
HETATM   14  C9  UNL     1       5.750 141.145 352.686  1.00  0.00     0.027 A 
ENDBRANCH   6  12
TORSDOF 2
ENDMDL
