MODEL 1
REMARK VINA RESULT: -6.095571071      0.000      0.000
REMARK  3 active torsions:
REMARK  status: ('A' for Active; 'I' for Inactive)
REMARK    1  A    between atoms: C1_2  and  C2_4 
REMARK    2  A    between atoms: C8_10  and  C9_11 
REMARK    3  A    between atoms: C9_11  and  N1_12 
ROOT
HETATM    1  C2  UNL     1       3.399 141.589 353.010  1.00  0.00     0.097 C 
HETATM    2  C3  UNL     1       1.936 141.388 352.665  1.00  0.00     0.001 C 
HETATM    3  C4  UNL     1       1.132 142.490 353.280  1.00  0.00     0.006 C 
HETATM    4  C5  UNL     1       1.667 143.724 352.563  1.00  0.00     0.005 C 
HETATM    5  C6  UNL     1       2.622 143.210 351.503  1.00  0.00    -0.007 C 
HETATM    6  C7  UNL     1       1.943 141.860 351.198  1.00  0.00     0.010 C 
HETATM    7  C8  UNL     1       3.892 142.717 352.120  1.00  0.00     0.033 C 
ENDROOT
BRANCH   7   8
HETATM    8  C9  UNL     1       4.647 143.757 352.892  1.00  0.00     0.282 C 
BRANCH   8   9
HETATM    9  N1  UNL     1       4.783 144.956 352.126  1.00  0.00     0.129 N 
HETATM   10  C10 UNL     1       4.805 146.243 352.800  1.00  0.00     0.345 A 
HETATM   11  C11 UNL     1       6.021 145.714 352.167  1.00  0.00     0.433 A 
HETATM   12  F1  UNL     1       6.398 146.259 350.951  1.00  0.00    -0.214 F 
ENDBRANCH   8   9
ENDBRANCH   7   8
BRANCH   1  13
HETATM   13  C1  UNL     1       4.187 140.374 352.670  1.00  0.00     0.177 C 
HETATM   14  O1  UNL     1       5.221 140.394 351.971  1.00  0.00    -0.648 OA
HETATM   15  O2  UNL     1       3.750 139.152 353.157  1.00  0.00    -0.648 OA
ENDBRANCH   1  13
TORSDOF 3
ENDMDL
MODEL 2
REMARK VINA RESULT: -6.003253545      4.463      5.807
REMARK  3 active torsions:
REMARK  status: ('A' for Active; 'I' for Inactive)
REMARK    1  A    between atoms: C1_2  and  C2_4 
REMARK    2  A    between atoms: C8_10  and  C9_11 
REMARK    3  A    between atoms: C9_11  and  N1_12 
ROOT
HETATM    1  C2  UNL     1       4.741 138.163 352.642  1.00  0.00     0.097 C 
HETATM    2  C3  UNL     1       4.625 139.099 353.829  1.00  0.00     0.001 C 
HETATM    3  C4  UNL     1       5.535 140.269 353.621  1.00  0.00     0.006 C 
HETATM    4  C5  UNL     1       4.941 140.929 352.382  1.00  0.00     0.005 C 
HETATM    5  C6  UNL     1       3.665 140.168 352.074  1.00  0.00    -0.007 C 
HETATM    6  C7  UNL     1       3.272 139.764 353.509  1.00  0.00     0.010 C 
HETATM    7  C8  UNL     1       3.970 138.818 351.509  1.00  0.00     0.033 C 
ENDROOT
BRANCH   7   8
HETATM    8  C9  UNL     1       4.756 138.847 350.233  1.00  0.00     0.282 C 
BRANCH   8   9
HETATM    9  N1  UNL     1       3.884 138.819 349.101  1.00  0.00     0.129 N 
HETATM   10  C10 UNL     1       4.393 138.388 347.810  1.00  0.00     0.345 A 
HETATM   11  C11 UNL     1       3.439 137.552 348.551  1.00  0.00     0.433 A 
HETATM   12  F1  UNL     1       2.123 137.547 348.119  1.00  0.00    -0.214 F 
ENDBRANCH   8   9
ENDBRANCH   7   8
BRANCH   1  13
HETATM   13  C1  UNL     1       4.084 136.862 352.937  1.00  0.00     0.177 C 
HETATM   14  O1  UNL     1       3.123 136.408 352.282  1.00  0.00    -0.648 OA
HETATM   15  O2  UNL     1       4.564 136.110 353.999  1.00  0.00    -0.648 OA
ENDBRANCH   1  13
TORSDOF 3
ENDMDL
MODEL 3
REMARK VINA RESULT: -5.931367530      3.368      5.013
REMARK  3 active torsions:
REMARK  status: ('A' for Active; 'I' for Inactive)
REMARK    1  A    between atoms: C1_2  and  C2_4 
REMARK    2  A    between atoms: C8_10  and  C9_11 
REMARK    3  A    between atoms: C9_11  and  N1_12 
ROOT
HETATM    1  C2  UNL     1       3.666 137.926 352.354  1.00  0.00     0.097 C 
HETATM    2  C3  UNL     1       4.403 136.817 351.631  1.00  0.00     0.001 C 
HETATM    3  C4  UNL     1       3.805 136.635 350.271  1.00  0.00     0.006 C 
HETATM    4  C5  UNL     1       4.101 137.974 349.604  1.00  0.00     0.005 C 
HETATM    5  C6  UNL     1       4.965 138.747 350.583  1.00  0.00    -0.007 C 
HETATM    6  C7  UNL     1       5.696 137.563 351.248  1.00  0.00     0.010 C 
HETATM    7  C8  UNL     1       4.157 139.228 351.745  1.00  0.00     0.033 C 
ENDROOT
BRANCH   7   8
HETATM    8  C9  UNL     1       3.027 140.140 351.375  1.00  0.00     0.282 C 
BRANCH   8   9
HETATM    9  N1  UNL     1       2.758 141.066 352.430  1.00  0.00     0.129 N 
HETATM   10  C10 UNL     1       3.036 142.479 352.237  1.00  0.00     0.345 A 
HETATM   11  C11 UNL     1       1.650 141.998 352.322  1.00  0.00     0.433 A 
HETATM   12  F1  UNL     1       0.969 142.217 353.507  1.00  0.00    -0.214 F 
ENDBRANCH   8   9
ENDBRANCH   7   8
BRANCH   1  13
HETATM   13  C1  UNL     1       4.030 137.941 353.796  1.00  0.00     0.177 C 
HETATM   14  O1  UNL     1       3.882 138.936 354.536  1.00  0.00    -0.648 OA
HETATM   15  O2  UNL     1       4.564 136.788 354.351  1.00  0.00    -0.648 OA
ENDBRANCH   1  13
TORSDOF 3
ENDMDL
MODEL 4
REMARK VINA RESULT: -5.847461410      2.696      3.757
REMARK  3 active torsions:
REMARK  status: ('A' for Active; 'I' for Inactive)
REMARK    1  A    between atoms: C1_2  and  C2_4 
REMARK    2  A    between atoms: C8_10  and  C9_11 
REMARK    3  A    between atoms: C9_11  and  N1_12 
ROOT
HETATM    1  C2  UNL     1       2.268 143.908 353.098  1.00  0.00     0.097 C 
HETATM    2  C3  UNL     1       1.584 145.130 352.518  1.00  0.00     0.001 C 
HETATM    3  C4  UNL     1       2.348 146.354 352.916  1.00  0.00     0.006 C 
HETATM    4  C5  UNL     1       3.691 146.138 352.229  1.00  0.00     0.005 C 
HETATM    5  C6  UNL     1       3.532 144.889 351.384  1.00  0.00    -0.007 C 
HETATM    6  C7  UNL     1       2.032 145.012 351.049  1.00  0.00     0.010 C 
HETATM    7  C8  UNL     1       3.498 143.664 352.241  1.00  0.00     0.033 C 
ENDROOT
BRANCH   7   8
HETATM    8  C9  UNL     1       4.730 143.454 353.067  1.00  0.00     0.282 C 
BRANCH   8   9
HETATM    9  N1  UNL     1       5.458 142.312 352.609  1.00  0.00     0.129 N 
HETATM   10  C10 UNL     1       6.004 141.372 353.573  1.00  0.00     0.345 A 
HETATM   11  C11 UNL     1       4.878 140.986 352.712  1.00  0.00     0.433 A 
HETATM   12  F1  UNL     1       5.151 140.157 351.637  1.00  0.00    -0.214 F 
ENDBRANCH   8   9
ENDBRANCH   7   8
BRANCH   1  13
HETATM   13  C1  UNL     1       1.392 142.712 352.975  1.00  0.00     0.177 C 
HETATM   14  O1  UNL     1       1.573 141.806 352.136  1.00  0.00    -0.648 OA
HETATM   15  O2  UNL     1       0.315 142.597 353.841  1.00  0.00    -0.648 OA
ENDBRANCH   1  13
TORSDOF 3
ENDMDL
MODEL 5
REMARK VINA RESULT: -5.785327158      3.450      5.106
REMARK  3 active torsions:
REMARK  status: ('A' for Active; 'I' for Inactive)
REMARK    1  A    between atoms: C1_2  and  C2_4 
REMARK    2  A    between atoms: C8_10  and  C9_11 
REMARK    3  A    between atoms: C9_11  and  N1_12 
ROOT
HETATM    1  C2  UNL     1       4.651 138.478 350.798  1.00  0.00     0.097 C 
HETATM    2  C3  UNL     1       4.845 137.050 351.269  1.00  0.00     0.001 C 
HETATM    3  C4  UNL     1       5.891 137.025 352.339  1.00  0.00     0.006 C 
HETATM    4  C5  UNL     1       5.247 137.852 353.445  1.00  0.00     0.005 C 
HETATM    5  C6  UNL     1       3.837 138.154 352.973  1.00  0.00    -0.007 C 
HETATM    6  C7  UNL     1       3.583 136.884 352.137  1.00  0.00     0.010 C 
HETATM    7  C8  UNL     1       3.846 139.175 351.881  1.00  0.00     0.033 C 
ENDROOT
BRANCH   7   8
HETATM    8  C9  UNL     1       4.446 140.491 352.272  1.00  0.00     0.282 C 
BRANCH   8   9
HETATM    9  N1  UNL     1       3.433 141.399 352.712  1.00  0.00     0.129 N 
HETATM   10  C10 UNL     1       3.242 142.658 352.014  1.00  0.00     0.345 A 
HETATM   11  C11 UNL     1       2.232 141.595 351.921  1.00  0.00     0.433 A 
HETATM   12  F1  UNL     1       1.075 141.745 352.666  1.00  0.00    -0.214 F 
ENDBRANCH   8   9
ENDBRANCH   7   8
BRANCH   1  13
HETATM   13  C1  UNL     1       3.843 138.510 349.549  1.00  0.00     0.177 C 
HETATM   14  O1  UNL     1       3.102 139.462 349.230  1.00  0.00    -0.648 OA
HETATM   15  O2  UNL     1       3.918 137.423 348.692  1.00  0.00    -0.648 OA
ENDBRANCH   1  13
TORSDOF 3
ENDMDL
