MODEL 1
REMARK VINA RESULT: -7.952386088      0.000      0.000
REMARK  8 active torsions:
REMARK  status: ('A' for Active; 'I' for Inactive)
REMARK    1  A    between atoms: C3_6  and  C4_7 
REMARK    2  A    between atoms: C7_10  and  C8_11 
REMARK    3  A    between atoms: C9_14  and  C10_15 
REMARK    4  A    between atoms: C10_15  and  O2_16 
REMARK    5  A    between atoms: C10_15  and  C11_18 
REMARK    6  A    between atoms: C11_18  and  N3_19 
REMARK    7  A    between atoms: C14_22  and  N4_23 
REMARK    8  A    between atoms: N4_23  and  C15_25 
ROOT
HETATM    1  C10 UNL     1      27.121 -22.944 -14.337  1.00  0.00     0.215 C 
ENDROOT
BRANCH   1   2
HETATM    2  C9  UNL     1      26.605 -21.687 -14.952  1.00  0.00     0.135 A 
HETATM    3  N2  UNL     1      25.838 -21.513 -16.042  1.00  0.00    -0.320 N 
HETATM    4  C8  UNL     1      25.627 -20.193 -16.244  1.00  0.00     0.186 A 
ATOM      5  H2  UNL     1      25.470 -22.263 -16.627  1.00  0.00     0.169 HD
HETATM    6  O3  UNL     1      26.269 -19.603 -15.275  1.00  0.00    -0.217 OA
HETATM    7  N5  UNL     1      26.855 -20.465 -14.498  1.00  0.00    -0.244 N 
ATOM      8  H5  UNL     1      27.415 -20.240 -13.675  1.00  0.00     0.196 HD
BRANCH   4   9
HETATM    9  C7  UNL     1      24.869 -19.522 -17.283  1.00  0.00     0.073 A 
HETATM   10  C2  UNL     1      25.318 -18.591 -18.206  1.00  0.00     0.045 A 
HETATM   11  C1  UNL     1      26.706 -18.105 -18.289  1.00  0.00     0.071 C 
HETATM   12  N1  UNL     1      24.251 -18.275 -18.944  1.00  0.00    -0.265 N 
HETATM   13  O1  UNL     1      23.209 -18.948 -18.526  1.00  0.00    -0.241 OA
ATOM     14  H1  UNL     1      24.248 -17.609 -19.717  1.00  0.00     0.194 HD
HETATM   15  C3  UNL     1      23.525 -19.721 -17.520  1.00  0.00     0.096 A 
BRANCH  15  16
HETATM   16  C4  UNL     1      22.562 -20.600 -16.831  1.00  0.00     0.038 C 
HETATM   17  C5  UNL     1      21.233 -20.567 -17.538  1.00  0.00     0.016 C 
HETATM   18  C6  UNL     1      22.352 -20.197 -15.387  1.00  0.00     0.016 C 
ENDBRANCH  15  16
ENDBRANCH   4   9
ENDBRANCH   1   2
BRANCH   1  19
HETATM   19  O2  UNL     1      28.233 -23.347 -15.055  1.00  0.00    -0.386 OA
ATOM     20  H2  UNL     1      28.947 -23.479 -14.441  1.00  0.00     0.210 HD
ENDBRANCH   1  19
BRANCH   1  21
HETATM   21  C11 UNL     1      26.036 -23.967 -14.319  1.00  0.00     0.311 C 
BRANCH  21  22
HETATM   22  N3  UNL     1      25.068 -23.886 -13.266  1.00  0.00     0.091 N 
HETATM   23  C12 UNL     1      25.644 -23.221 -12.157  1.00  0.00     0.274 C 
HETATM   24  C13 UNL     1      24.748 -22.608 -11.138  1.00  0.00     0.055 C 
HETATM   25  C14 UNL     1      23.577 -21.949 -11.768  1.00  0.00     0.080 C 
HETATM   26  C22 UNL     1      22.878 -23.097 -12.556  1.00  0.00     0.055 C 
HETATM   27  C23 UNL     1      23.820 -23.423 -13.708  1.00  0.00     0.274 C 
BRANCH  25  28
HETATM   28  N4  UNL     1      22.642 -21.254 -11.007  1.00  0.00    -0.413 N 
ATOM     29  H4  UNL     1      22.754 -21.219  -9.993  1.00  0.00     0.154 HD
BRANCH  28  30
HETATM   30  C15 UNL     1      21.552 -20.600 -11.596  1.00  0.00     0.077 C 
HETATM   31  C16 UNL     1      21.786 -19.222 -12.099  1.00  0.00     0.025 C 
HETATM   32  C17 UNL     1      20.601 -18.296 -11.829  1.00  0.00     0.006 C 
HETATM   33  C18 UNL     1      20.349 -18.147 -10.344  1.00  0.00    -0.019 C 
HETATM   34  C19 UNL     1      18.939 -17.608 -10.176  1.00  0.00     0.010 C 
HETATM   35  C20 UNL     1      20.399 -19.498  -9.654  1.00  0.00     0.006 C 
HETATM   36  C21 UNL     1      20.315 -20.608 -10.684  1.00  0.00     0.025 C 
ENDBRANCH  28  30
ENDBRANCH  25  28
ENDBRANCH  21  22
ENDBRANCH   1  21
TORSDOF 8
ENDMDL
MODEL 2
REMARK VINA RESULT: -7.548449236      0.591      2.204
REMARK  8 active torsions:
REMARK  status: ('A' for Active; 'I' for Inactive)
REMARK    1  A    between atoms: C3_6  and  C4_7 
REMARK    2  A    between atoms: C7_10  and  C8_11 
REMARK    3  A    between atoms: C9_14  and  C10_15 
REMARK    4  A    between atoms: C10_15  and  O2_16 
REMARK    5  A    between atoms: C10_15  and  C11_18 
REMARK    6  A    between atoms: C11_18  and  N3_19 
REMARK    7  A    between atoms: C14_22  and  N4_23 
REMARK    8  A    between atoms: N4_23  and  C15_25 
ROOT
HETATM    1  C10 UNL     1      27.179 -22.967 -14.206  1.00  0.00     0.215 C 
ENDROOT
BRANCH   1   2
HETATM    2  C9  UNL     1      26.610 -21.750 -14.853  1.00  0.00     0.135 A 
HETATM    3  N2  UNL     1      25.726 -21.642 -15.860  1.00  0.00    -0.320 N 
HETATM    4  C8  UNL     1      25.508 -20.336 -16.135  1.00  0.00     0.186 A 
ATOM      5  H2  UNL     1      25.286 -22.425 -16.342  1.00  0.00     0.169 HD
HETATM    6  O3  UNL     1      26.262 -19.689 -15.291  1.00  0.00    -0.217 OA
HETATM    7  N5  UNL     1      26.923 -20.503 -14.523  1.00  0.00    -0.244 N 
ATOM      8  H5  UNL     1      27.574 -20.229 -13.787  1.00  0.00     0.196 HD
BRANCH   4   9
HETATM    9  C7  UNL     1      24.645 -19.729 -17.131  1.00  0.00     0.073 A 
HETATM   10  C2  UNL     1      23.259 -19.706 -17.165  1.00  0.00     0.045 A 
HETATM   11  C1  UNL     1      22.393 -20.325 -16.147  1.00  0.00     0.071 C 
HETATM   12  N1  UNL     1      22.939 -19.030 -18.271  1.00  0.00    -0.265 N 
HETATM   13  O1  UNL     1      24.029 -18.653 -18.890  1.00  0.00    -0.241 OA
ATOM     14  H1  UNL     1      21.989 -18.836 -18.586  1.00  0.00     0.194 HD
HETATM   15  C3  UNL     1      25.095 -19.049 -18.244  1.00  0.00     0.096 A 
BRANCH  15  16
HETATM   16  C4  UNL     1      26.472 -18.780 -18.695  1.00  0.00     0.038 C 
HETATM   17  C5  UNL     1      26.946 -17.458 -18.152  1.00  0.00     0.016 C 
HETATM   18  C6  UNL     1      26.583 -18.750 -20.204  1.00  0.00     0.016 C 
ENDBRANCH  15  16
ENDBRANCH   4   9
ENDBRANCH   1   2
BRANCH   1  19
HETATM   19  O2  UNL     1      28.319 -23.328 -14.902  1.00  0.00    -0.386 OA
ATOM     20  H2  UNL     1      28.056 -23.862 -15.642  1.00  0.00     0.210 HD
ENDBRANCH   1  19
BRANCH   1  21
HETATM   21  C11 UNL     1      26.145 -24.042 -14.183  1.00  0.00     0.311 C 
BRANCH  21  22
HETATM   22  N3  UNL     1      25.160 -23.990 -13.144  1.00  0.00     0.091 N 
HETATM   23  C12 UNL     1      25.690 -23.282 -12.038  1.00  0.00     0.274 C 
HETATM   24  C13 UNL     1      24.752 -22.696 -11.041  1.00  0.00     0.055 C 
HETATM   25  C14 UNL     1      23.561 -22.102 -11.697  1.00  0.00     0.080 C 
HETATM   26  C22 UNL     1      22.926 -23.293 -12.475  1.00  0.00     0.055 C 
HETATM   27  C23 UNL     1      23.898 -23.593 -13.609  1.00  0.00     0.274 C 
BRANCH  25  28
HETATM   28  N4  UNL     1      22.585 -21.439 -10.959  1.00  0.00    -0.413 N 
ATOM     29  H4  UNL     1      22.653 -21.427  -9.941  1.00  0.00     0.154 HD
BRANCH  28  30
HETATM   30  C15 UNL     1      21.510 -20.787 -11.577  1.00  0.00     0.077 C 
HETATM   31  C16 UNL     1      21.796 -19.479 -12.219  1.00  0.00     0.025 C 
HETATM   32  C17 UNL     1      20.670 -18.468 -12.007  1.00  0.00     0.006 C 
HETATM   33  C18 UNL     1      20.476 -18.163 -10.538  1.00  0.00    -0.019 C 
HETATM   34  C19 UNL     1      19.102 -17.536 -10.382  1.00  0.00     0.010 C 
HETATM   35  C20 UNL     1      20.481 -19.443  -9.720  1.00  0.00     0.006 C 
HETATM   36  C21 UNL     1      20.306 -20.641 -10.634  1.00  0.00     0.025 C 
ENDBRANCH  28  30
ENDBRANCH  25  28
ENDBRANCH  21  22
ENDBRANCH   1  21
TORSDOF 8
ENDMDL
MODEL 3
REMARK VINA RESULT: -7.313421247      4.386      8.072
REMARK  8 active torsions:
REMARK  status: ('A' for Active; 'I' for Inactive)
REMARK    1  A    between atoms: C3_6  and  C4_7 
REMARK    2  A    between atoms: C7_10  and  C8_11 
REMARK    3  A    between atoms: C9_14  and  C10_15 
REMARK    4  A    between atoms: C10_15  and  O2_16 
REMARK    5  A    between atoms: C10_15  and  C11_18 
REMARK    6  A    between atoms: C11_18  and  N3_19 
REMARK    7  A    between atoms: C14_22  and  N4_23 
REMARK    8  A    between atoms: N4_23  and  C15_25 
ROOT
HETATM    1  C10 UNL     1      25.732 -24.537 -12.215  1.00  0.00     0.215 C 
ENDROOT
BRANCH   1   2
HETATM    2  C9  UNL     1      25.777 -25.142 -10.853  1.00  0.00     0.135 A 
HETATM    3  N2  UNL     1      24.803 -25.273  -9.935  1.00  0.00    -0.320 N 
HETATM    4  C8  UNL     1      25.298 -25.870  -8.828  1.00  0.00     0.186 A 
ATOM      5  H2  UNL     1      23.837 -24.969 -10.056  1.00  0.00     0.169 HD
HETATM    6  O3  UNL     1      26.555 -26.085  -9.102  1.00  0.00    -0.217 OA
HETATM    7  N5  UNL     1      26.862 -25.663 -10.293  1.00  0.00    -0.244 N 
ATOM      8  H5  UNL     1      27.783 -25.724 -10.726  1.00  0.00     0.196 HD
BRANCH   4   9
HETATM    9  C7  UNL     1      24.635 -26.219  -7.586  1.00  0.00     0.073 A 
HETATM   10  C2  UNL     1      24.424 -25.420  -6.473  1.00  0.00     0.045 A 
HETATM   11  C1  UNL     1      24.857 -24.017  -6.363  1.00  0.00     0.071 C 
HETATM   12  N1  UNL     1      23.774 -26.191  -5.598  1.00  0.00    -0.265 N 
HETATM   13  O1  UNL     1      23.587 -27.381  -6.109  1.00  0.00    -0.241 OA
ATOM     14  H1  UNL     1      23.468 -25.897  -4.670  1.00  0.00     0.194 HD
HETATM   15  C3  UNL     1      24.090 -27.456  -7.314  1.00  0.00     0.096 A 
BRANCH  15  16
HETATM   16  C4  UNL     1      24.039 -28.672  -8.147  1.00  0.00     0.038 C 
HETATM   17  C5  UNL     1      22.807 -29.472  -7.819  1.00  0.00     0.016 C 
HETATM   18  C6  UNL     1      25.254 -29.552  -7.947  1.00  0.00     0.016 C 
ENDBRANCH  15  16
ENDBRANCH   4   9
ENDBRANCH   1   2
BRANCH   1  19
HETATM   19  O2  UNL     1      26.664 -23.515 -12.261  1.00  0.00    -0.386 OA
ATOM     20  H2  UNL     1      27.530 -23.907 -12.273  1.00  0.00     0.210 HD
ENDBRANCH   1  19
BRANCH   1  21
HETATM   21  C11 UNL     1      24.344 -24.074 -12.504  1.00  0.00     0.311 C 
BRANCH  21  22
HETATM   22  N3  UNL     1      24.065 -22.678 -12.343  1.00  0.00     0.091 N 
HETATM   23  C12 UNL     1      23.724 -22.125 -13.601  1.00  0.00     0.274 C 
HETATM   24  C13 UNL     1      22.961 -20.847 -13.645  1.00  0.00     0.055 C 
HETATM   25  C14 UNL     1      21.912 -20.803 -12.597  1.00  0.00     0.080 C 
HETATM   26  C22 UNL     1      22.701 -20.975 -11.265  1.00  0.00     0.055 C 
HETATM   27  C23 UNL     1      23.194 -22.416 -11.275  1.00  0.00     0.274 C 
BRANCH  25  28
HETATM   28  N4  UNL     1      21.035 -19.727 -12.496  1.00  0.00    -0.413 N 
ATOM     29  H4  UNL     1      20.445 -19.491 -13.295  1.00  0.00     0.154 HD
BRANCH  28  30
HETATM   30  C15 UNL     1      20.939 -18.960 -11.328  1.00  0.00     0.077 C 
HETATM   31  C16 UNL     1      19.954 -19.405 -10.310  1.00  0.00     0.025 C 
HETATM   32  C17 UNL     1      19.229 -18.232  -9.651  1.00  0.00     0.006 C 
HETATM   33  C18 UNL     1      18.433 -17.440 -10.666  1.00  0.00    -0.019 C 
HETATM   34  C19 UNL     1      18.129 -16.087 -10.046  1.00  0.00     0.010 C 
HETATM   35  C20 UNL     1      19.258 -17.187 -11.915  1.00  0.00     0.006 C 
HETATM   36  C21 UNL     1      20.722 -17.470 -11.634  1.00  0.00     0.025 C 
ENDBRANCH  28  30
ENDBRANCH  25  28
ENDBRANCH  21  22
ENDBRANCH   1  21
TORSDOF 8
ENDMDL
MODEL 4
REMARK VINA RESULT: -7.288511030      1.562      2.412
REMARK  8 active torsions:
REMARK  status: ('A' for Active; 'I' for Inactive)
REMARK    1  A    between atoms: C3_6  and  C4_7 
REMARK    2  A    between atoms: C7_10  and  C8_11 
REMARK    3  A    between atoms: C9_14  and  C10_15 
REMARK    4  A    between atoms: C10_15  and  O2_16 
REMARK    5  A    between atoms: C10_15  and  C11_18 
REMARK    6  A    between atoms: C11_18  and  N3_19 
REMARK    7  A    between atoms: C14_22  and  N4_23 
REMARK    8  A    between atoms: N4_23  and  C15_25 
ROOT
HETATM    1  C10 UNL     1      25.250 -22.482 -14.057  1.00  0.00     0.215 C 
ENDROOT
BRANCH   1   2
HETATM    2  C9  UNL     1      25.089 -21.371 -15.038  1.00  0.00     0.135 A 
HETATM    3  N2  UNL     1      24.252 -21.260 -16.085  1.00  0.00    -0.320 N 
HETATM    4  C8  UNL     1      24.465 -20.082 -16.714  1.00  0.00     0.186 A 
ATOM      5  H2  UNL     1      23.562 -21.957 -16.361  1.00  0.00     0.169 HD
HETATM    6  O3  UNL     1      25.421 -19.512 -16.035  1.00  0.00    -0.217 OA
HETATM    7  N5  UNL     1      25.806 -20.254 -15.040  1.00  0.00    -0.244 N 
ATOM      8  H5  UNL     1      26.539 -20.018 -14.370  1.00  0.00     0.196 HD
BRANCH   4   9
HETATM    9  C7  UNL     1      23.812 -19.522 -17.882  1.00  0.00     0.073 A 
HETATM   10  C2  UNL     1      24.342 -18.661 -18.830  1.00  0.00     0.045 A 
HETATM   11  C1  UNL     1      25.722 -18.148 -18.807  1.00  0.00     0.071 C 
HETATM   12  N1  UNL     1      23.355 -18.438 -19.702  1.00  0.00    -0.265 N 
HETATM   13  O1  UNL     1      22.286 -19.100 -19.340  1.00  0.00    -0.241 OA
ATOM     14  H1  UNL     1      23.424 -17.840 -20.526  1.00  0.00     0.194 HD
HETATM   15  C3  UNL     1      22.505 -19.777 -18.242  1.00  0.00     0.096 A 
BRANCH  15  16
HETATM   16  C4  UNL     1      21.488 -20.619 -17.585  1.00  0.00     0.038 C 
HETATM   17  C5  UNL     1      20.443 -21.042 -18.582  1.00  0.00     0.016 C 
HETATM   18  C6  UNL     1      20.804 -19.901 -16.442  1.00  0.00     0.016 C 
ENDBRANCH  15  16
ENDBRANCH   4   9
ENDBRANCH   1   2
BRANCH   1  19
HETATM   19  O2  UNL     1      24.567 -23.584 -14.541  1.00  0.00    -0.386 OA
ATOM     20  H2  UNL     1      24.335 -23.412 -15.446  1.00  0.00     0.210 HD
ENDBRANCH   1  19
BRANCH   1  21
HETATM   21  C11 UNL     1      24.762 -22.035 -12.720  1.00  0.00     0.311 C 
BRANCH  21  22
HETATM   22  N3  UNL     1      23.347 -22.013 -12.506  1.00  0.00     0.091 N 
HETATM   23  C12 UNL     1      23.078 -22.319 -11.150  1.00  0.00     0.274 C 
HETATM   24  C13 UNL     1      21.767 -21.921 -10.565  1.00  0.00     0.055 C 
HETATM   25  C14 UNL     1      21.348 -20.577 -11.035  1.00  0.00     0.080 C 
HETATM   26  C22 UNL     1      21.284 -20.722 -12.585  1.00  0.00     0.055 C 
HETATM   27  C23 UNL     1      22.733 -20.867 -13.033  1.00  0.00     0.274 C 
BRANCH  25  28
HETATM   28  N4  UNL     1      20.184 -19.977 -10.564  1.00  0.00    -0.413 N 
ATOM     29  H4  UNL     1      19.348 -20.547 -10.435  1.00  0.00     0.154 HD
BRANCH  28  30
HETATM   30  C15 UNL     1      20.130 -18.610 -10.262  1.00  0.00     0.077 C 
HETATM   31  C16 UNL     1      18.976 -18.147  -9.449  1.00  0.00     0.025 C 
HETATM   32  C17 UNL     1      18.442 -16.793  -9.916  1.00  0.00     0.006 C 
HETATM   33  C18 UNL     1      17.930 -16.867 -11.338  1.00  0.00    -0.019 C 
HETATM   34  C19 UNL     1      17.847 -15.444 -11.864  1.00  0.00     0.010 C 
HETATM   35  C20 UNL     1      18.912 -17.616 -12.223  1.00  0.00     0.006 C 
HETATM   36  C21 UNL     1      20.251 -17.737 -11.521  1.00  0.00     0.025 C 
ENDBRANCH  28  30
ENDBRANCH  25  28
ENDBRANCH  21  22
ENDBRANCH   1  21
TORSDOF 8
ENDMDL
MODEL 5
REMARK VINA RESULT: -7.263130337      3.606      7.110
REMARK  8 active torsions:
REMARK  status: ('A' for Active; 'I' for Inactive)
REMARK    1  A    between atoms: C3_6  and  C4_7 
REMARK    2  A    between atoms: C7_10  and  C8_11 
REMARK    3  A    between atoms: C9_14  and  C10_15 
REMARK    4  A    between atoms: C10_15  and  O2_16 
REMARK    5  A    between atoms: C10_15  and  C11_18 
REMARK    6  A    between atoms: C11_18  and  N3_19 
REMARK    7  A    between atoms: C14_22  and  N4_23 
REMARK    8  A    between atoms: N4_23  and  C15_25 
ROOT
HETATM    1  C10 UNL     1      26.123 -23.689 -13.115  1.00  0.00     0.215 C 
ENDROOT
BRANCH   1   2
HETATM    2  C9  UNL     1      26.708 -23.428 -11.768  1.00  0.00     0.135 A 
HETATM    3  N2  UNL     1      26.799 -24.236 -10.697  1.00  0.00    -0.320 N 
HETATM    4  C8  UNL     1      27.391 -23.574  -9.678  1.00  0.00     0.186 A 
ATOM      5  H2  UNL     1      26.473 -25.201 -10.659  1.00  0.00     0.169 HD
HETATM    6  O3  UNL     1      27.642 -22.386 -10.155  1.00  0.00    -0.217 OA
HETATM    7  N5  UNL     1      27.248 -22.277 -11.389  1.00  0.00    -0.244 N 
ATOM      8  H5  UNL     1      27.338 -21.443 -11.970  1.00  0.00     0.196 HD
BRANCH   4   9
HETATM    9  C7  UNL     1      27.703 -24.025  -8.334  1.00  0.00     0.073 A 
HETATM   10  C2  UNL     1      28.951 -24.225  -7.766  1.00  0.00     0.045 A 
HETATM   11  C1  UNL     1      30.228 -24.002  -8.465  1.00  0.00     0.071 C 
HETATM   12  N1  UNL     1      28.714 -24.638  -6.518  1.00  0.00    -0.265 N 
HETATM   13  O1  UNL     1      27.424 -24.696  -6.309  1.00  0.00    -0.241 OA
ATOM     14  H1  UNL     1      29.431 -24.872  -5.831  1.00  0.00     0.194 HD
HETATM   15  C3  UNL     1      26.760 -24.335  -7.377  1.00  0.00     0.096 A 
BRANCH  15  16
HETATM   16  C4  UNL     1      25.288 -24.301  -7.452  1.00  0.00     0.038 C 
HETATM   17  C5  UNL     1      24.706 -24.050  -6.086  1.00  0.00     0.016 C 
HETATM   18  C6  UNL     1      24.713 -25.591  -7.994  1.00  0.00     0.016 C 
ENDBRANCH  15  16
ENDBRANCH   4   9
ENDBRANCH   1   2
BRANCH   1  19
HETATM   19  O2  UNL     1      27.050 -24.403 -13.853  1.00  0.00    -0.386 OA
ATOM     20  H2  UNL     1      26.578 -25.022 -14.399  1.00  0.00     0.210 HD
ENDBRANCH   1  19
BRANCH   1  21
HETATM   21  C11 UNL     1      25.746 -22.393 -13.749  1.00  0.00     0.311 C 
BRANCH  21  22
HETATM   22  N3  UNL     1      24.349 -22.104 -13.885  1.00  0.00     0.091 N 
HETATM   23  C12 UNL     1      23.683 -22.465 -12.689  1.00  0.00     0.274 C 
HETATM   24  C13 UNL     1      22.354 -21.862 -12.393  1.00  0.00     0.055 C 
HETATM   25  C14 UNL     1      22.312 -20.426 -12.766  1.00  0.00     0.080 C 
HETATM   26  C22 UNL     1      22.637 -20.423 -14.289  1.00  0.00     0.055 C 
HETATM   27  C23 UNL     1      24.105 -20.817 -14.386  1.00  0.00     0.274 C 
BRANCH  25  28
HETATM   28  N4  UNL     1      21.187 -19.646 -12.515  1.00  0.00    -0.413 N 
ATOM     29  H4  UNL     1      20.440 -19.614 -13.210  1.00  0.00     0.154 HD
BRANCH  28  30
HETATM   30  C15 UNL     1      21.052 -18.904 -11.335  1.00  0.00     0.077 C 
HETATM   31  C16 UNL     1      20.093 -19.417 -10.324  1.00  0.00     0.025 C 
HETATM   32  C17 UNL     1      19.307 -18.294  -9.647  1.00  0.00     0.006 C 
HETATM   33  C18 UNL     1      18.469 -17.530 -10.648  1.00  0.00    -0.019 C 
HETATM   34  C19 UNL     1      18.095 -16.205 -10.007  1.00  0.00     0.010 C 
HETATM   35  C20 UNL     1      19.278 -17.214 -11.894  1.00  0.00     0.006 C 
HETATM   36  C21 UNL     1      20.755 -17.423 -11.617  1.00  0.00     0.025 C 
ENDBRANCH  28  30
ENDBRANCH  25  28
ENDBRANCH  21  22
ENDBRANCH   1  21
TORSDOF 8
ENDMDL
