MODEL 1
REMARK VINA RESULT: -6.322311543      0.000      0.000
REMARK  8 active torsions:
REMARK  status: ('A' for Active; 'I' for Inactive)
REMARK    1  A    between atoms: C2_2  and  C3_3 
REMARK    2  A    between atoms: C3_3  and  C4_4 
REMARK    3  A    between atoms: C3_3  and  S1_6 
REMARK    4  A    between atoms: C3_3  and  C7_9 
REMARK    5  A    between atoms: C9_13  and  C10_14 
REMARK    6  A    between atoms: C12_18  and  N4_19 
REMARK    7  A    between atoms: N4_19  and  C13_21 
REMARK    8  A    between atoms: C17_25  and  N5_26 
ROOT
HETATM    1  S1  UNL     1      21.201 -22.261 -22.495  1.00  0.00    -0.034 SA
HETATM    2  C6  UNL     1      22.160 -23.008 -21.218  1.00  0.00     0.134 C 
HETATM    3  N1  UNL     1      22.794 -23.523 -20.369  1.00  0.00    -0.184 NA
ENDROOT
BRANCH   1   4
HETATM    4  C3  UNL     1      20.313 -20.816 -21.861  1.00  0.00     0.072 C 
BRANCH   4   5
HETATM    5  C2  UNL     1      18.979 -20.771 -22.613  1.00  0.00     0.024 C 
HETATM    6  C1  UNL     1      18.803 -19.405 -23.232  1.00  0.00     0.007 C 
ENDBRANCH   4   5
BRANCH   4   7
HETATM    7  C4  UNL     1      21.035 -19.546 -22.211  1.00  0.00     0.024 C 
HETATM    8  C5  UNL     1      22.418 -19.767 -22.757  1.00  0.00     0.007 C 
ENDBRANCH   4   7
BRANCH   4   9
HETATM    9  C7  UNL     1      20.080 -20.970 -20.402  1.00  0.00     0.090 A 
HETATM   10  C8  UNL     1      19.062 -21.671 -19.792  1.00  0.00     0.124 A 
HETATM   11  N2  UNL     1      19.218 -21.556 -18.476  1.00  0.00    -0.343 N 
HETATM   12  C9  UNL     1      20.302 -20.806 -18.269  1.00  0.00     0.166 A 
ATOM     13  H2  UNL     1      18.620 -21.966 -17.758  1.00  0.00     0.167 HD
HETATM   14  O2  UNL     1      20.786 -20.476 -19.419  1.00  0.00    -0.294 OA
BRANCH  12  15
HETATM   15  C10 UNL     1      20.796 -20.454 -16.923  1.00  0.00     0.075 A 
HETATM   16  C11 UNL     1      20.075 -20.024 -15.840  1.00  0.00     0.113 A 
HETATM   17  N3  UNL     1      20.723 -19.759 -14.744  1.00  0.00    -0.345 N 
HETATM   18  C12 UNL     1      22.043 -19.913 -14.715  1.00  0.00     0.147 A 
ATOM     19  H3  UNL     1      20.224 -19.436 -13.915  1.00  0.00     0.167 HD
HETATM   20  S2  UNL     1      22.387 -20.458 -16.309  1.00  0.00    -0.049 SA
BRANCH  18  21
HETATM   21  N4  UNL     1      22.895 -19.702 -13.742  1.00  0.00    -0.344 N 
ATOM     22  H4  UNL     1      23.778 -19.218 -13.904  1.00  0.00     0.164 HD
BRANCH  21  23
HETATM   23  C13 UNL     1      22.527 -20.188 -12.418  1.00  0.00     0.225 C 
HETATM   24  C14 UNL     1      22.432 -21.694 -12.539  1.00  0.00     0.054 C 
HETATM   25  C15 UNL     1      22.145 -22.246 -11.159  1.00  0.00     0.008 C 
HETATM   26  C16 UNL     1      20.754 -21.684 -10.813  1.00  0.00     0.054 C 
HETATM   27  C17 UNL     1      20.954 -20.183 -10.779  1.00  0.00     0.225 C 
HETATM   28  O1  UNL     1      21.307 -19.695 -12.035  1.00  0.00    -0.343 OA
BRANCH  27  29
HETATM   29  N5  UNL     1      19.740 -19.569 -10.299  1.00  0.00    -0.340 N 
HETATM   30  C18 UNL     1      19.659 -18.286 -10.248  1.00  0.00     0.198 C 
HETATM   31  N6  UNL     1      18.458 -17.672  -9.774  1.00  0.00    -0.067 NA
HETATM   32  N7  UNL     1      20.705 -17.397 -10.632  1.00  0.00    -0.067 NA
ATOM     33  H5  UNL     1      18.953 -20.147 -10.004  1.00  0.00     0.164 HD
ENDBRANCH  27  29
ENDBRANCH  21  23
ENDBRANCH  18  21
ENDBRANCH  12  15
ENDBRANCH   4   9
ENDBRANCH   1   4
TORSDOF 8
ENDMDL
MODEL 2
REMARK VINA RESULT: -6.212917762      1.491      2.300
REMARK  8 active torsions:
REMARK  status: ('A' for Active; 'I' for Inactive)
REMARK    1  A    between atoms: C2_2  and  C3_3 
REMARK    2  A    between atoms: C3_3  and  C4_4 
REMARK    3  A    between atoms: C3_3  and  S1_6 
REMARK    4  A    between atoms: C3_3  and  C7_9 
REMARK    5  A    between atoms: C9_13  and  C10_14 
REMARK    6  A    between atoms: C12_18  and  N4_19 
REMARK    7  A    between atoms: N4_19  and  C13_21 
REMARK    8  A    between atoms: C17_25  and  N5_26 
ROOT
HETATM    1  S1  UNL     1      22.105 -20.093 -22.840  1.00  0.00    -0.034 SA
HETATM    2  C6  UNL     1      22.336 -18.791 -21.674  1.00  0.00     0.134 C 
HETATM    3  N1  UNL     1      22.506 -17.917 -20.903  1.00  0.00    -0.184 NA
ENDROOT
BRANCH   1   4
HETATM    4  C3  UNL     1      21.662 -21.632 -21.994  1.00  0.00     0.072 C 
BRANCH   4   5
HETATM    5  C2  UNL     1      22.952 -22.454 -21.902  1.00  0.00     0.024 C 
HETATM    6  C1  UNL     1      22.602 -23.902 -21.655  1.00  0.00     0.007 C 
ENDBRANCH   4   5
BRANCH   4   7
HETATM    7  C4  UNL     1      20.705 -22.442 -22.820  1.00  0.00     0.024 C 
HETATM    8  C5  UNL     1      20.194 -21.721 -24.036  1.00  0.00     0.007 C 
ENDBRANCH   4   7
BRANCH   4   9
HETATM    9  C7  UNL     1      21.146 -21.327 -20.635  1.00  0.00     0.090 A 
HETATM   10  C8  UNL     1      19.827 -21.263 -20.242  1.00  0.00     0.124 A 
HETATM   11  N2  UNL     1      19.800 -20.962 -18.946  1.00  0.00    -0.343 N 
HETATM   12  C9  UNL     1      21.066 -20.842 -18.541  1.00  0.00     0.166 A 
ATOM     13  H2  UNL     1      18.968 -20.845 -18.369  1.00  0.00     0.167 HD
HETATM   14  O2  UNL     1      21.833 -21.062 -19.556  1.00  0.00    -0.294 OA
BRANCH  12  15
HETATM   15  C10 UNL     1      21.443 -20.510 -17.153  1.00  0.00     0.075 A 
HETATM   16  C11 UNL     1      20.661 -19.961 -16.170  1.00  0.00     0.113 A 
HETATM   17  N3  UNL     1      21.207 -19.741 -15.010  1.00  0.00    -0.345 N 
HETATM   18  C12 UNL     1      22.485 -20.053 -14.823  1.00  0.00     0.147 A 
ATOM     19  H3  UNL     1      20.660 -19.334 -14.252  1.00  0.00     0.167 HD
HETATM   20  S2  UNL     1      22.940 -20.687 -16.355  1.00  0.00    -0.049 SA
BRANCH  18  21
HETATM   21  N4  UNL     1      23.240 -19.915 -13.760  1.00  0.00    -0.344 N 
ATOM     22  H4  UNL     1      24.223 -19.655 -13.836  1.00  0.00     0.164 HD
BRANCH  21  23
HETATM   23  C13 UNL     1      22.614 -20.148 -12.465  1.00  0.00     0.225 C 
HETATM   24  C14 UNL     1      22.162 -21.593 -12.476  1.00  0.00     0.054 C 
HETATM   25  C15 UNL     1      21.591 -21.903 -11.109  1.00  0.00     0.008 C 
HETATM   26  C16 UNL     1      20.353 -20.994 -11.005  1.00  0.00     0.054 C 
HETATM   27  C17 UNL     1      20.915 -19.588 -11.065  1.00  0.00     0.225 C 
HETATM   28  O1  UNL     1      21.519 -19.342 -12.296  1.00  0.00    -0.343 OA
BRANCH  27  29
HETATM   29  N5  UNL     1      19.844 -18.655 -10.810  1.00  0.00    -0.340 N 
HETATM   30  C18 UNL     1      19.369 -18.551  -9.618  1.00  0.00     0.198 C 
HETATM   31  N6  UNL     1      18.309 -17.628  -9.358  1.00  0.00    -0.067 NA
HETATM   32  N7  UNL     1      19.825 -19.310  -8.501  1.00  0.00    -0.067 NA
ATOM     33  H5  UNL     1      19.468 -18.084 -11.566  1.00  0.00     0.164 HD
ENDBRANCH  27  29
ENDBRANCH  21  23
ENDBRANCH  18  21
ENDBRANCH  12  15
ENDBRANCH   4   9
ENDBRANCH   1   4
TORSDOF 8
ENDMDL
MODEL 3
REMARK VINA RESULT: -6.173401052      4.071     10.048
REMARK  8 active torsions:
REMARK  status: ('A' for Active; 'I' for Inactive)
REMARK    1  A    between atoms: C2_2  and  C3_3 
REMARK    2  A    between atoms: C3_3  and  C4_4 
REMARK    3  A    between atoms: C3_3  and  S1_6 
REMARK    4  A    between atoms: C3_3  and  C7_9 
REMARK    5  A    between atoms: C9_13  and  C10_14 
REMARK    6  A    between atoms: C12_18  and  N4_19 
REMARK    7  A    between atoms: N4_19  and  C13_21 
REMARK    8  A    between atoms: C17_25  and  N5_26 
ROOT
HETATM    1  S1  UNL     1      27.479 -23.450  -9.139  1.00  0.00    -0.034 SA
HETATM    2  C6  UNL     1      26.728 -23.263  -7.555  1.00  0.00     0.134 C 
HETATM    3  N1  UNL     1      26.242 -23.143  -6.489  1.00  0.00    -0.184 NA
ENDROOT
BRANCH   1   4
HETATM    4  C3  UNL     1      26.471 -24.516 -10.199  1.00  0.00     0.072 C 
BRANCH   4   5
HETATM    5  C2  UNL     1      26.203 -25.790  -9.392  1.00  0.00     0.024 C 
HETATM    6  C1  UNL     1      26.134 -26.970 -10.333  1.00  0.00     0.007 C 
ENDBRANCH   4   5
BRANCH   4   7
HETATM    7  C4  UNL     1      27.239 -24.943 -11.417  1.00  0.00     0.024 C 
HETATM    8  C5  UNL     1      28.465 -24.114 -11.681  1.00  0.00     0.007 C 
ENDBRANCH   4   7
BRANCH   4   9
HETATM    9  C7  UNL     1      25.193 -23.834 -10.527  1.00  0.00     0.090 A 
HETATM   10  C8  UNL     1      24.014 -23.888  -9.814  1.00  0.00     0.124 A 
HETATM   11  N2  UNL     1      23.118 -23.138 -10.449  1.00  0.00    -0.343 N 
HETATM   12  C9  UNL     1      23.718 -22.628 -11.526  1.00  0.00     0.166 A 
ATOM     13  H2  UNL     1      22.151 -22.981 -10.165  1.00  0.00     0.167 HD
HETATM   14  O2  UNL     1      24.936 -23.056 -11.545  1.00  0.00    -0.294 OA
BRANCH  12  15
HETATM   15  C10 UNL     1      23.036 -21.739 -12.486  1.00  0.00     0.075 A 
HETATM   16  C11 UNL     1      21.900 -20.995 -12.296  1.00  0.00     0.113 A 
HETATM   17  N3  UNL     1      21.465 -20.283 -13.293  1.00  0.00    -0.345 N 
HETATM   18  C12 UNL     1      22.129 -20.300 -14.444  1.00  0.00     0.147 A 
ATOM     19  H3  UNL     1      20.623 -19.716 -13.193  1.00  0.00     0.167 HD
HETATM   20  S2  UNL     1      23.429 -21.373 -14.106  1.00  0.00    -0.049 SA
BRANCH  18  21
HETATM   21  N4  UNL     1      21.877 -19.681 -15.571  1.00  0.00    -0.344 N 
ATOM     22  H4  UNL     1      21.645 -18.688 -15.592  1.00  0.00     0.164 HD
BRANCH  21  23
HETATM   23  C13 UNL     1      21.945 -20.470 -16.795  1.00  0.00     0.225 C 
HETATM   24  C14 UNL     1      23.140 -19.946 -17.562  1.00  0.00     0.054 C 
HETATM   25  C15 UNL     1      23.302 -20.806 -18.797  1.00  0.00     0.008 C 
HETATM   26  C16 UNL     1      22.026 -20.531 -19.614  1.00  0.00     0.054 C 
HETATM   27  C17 UNL     1      20.901 -21.034 -18.732  1.00  0.00     0.225 C 
HETATM   28  O1  UNL     1      20.818 -20.294 -17.555  1.00  0.00    -0.343 OA
BRANCH  27  29
HETATM   29  N5  UNL     1      19.669 -20.972 -19.480  1.00  0.00    -0.340 N 
HETATM   30  C18 UNL     1      18.691 -21.739 -19.149  1.00  0.00     0.198 C 
HETATM   31  N6  UNL     1      17.466 -21.681 -19.886  1.00  0.00    -0.067 NA
HETATM   32  N7  UNL     1      18.730 -22.676 -18.075  1.00  0.00    -0.067 NA
ATOM     33  H5  UNL     1      19.575 -20.326 -20.263  1.00  0.00     0.164 HD
ENDBRANCH  27  29
ENDBRANCH  21  23
ENDBRANCH  18  21
ENDBRANCH  12  15
ENDBRANCH   4   9
ENDBRANCH   1   4
TORSDOF 8
ENDMDL
MODEL 4
REMARK VINA RESULT: -6.171617653      4.473      6.193
REMARK  8 active torsions:
REMARK  status: ('A' for Active; 'I' for Inactive)
REMARK    1  A    between atoms: C2_2  and  C3_3 
REMARK    2  A    between atoms: C3_3  and  C4_4 
REMARK    3  A    between atoms: C3_3  and  S1_6 
REMARK    4  A    between atoms: C3_3  and  C7_9 
REMARK    5  A    between atoms: C9_13  and  C10_14 
REMARK    6  A    between atoms: C12_18  and  N4_19 
REMARK    7  A    between atoms: N4_19  and  C13_21 
REMARK    8  A    between atoms: C17_25  and  N5_26 
ROOT
HETATM    1  S1  UNL     1      22.616 -19.761 -19.831  1.00  0.00    -0.034 SA
HETATM    2  C6  UNL     1      22.870 -18.286 -20.762  1.00  0.00     0.134 C 
HETATM    3  N1  UNL     1      23.040 -17.309 -21.399  1.00  0.00    -0.184 NA
ENDROOT
BRANCH   1   4
HETATM    4  C3  UNL     1      23.782 -19.849 -18.449  1.00  0.00     0.072 C 
BRANCH   4   5
HETATM    5  C2  UNL     1      24.560 -18.529 -18.462  1.00  0.00     0.024 C 
HETATM    6  C1  UNL     1      25.892 -18.729 -17.781  1.00  0.00     0.007 C 
ENDBRANCH   4   5
BRANCH   4   7
HETATM    7  C4  UNL     1      24.795 -20.935 -18.669  1.00  0.00     0.024 C 
HETATM    8  C5  UNL     1      24.265 -22.109 -19.443  1.00  0.00     0.007 C 
ENDBRANCH   4   7
BRANCH   4   9
HETATM    9  C7  UNL     1      23.037 -19.997 -17.173  1.00  0.00     0.090 A 
HETATM   10  C8  UNL     1      21.720 -19.667 -16.935  1.00  0.00     0.124 A 
HETATM   11  N2  UNL     1      21.449 -19.956 -15.665  1.00  0.00    -0.343 N 
HETATM   12  C9  UNL     1      22.564 -20.452 -15.124  1.00  0.00     0.166 A 
ATOM     13  H2  UNL     1      20.556 -19.823 -15.192  1.00  0.00     0.167 HD
HETATM   14  O2  UNL     1      23.479 -20.463 -16.034  1.00  0.00    -0.294 OA
BRANCH  12  15
HETATM   15  C10 UNL     1      22.654 -20.889 -13.717  1.00  0.00     0.075 A 
HETATM   16  C11 UNL     1      22.191 -20.248 -12.598  1.00  0.00     0.113 A 
HETATM   17  N3  UNL     1      22.391 -20.816 -11.445  1.00  0.00    -0.345 N 
HETATM   18  C12 UNL     1      23.027 -21.982 -11.395  1.00  0.00     0.147 A 
ATOM     19  H3  UNL     1      22.063 -20.371 -10.588  1.00  0.00     0.167 HD
HETATM   20  S2  UNL     1      23.360 -22.293 -13.053  1.00  0.00    -0.049 SA
BRANCH  18  21
HETATM   21  N4  UNL     1      23.345 -22.724 -10.363  1.00  0.00    -0.344 N 
ATOM     22  H4  UNL     1      22.750 -22.770  -9.537  1.00  0.00     0.164 HD
BRANCH  21  23
HETATM   23  C13 UNL     1      24.587 -23.482 -10.446  1.00  0.00     0.225 C 
HETATM   24  C14 UNL     1      24.398 -24.689  -9.550  1.00  0.00     0.054 C 
HETATM   25  C15 UNL     1      25.633 -25.554  -9.684  1.00  0.00     0.008 C 
HETATM   26  C16 UNL     1      26.765 -24.680  -9.113  1.00  0.00     0.054 C 
HETATM   27  C17 UNL     1      26.823 -23.486 -10.043  1.00  0.00     0.225 C 
HETATM   28  O1  UNL     1      25.645 -22.745  -9.981  1.00  0.00    -0.343 OA
BRANCH  27  29
HETATM   29  N5  UNL     1      27.967 -22.683  -9.688  1.00  0.00    -0.340 N 
HETATM   30  C18 UNL     1      29.023 -22.730 -10.422  1.00  0.00     0.198 C 
HETATM   31  N6  UNL     1      30.161 -21.935 -10.076  1.00  0.00    -0.067 NA
HETATM   32  N7  UNL     1      29.158 -23.539 -11.588  1.00  0.00    -0.067 NA
ATOM     33  H5  UNL     1      27.940 -22.084  -8.863  1.00  0.00     0.164 HD
ENDBRANCH  27  29
ENDBRANCH  21  23
ENDBRANCH  18  21
ENDBRANCH  12  15
ENDBRANCH   4   9
ENDBRANCH   1   4
TORSDOF 8
ENDMDL
MODEL 5
REMARK VINA RESULT: -6.070940521      4.517     10.108
REMARK  8 active torsions:
REMARK  status: ('A' for Active; 'I' for Inactive)
REMARK    1  A    between atoms: C2_2  and  C3_3 
REMARK    2  A    between atoms: C3_3  and  C4_4 
REMARK    3  A    between atoms: C3_3  and  S1_6 
REMARK    4  A    between atoms: C3_3  and  C7_9 
REMARK    5  A    between atoms: C9_13  and  C10_14 
REMARK    6  A    between atoms: C12_18  and  N4_19 
REMARK    7  A    between atoms: N4_19  and  C13_21 
REMARK    8  A    between atoms: C17_25  and  N5_26 
ROOT
HETATM    1  S1  UNL     1      27.051 -23.171 -12.165  1.00  0.00    -0.034 SA
HETATM    2  C6  UNL     1      27.708 -21.987 -11.036  1.00  0.00     0.134 C 
HETATM    3  N1  UNL     1      28.160 -21.208 -10.277  1.00  0.00    -0.184 NA
ENDROOT
BRANCH   1   4
HETATM    4  C3  UNL     1      25.278 -23.404 -11.881  1.00  0.00     0.072 C 
BRANCH   4   5
HETATM    5  C2  UNL     1      25.032 -23.056 -10.410  1.00  0.00     0.024 C 
HETATM    6  C1  UNL     1      24.374 -24.230  -9.724  1.00  0.00     0.007 C 
ENDBRANCH   4   5
BRANCH   4   7
HETATM    7  C4  UNL     1      24.894 -24.847 -12.042  1.00  0.00     0.024 C 
HETATM    8  C5  UNL     1      24.798 -25.292 -13.474  1.00  0.00     0.007 C 
ENDBRANCH   4   7
BRANCH   4   9
HETATM    9  C7  UNL     1      24.504 -22.493 -12.764  1.00  0.00     0.090 A 
HETATM   10  C8  UNL     1      23.254 -21.966 -12.523  1.00  0.00     0.124 A 
HETATM   11  N2  UNL     1      22.925 -21.204 -13.563  1.00  0.00    -0.343 N 
HETATM   12  C9  UNL     1      23.940 -21.253 -14.428  1.00  0.00     0.166 A 
ATOM     13  H2  UNL     1      22.058 -20.679 -13.678  1.00  0.00     0.167 HD
HETATM   14  O2  UNL     1      24.852 -22.018 -13.931  1.00  0.00    -0.294 OA
BRANCH  12  15
HETATM   15  C10 UNL     1      23.941 -20.529 -15.714  1.00  0.00     0.075 A 
HETATM   16  C11 UNL     1      24.915 -19.712 -16.228  1.00  0.00     0.113 A 
HETATM   17  N3  UNL     1      24.699 -19.164 -17.387  1.00  0.00    -0.345 N 
HETATM   18  C12 UNL     1      23.559 -19.412 -18.023  1.00  0.00     0.147 A 
ATOM     19  H3  UNL     1      25.398 -18.549 -17.805  1.00  0.00     0.167 HD
HETATM   20  S2  UNL     1      22.751 -20.470 -16.935  1.00  0.00    -0.049 SA
BRANCH  18  21
HETATM   21  N4  UNL     1      23.125 -18.971 -19.178  1.00  0.00    -0.344 N 
ATOM     22  H4  UNL     1      22.190 -19.197 -19.517  1.00  0.00     0.164 HD
BRANCH  21  23
HETATM   23  C13 UNL     1      24.035 -18.143 -19.959  1.00  0.00     0.225 C 
HETATM   24  C14 UNL     1      23.467 -18.111 -21.363  1.00  0.00     0.054 C 
HETATM   25  C15 UNL     1      24.333 -17.181 -22.185  1.00  0.00     0.008 C 
HETATM   26  C16 UNL     1      25.706 -17.879 -22.217  1.00  0.00     0.054 C 
HETATM   27  C17 UNL     1      26.145 -17.908 -20.767  1.00  0.00     0.225 C 
HETATM   28  O1  UNL     1      25.289 -18.695 -20.000  1.00  0.00    -0.343 OA
BRANCH  27  29
HETATM   29  N5  UNL     1      27.501 -18.397 -20.709  1.00  0.00    -0.340 N 
HETATM   30  C18 UNL     1      28.221 -18.138 -19.675  1.00  0.00     0.198 C 
HETATM   31  N6  UNL     1      29.566 -18.621 -19.611  1.00  0.00    -0.067 NA
HETATM   32  N7  UNL     1      27.777 -17.379 -18.554  1.00  0.00    -0.067 NA
ATOM     33  H5  UNL     1      27.884 -18.944 -21.480  1.00  0.00     0.164 HD
ENDBRANCH  27  29
ENDBRANCH  21  23
ENDBRANCH  18  21
ENDBRANCH  12  15
ENDBRANCH   4   9
ENDBRANCH   1   4
TORSDOF 8
ENDMDL
