MODEL 1
REMARK VINA RESULT: -6.638101862      0.000      0.000
REMARK  9 active torsions:
REMARK  status: ('A' for Active; 'I' for Inactive)
REMARK    1  A    between atoms: C2_2  and  C3_3 
REMARK    2  A    between atoms: C3_3  and  C4_4 
REMARK    3  A    between atoms: C10_12  and  O3_13 
REMARK    4  A    between atoms: N1_15  and  C11_16 
REMARK    5  A    between atoms: C13_18  and  O4_19 
REMARK    6  A    between atoms: C14_21  and  C15_22 
REMARK    7  A    between atoms: C17_24  and  O5_25 
REMARK    8  A    between atoms: C19_27  and  O6_28 
REMARK    9  A    between atoms: C21_30  and  O7_31 
ROOT
HETATM    1  C4  UNL     1      24.680 -22.608 -14.382  1.00  0.00     0.101 C 
HETATM    2  C5  UNL     1      25.503 -21.880 -13.372  1.00  0.00     0.211 C 
HETATM    3  O1  UNL     1      25.282 -22.479 -12.132  1.00  0.00    -0.348 OA
HETATM    4  C6  UNL     1      24.004 -23.006 -12.342  1.00  0.00     0.195 C 
HETATM    5  C7  UNL     1      23.632 -23.910 -11.222  1.00  0.00     0.085 C 
HETATM    6  O2  UNL     1      24.108 -23.622 -13.566  1.00  0.00    -0.336 OA
HETATM    7  C8  UNL     1      23.060 -21.844 -12.495  1.00  0.00     0.065 A 
HETATM    8  C9  UNL     1      22.807 -21.275 -13.727  1.00  0.00     0.020 A 
HETATM    9  C10 UNL     1      21.912 -20.245 -13.519  1.00  0.00     0.152 A 
HETATM   10  N1  UNL     1      21.603 -20.156 -12.207  1.00  0.00    -0.308 N 
HETATM   11  C13 UNL     1      22.292 -21.116 -11.595  1.00  0.00     0.156 A 
HETATM   12  C14 UNL     1      23.502 -21.852 -14.917  1.00  0.00     0.094 C 
ENDROOT
BRANCH  12  13
HETATM   13  C15 UNL     1      23.725 -20.932 -16.009  1.00  0.00    -0.041 A 
HETATM   14  C16 UNL     1      24.875 -20.194 -16.238  1.00  0.00     0.047 A 
HETATM   15  C17 UNL     1      25.042 -19.323 -17.295  1.00  0.00     0.104 A 
HETATM   16  C19 UNL     1      23.997 -19.180 -18.177  1.00  0.00     0.135 A 
HETATM   17  C21 UNL     1      22.810 -19.892 -18.007  1.00  0.00     0.104 A 
HETATM   18  C23 UNL     1      22.690 -20.749 -16.938  1.00  0.00     0.047 A 
BRANCH  15  19
HETATM   19  O5  UNL     1      26.238 -18.640 -17.420  1.00  0.00    -0.353 OA
HETATM   20  C18 UNL     1      27.326 -19.054 -18.175  1.00  0.00     0.210 C 
ENDBRANCH  15  19
BRANCH  16  21
HETATM   21  O6  UNL     1      24.150 -18.308 -19.243  1.00  0.00    -0.351 OA
HETATM   22  C20 UNL     1      24.542 -18.875 -20.488  1.00  0.00     0.210 C 
ENDBRANCH  16  21
BRANCH  17  23
HETATM   23  O7  UNL     1      21.788 -19.702 -18.935  1.00  0.00    -0.353 OA
HETATM   24  C22 UNL     1      21.017 -20.823 -19.312  1.00  0.00     0.210 C 
ENDBRANCH  17  23
ENDBRANCH  12  13
BRANCH   1  25
HETATM   25  C3  UNL     1      25.471 -23.325 -15.429  1.00  0.00     0.067 C 
BRANCH  25  26
HETATM   26  C2  UNL     1      25.509 -24.790 -15.221  1.00  0.00    -0.034 C 
HETATM   27  C1  UNL     1      25.309 -25.617 -16.227  1.00  0.00     0.007 C 
ENDBRANCH  25  26
ENDBRANCH   1  25
BRANCH   9  28
HETATM   28  O3  UNL     1      21.376 -19.395 -14.476  1.00  0.00    -0.345 OA
ATOM     29  H3  UNL     1      20.461 -19.163 -14.589  1.00  0.00     0.219 HD
ENDBRANCH   9  28
BRANCH  11  30
HETATM   30  O4  UNL     1      22.290 -21.409 -10.229  1.00  0.00    -0.345 OA
ATOM     31  H4  UNL     1      21.482 -21.473  -9.735  1.00  0.00     0.219 HD
ENDBRANCH  11  30
BRANCH  10  32
HETATM   32  C11 UNL     1      20.699 -19.209 -11.572  1.00  0.00     0.129 C 
HETATM   33  C12 UNL     1      21.157 -17.795 -11.710  1.00  0.00     0.027 C 
ENDBRANCH  10  32
TORSDOF 9
ENDMDL
MODEL 2
REMARK VINA RESULT: -6.463337072      0.200      2.227
REMARK  9 active torsions:
REMARK  status: ('A' for Active; 'I' for Inactive)
REMARK    1  A    between atoms: C2_2  and  C3_3 
REMARK    2  A    between atoms: C3_3  and  C4_4 
REMARK    3  A    between atoms: C10_12  and  O3_13 
REMARK    4  A    between atoms: N1_15  and  C11_16 
REMARK    5  A    between atoms: C13_18  and  O4_19 
REMARK    6  A    between atoms: C14_21  and  C15_22 
REMARK    7  A    between atoms: C17_24  and  O5_25 
REMARK    8  A    between atoms: C19_27  and  O6_28 
REMARK    9  A    between atoms: C21_30  and  O7_31 
ROOT
HETATM    1  C4  UNL     1      24.645 -22.602 -14.451  1.00  0.00     0.101 C 
HETATM    2  C5  UNL     1      25.491 -21.865 -13.467  1.00  0.00     0.211 C 
HETATM    3  O1  UNL     1      25.306 -22.458 -12.218  1.00  0.00    -0.348 OA
HETATM    4  C6  UNL     1      24.025 -22.993 -12.392  1.00  0.00     0.195 C 
HETATM    5  C7  UNL     1      23.687 -23.892 -11.258  1.00  0.00     0.085 C 
HETATM    6  O2  UNL     1      24.100 -23.614 -13.615  1.00  0.00    -0.336 OA
HETATM    7  C8  UNL     1      23.072 -21.836 -12.526  1.00  0.00     0.065 A 
HETATM    8  C9  UNL     1      22.784 -21.275 -13.754  1.00  0.00     0.020 A 
HETATM    9  C10 UNL     1      21.890 -20.248 -13.528  1.00  0.00     0.152 A 
HETATM   10  N1  UNL     1      21.615 -20.153 -12.209  1.00  0.00    -0.308 N 
HETATM   11  C13 UNL     1      22.325 -21.106 -11.610  1.00  0.00     0.156 A 
HETATM   12  C14 UNL     1      23.449 -21.855 -14.959  1.00  0.00     0.094 C 
ENDROOT
BRANCH  12  13
HETATM   13  C15 UNL     1      23.640 -20.940 -16.061  1.00  0.00    -0.041 A 
HETATM   14  C16 UNL     1      22.710 -20.627 -17.040  1.00  0.00     0.047 A 
HETATM   15  C17 UNL     1      22.939 -19.748 -18.076  1.00  0.00     0.104 A 
HETATM   16  C19 UNL     1      24.171 -19.142 -18.141  1.00  0.00     0.135 A 
HETATM   17  C21 UNL     1      25.155 -19.408 -17.189  1.00  0.00     0.104 A 
HETATM   18  C23 UNL     1      24.880 -20.294 -16.173  1.00  0.00     0.047 A 
BRANCH  15  19
HETATM   19  O5  UNL     1      21.932 -19.516 -18.996  1.00  0.00    -0.353 OA
HETATM   20  C18 UNL     1      21.414 -20.456 -19.876  1.00  0.00     0.210 C 
ENDBRANCH  15  19
BRANCH  16  21
HETATM   21  O6  UNL     1      24.416 -18.255 -19.178  1.00  0.00    -0.351 OA
HETATM   22  C20 UNL     1      24.786 -18.817 -20.432  1.00  0.00     0.210 C 
ENDBRANCH  16  21
BRANCH  17  23
HETATM   23  O7  UNL     1      26.383 -18.762 -17.310  1.00  0.00    -0.353 OA
HETATM   24  C22 UNL     1      27.407 -19.413 -18.032  1.00  0.00     0.210 C 
ENDBRANCH  17  23
ENDBRANCH  12  13
BRANCH   1  25
HETATM   25  C3  UNL     1      25.411 -23.322 -15.515  1.00  0.00     0.067 C 
BRANCH  25  26
HETATM   26  C2  UNL     1      25.483 -24.782 -15.287  1.00  0.00    -0.034 C 
HETATM   27  C1  UNL     1      25.319 -25.627 -16.285  1.00  0.00     0.007 C 
ENDBRANCH  25  26
ENDBRANCH   1  25
BRANCH   9  28
HETATM   28  O3  UNL     1      21.324 -19.405 -14.475  1.00  0.00    -0.345 OA
ATOM     29  H3  UNL     1      20.435 -19.070 -14.486  1.00  0.00     0.219 HD
ENDBRANCH   9  28
BRANCH  11  30
HETATM   30  O4  UNL     1      22.360 -21.392 -10.243  1.00  0.00    -0.345 OA
ATOM     31  H4  UNL     1      22.431 -20.704  -9.592  1.00  0.00     0.219 HD
ENDBRANCH  11  30
BRANCH  10  32
HETATM   32  C11 UNL     1      20.723 -19.206 -11.555  1.00  0.00     0.129 C 
HETATM   33  C12 UNL     1      21.181 -17.792 -11.697  1.00  0.00     0.027 C 
ENDBRANCH  10  32
TORSDOF 9
ENDMDL
MODEL 3
REMARK VINA RESULT: -6.462428588      1.852      6.469
REMARK  9 active torsions:
REMARK  status: ('A' for Active; 'I' for Inactive)
REMARK    1  A    between atoms: C2_2  and  C3_3 
REMARK    2  A    between atoms: C3_3  and  C4_4 
REMARK    3  A    between atoms: C10_12  and  O3_13 
REMARK    4  A    between atoms: N1_15  and  C11_16 
REMARK    5  A    between atoms: C13_18  and  O4_19 
REMARK    6  A    between atoms: C14_21  and  C15_22 
REMARK    7  A    between atoms: C17_24  and  O5_25 
REMARK    8  A    between atoms: C19_27  and  O6_28 
REMARK    9  A    between atoms: C21_30  and  O7_31 
ROOT
HETATM    1  C4  UNL     1      24.695 -20.240 -16.054  1.00  0.00     0.101 C 
HETATM    2  C5  UNL     1      24.749 -21.406 -16.984  1.00  0.00     0.211 C 
HETATM    3  O1  UNL     1      24.735 -20.913 -18.288  1.00  0.00    -0.348 OA
HETATM    4  C6  UNL     1      24.075 -19.697 -18.079  1.00  0.00     0.195 C 
HETATM    5  C7  UNL     1      24.141 -18.860 -19.306  1.00  0.00     0.085 C 
HETATM    6  O2  UNL     1      24.717 -19.167 -16.987  1.00  0.00    -0.336 OA
HETATM    7  C8  UNL     1      22.664 -20.019 -17.666  1.00  0.00     0.065 A 
HETATM    8  C9  UNL     1      22.322 -20.201 -16.340  1.00  0.00     0.020 A 
HETATM    9  C10 UNL     1      20.971 -20.481 -16.307  1.00  0.00     0.152 A 
HETATM   10  N1  UNL     1      20.466 -20.480 -17.560  1.00  0.00    -0.308 N 
HETATM   11  C13 UNL     1      21.482 -20.203 -18.372  1.00  0.00     0.156 A 
HETATM   12  C14 UNL     1      23.402 -20.064 -15.317  1.00  0.00     0.094 C 
ENDROOT
BRANCH  12  13
HETATM   13  C15 UNL     1      23.205 -20.826 -14.105  1.00  0.00    -0.041 A 
HETATM   14  C16 UNL     1      22.708 -20.345 -12.904  1.00  0.00     0.047 A 
HETATM   15  C17 UNL     1      22.540 -21.111 -11.770  1.00  0.00     0.104 A 
HETATM   16  C19 UNL     1      22.888 -22.439 -11.837  1.00  0.00     0.135 A 
HETATM   17  C21 UNL     1      23.393 -22.991 -13.015  1.00  0.00     0.104 A 
HETATM   18  C23 UNL     1      23.544 -22.187 -14.120  1.00  0.00     0.047 A 
BRANCH  15  19
HETATM   19  O5  UNL     1      22.035 -20.517 -10.627  1.00  0.00    -0.353 OA
HETATM   20  C18 UNL     1      20.689 -20.370 -10.324  1.00  0.00     0.210 C 
ENDBRANCH  15  19
BRANCH  16  21
HETATM   21  O6  UNL     1      22.725 -23.221 -10.706  1.00  0.00    -0.351 OA
HETATM   22  C20 UNL     1      23.909 -23.688 -10.068  1.00  0.00     0.210 C 
ENDBRANCH  16  21
BRANCH  17  23
HETATM   23  O7  UNL     1      23.728 -24.343 -13.018  1.00  0.00    -0.353 OA
HETATM   24  C22 UNL     1      24.613 -24.806 -14.015  1.00  0.00     0.210 C 
ENDBRANCH  17  23
ENDBRANCH  12  13
BRANCH   1  25
HETATM   25  C3  UNL     1      25.912 -20.065 -15.202  1.00  0.00     0.067 C 
BRANCH  25  26
HETATM   26  C2  UNL     1      26.858 -21.197 -15.308  1.00  0.00    -0.034 C 
HETATM   27  C1  UNL     1      27.240 -21.856 -14.232  1.00  0.00     0.007 C 
ENDBRANCH  25  26
ENDBRANCH   1  25
BRANCH   9  28
HETATM   28  O3  UNL     1      20.195 -20.735 -15.185  1.00  0.00    -0.345 OA
ATOM     29  H3  UNL     1      20.287 -20.346 -14.323  1.00  0.00     0.219 HD
ENDBRANCH   9  28
BRANCH  11  30
HETATM   30  O4  UNL     1      21.438 -20.095 -19.764  1.00  0.00    -0.345 OA
ATOM     31  H4  UNL     1      21.015 -19.361 -20.193  1.00  0.00     0.219 HD
ENDBRANCH  11  30
BRANCH  10  32
HETATM   32  C11 UNL     1      19.089 -20.730 -17.960  1.00  0.00     0.129 C 
HETATM   33  C12 UNL     1      18.864 -22.136 -18.407  1.00  0.00     0.027 C 
ENDBRANCH  10  32
TORSDOF 9
ENDMDL
MODEL 4
REMARK VINA RESULT: -6.439609976      1.975      6.409
REMARK  9 active torsions:
REMARK  status: ('A' for Active; 'I' for Inactive)
REMARK    1  A    between atoms: C2_2  and  C3_3 
REMARK    2  A    between atoms: C3_3  and  C4_4 
REMARK    3  A    between atoms: C10_12  and  O3_13 
REMARK    4  A    between atoms: N1_15  and  C11_16 
REMARK    5  A    between atoms: C13_18  and  O4_19 
REMARK    6  A    between atoms: C14_21  and  C15_22 
REMARK    7  A    between atoms: C17_24  and  O5_25 
REMARK    8  A    between atoms: C19_27  and  O6_28 
REMARK    9  A    between atoms: C21_30  and  O7_31 
ROOT
HETATM    1  C4  UNL     1      24.738 -20.341 -16.309  1.00  0.00     0.101 C 
HETATM    2  C5  UNL     1      24.808 -21.674 -16.976  1.00  0.00     0.211 C 
HETATM    3  O1  UNL     1      24.954 -21.457 -18.346  1.00  0.00    -0.348 OA
HETATM    4  C6  UNL     1      24.356 -20.197 -18.456  1.00  0.00     0.195 C 
HETATM    5  C7  UNL     1      24.597 -19.633 -19.810  1.00  0.00     0.085 C 
HETATM    6  O2  UNL     1      24.922 -19.483 -17.428  1.00  0.00    -0.336 OA
HETATM    7  C8  UNL     1      22.894 -20.366 -18.145  1.00  0.00     0.065 A 
HETATM    8  C9  UNL     1      22.412 -20.258 -16.855  1.00  0.00     0.020 A 
HETATM    9  C10 UNL     1      21.049 -20.467 -16.915  1.00  0.00     0.152 A 
HETATM   10  N1  UNL     1      20.671 -20.700 -18.191  1.00  0.00    -0.308 N 
HETATM   11  C13 UNL     1      21.778 -20.640 -18.926  1.00  0.00     0.156 A 
HETATM   12  C14 UNL     1      23.392 -19.962 -15.767  1.00  0.00     0.094 C 
ENDROOT
BRANCH  12  13
HETATM   13  C15 UNL     1      23.028 -20.450 -14.457  1.00  0.00    -0.041 A 
HETATM   14  C16 UNL     1      23.207 -21.739 -13.981  1.00  0.00     0.047 A 
HETATM   15  C17 UNL     1      22.839 -22.161 -12.721  1.00  0.00     0.104 A 
HETATM   16  C19 UNL     1      22.256 -21.239 -11.883  1.00  0.00     0.135 A 
HETATM   17  C21 UNL     1      22.046 -19.923 -12.296  1.00  0.00     0.104 A 
HETATM   18  C23 UNL     1      22.429 -19.550 -13.563  1.00  0.00     0.047 A 
BRANCH  15  19
HETATM   19  O5  UNL     1      23.068 -23.475 -12.359  1.00  0.00    -0.353 OA
HETATM   20  C18 UNL     1      23.836 -24.385 -13.073  1.00  0.00     0.210 C 
ENDBRANCH  15  19
BRANCH  16  21
HETATM   21  O6  UNL     1      21.881 -21.649 -10.614  1.00  0.00    -0.351 OA
HETATM   22  C20 UNL     1      20.491 -21.613 -10.309  1.00  0.00     0.210 C 
ENDBRANCH  16  21
BRANCH  17  23
HETATM   23  O7  UNL     1      21.450 -19.039 -11.400  1.00  0.00    -0.353 OA
HETATM   24  C22 UNL     1      20.701 -17.964 -11.927  1.00  0.00     0.210 C 
ENDBRANCH  17  23
ENDBRANCH  12  13
BRANCH   1  25
HETATM   25  C3  UNL     1      25.873 -20.048 -15.381  1.00  0.00     0.067 C 
BRANCH  25  26
HETATM   26  C2  UNL     1      26.728 -21.229 -15.124  1.00  0.00    -0.034 C 
HETATM   27  C1  UNL     1      26.967 -21.629 -13.891  1.00  0.00     0.007 C 
ENDBRANCH  25  26
ENDBRANCH   1  25
BRANCH   9  28
HETATM   28  O3  UNL     1      20.151 -20.452 -15.857  1.00  0.00    -0.345 OA
ATOM     29  H3  UNL     1      19.302 -20.026 -15.831  1.00  0.00     0.219 HD
ENDBRANCH   9  28
BRANCH  11  30
HETATM   30  O4  UNL     1      21.878 -20.816 -20.308  1.00  0.00    -0.345 OA
ATOM     31  H4  UNL     1      21.203 -21.264 -20.803  1.00  0.00     0.219 HD
ENDBRANCH  11  30
BRANCH  10  32
HETATM   32  C11 UNL     1      19.327 -20.966 -18.682  1.00  0.00     0.129 C 
HETATM   33  C12 UNL     1      18.896 -22.376 -18.448  1.00  0.00     0.027 C 
ENDBRANCH  10  32
TORSDOF 9
ENDMDL
MODEL 5
REMARK VINA RESULT: -6.354247632      1.764      4.881
REMARK  9 active torsions:
REMARK  status: ('A' for Active; 'I' for Inactive)
REMARK    1  A    between atoms: C2_2  and  C3_3 
REMARK    2  A    between atoms: C3_3  and  C4_4 
REMARK    3  A    between atoms: C10_12  and  O3_13 
REMARK    4  A    between atoms: N1_15  and  C11_16 
REMARK    5  A    between atoms: C13_18  and  O4_19 
REMARK    6  A    between atoms: C14_21  and  C15_22 
REMARK    7  A    between atoms: C17_24  and  O5_25 
REMARK    8  A    between atoms: C19_27  and  O6_28 
REMARK    9  A    between atoms: C21_30  and  O7_31 
ROOT
HETATM    1  C4  UNL     1      22.803 -20.916 -13.276  1.00  0.00     0.101 C 
HETATM    2  C5  UNL     1      21.843 -22.058 -13.228  1.00  0.00     0.211 C 
HETATM    3  O1  UNL     1      22.181 -22.853 -12.134  1.00  0.00    -0.348 OA
HETATM    4  C6  UNL     1      23.542 -22.550 -12.026  1.00  0.00     0.195 C 
HETATM    5  C7  UNL     1      24.093 -23.107 -10.763  1.00  0.00     0.085 C 
HETATM    6  O2  UNL     1      23.573 -21.180 -12.110  1.00  0.00    -0.336 OA
HETATM    7  C8  UNL     1      24.221 -23.098 -13.253  1.00  0.00     0.065 A 
HETATM    8  C9  UNL     1      24.352 -22.347 -14.403  1.00  0.00     0.020 A 
HETATM    9  C10 UNL     1      25.009 -23.134 -15.327  1.00  0.00     0.152 A 
HETATM   10  N1  UNL     1      25.290 -24.342 -14.791  1.00  0.00    -0.308 N 
HETATM   11  C13 UNL     1      24.816 -24.318 -13.548  1.00  0.00     0.156 A 
HETATM   12  C14 UNL     1      23.798 -20.959 -14.397  1.00  0.00     0.094 C 
ENDROOT
BRANCH  12  13
HETATM   13  C15 UNL     1      23.388 -20.451 -15.686  1.00  0.00    -0.041 A 
HETATM   14  C16 UNL     1      22.128 -20.564 -16.251  1.00  0.00     0.047 A 
HETATM   15  C17 UNL     1      21.785 -20.064 -17.489  1.00  0.00     0.104 A 
HETATM   16  C19 UNL     1      22.757 -19.411 -18.208  1.00  0.00     0.135 A 
HETATM   17  C21 UNL     1      24.048 -19.258 -17.700  1.00  0.00     0.104 A 
HETATM   18  C23 UNL     1      24.343 -19.775 -16.460  1.00  0.00     0.047 A 
BRANCH  15  19
HETATM   19  O5  UNL     1      20.492 -20.240 -17.950  1.00  0.00    -0.353 OA
HETATM   20  C18 UNL     1      19.987 -21.410 -18.501  1.00  0.00     0.210 C 
ENDBRANCH  15  19
BRANCH  16  21
HETATM   21  O6  UNL     1      22.426 -18.903 -19.454  1.00  0.00    -0.351 OA
HETATM   22  C20 UNL     1      22.617 -19.763 -20.572  1.00  0.00     0.210 C 
ENDBRANCH  16  21
BRANCH  17  23
HETATM   23  O7  UNL     1      24.988 -18.586 -18.478  1.00  0.00    -0.353 OA
HETATM   24  C22 UNL     1      26.195 -18.189 -17.864  1.00  0.00     0.210 C 
ENDBRANCH  17  23
ENDBRANCH  12  13
BRANCH   1  25
HETATM   25  C3  UNL     1      22.184 -19.572 -13.061  1.00  0.00     0.067 C 
BRANCH  25  26
HETATM   26  C2  UNL     1      21.359 -19.506 -11.834  1.00  0.00    -0.034 C 
HETATM   27  C1  UNL     1      20.735 -18.394 -11.504  1.00  0.00     0.007 C 
ENDBRANCH  25  26
ENDBRANCH   1  25
BRANCH   9  28
HETATM   28  O3  UNL     1      25.357 -22.790 -16.625  1.00  0.00    -0.345 OA
ATOM     29  H3  UNL     1      26.228 -22.599 -16.955  1.00  0.00     0.219 HD
ENDBRANCH   9  28
BRANCH  11  30
HETATM   30  O4  UNL     1      24.876 -25.350 -12.608  1.00  0.00    -0.345 OA
ATOM     31  H4  UNL     1      25.700 -25.753 -12.362  1.00  0.00     0.219 HD
ENDBRANCH  11  30
BRANCH  10  32
HETATM   32  C11 UNL     1      25.972 -25.458 -15.429  1.00  0.00     0.129 C 
HETATM   33  C12 UNL     1      25.085 -26.222 -16.356  1.00  0.00     0.027 C 
ENDBRANCH  10  32
TORSDOF 9
ENDMDL
