MODEL 1
REMARK VINA RESULT: -6.587397811      0.000      0.000
REMARK  7 active torsions:
REMARK  status: ('A' for Active; 'I' for Inactive)
REMARK    1  A    between atoms: C2_2  and  C3_3 
REMARK    2  A    between atoms: C7_7  and  C8_8 
REMARK    3  A    between atoms: N1_9  and  O1_11 
REMARK    4  A    between atoms: O1_11  and  C9_12 
REMARK    5  A    between atoms: C9_12  and  C10_14 
REMARK    6  A    between atoms: C10_14  and  C11_15 
REMARK    7  A    between atoms: C11_15  and  O3_16 
ROOT
HETATM    1  C3  UNL     1     -14.309 -12.105  -2.116  1.00  0.00     0.085 C 
HETATM    2  C4  UNL     1     -13.962 -13.408  -1.360  1.00  0.00     0.074 C 
HETATM    3  C5  UNL     1     -12.662 -12.973  -0.720  1.00  0.00    -0.072 C 
HETATM    4  C6  UNL     1     -12.168 -13.559   0.568  1.00  0.00     0.044 C 
HETATM    5  C7  UNL     1     -12.078 -12.047  -1.452  1.00  0.00    -0.027 C 
HETATM    6  C12 UNL     1     -12.934 -11.785  -2.647  1.00  0.00     0.017 C 
HETATM    7  C13 UNL     1     -12.792 -10.322  -3.005  1.00  0.00     0.023 C 
HETATM    8  C14 UNL     1     -12.485 -12.693  -3.742  1.00  0.00     0.027 C 
HETATM    9  C15 UNL     1     -13.524 -13.097  -4.728  1.00  0.00     0.112 C 
HETATM   10  C16 UNL     1     -14.910 -12.905  -4.310  1.00  0.00     0.259 C 
HETATM   11  O4  UNL     1     -15.833 -13.292  -5.065  1.00  0.00    -0.265 OA
HETATM   12  O5  UNL     1     -15.271 -12.313  -3.101  1.00  0.00    -0.309 OA
ENDROOT
BRANCH   5  13
HETATM   13  C8  UNL     1     -10.801 -11.391  -1.135  1.00  0.00     0.122 C 
HETATM   14  N1  UNL     1     -10.620 -10.652  -0.130  1.00  0.00    -0.268 N 
ATOM     15  H1  UNL     1     -11.461 -10.559   0.439  1.00  0.00     0.194 HD
BRANCH  14  16
HETATM   16  O1  UNL     1      -9.606  -9.973   0.362  1.00  0.00    -0.200 OA
BRANCH  16  17
HETATM   17  C9  UNL     1      -9.061 -10.157   1.601  1.00  0.00     0.283 C 
HETATM   18  O2  UNL     1      -8.124  -9.483   2.055  1.00  0.00    -0.263 OA
BRANCH  17  19
HETATM   19  C10 UNL     1      -9.658 -11.253   2.438  1.00  0.00     0.139 C 
BRANCH  19  20
HETATM   20  C11 UNL     1      -8.791 -11.494   3.666  1.00  0.00     0.174 C 
BRANCH  20  21
HETATM   21  O3  UNL     1      -8.426 -12.815   3.827  1.00  0.00    -0.400 OA
ATOM     22  H3  UNL     1      -7.696 -12.934   4.422  1.00  0.00     0.209 HD
ENDBRANCH  20  21
ENDBRANCH  19  20
ENDBRANCH  17  19
ENDBRANCH  16  17
ENDBRANCH  14  16
ENDBRANCH   5  13
BRANCH   1  23
HETATM   23  C2  UNL     1     -14.729 -11.062  -1.122  1.00  0.00     0.035 C 
HETATM   24  C1  UNL     1     -16.194 -10.728  -1.400  1.00  0.00     0.008 C 
ENDBRANCH   1  23
TORSDOF 7
ENDMDL
MODEL 2
REMARK VINA RESULT: -6.318251420      0.913      1.179
REMARK  7 active torsions:
REMARK  status: ('A' for Active; 'I' for Inactive)
REMARK    1  A    between atoms: C2_2  and  C3_3 
REMARK    2  A    between atoms: C7_7  and  C8_8 
REMARK    3  A    between atoms: N1_9  and  O1_11 
REMARK    4  A    between atoms: O1_11  and  C9_12 
REMARK    5  A    between atoms: C9_12  and  C10_14 
REMARK    6  A    between atoms: C10_14  and  C11_15 
REMARK    7  A    between atoms: C11_15  and  O3_16 
ROOT
HETATM    1  C3  UNL     1     -14.442 -12.275  -2.243  1.00  0.00     0.085 C 
HETATM    2  C4  UNL     1     -14.151 -13.649  -1.598  1.00  0.00     0.074 C 
HETATM    3  C5  UNL     1     -12.893 -13.294  -0.838  1.00  0.00    -0.072 C 
HETATM    4  C6  UNL     1     -12.486 -14.008   0.416  1.00  0.00     0.044 C 
HETATM    5  C7  UNL     1     -12.258 -12.307  -1.437  1.00  0.00    -0.027 C 
HETATM    6  C12 UNL     1     -13.034 -11.920  -2.652  1.00  0.00     0.017 C 
HETATM    7  C13 UNL     1     -12.862 -10.431  -2.856  1.00  0.00     0.023 C 
HETATM    8  C14 UNL     1     -12.521 -12.722  -3.800  1.00  0.00     0.027 C 
HETATM    9  C15 UNL     1     -13.495 -13.017  -4.885  1.00  0.00     0.112 C 
HETATM   10  C16 UNL     1     -14.905 -12.851  -4.539  1.00  0.00     0.259 C 
HETATM   11  O4  UNL     1     -15.779 -13.151  -5.386  1.00  0.00    -0.265 OA
HETATM   12  O5  UNL     1     -15.340 -12.375  -3.303  1.00  0.00    -0.309 OA
ENDROOT
BRANCH   5  13
HETATM   13  C8  UNL     1     -11.001 -11.700  -0.977  1.00  0.00     0.122 C 
HETATM   14  N1  UNL     1     -10.911 -10.948   0.031  1.00  0.00    -0.268 N 
ATOM     15  H1  UNL     1     -11.810 -10.807   0.491  1.00  0.00     0.194 HD
BRANCH  14  16
HETATM   16  O1  UNL     1      -9.934 -10.302   0.633  1.00  0.00    -0.200 OA
BRANCH  16  17
HETATM   17  C9  UNL     1      -9.402 -10.633   1.846  1.00  0.00     0.283 C 
HETATM   18  O2  UNL     1      -9.775 -11.600   2.528  1.00  0.00    -0.263 OA
BRANCH  17  19
HETATM   19  C10 UNL     1      -8.300  -9.748   2.357  1.00  0.00     0.139 C 
BRANCH  19  20
HETATM   20  C11 UNL     1      -7.661 -10.378   3.587  1.00  0.00     0.174 C 
BRANCH  20  21
HETATM   21  O3  UNL     1      -6.844  -9.512   4.283  1.00  0.00    -0.400 OA
ATOM     22  H3  UNL     1      -6.649  -9.805   5.166  1.00  0.00     0.209 HD
ENDBRANCH  20  21
ENDBRANCH  19  20
ENDBRANCH  17  19
ENDBRANCH  16  17
ENDBRANCH  14  16
ENDBRANCH   5  13
BRANCH   1  23
HETATM   23  C2  UNL     1     -14.920 -11.330  -1.181  1.00  0.00     0.035 C 
HETATM   24  C1  UNL     1     -16.447 -11.400  -1.158  1.00  0.00     0.008 C 
ENDBRANCH   1  23
TORSDOF 7
ENDMDL
MODEL 3
REMARK VINA RESULT: -6.289181703      1.187      1.627
REMARK  7 active torsions:
REMARK  status: ('A' for Active; 'I' for Inactive)
REMARK    1  A    between atoms: C2_2  and  C3_3 
REMARK    2  A    between atoms: C7_7  and  C8_8 
REMARK    3  A    between atoms: N1_9  and  O1_11 
REMARK    4  A    between atoms: O1_11  and  C9_12 
REMARK    5  A    between atoms: C9_12  and  C10_14 
REMARK    6  A    between atoms: C10_14  and  C11_15 
REMARK    7  A    between atoms: C11_15  and  O3_16 
ROOT
HETATM    1  C3  UNL     1     -14.011 -13.760  -1.495  1.00  0.00     0.085 C 
HETATM    2  C4  UNL     1     -12.852 -14.707  -1.109  1.00  0.00     0.074 C 
HETATM    3  C5  UNL     1     -12.100 -13.792  -0.168  1.00  0.00    -0.072 C 
HETATM    4  C6  UNL     1     -11.255 -14.317   0.954  1.00  0.00     0.044 C 
HETATM    5  C7  UNL     1     -12.307 -12.532  -0.490  1.00  0.00    -0.027 C 
HETATM    6  C12 UNL     1     -13.212 -12.494  -1.677  1.00  0.00     0.017 C 
HETATM    7  C13 UNL     1     -14.075 -11.257  -1.561  1.00  0.00     0.023 C 
HETATM    8  C14 UNL     1     -12.361 -12.491  -2.903  1.00  0.00     0.027 C 
HETATM    9  C15 UNL     1     -12.958 -13.105  -4.119  1.00  0.00     0.112 C 
HETATM   10  C16 UNL     1     -14.105 -13.981  -3.894  1.00  0.00     0.259 C 
HETATM   11  O4  UNL     1     -14.610 -14.586  -4.869  1.00  0.00    -0.265 OA
HETATM   12  O5  UNL     1     -14.677 -14.189  -2.640  1.00  0.00    -0.309 OA
ENDROOT
BRANCH   5  13
HETATM   13  C8  UNL     1     -11.739 -11.370   0.209  1.00  0.00     0.122 C 
HETATM   14  N1  UNL     1     -10.514 -11.073   0.199  1.00  0.00    -0.268 N 
ATOM     15  H1  UNL     1      -9.960 -11.731  -0.349  1.00  0.00     0.194 HD
BRANCH  14  16
HETATM   16  O1  UNL     1      -9.778 -10.117   0.725  1.00  0.00    -0.200 OA
BRANCH  16  17
HETATM   17  C9  UNL     1      -9.020 -10.238   1.854  1.00  0.00     0.283 C 
HETATM   18  O2  UNL     1      -8.078  -9.483   2.142  1.00  0.00    -0.263 OA
BRANCH  17  19
HETATM   19  C10 UNL     1      -9.376 -11.365   2.781  1.00  0.00     0.139 C 
BRANCH  19  20
HETATM   20  C11 UNL     1      -8.223 -11.626   3.741  1.00  0.00     0.174 C 
BRANCH  20  21
HETATM   21  O3  UNL     1      -8.070 -12.959   4.063  1.00  0.00    -0.400 OA
ATOM     22  H3  UNL     1      -7.669 -13.098   4.913  1.00  0.00     0.209 HD
ENDBRANCH  20  21
ENDBRANCH  19  20
ENDBRANCH  17  19
ENDBRANCH  16  17
ENDBRANCH  14  16
ENDBRANCH   5  13
BRANCH   1  23
HETATM   23  C2  UNL     1     -14.934 -13.617  -0.320  1.00  0.00     0.035 C 
HETATM   24  C1  UNL     1     -15.628 -14.964  -0.118  1.00  0.00     0.008 C 
ENDBRANCH   1  23
TORSDOF 7
ENDMDL
MODEL 4
REMARK VINA RESULT: -6.055364590      1.436      1.950
REMARK  7 active torsions:
REMARK  status: ('A' for Active; 'I' for Inactive)
REMARK    1  A    between atoms: C2_2  and  C3_3 
REMARK    2  A    between atoms: C7_7  and  C8_8 
REMARK    3  A    between atoms: N1_9  and  O1_11 
REMARK    4  A    between atoms: O1_11  and  C9_12 
REMARK    5  A    between atoms: C9_12  and  C10_14 
REMARK    6  A    between atoms: C10_14  and  C11_15 
REMARK    7  A    between atoms: C11_15  and  O3_16 
ROOT
HETATM    1  C3  UNL     1     -14.194 -13.692  -1.738  1.00  0.00     0.085 C 
HETATM    2  C4  UNL     1     -13.137 -14.767  -1.393  1.00  0.00     0.074 C 
HETATM    3  C5  UNL     1     -12.372 -14.013  -0.327  1.00  0.00    -0.072 C 
HETATM    4  C6  UNL     1     -11.638 -14.713   0.777  1.00  0.00     0.044 C 
HETATM    5  C7  UNL     1     -12.460 -12.715  -0.531  1.00  0.00    -0.027 C 
HETATM    6  C12 UNL     1     -13.287 -12.487  -1.752  1.00  0.00     0.017 C 
HETATM    7  C13 UNL     1     -14.056 -11.198  -1.555  1.00  0.00     0.023 C 
HETATM    8  C14 UNL     1     -12.369 -12.437  -2.927  1.00  0.00     0.027 C 
HETATM    9  C15 UNL     1     -12.941 -12.879  -4.227  1.00  0.00     0.112 C 
HETATM   10  C16 UNL     1     -14.165 -13.672  -4.150  1.00  0.00     0.259 C 
HETATM   11  O4  UNL     1     -14.658 -14.136  -5.205  1.00  0.00    -0.265 OA
HETATM   12  O5  UNL     1     -14.823 -13.951  -2.954  1.00  0.00    -0.309 OA
ENDROOT
BRANCH   5  13
HETATM   13  C8  UNL     1     -11.843 -11.678   0.310  1.00  0.00     0.122 C 
HETATM   14  N1  UNL     1     -10.621 -11.370   0.263  1.00  0.00    -0.268 N 
ATOM     15  H1  UNL     1     -10.108 -11.923  -0.422  1.00  0.00     0.194 HD
BRANCH  14  16
HETATM   16  O1  UNL     1      -9.850 -10.505   0.888  1.00  0.00    -0.200 OA
BRANCH  16  17
HETATM   17  C9  UNL     1      -9.312 -10.684   2.131  1.00  0.00     0.283 C 
HETATM   18  O2  UNL     1      -9.713 -11.529   2.946  1.00  0.00    -0.263 OA
BRANCH  17  19
HETATM   19  C10 UNL     1      -8.166  -9.785   2.499  1.00  0.00     0.139 C 
BRANCH  19  20
HETATM   20  C11 UNL     1      -7.475 -10.317   3.747  1.00  0.00     0.174 C 
BRANCH  20  21
HETATM   21  O3  UNL     1      -6.694  -9.374   4.384  1.00  0.00    -0.400 OA
ATOM     22  H3  UNL     1      -6.900  -9.274   5.306  1.00  0.00     0.209 HD
ENDBRANCH  20  21
ENDBRANCH  19  20
ENDBRANCH  17  19
ENDBRANCH  16  17
ENDBRANCH  14  16
ENDBRANCH   5  13
BRANCH   1  23
HETATM   23  C2  UNL     1     -15.169 -13.586  -0.604  1.00  0.00     0.035 C 
HETATM   24  C1  UNL     1     -15.918 -14.916  -0.518  1.00  0.00     0.008 C 
ENDBRANCH   1  23
TORSDOF 7
ENDMDL
MODEL 5
REMARK VINA RESULT: -5.991049620      1.210      1.542
REMARK  7 active torsions:
REMARK  status: ('A' for Active; 'I' for Inactive)
REMARK    1  A    between atoms: C2_2  and  C3_3 
REMARK    2  A    between atoms: C7_7  and  C8_8 
REMARK    3  A    between atoms: N1_9  and  O1_11 
REMARK    4  A    between atoms: O1_11  and  C9_12 
REMARK    5  A    between atoms: C9_12  and  C10_14 
REMARK    6  A    between atoms: C10_14  and  C11_15 
REMARK    7  A    between atoms: C11_15  and  O3_16 
ROOT
HETATM    1  C3  UNL     1     -14.624 -11.947  -2.309  1.00  0.00     0.085 C 
HETATM    2  C4  UNL     1     -15.018 -13.379  -1.881  1.00  0.00     0.074 C 
HETATM    3  C5  UNL     1     -13.910 -13.643  -0.886  1.00  0.00    -0.072 C 
HETATM    4  C6  UNL     1     -14.079 -14.585   0.269  1.00  0.00     0.044 C 
HETATM    5  C7  UNL     1     -12.838 -12.944  -1.196  1.00  0.00    -0.027 C 
HETATM    6  C12 UNL     1     -13.134 -12.154  -2.427  1.00  0.00     0.017 C 
HETATM    7  C13 UNL     1     -12.372 -10.850  -2.335  1.00  0.00     0.023 C 
HETATM    8  C14 UNL     1     -12.732 -12.974  -3.607  1.00  0.00     0.027 C 
HETATM    9  C15 UNL     1     -13.493 -12.736  -4.863  1.00  0.00     0.112 C 
HETATM   10  C16 UNL     1     -14.773 -12.049  -4.714  1.00  0.00     0.259 C 
HETATM   11  O4  UNL     1     -15.496 -11.881  -5.724  1.00  0.00    -0.265 OA
HETATM   12  O5  UNL     1     -15.247 -11.566  -3.495  1.00  0.00    -0.309 OA
ENDROOT
BRANCH   5  13
HETATM   13  C8  UNL     1     -11.573 -12.948  -0.448  1.00  0.00     0.122 C 
HETATM   14  N1  UNL     1     -11.442 -12.479   0.715  1.00  0.00    -0.268 N 
ATOM     15  H1  UNL     1     -12.313 -12.092   1.078  1.00  0.00     0.194 HD
BRANCH  14  16
HETATM   16  O1  UNL     1     -10.449 -12.368   1.573  1.00  0.00    -0.200 OA
BRANCH  16  17
HETATM   17  C9  UNL     1      -9.832 -11.198   1.916  1.00  0.00     0.283 C 
HETATM   18  O2  UNL     1      -9.612 -10.271   1.122  1.00  0.00    -0.263 OA
BRANCH  17  19
HETATM   19  C10 UNL     1      -9.408 -11.062   3.351  1.00  0.00     0.139 C 
BRANCH  19  20
HETATM   20  C11 UNL     1      -7.913 -10.777   3.421  1.00  0.00     0.174 C 
BRANCH  20  21
HETATM   21  O3  UNL     1      -7.551  -9.601   2.797  1.00  0.00    -0.400 OA
ATOM     22  H3  UNL     1      -7.379  -9.705   1.869  1.00  0.00     0.209 HD
ENDBRANCH  20  21
ENDBRANCH  19  20
ENDBRANCH  17  19
ENDBRANCH  16  17
ENDBRANCH  14  16
ENDBRANCH   5  13
BRANCH   1  23
HETATM   23  C2  UNL     1     -14.921 -11.002  -1.182  1.00  0.00     0.035 C 
HETATM   24  C1  UNL     1     -15.905  -9.957  -1.707  1.00  0.00     0.008 C 
ENDBRANCH   1  23
TORSDOF 7
ENDMDL
