MODEL 1
REMARK VINA RESULT: -5.622700269      0.000      0.000
REMARK  7 active torsions:
REMARK  status: ('A' for Active; 'I' for Inactive)
REMARK    1  A    between atoms: C2_2  and  C3_3 
REMARK    2  A    between atoms: C3_3  and  C5_6 
REMARK    3  A    between atoms: C3_3  and  N2_12 
REMARK    4  A    between atoms: C5_6  and  C6_7 
REMARK    5  A    between atoms: N2_12  and  C11_14 
REMARK    6  A    between atoms: C11_14  and  N3_15 
REMARK    7  A    between atoms: C11_14  and  C13_18 
ROOT
HETATM    1  C3  UNL     1     -13.757 -12.302  -2.545  1.00  0.00     0.121 C 
HETATM    2  C4  UNL     1     -15.108 -12.745  -2.038  1.00  0.00     0.091 C 
HETATM    3  N1  UNL     1     -16.146 -13.065  -1.644  1.00  0.00    -0.195 NA
ENDROOT
BRANCH   1   4
HETATM    4  C2  UNL     1     -13.127 -13.573  -3.016  1.00  0.00     0.042 C 
HETATM    5  C1  UNL     1     -13.817 -13.928  -4.358  1.00  0.00     0.009 C 
ENDBRANCH   1   4
BRANCH   1   6
HETATM    6  C5  UNL     1     -13.071 -11.615  -1.435  1.00  0.00     0.051 C 
BRANCH   6   7
HETATM    7  C6  UNL     1     -11.612 -11.843  -1.225  1.00  0.00    -0.011 C 
HETATM    8  C7  UNL     1     -11.439 -12.325   0.219  1.00  0.00     0.005 C 
HETATM    9  C8  UNL     1     -10.654 -11.245   0.927  1.00  0.00     0.000 C 
HETATM   10  C9  UNL     1      -9.719 -10.834  -0.209  1.00  0.00     0.000 C 
HETATM   11  C10 UNL     1     -10.724 -10.659  -1.338  1.00  0.00     0.005 C 
ENDBRANCH   6   7
ENDBRANCH   1   6
BRANCH   1  12
HETATM   12  N2  UNL     1     -14.016 -11.411  -3.662  1.00  0.00    -0.354 N 
ATOM     13  H2  UNL     1     -13.300 -11.428  -4.387  1.00  0.00     0.163 HD
BRANCH  12  14
HETATM   14  C11 UNL     1     -15.067 -10.541  -3.915  1.00  0.00     0.116 C 
BRANCH  14  15
HETATM   15  N3  UNL     1     -16.140 -10.742  -4.494  1.00  0.00    -0.362 N 
HETATM   16  C12 UNL     1     -17.487 -10.878  -4.421  1.00  0.00     0.120 C 
ATOM     17  H3  UNL     1     -15.903 -10.862  -5.479  1.00  0.00     0.165 HD
ENDBRANCH  14  15
BRANCH  14  18
HETATM   18  C13 UNL     1     -14.908  -9.119  -3.405  1.00  0.00     0.055 A 
HETATM   19  C14 UNL     1     -15.352  -8.636  -2.193  1.00  0.00     0.038 A 
HETATM   20  C15 UNL     1     -16.064  -9.433  -1.160  1.00  0.00     0.071 C 
HETATM   21  N4  UNL     1     -15.028  -7.334  -2.121  1.00  0.00    -0.302 N 
HETATM   22  N5  UNL     1     -14.408  -6.972  -3.214  1.00  0.00    -0.300 N 
ATOM     23  H4  UNL     1     -15.233  -6.721  -1.333  1.00  0.00     0.186 HD
HETATM   24  C16 UNL     1     -13.877  -5.646  -3.559  1.00  0.00     0.177 C 
HETATM   25  C17 UNL     1     -14.318  -8.062  -4.033  1.00  0.00     0.040 A 
HETATM   26  C18 UNL     1     -13.686  -8.032  -5.359  1.00  0.00     0.071 C 
ENDBRANCH  14  18
ENDBRANCH  12  14
ENDBRANCH   1  12
TORSDOF 7
ENDMDL
MODEL 2
REMARK VINA RESULT: -5.560920394      1.409      2.080
REMARK  7 active torsions:
REMARK  status: ('A' for Active; 'I' for Inactive)
REMARK    1  A    between atoms: C2_2  and  C3_3 
REMARK    2  A    between atoms: C3_3  and  C5_6 
REMARK    3  A    between atoms: C3_3  and  N2_12 
REMARK    4  A    between atoms: C5_6  and  C6_7 
REMARK    5  A    between atoms: N2_12  and  C11_14 
REMARK    6  A    between atoms: C11_14  and  N3_15 
REMARK    7  A    between atoms: C11_14  and  C13_18 
ROOT
HETATM    1  C3  UNL     1     -13.181 -11.953  -2.064  1.00  0.00     0.121 C 
HETATM    2  C4  UNL     1     -14.437 -12.782  -1.954  1.00  0.00     0.091 C 
HETATM    3  N1  UNL     1     -15.406 -13.405  -1.854  1.00  0.00    -0.195 NA
ENDROOT
BRANCH   1   4
HETATM    4  C2  UNL     1     -12.405 -12.636  -3.144  1.00  0.00     0.042 C 
HETATM    5  C1  UNL     1     -13.252 -12.504  -4.436  1.00  0.00     0.009 C 
ENDBRANCH   1   4
BRANCH   1   6
HETATM    6  C5  UNL     1     -12.547 -11.930  -0.732  1.00  0.00     0.051 C 
BRANCH   6   7
HETATM    7  C6  UNL     1     -11.060 -11.891  -0.630  1.00  0.00    -0.011 C 
HETATM    8  C7  UNL     1     -10.698 -12.331   0.792  1.00  0.00     0.005 C 
HETATM    9  C8  UNL     1     -10.070 -11.126   1.454  1.00  0.00     0.000 C 
HETATM   10  C9  UNL     1      -9.310 -10.555   0.258  1.00  0.00     0.000 C 
HETATM   11  C10 UNL     1     -10.410 -10.567  -0.794  1.00  0.00     0.005 C 
ENDBRANCH   6   7
ENDBRANCH   1   6
BRANCH   1  12
HETATM   12  N2  UNL     1     -13.603 -10.632  -2.490  1.00  0.00    -0.354 N 
ATOM     13  H2  UNL     1     -12.927 -10.144  -3.078  1.00  0.00     0.163 HD
BRANCH  12  14
HETATM   14  C11 UNL     1     -14.765  -9.915  -2.239  1.00  0.00     0.116 C 
BRANCH  14  15
HETATM   15  N3  UNL     1     -15.410  -9.794  -1.193  1.00  0.00    -0.362 N 
HETATM   16  C12 UNL     1     -16.552 -10.036  -0.503  1.00  0.00     0.120 C 
ATOM     17  H3  UNL     1     -14.807  -9.274  -0.556  1.00  0.00     0.165 HD
ENDBRANCH  14  15
BRANCH  14  18
HETATM   18  C13 UNL     1     -15.350  -9.142  -3.410  1.00  0.00     0.055 A 
HETATM   19  C14 UNL     1     -16.200  -9.644  -4.371  1.00  0.00     0.038 A 
HETATM   20  C15 UNL     1     -16.705 -11.041  -4.426  1.00  0.00     0.071 C 
HETATM   21  N4  UNL     1     -16.482  -8.654  -5.234  1.00  0.00    -0.302 N 
HETATM   22  N5  UNL     1     -15.859  -7.562  -4.872  1.00  0.00    -0.300 N 
ATOM     23  H4  UNL     1     -17.090  -8.739  -6.048  1.00  0.00     0.186 HD
HETATM   24  C16 UNL     1     -15.883  -6.246  -5.524  1.00  0.00     0.177 C 
HETATM   25  C17 UNL     1     -15.146  -7.835  -3.739  1.00  0.00     0.040 A 
HETATM   26  C18 UNL     1     -14.312  -6.843  -3.045  1.00  0.00     0.071 C 
ENDBRANCH  14  18
ENDBRANCH  12  14
ENDBRANCH   1  12
TORSDOF 7
ENDMDL
MODEL 3
REMARK VINA RESULT: -5.508727413      5.260      8.619
REMARK  7 active torsions:
REMARK  status: ('A' for Active; 'I' for Inactive)
REMARK    1  A    between atoms: C2_2  and  C3_3 
REMARK    2  A    between atoms: C3_3  and  C5_6 
REMARK    3  A    between atoms: C3_3  and  N2_12 
REMARK    4  A    between atoms: C5_6  and  C6_7 
REMARK    5  A    between atoms: N2_12  and  C11_14 
REMARK    6  A    between atoms: C11_14  and  N3_15 
REMARK    7  A    between atoms: C11_14  and  C13_18 
ROOT
HETATM    1  C3  UNL     1     -12.400 -14.946   0.088  1.00  0.00     0.121 C 
HETATM    2  C4  UNL     1     -13.023 -14.349  -1.150  1.00  0.00     0.091 C 
HETATM    3  N1  UNL     1     -13.482 -13.895  -2.109  1.00  0.00    -0.195 NA
ENDROOT
BRANCH   1   4
HETATM    4  C2  UNL     1     -13.503 -14.889   1.096  1.00  0.00     0.042 C 
HETATM    5  C1  UNL     1     -14.657 -15.752   0.525  1.00  0.00     0.009 C 
ENDBRANCH   1   4
BRANCH   1   6
HETATM    6  C5  UNL     1     -11.197 -14.153   0.405  1.00  0.00     0.051 C 
BRANCH   6   7
HETATM    7  C6  UNL     1     -11.346 -12.851   1.116  1.00  0.00    -0.011 C 
HETATM    8  C7  UNL     1     -11.258 -11.750   0.054  1.00  0.00     0.005 C 
HETATM    9  C8  UNL     1     -10.000 -10.971   0.366  1.00  0.00     0.000 C 
HETATM   10  C9  UNL     1     -10.051 -11.018   1.891  1.00  0.00     0.000 C 
HETATM   11  C10 UNL     1     -10.300 -12.504   2.109  1.00  0.00     0.005 C 
ENDBRANCH   6   7
ENDBRANCH   1   6
BRANCH   1  12
HETATM   12  N2  UNL     1     -12.076 -16.321  -0.243  1.00  0.00    -0.354 N 
ATOM     13  H2  UNL     1     -12.365 -16.607  -1.178  1.00  0.00     0.163 HD
BRANCH  12  14
HETATM   14  C11 UNL     1     -11.441 -17.315   0.489  1.00  0.00     0.116 C 
BRANCH  14  15
HETATM   15  N3  UNL     1     -11.789 -17.872   1.535  1.00  0.00    -0.362 N 
HETATM   16  C12 UNL     1     -12.521 -18.838   2.144  1.00  0.00     0.120 C 
ATOM     17  H3  UNL     1     -11.303 -17.380   2.285  1.00  0.00     0.165 HD
ENDBRANCH  14  15
BRANCH  14  18
HETATM   18  C13 UNL     1     -10.120 -17.824  -0.063  1.00  0.00     0.055 A 
HETATM   19  C14 UNL     1      -8.871 -17.322   0.230  1.00  0.00     0.038 A 
HETATM   20  C15 UNL     1      -8.594 -16.191   1.154  1.00  0.00     0.071 C 
HETATM   21  N4  UNL     1      -7.965 -18.034  -0.462  1.00  0.00    -0.302 N 
HETATM   22  N5  UNL     1      -8.572 -18.950  -1.172  1.00  0.00    -0.300 N 
ATOM     23  H4  UNL     1      -6.957 -17.883  -0.438  1.00  0.00     0.186 HD
HETATM   24  C16 UNL     1      -7.972 -19.945  -2.071  1.00  0.00     0.177 C 
HETATM   25  C17 UNL     1      -9.915 -18.844  -0.944  1.00  0.00     0.040 A 
HETATM   26  C18 UNL     1     -10.917 -19.710  -1.580  1.00  0.00     0.071 C 
ENDBRANCH  14  18
ENDBRANCH  12  14
ENDBRANCH   1  12
TORSDOF 7
ENDMDL
MODEL 4
REMARK VINA RESULT: -5.491810230      6.886     10.310
REMARK  7 active torsions:
REMARK  status: ('A' for Active; 'I' for Inactive)
REMARK    1  A    between atoms: C2_2  and  C3_3 
REMARK    2  A    between atoms: C3_3  and  C5_6 
REMARK    3  A    between atoms: C3_3  and  N2_12 
REMARK    4  A    between atoms: C5_6  and  C6_7 
REMARK    5  A    between atoms: N2_12  and  C11_14 
REMARK    6  A    between atoms: C11_14  and  N3_15 
REMARK    7  A    between atoms: C11_14  and  C13_18 
ROOT
HETATM    1  C3  UNL     1     -12.778 -17.447   0.951  1.00  0.00     0.121 C 
HETATM    2  C4  UNL     1     -13.172 -18.545  -0.006  1.00  0.00     0.091 C 
HETATM    3  N1  UNL     1     -13.453 -19.386  -0.747  1.00  0.00    -0.195 NA
ENDROOT
BRANCH   1   4
HETATM    4  C2  UNL     1     -14.031 -17.194   1.726  1.00  0.00     0.042 C 
HETATM    5  C1  UNL     1     -14.200 -18.401   2.684  1.00  0.00     0.009 C 
ENDBRANCH   1   4
BRANCH   1   6
HETATM    6  C5  UNL     1     -12.280 -16.316   0.146  1.00  0.00     0.051 C 
BRANCH   6   7
HETATM    7  C6  UNL     1     -12.431 -14.926   0.665  1.00  0.00    -0.011 C 
HETATM    8  C7  UNL     1     -13.274 -14.157  -0.357  1.00  0.00     0.005 C 
HETATM    9  C8  UNL     1     -12.366 -13.090  -0.927  1.00  0.00     0.000 C 
HETATM   10  C9  UNL     1     -11.581 -12.734   0.334  1.00  0.00     0.000 C 
HETATM   11  C10 UNL     1     -11.191 -14.125   0.813  1.00  0.00     0.005 C 
ENDBRANCH   6   7
ENDBRANCH   1   6
BRANCH   1  12
HETATM   12  N2  UNL     1     -11.747 -18.004   1.807  1.00  0.00    -0.354 N 
ATOM     13  H2  UNL     1     -12.088 -18.353   2.702  1.00  0.00     0.163 HD
BRANCH  12  14
HETATM   14  C11 UNL     1     -10.379 -18.145   1.621  1.00  0.00     0.116 C 
BRANCH  14  15
HETATM   15  N3  UNL     1      -9.474 -17.313   1.739  1.00  0.00    -0.362 N 
HETATM   16  C12 UNL     1      -8.473 -16.602   1.163  1.00  0.00     0.120 C 
ATOM     17  H3  UNL     1      -9.485 -17.031   2.719  1.00  0.00     0.165 HD
ENDBRANCH  14  15
BRANCH  14  18
HETATM   18  C13 UNL     1      -9.889 -19.527   1.221  1.00  0.00     0.055 A 
HETATM   19  C14 UNL     1      -9.595 -20.564   2.079  1.00  0.00     0.038 A 
HETATM   20  C15 UNL     1      -9.718 -20.515   3.560  1.00  0.00     0.071 C 
HETATM   21  N4  UNL     1      -9.186 -21.610   1.342  1.00  0.00    -0.302 N 
HETATM   22  N5  UNL     1      -9.203 -21.290   0.073  1.00  0.00    -0.300 N 
ATOM     23  H4  UNL     1      -8.903 -22.516   1.714  1.00  0.00     0.186 HD
HETATM   24  C16 UNL     1      -8.836 -22.125  -1.078  1.00  0.00     0.177 C 
HETATM   25  C17 UNL     1      -9.637 -19.998  -0.033  1.00  0.00     0.040 A 
HETATM   26  C18 UNL     1      -9.779 -19.292  -1.314  1.00  0.00     0.071 C 
ENDBRANCH  14  18
ENDBRANCH  12  14
ENDBRANCH   1  12
TORSDOF 7
ENDMDL
MODEL 5
REMARK VINA RESULT: -5.484713303      1.256      1.385
REMARK  7 active torsions:
REMARK  status: ('A' for Active; 'I' for Inactive)
REMARK    1  A    between atoms: C2_2  and  C3_3 
REMARK    2  A    between atoms: C3_3  and  C5_6 
REMARK    3  A    between atoms: C3_3  and  N2_12 
REMARK    4  A    between atoms: C5_6  and  C6_7 
REMARK    5  A    between atoms: N2_12  and  C11_14 
REMARK    6  A    between atoms: C11_14  and  N3_15 
REMARK    7  A    between atoms: C11_14  and  C13_18 
ROOT
HETATM    1  C3  UNL     1     -13.396 -12.662  -1.954  1.00  0.00     0.121 C 
HETATM    2  C4  UNL     1     -13.277 -14.052  -1.379  1.00  0.00     0.091 C 
HETATM    3  N1  UNL     1     -13.195 -15.110  -0.920  1.00  0.00    -0.195 NA
ENDROOT
BRANCH   1   4
HETATM    4  C2  UNL     1     -12.774 -12.791  -3.307  1.00  0.00     0.042 C 
HETATM    5  C1  UNL     1     -13.576 -13.890  -4.050  1.00  0.00     0.009 C 
ENDBRANCH   1   4
BRANCH   1   6
HETATM    6  C5  UNL     1     -12.723 -11.738  -1.022  1.00  0.00     0.051 C 
BRANCH   6   7
HETATM    7  C6  UNL     1     -11.247 -11.834  -0.835  1.00  0.00    -0.011 C 
HETATM    8  C7  UNL     1     -11.006 -12.233   0.624  1.00  0.00     0.005 C 
HETATM    9  C8  UNL     1     -10.301 -11.060   1.266  1.00  0.00     0.000 C 
HETATM   10  C9  UNL     1      -9.426 -10.625   0.092  1.00  0.00     0.000 C 
HETATM   11  C10 UNL     1     -10.464 -10.587  -1.021  1.00  0.00     0.005 C 
ENDBRANCH   6   7
ENDBRANCH   1   6
BRANCH   1  12
HETATM   12  N2  UNL     1     -14.817 -12.388  -2.064  1.00  0.00    -0.354 N 
ATOM     13  H2  UNL     1     -15.402 -12.954  -1.449  1.00  0.00     0.163 HD
BRANCH  12  14
HETATM   14  C11 UNL     1     -15.519 -11.494  -2.859  1.00  0.00     0.116 C 
BRANCH  14  15
HETATM   15  N3  UNL     1     -16.311 -11.707  -3.782  1.00  0.00    -0.362 N 
HETATM   16  C12 UNL     1     -16.518 -11.896  -5.109  1.00  0.00     0.120 C 
ATOM     17  H3  UNL     1     -17.232 -11.771  -3.347  1.00  0.00     0.165 HD
ENDBRANCH  14  15
BRANCH  14  18
HETATM   18  C13 UNL     1     -15.311 -10.017  -2.563  1.00  0.00     0.055 A 
HETATM   19  C14 UNL     1     -15.852  -9.316  -1.508  1.00  0.00     0.038 A 
HETATM   20  C15 UNL     1     -16.735  -9.889  -0.459  1.00  0.00     0.071 C 
HETATM   21  N4  UNL     1     -15.440  -8.041  -1.603  1.00  0.00    -0.302 N 
HETATM   22  N5  UNL     1     -14.674  -7.900  -2.655  1.00  0.00    -0.300 N 
ATOM     23  H4  UNL     1     -15.686  -7.294  -0.953  1.00  0.00     0.186 HD
HETATM   24  C16 UNL     1     -14.009  -6.682  -3.136  1.00  0.00     0.177 C 
HETATM   25  C17 UNL     1     -14.575  -9.115  -3.273  1.00  0.00     0.040 A 
HETATM   26  C18 UNL     1     -13.797  -9.341  -4.499  1.00  0.00     0.071 C 
ENDBRANCH  14  18
ENDBRANCH  12  14
ENDBRANCH   1  12
TORSDOF 7
ENDMDL
