MODEL 1
REMARK VINA RESULT: -6.576768308      0.000      0.000
REMARK  8 active torsions:
REMARK  status: ('A' for Active; 'I' for Inactive)
REMARK    1  A    between atoms: O1_2  and  C2_3 
REMARK    2  A    between atoms: C2_3  and  C3_5 
REMARK    3  A    between atoms: C3_5  and  C4_6 
REMARK    4  A    between atoms: C4_6  and  C5_7 
REMARK       I    between atoms: C5_7  and  N1_9 
REMARK    5  A    between atoms: N1_9  and  C6_11 
REMARK    6  A    between atoms: C7_13  and  C8_14 
REMARK    7  A    between atoms: C8_14  and  O4_15 
REMARK    8  A    between atoms: C8_14  and  C9_17 
ROOT
HETATM    1  C6  UNL     1     -10.433 -15.311   0.947  1.00  0.00     0.083 A 
HETATM    2  S1  UNL     1      -8.920 -16.183   0.739  1.00  0.00    -0.069 SA
HETATM    3  C7  UNL     1      -9.527 -17.692   0.188  1.00  0.00     0.043 A 
HETATM    4  C12 UNL     1     -10.859 -17.475   0.181  1.00  0.00    -0.034 A 
HETATM    5  C13 UNL     1     -11.798 -18.578  -0.325  1.00  0.00     0.050 C 
HETATM    6  C14 UNL     1     -11.323 -16.262   0.572  1.00  0.00    -0.021 A 
HETATM    7  C15 UNL     1     -12.823 -16.007   0.671  1.00  0.00     0.052 C 
ENDROOT
BRANCH   1   8
HETATM    8  N1  UNL     1     -10.483 -13.971   1.414  1.00  0.00    -0.321 N 
HETATM    9  C5  UNL     1     -10.493 -12.722   0.861  1.00  0.00     0.223 C 
HETATM   10  O3  UNL     1     -10.443 -12.410  -0.339  1.00  0.00    -0.273 OA
ATOM     11  H1  UNL     1     -10.521 -13.930   2.432  1.00  0.00     0.169 HD
BRANCH   9  12
HETATM   12  C4  UNL     1     -10.572 -11.491   1.771  1.00  0.00     0.113 C 
BRANCH  12  13
HETATM   13  C3  UNL     1      -9.426 -11.444   2.728  1.00  0.00     0.120 C 
BRANCH  13  14
HETATM   14  C2  UNL     1      -8.638 -10.210   2.366  1.00  0.00     0.258 C 
HETATM   15  O2  UNL     1      -8.999  -9.437   1.442  1.00  0.00    -0.265 OA
BRANCH  14  16
HETATM   16  O1  UNL     1      -7.477  -9.883   3.053  1.00  0.00    -0.326 OA
HETATM   17  C1  UNL     1      -7.108 -10.415   4.309  1.00  0.00     0.213 C 
ENDBRANCH  14  16
ENDBRANCH  13  14
ENDBRANCH  12  13
ENDBRANCH   9  12
ENDBRANCH   1   8
BRANCH   3  18
HETATM   18  C8  UNL     1      -8.650 -18.810  -0.148  1.00  0.00     0.064 C 
BRANCH  18  19
HETATM   19  O4  UNL     1      -8.604 -19.776   0.734  1.00  0.00    -0.363 OA
ATOM     20  H4  UNL     1      -8.228 -20.592   0.429  1.00  0.00     0.217 HD
ENDBRANCH  18  19
BRANCH  18  21
HETATM   21  C9  UNL     1      -7.817 -19.038  -1.309  1.00  0.00     0.035 C 
HETATM   22  C10 UNL     1      -7.113 -20.412  -1.153  1.00  0.00     0.016 C 
HETATM   23  C11 UNL     1      -8.597 -19.118  -2.607  1.00  0.00     0.016 C 
ENDBRANCH  18  21
ENDBRANCH   3  18
TORSDOF 8
ENDMDL
MODEL 2
REMARK VINA RESULT: -6.417945198      0.854      1.184
REMARK  8 active torsions:
REMARK  status: ('A' for Active; 'I' for Inactive)
REMARK    1  A    between atoms: O1_2  and  C2_3 
REMARK    2  A    between atoms: C2_3  and  C3_5 
REMARK    3  A    between atoms: C3_5  and  C4_6 
REMARK    4  A    between atoms: C4_6  and  C5_7 
REMARK       I    between atoms: C5_7  and  N1_9 
REMARK    5  A    between atoms: N1_9  and  C6_11 
REMARK    6  A    between atoms: C7_13  and  C8_14 
REMARK    7  A    between atoms: C8_14  and  O4_15 
REMARK    8  A    between atoms: C8_14  and  C9_17 
ROOT
HETATM    1  C6  UNL     1     -10.350 -15.414   0.929  1.00  0.00     0.083 A 
HETATM    2  S1  UNL     1      -8.809 -16.227   0.691  1.00  0.00    -0.069 SA
HETATM    3  C7  UNL     1      -9.366 -17.738   0.096  1.00  0.00     0.043 A 
HETATM    4  C12 UNL     1     -10.705 -17.567   0.099  1.00  0.00    -0.034 A 
HETATM    5  C13 UNL     1     -11.608 -18.685  -0.439  1.00  0.00     0.050 C 
HETATM    6  C14 UNL     1     -11.208 -16.383   0.527  1.00  0.00    -0.021 A 
HETATM    7  C15 UNL     1     -12.715 -16.182   0.637  1.00  0.00     0.052 C 
ENDROOT
BRANCH   1   8
HETATM    8  N1  UNL     1     -10.444 -14.091   1.436  1.00  0.00    -0.321 N 
HETATM    9  C5  UNL     1     -10.469 -12.826   0.923  1.00  0.00     0.223 C 
HETATM   10  O3  UNL     1     -10.394 -12.474  -0.264  1.00  0.00    -0.273 OA
ATOM     11  H1  UNL     1     -10.510 -14.084   2.454  1.00  0.00     0.169 HD
BRANCH   9  12
HETATM   12  C4  UNL     1     -10.601 -11.626   1.869  1.00  0.00     0.113 C 
BRANCH  12  13
HETATM   13  C3  UNL     1      -9.420 -11.514   2.778  1.00  0.00     0.120 C 
BRANCH  13  14
HETATM   14  C2  UNL     1      -8.700 -10.255   2.364  1.00  0.00     0.258 C 
HETATM   15  O2  UNL     1      -9.104  -9.540   1.412  1.00  0.00    -0.265 OA
BRANCH  14  16
HETATM   16  O1  UNL     1      -7.558  -9.839   3.033  1.00  0.00    -0.326 OA
HETATM   17  C1  UNL     1      -7.086 -10.395   4.243  1.00  0.00     0.213 C 
ENDBRANCH  14  16
ENDBRANCH  13  14
ENDBRANCH  12  13
ENDBRANCH   9  12
ENDBRANCH   1   8
BRANCH   3  18
HETATM   18  C8  UNL     1      -8.453 -18.816  -0.275  1.00  0.00     0.064 C 
BRANCH  18  19
HETATM   19  O4  UNL     1      -7.387 -18.449  -0.939  1.00  0.00    -0.363 OA
ATOM     20  H4  UNL     1      -6.767 -17.917  -0.455  1.00  0.00     0.217 HD
ENDBRANCH  18  19
BRANCH  18  21
HETATM   21  C9  UNL     1      -8.526 -20.239  -0.024  1.00  0.00     0.035 C 
HETATM   22  C10 UNL     1      -7.102 -20.841  -0.156  1.00  0.00     0.016 C 
HETATM   23  C11 UNL     1      -8.992 -20.584   1.378  1.00  0.00     0.016 C 
ENDBRANCH  18  21
ENDBRANCH   3  18
TORSDOF 8
ENDMDL
MODEL 3
REMARK VINA RESULT: -6.412005177      3.888      5.268
REMARK  8 active torsions:
REMARK  status: ('A' for Active; 'I' for Inactive)
REMARK    1  A    between atoms: O1_2  and  C2_3 
REMARK    2  A    between atoms: C2_3  and  C3_5 
REMARK    3  A    between atoms: C3_5  and  C4_6 
REMARK    4  A    between atoms: C4_6  and  C5_7 
REMARK       I    between atoms: C5_7  and  N1_9 
REMARK    5  A    between atoms: N1_9  and  C6_11 
REMARK    6  A    between atoms: C7_13  and  C8_14 
REMARK    7  A    between atoms: C8_14  and  O4_15 
REMARK    8  A    between atoms: C8_14  and  C9_17 
ROOT
HETATM    1  C6  UNL     1     -11.344 -12.496   0.347  1.00  0.00     0.083 A 
HETATM    2  S1  UNL     1     -12.507 -11.776  -0.759  1.00  0.00    -0.069 SA
HETATM    3  C7  UNL     1     -13.355 -13.187  -1.248  1.00  0.00     0.043 A 
HETATM    4  C12 UNL     1     -12.722 -14.154  -0.550  1.00  0.00    -0.034 A 
HETATM    5  C13 UNL     1     -13.222 -15.601  -0.645  1.00  0.00     0.050 C 
HETATM    6  C14 UNL     1     -11.693 -13.802   0.261  1.00  0.00    -0.021 A 
HETATM    7  C15 UNL     1     -10.889 -14.872   0.991  1.00  0.00     0.052 C 
ENDROOT
BRANCH   1   8
HETATM    8  N1  UNL     1     -10.368 -11.726   1.033  1.00  0.00    -0.321 N 
HETATM    9  C5  UNL     1      -9.685 -10.563   0.820  1.00  0.00     0.223 C 
HETATM   10  O3  UNL     1      -9.747  -9.800  -0.156  1.00  0.00    -0.273 OA
ATOM     11  H1  UNL     1     -10.109 -12.156   1.921  1.00  0.00     0.169 HD
BRANCH   9  12
HETATM   12  C4  UNL     1      -8.689 -10.064   1.874  1.00  0.00     0.113 C 
BRANCH  12  13
HETATM   13  C3  UNL     1      -8.756 -10.885   3.121  1.00  0.00     0.120 C 
BRANCH  13  14
HETATM   14  C2  UNL     1      -7.494 -10.575   3.886  1.00  0.00     0.258 C 
HETATM   15  O2  UNL     1      -6.882  -9.486   3.746  1.00  0.00    -0.265 OA
BRANCH  14  16
HETATM   16  O1  UNL     1      -6.965 -11.493   4.783  1.00  0.00    -0.326 OA
HETATM   17  C1  UNL     1      -6.905 -12.887   4.566  1.00  0.00     0.213 C 
ENDBRANCH  14  16
ENDBRANCH  13  14
ENDBRANCH  12  13
ENDBRANCH   9  12
ENDBRANCH   1   8
BRANCH   3  18
HETATM   18  C8  UNL     1     -14.468 -13.142  -2.192  1.00  0.00     0.064 C 
BRANCH  18  19
HETATM   19  O4  UNL     1     -15.638 -12.868  -1.674  1.00  0.00    -0.363 OA
ATOM     20  H4  UNL     1     -15.636 -12.225  -0.976  1.00  0.00     0.217 HD
ENDBRANCH  18  19
BRANCH  18  21
HETATM   21  C9  UNL     1     -14.495 -13.345  -3.625  1.00  0.00     0.035 C 
HETATM   22  C10 UNL     1     -13.119 -12.929  -4.211  1.00  0.00     0.016 C 
HETATM   23  C11 UNL     1     -14.695 -14.793  -4.027  1.00  0.00     0.016 C 
ENDBRANCH  18  21
ENDBRANCH   3  18
TORSDOF 8
ENDMDL
MODEL 4
REMARK VINA RESULT: -6.410829678      3.723      5.983
REMARK  8 active torsions:
REMARK  status: ('A' for Active; 'I' for Inactive)
REMARK    1  A    between atoms: O1_2  and  C2_3 
REMARK    2  A    between atoms: C2_3  and  C3_5 
REMARK    3  A    between atoms: C3_5  and  C4_6 
REMARK    4  A    between atoms: C4_6  and  C5_7 
REMARK       I    between atoms: C5_7  and  N1_9 
REMARK    5  A    between atoms: N1_9  and  C6_11 
REMARK    6  A    between atoms: C7_13  and  C8_14 
REMARK    7  A    between atoms: C8_14  and  O4_15 
REMARK    8  A    between atoms: C8_14  and  C9_17 
ROOT
HETATM    1  C6  UNL     1     -10.797 -12.801   1.182  1.00  0.00     0.083 A 
HETATM    2  S1  UNL     1     -11.276 -11.374   0.272  1.00  0.00    -0.069 SA
HETATM    3  C7  UNL     1     -12.374 -12.091  -0.837  1.00  0.00     0.043 A 
HETATM    4  C12 UNL     1     -12.337 -13.390  -0.472  1.00  0.00    -0.034 A 
HETATM    5  C13 UNL     1     -13.250 -14.398  -1.182  1.00  0.00     0.050 C 
HETATM    6  C14 UNL     1     -11.530 -13.754   0.556  1.00  0.00    -0.021 A 
HETATM    7  C15 UNL     1     -11.385 -15.222   0.937  1.00  0.00     0.052 C 
ENDROOT
BRANCH   1   8
HETATM    8  N1  UNL     1      -9.859 -12.746   2.247  1.00  0.00    -0.321 N 
HETATM    9  C5  UNL     1      -9.274 -11.777   3.010  1.00  0.00     0.223 C 
HETATM   10  O3  UNL     1      -9.426 -10.548   2.947  1.00  0.00    -0.273 OA
ATOM     11  H1  UNL     1      -9.538 -13.677   2.511  1.00  0.00     0.169 HD
BRANCH   9  12
HETATM   12  C4  UNL     1      -8.283 -12.176   4.111  1.00  0.00     0.113 C 
BRANCH  12  13
HETATM   13  C3  UNL     1      -7.064 -11.311   4.089  1.00  0.00     0.120 C 
BRANCH  13  14
HETATM   14  C2  UNL     1      -5.932 -12.205   3.650  1.00  0.00     0.258 C 
HETATM   15  O2  UNL     1      -5.950 -13.447   3.848  1.00  0.00    -0.265 OA
BRANCH  14  16
HETATM   16  O1  UNL     1      -4.824 -11.680   3.001  1.00  0.00    -0.326 OA
HETATM   17  C1  UNL     1      -3.774 -12.448   2.451  1.00  0.00     0.213 C 
ENDBRANCH  14  16
ENDBRANCH  13  14
ENDBRANCH  12  13
ENDBRANCH   9  12
ENDBRANCH   1   8
BRANCH   3  18
HETATM   18  C8  UNL     1     -13.083 -11.312  -1.848  1.00  0.00     0.064 C 
BRANCH  18  19
HETATM   19  O4  UNL     1     -14.202 -10.760  -1.454  1.00  0.00    -0.363 OA
ATOM     20  H4  UNL     1     -14.936 -10.852  -2.050  1.00  0.00     0.217 HD
ENDBRANCH  18  19
BRANCH  18  21
HETATM   21  C9  UNL     1     -12.749 -11.038  -3.229  1.00  0.00     0.035 C 
HETATM   22  C10 UNL     1     -13.134 -12.272  -4.088  1.00  0.00     0.016 C 
HETATM   23  C11 UNL     1     -13.517  -9.869  -3.817  1.00  0.00     0.016 C 
ENDBRANCH  18  21
ENDBRANCH   3  18
TORSDOF 8
ENDMDL
MODEL 5
REMARK VINA RESULT: -6.341774184      4.110      5.918
REMARK  8 active torsions:
REMARK  status: ('A' for Active; 'I' for Inactive)
REMARK    1  A    between atoms: O1_2  and  C2_3 
REMARK    2  A    between atoms: C2_3  and  C3_5 
REMARK    3  A    between atoms: C3_5  and  C4_6 
REMARK    4  A    between atoms: C4_6  and  C5_7 
REMARK       I    between atoms: C5_7  and  N1_9 
REMARK    5  A    between atoms: N1_9  and  C6_11 
REMARK    6  A    between atoms: C7_13  and  C8_14 
REMARK    7  A    between atoms: C8_14  and  O4_15 
REMARK    8  A    between atoms: C8_14  and  C9_17 
ROOT
HETATM    1  C6  UNL     1     -11.644 -12.881   0.180  1.00  0.00     0.083 A 
HETATM    2  S1  UNL     1     -11.664 -11.826  -1.227  1.00  0.00    -0.069 SA
HETATM    3  C7  UNL     1     -12.779 -12.680  -2.215  1.00  0.00     0.043 A 
HETATM    4  C12 UNL     1     -13.096 -13.736  -1.437  1.00  0.00    -0.034 A 
HETATM    5  C13 UNL     1     -14.145 -14.743  -1.926  1.00  0.00     0.050 C 
HETATM    6  C14 UNL     1     -12.515 -13.842  -0.216  1.00  0.00    -0.021 A 
HETATM    7  C15 UNL     1     -12.772 -15.067   0.654  1.00  0.00     0.052 C 
ENDROOT
BRANCH   1   8
HETATM    8  N1  UNL     1     -10.840 -12.617   1.320  1.00  0.00    -0.321 N 
HETATM    9  C5  UNL     1     -10.162 -11.550   1.836  1.00  0.00     0.223 C 
HETATM   10  O3  UNL     1     -10.057 -10.405   1.370  1.00  0.00    -0.273 OA
ATOM     11  H1  UNL     1     -10.744 -13.443   1.910  1.00  0.00     0.169 HD
BRANCH   9  12
HETATM   12  C4  UNL     1      -9.401 -11.703   3.158  1.00  0.00     0.113 C 
BRANCH  12  13
HETATM   13  C3  UNL     1      -8.396 -10.612   3.341  1.00  0.00     0.120 C 
BRANCH  13  14
HETATM   14  C2  UNL     1      -7.150 -11.283   3.859  1.00  0.00     0.258 C 
HETATM   15  O2  UNL     1      -6.006 -10.790   3.683  1.00  0.00    -0.265 OA
BRANCH  14  16
HETATM   16  O1  UNL     1      -7.226 -12.478   4.560  1.00  0.00    -0.326 OA
HETATM   17  C1  UNL     1      -6.552 -13.666   4.202  1.00  0.00     0.213 C 
ENDBRANCH  14  16
ENDBRANCH  13  14
ENDBRANCH  12  13
ENDBRANCH   9  12
ENDBRANCH   1   8
BRANCH   3  18
HETATM   18  C8  UNL     1     -13.165 -12.209  -3.542  1.00  0.00     0.064 C 
BRANCH  18  19
HETATM   19  O4  UNL     1     -12.668 -12.882  -4.548  1.00  0.00    -0.363 OA
ATOM     20  H4  UNL     1     -12.739 -12.463  -5.396  1.00  0.00     0.217 HD
ENDBRANCH  18  19
BRANCH  18  21
HETATM   21  C9  UNL     1     -14.022 -11.112  -3.939  1.00  0.00     0.035 C 
HETATM   22  C10 UNL     1     -15.228 -11.045  -2.964  1.00  0.00     0.016 C 
HETATM   23  C11 UNL     1     -13.347  -9.756  -3.855  1.00  0.00     0.016 C 
ENDBRANCH  18  21
ENDBRANCH   3  18
TORSDOF 8
ENDMDL
