MODEL 1
REMARK VINA RESULT: -4.019267890      0.000      0.000
REMARK  2 active torsions:
REMARK  status: ('A' for Active; 'I' for Inactive)
REMARK    1  A    between atoms: C2_2  and  C3_7 
REMARK    2  A    between atoms: N1_3  and  O1_5 
ROOT
HETATM    1  C3  UNL     1       0.108  24.725  77.839  1.00  0.00     0.227 C 
HETATM    2  C4  UNL     1       1.116  24.327  78.872  1.00  0.00     0.054 C 
HETATM    3  C5  UNL     1       2.293  23.787  78.035  1.00  0.00     0.071 C 
HETATM    4  C6  UNL     1       1.757  23.963  76.643  1.00  0.00     0.457 C 
HETATM    5  N2  UNL     1       0.746  22.939  76.528  1.00  0.00     0.121 N 
HETATM    6  C7  UNL     1       0.526  22.472  75.200  1.00  0.00     0.312 C 
HETATM    7  C8  UNL     1      -0.407  23.407  77.218  1.00  0.00     0.322 C 
HETATM    8  N3  UNL     1       0.954  25.173  76.764  1.00  0.00     0.135 N 
HETATM    9  C9  UNL     1       1.789  26.286  77.096  1.00  0.00     0.314 C 
ENDROOT
BRANCH   1  10
HETATM   10  C2  UNL     1      -0.972  25.581  78.228  1.00  0.00     0.046 C 
HETATM   11  C1  UNL     1      -1.396  25.821  79.647  1.00  0.00     0.068 C 
HETATM   12  N1  UNL     1      -1.647  26.229  77.385  1.00  0.00    -0.275 N 
ATOM     13  H1  UNL     1      -2.373  26.813  77.800  1.00  0.00     0.193 HD
BRANCH  12  14
HETATM   14  O1  UNL     1      -1.593  26.298  76.063  1.00  0.00    -0.290 OA
ATOM     15  H1  UNL     1      -0.948  26.659  75.466  1.00  0.00     0.244 HD
ENDBRANCH  12  14
ENDBRANCH   1  10
TORSDOF 2
ENDMDL
MODEL 2
REMARK VINA RESULT: -4.006119712      3.211      5.250
REMARK  2 active torsions:
REMARK  status: ('A' for Active; 'I' for Inactive)
REMARK    1  A    between atoms: C2_2  and  C3_7 
REMARK    2  A    between atoms: N1_3  and  O1_5 
ROOT
HETATM    1  C3  UNL     1       2.523  22.438  75.463  1.00  0.00     0.227 C 
HETATM    2  C4  UNL     1       2.034  21.092  75.899  1.00  0.00     0.054 C 
HETATM    3  C5  UNL     1       0.500  21.234  75.847  1.00  0.00     0.071 C 
HETATM    4  C6  UNL     1       0.361  22.657  75.388  1.00  0.00     0.457 C 
HETATM    5  N2  UNL     1       0.746  23.433  76.542  1.00  0.00     0.121 N 
HETATM    6  C7  UNL     1       0.142  24.722  76.616  1.00  0.00     0.312 C 
HETATM    7  C8  UNL     1       2.167  23.411  76.609  1.00  0.00     0.322 C 
HETATM    8  N3  UNL     1       1.513  22.821  74.511  1.00  0.00     0.135 N 
HETATM    9  C9  UNL     1       1.404  21.945  73.385  1.00  0.00     0.314 C 
ENDROOT
BRANCH   1  10
HETATM   10  C2  UNL     1       3.892  22.575  75.063  1.00  0.00     0.046 C 
HETATM   11  C1  UNL     1       4.682  23.847  75.163  1.00  0.00     0.068 C 
HETATM   12  N1  UNL     1       4.554  21.606  74.609  1.00  0.00    -0.275 N 
ATOM     13  H1  UNL     1       5.521  21.838  74.381  1.00  0.00     0.193 HD
BRANCH  12  14
HETATM   14  O1  UNL     1       4.236  20.341  74.371  1.00  0.00    -0.290 OA
ATOM     15  H1  UNL     1       4.711  19.628  73.960  1.00  0.00     0.244 HD
ENDBRANCH  12  14
ENDBRANCH   1  10
TORSDOF 2
ENDMDL
MODEL 3
REMARK VINA RESULT: -3.862350220      1.939      3.246
REMARK  2 active torsions:
REMARK  status: ('A' for Active; 'I' for Inactive)
REMARK    1  A    between atoms: C2_2  and  C3_7 
REMARK    2  A    between atoms: N1_3  and  O1_5 
ROOT
HETATM    1  C3  UNL     1       1.638  23.687  76.693  1.00  0.00     0.227 C 
HETATM    2  C4  UNL     1       1.899  23.571  78.163  1.00  0.00     0.054 C 
HETATM    3  C5  UNL     1       2.890  24.719  78.442  1.00  0.00     0.071 C 
HETATM    4  C6  UNL     1       3.038  25.307  77.069  1.00  0.00     0.457 C 
HETATM    5  N2  UNL     1       3.826  24.330  76.356  1.00  0.00     0.121 N 
HETATM    6  C7  UNL     1       4.618  24.866  75.299  1.00  0.00     0.312 C 
HETATM    7  C8  UNL     1       2.951  23.267  75.995  1.00  0.00     0.322 C 
HETATM    8  N3  UNL     1       1.714  25.111  76.495  1.00  0.00     0.135 N 
HETATM    9  C9  UNL     1       0.742  25.860  77.231  1.00  0.00     0.314 C 
ENDROOT
BRANCH   1  10
HETATM   10  C2  UNL     1       0.507  23.003  76.141  1.00  0.00     0.046 C 
HETATM   11  C1  UNL     1       0.512  22.278  74.828  1.00  0.00     0.068 C 
HETATM   12  N1  UNL     1      -0.596  22.941  76.746  1.00  0.00    -0.275 N 
ATOM     13  H1  UNL     1      -1.309  22.408  76.248  1.00  0.00     0.193 HD
BRANCH  12  14
HETATM   14  O1  UNL     1      -1.006  23.434  77.906  1.00  0.00    -0.290 OA
ATOM     15  H1  UNL     1      -1.080  24.323  78.233  1.00  0.00     0.244 HD
ENDBRANCH  12  14
ENDBRANCH   1  10
TORSDOF 2
ENDMDL
MODEL 4
REMARK VINA RESULT: -3.734557223      1.413      1.614
REMARK  2 active torsions:
REMARK  status: ('A' for Active; 'I' for Inactive)
REMARK    1  A    between atoms: C2_2  and  C3_7 
REMARK    2  A    between atoms: N1_3  and  O1_5 
ROOT
HETATM    1  C3  UNL     1       0.502  24.972  77.302  1.00  0.00     0.227 C 
HETATM    2  C4  UNL     1       0.587  24.362  78.666  1.00  0.00     0.054 C 
HETATM    3  C5  UNL     1       1.989  23.721  78.685  1.00  0.00     0.071 C 
HETATM    4  C6  UNL     1       2.481  24.071  77.310  1.00  0.00     0.457 C 
HETATM    5  N2  UNL     1       1.714  23.213  76.439  1.00  0.00     0.121 N 
HETATM    6  C7  UNL     1       2.366  22.877  75.216  1.00  0.00     0.312 C 
HETATM    7  C8  UNL     1       0.420  23.789  76.312  1.00  0.00     0.322 C 
HETATM    8  N3  UNL     1       1.866  25.371  77.075  1.00  0.00     0.135 N 
HETATM    9  C9  UNL     1       2.364  26.328  78.016  1.00  0.00     0.314 C 
ENDROOT
BRANCH   1  10
HETATM   10  C2  UNL     1      -0.520  25.944  77.046  1.00  0.00     0.046 C 
HETATM   11  C1  UNL     1      -0.304  27.227  76.300  1.00  0.00     0.068 C 
HETATM   12  N1  UNL     1      -1.711  25.773  77.419  1.00  0.00    -0.275 N 
ATOM     13  H1  UNL     1      -2.338  26.533  77.156  1.00  0.00     0.193 HD
BRANCH  12  14
HETATM   14  O1  UNL     1      -2.305  24.795  78.089  1.00  0.00    -0.290 OA
ATOM     15  H1  UNL     1      -3.098  24.767  78.611  1.00  0.00     0.244 HD
ENDBRANCH  12  14
ENDBRANCH   1  10
TORSDOF 2
ENDMDL
MODEL 5
REMARK VINA RESULT: -3.598995728      2.027      3.710
REMARK  2 active torsions:
REMARK  status: ('A' for Active; 'I' for Inactive)
REMARK    1  A    between atoms: C2_2  and  C3_7 
REMARK    2  A    between atoms: N1_3  and  O1_5 
ROOT
HETATM    1  C3  UNL     1       0.682  23.921  77.465  1.00  0.00     0.227 C 
HETATM    2  C4  UNL     1      -0.638  23.858  78.169  1.00  0.00     0.054 C 
HETATM    3  C5  UNL     1      -0.647  25.138  79.028  1.00  0.00     0.071 C 
HETATM    4  C6  UNL     1       0.687  25.730  78.672  1.00  0.00     0.457 C 
HETATM    5  N2  UNL     1       1.636  24.869  79.337  1.00  0.00     0.121 N 
HETATM    6  C7  UNL     1       2.862  25.504  79.692  1.00  0.00     0.312 C 
HETATM    7  C8  UNL     1       1.755  23.689  78.552  1.00  0.00     0.322 C 
HETATM    8  N3  UNL     1       0.845  25.339  77.277  1.00  0.00     0.135 N 
HETATM    9  C9  UNL     1      -0.174  25.948  76.478  1.00  0.00     0.314 C 
ENDROOT
BRANCH   1  10
HETATM   10  C2  UNL     1       0.894  23.077  76.327  1.00  0.00     0.046 C 
HETATM   11  C1  UNL     1      -0.073  22.032  75.854  1.00  0.00     0.068 C 
HETATM   12  N1  UNL     1       1.924  23.172  75.609  1.00  0.00    -0.275 N 
ATOM     13  H1  UNL     1       1.938  22.524  74.821  1.00  0.00     0.193 HD
BRANCH  12  14
HETATM   14  O1  UNL     1       2.993  23.953  75.680  1.00  0.00    -0.290 OA
ATOM     15  H1  UNL     1       3.582  24.167  76.394  1.00  0.00     0.244 HD
ENDBRANCH  12  14
ENDBRANCH   1  10
TORSDOF 2
ENDMDL
