MODEL 1
REMARK VINA RESULT: -4.935638669      0.000      0.000
REMARK  1 active torsions:
REMARK  status: ('A' for Active; 'I' for Inactive)
REMARK    1  A    between atoms: C4_9  and  C5_10 
ROOT
HETATM    1  C5  UNL     1       2.841  21.471  74.442  1.00  0.00     0.033 C 
HETATM    2  C6  UNL     1       3.899  22.177  74.766  1.00  0.00     0.122 C 
HETATM    3  C7  UNL     1       5.167  21.515  74.874  1.00  0.00     0.110 C 
HETATM    4  N3  UNL     1       6.177  20.970  74.958  1.00  0.00    -0.191 NA
HETATM    5  C8  UNL     1       3.842  23.587  75.017  1.00  0.00     0.110 C 
HETATM    6  N4  UNL     1       3.798  24.739  75.232  1.00  0.00    -0.191 NA
ENDROOT
BRANCH   1   7
HETATM    7  C4  UNL     1       1.488  22.098  74.311  1.00  0.00     0.120 C 
HETATM    8  N1  UNL     1       0.745  21.350  73.379  1.00  0.00    -0.358 N 
HETATM    9  C1  UNL     1       1.035  21.447  71.946  1.00  0.00     0.152 C 
HETATM   10  C2  UNL     1      -0.266  20.520  73.869  1.00  0.00     0.136 C 
HETATM   11  N2  UNL     1      -0.903  19.538  73.317  1.00  0.00    -0.380 N 
HETATM   12  S1  UNL     1      -0.572  21.082  75.541  1.00  0.00    -0.092 SA
ATOM     13  H22 UNL     1      -0.728  19.217  72.365  1.00  0.00     0.158 HD
ATOM     14  H21 UNL     1      -1.641  18.932  73.675  1.00  0.00     0.158 HD
HETATM   15  C3  UNL     1       0.823  22.236  75.615  1.00  0.00     0.111 C 
ENDBRANCH   1   7
TORSDOF 1
ENDMDL
MODEL 2
REMARK VINA RESULT: -4.584531455      2.685      3.965
REMARK  1 active torsions:
REMARK  status: ('A' for Active; 'I' for Inactive)
REMARK    1  A    between atoms: C4_9  and  C5_10 
ROOT
HETATM    1  C5  UNL     1       3.172  24.415  75.519  1.00  0.00     0.033 C 
HETATM    2  C6  UNL     1       4.421  24.579  75.150  1.00  0.00     0.122 C 
HETATM    3  C7  UNL     1       4.862  25.888  74.759  1.00  0.00     0.110 C 
HETATM    4  N3  UNL     1       5.199  26.942  74.447  1.00  0.00    -0.191 NA
HETATM    5  C8  UNL     1       5.369  23.504  75.121  1.00  0.00     0.110 C 
HETATM    6  N4  UNL     1       6.145  22.626  75.086  1.00  0.00    -0.191 NA
ENDROOT
BRANCH   1   7
HETATM    7  C4  UNL     1       2.647  23.077  75.939  1.00  0.00     0.120 C 
HETATM    8  N1  UNL     1       1.702  23.278  76.961  1.00  0.00    -0.358 N 
HETATM    9  C1  UNL     1       2.133  23.641  78.314  1.00  0.00     0.152 C 
HETATM   10  C2  UNL     1       0.352  23.121  76.639  1.00  0.00     0.136 C 
HETATM   11  N2  UNL     1      -0.721  23.498  77.256  1.00  0.00    -0.380 N 
HETATM   12  S1  UNL     1       0.336  22.229  75.086  1.00  0.00    -0.092 SA
ATOM     13  H22 UNL     1      -0.712  24.006  78.141  1.00  0.00     0.158 HD
ATOM     14  H21 UNL     1      -1.706  23.383  77.021  1.00  0.00     0.158 HD
HETATM   15  C3  UNL     1       2.123  22.314  74.796  1.00  0.00     0.111 C 
ENDBRANCH   1   7
TORSDOF 1
ENDMDL
MODEL 3
REMARK VINA RESULT: -4.549323708      1.599      1.756
REMARK  1 active torsions:
REMARK  status: ('A' for Active; 'I' for Inactive)
REMARK    1  A    between atoms: C4_9  and  C5_10 
ROOT
HETATM    1  C5  UNL     1       3.851  22.043  74.969  1.00  0.00     0.033 C 
HETATM    2  C6  UNL     1       5.053  22.570  74.983  1.00  0.00     0.122 C 
HETATM    3  C7  UNL     1       6.189  21.701  75.103  1.00  0.00     0.110 C 
HETATM    4  N3  UNL     1       7.089  20.992  75.202  1.00  0.00    -0.191 NA
HETATM    5  C8  UNL     1       5.282  23.981  74.882  1.00  0.00     0.110 C 
HETATM    6  N4  UNL     1       5.474  25.136  74.810  1.00  0.00    -0.191 NA
ENDROOT
BRANCH   1   7
HETATM    7  C4  UNL     1       2.624  22.892  74.845  1.00  0.00     0.120 C 
HETATM    8  N1  UNL     1       1.549  22.060  74.482  1.00  0.00    -0.358 N 
HETATM    9  C1  UNL     1       1.441  21.535  73.117  1.00  0.00     0.152 C 
HETATM   10  C2  UNL     1       0.601  21.755  75.462  1.00  0.00     0.136 C 
HETATM   11  N2  UNL     1      -0.302  20.830  75.514  1.00  0.00    -0.380 N 
HETATM   12  S1  UNL     1       0.858  22.961  76.760  1.00  0.00    -0.092 SA
ATOM     13  H22 UNL     1      -0.448  20.143  74.775  1.00  0.00     0.158 HD
ATOM     14  H21 UNL     1      -0.994  20.608  76.229  1.00  0.00     0.158 HD
HETATM   15  C3  UNL     1       2.374  23.671  76.067  1.00  0.00     0.111 C 
ENDBRANCH   1   7
TORSDOF 1
ENDMDL
MODEL 4
REMARK VINA RESULT: -4.195609349      2.618      4.963
REMARK  1 active torsions:
REMARK  status: ('A' for Active; 'I' for Inactive)
REMARK    1  A    between atoms: C4_9  and  C5_10 
ROOT
HETATM    1  C5  UNL     1       2.270  23.364  75.618  1.00  0.00     0.033 C 
HETATM    2  C6  UNL     1       2.815  22.473  74.824  1.00  0.00     0.122 C 
HETATM    3  C7  UNL     1       1.979  21.770  73.893  1.00  0.00     0.110 C 
HETATM    4  N3  UNL     1       1.295  21.214  73.155  1.00  0.00    -0.191 NA
HETATM    5  C8  UNL     1       4.217  22.170  74.844  1.00  0.00     0.110 C 
HETATM    6  N4  UNL     1       5.360  21.912  74.864  1.00  0.00    -0.191 NA
ENDROOT
BRANCH   1   7
HETATM    7  C4  UNL     1       3.085  24.133  76.611  1.00  0.00     0.120 C 
HETATM    8  N1  UNL     1       3.171  25.467  76.171  1.00  0.00    -0.358 N 
HETATM    9  C1  UNL     1       4.033  25.824  75.040  1.00  0.00     0.152 C 
HETATM   10  C2  UNL     1       2.408  26.425  76.843  1.00  0.00     0.136 C 
HETATM   11  N2  UNL     1       2.067  27.628  76.511  1.00  0.00    -0.380 N 
HETATM   12  S1  UNL     1       1.931  25.652  78.386  1.00  0.00    -0.092 SA
ATOM     13  H22 UNL     1       2.339  28.068  75.631  1.00  0.00     0.158 HD
ATOM     14  H21 UNL     1       1.511  28.327  77.002  1.00  0.00     0.158 HD
HETATM   15  C3  UNL     1       2.552  24.000  77.975  1.00  0.00     0.111 C 
ENDBRANCH   1   7
TORSDOF 1
ENDMDL
MODEL 5
REMARK VINA RESULT: -4.114503526      2.755      4.235
REMARK  1 active torsions:
REMARK  status: ('A' for Active; 'I' for Inactive)
REMARK    1  A    between atoms: C4_9  and  C5_10 
ROOT
HETATM    1  C5  UNL     1       4.311  24.555  75.002  1.00  0.00     0.033 C 
HETATM    2  C6  UNL     1       5.596  24.758  74.828  1.00  0.00     0.122 C 
HETATM    3  C7  UNL     1       6.027  25.979  74.211  1.00  0.00     0.110 C 
HETATM    4  N3  UNL     1       6.356  26.962  73.712  1.00  0.00    -0.191 NA
HETATM    5  C8  UNL     1       6.592  23.809  75.231  1.00  0.00     0.110 C 
HETATM    6  N4  UNL     1       7.410  23.032  75.550  1.00  0.00    -0.191 NA
ENDROOT
BRANCH   1   7
HETATM    7  C4  UNL     1       3.793  23.304  75.641  1.00  0.00     0.120 C 
HETATM    8  N1  UNL     1       2.680  23.642  76.432  1.00  0.00    -0.358 N 
HETATM    9  C1  UNL     1       2.859  24.336  77.711  1.00  0.00     0.152 C 
HETATM   10  C2  UNL     1       1.414  23.297  75.956  1.00  0.00     0.136 C 
HETATM   11  N2  UNL     1       0.235  23.706  76.298  1.00  0.00    -0.380 N 
HETATM   12  S1  UNL     1       1.705  22.083  74.672  1.00  0.00    -0.092 SA
ATOM     13  H22 UNL     1       0.069  24.398  77.029  1.00  0.00     0.158 HD
ATOM     14  H21 UNL     1      -0.690  23.453  75.951  1.00  0.00     0.158 HD
HETATM   15  C3  UNL     1       3.508  22.261  74.644  1.00  0.00     0.111 C 
ENDBRANCH   1   7
TORSDOF 1
ENDMDL
