MODEL 1
REMARK VINA RESULT: -7.372326844      0.000      0.000
REMARK  10 active torsions:
REMARK  status: ('A' for Active; 'I' for Inactive)
REMARK    1  A    between atoms: C2_2  and  O1_3 
REMARK    2  A    between atoms: O1_3  and  C3_4 
REMARK    3  A    between atoms: C3_4  and  C4_5 
REMARK    4  A    between atoms: C4_5  and  N1_6 
REMARK    5  A    between atoms: N1_6  and  C5_7 
REMARK       I    between atoms: N1_6  and  C8_11 
REMARK    6  A    between atoms: C5_7  and  C6_8 
REMARK    7  A    between atoms: C6_8  and  O2_9 
REMARK    8  A    between atoms: C8_11  and  O4_13 
REMARK    9  A    between atoms: O4_13  and  C9_14 
REMARK   10  A    between atoms: C22_34  and  C23_35 
ROOT
HETATM    1  C9  UNL     1       1.562 -17.412 -14.938  1.00  0.00     0.100 C 
HETATM    2  C10 UNL     1       0.451 -16.669 -15.629  1.00  0.00     0.041 C 
HETATM    3  C11 UNL     1       0.846 -15.428 -16.338  1.00  0.00     0.003 C 
HETATM    4  C12 UNL     1       2.310 -15.206 -16.498  1.00  0.00     0.003 C 
HETATM    5  C13 UNL     1       3.138 -15.582 -15.334  1.00  0.00     0.036 C 
HETATM    6  C14 UNL     1       2.478 -16.391 -14.267  1.00  0.00     0.169 C 
HETATM    7  O5  UNL     1       1.947 -15.736 -13.208  1.00  0.00    -0.296 OA
HETATM    8  C15 UNL     1       1.960 -14.553 -12.596  1.00  0.00     0.360 C 
HETATM    9  O6  UNL     1       2.860 -14.078 -11.799  1.00  0.00    -0.239 OA
HETATM   10  N2  UNL     1       0.887 -13.633 -12.786  1.00  0.00    -0.337 N 
ATOM     11  H2  UNL     1       1.130 -12.654 -12.933  1.00  0.00     0.164 HD
HETATM   12  C16 UNL     1      -0.520 -13.975 -12.787  1.00  0.00     0.125 C 
HETATM   13  C17 UNL     1      -0.857 -15.099 -11.871  1.00  0.00     0.020 C 
HETATM   14  C18 UNL     1      -1.619 -14.704 -10.657  1.00  0.00     0.003 C 
HETATM   15  C19 UNL     1      -1.528 -15.737  -9.571  1.00  0.00     0.020 C 
HETATM   16  C20 UNL     1      -0.843 -17.003  -9.957  1.00  0.00     0.122 C 
HETATM   17  N3  UNL     1       0.514 -17.044  -9.472  1.00  0.00    -0.359 N 
ATOM     18  H3  UNL     1       0.761 -16.420  -8.704  1.00  0.00     0.162 HD
HETATM   19  C21 UNL     1       1.540 -17.894  -9.990  1.00  0.00     0.248 C 
HETATM   20  O7  UNL     1       2.703 -17.352 -10.005  1.00  0.00    -0.271 OA
HETATM   21  C22 UNL     1       1.331 -19.269 -10.470  1.00  0.00     0.281 C 
HETATM   22  N4  UNL     1       0.893 -19.396 -11.821  1.00  0.00    -0.062 N 
ATOM     23  H41 UNL     1      -0.065 -19.058 -11.919  1.00  0.00     0.278 HD
ATOM     24  H42 UNL     1       0.755 -20.377 -12.061  1.00  0.00     0.278 HD
HETATM   25  C29 UNL     1       1.760 -18.753 -12.787  1.00  0.00     0.236 C 
HETATM   26  C30 UNL     1       0.896 -18.283 -13.903  1.00  0.00     0.069 C 
ENDROOT
BRANCH   1  27
HETATM   27  O4  UNL     1       2.385 -18.117 -15.824  1.00  0.00    -0.290 OA
BRANCH  27  28
HETATM   28  C8  UNL     1       2.429 -19.466 -16.022  1.00  0.00     0.363 C 
HETATM   29  N1  UNL     1       3.543 -20.295 -15.597  1.00  0.00    -0.324 N 
HETATM   30  O3  UNL     1       1.478 -20.017 -16.591  1.00  0.00    -0.238 OA
BRANCH  29  31
HETATM   31  C4  UNL     1       3.468 -21.700 -15.870  1.00  0.00     0.154 C 
BRANCH  31  32
HETATM   32  C3  UNL     1       3.018 -22.455 -14.603  1.00  0.00     0.187 C 
BRANCH  32  33
HETATM   33  O1  UNL     1       1.739 -22.930 -14.849  1.00  0.00    -0.390 OA
BRANCH  33  34
HETATM   34  C2  UNL     1       1.622 -24.289 -14.595  1.00  0.00     0.163 C 
HETATM   35  C1  UNL     1       2.749 -24.804 -13.764  1.00  0.00     0.033 C 
ENDBRANCH  33  34
ENDBRANCH  32  33
ENDBRANCH  31  32
ENDBRANCH  29  31
BRANCH  29  36
HETATM   36  C5  UNL     1       4.652 -19.703 -14.893  1.00  0.00     0.154 C 
BRANCH  36  37
HETATM   37  C6  UNL     1       5.784 -19.252 -15.752  1.00  0.00     0.187 C 
BRANCH  37  38
HETATM   38  O2  UNL     1       6.929 -19.989 -15.735  1.00  0.00    -0.394 OA
HETATM   39  C7  UNL     1       7.328 -20.439 -16.981  1.00  0.00     0.201 C 
ENDBRANCH  37  38
ENDBRANCH  36  37
ENDBRANCH  29  36
ENDBRANCH  27  28
ENDBRANCH   1  27
BRANCH  21  40
HETATM   40  C23 UNL     1       2.545 -20.150 -10.220  1.00  0.00     0.025 C 
HETATM   41  C24 UNL     1       2.702 -20.415  -8.744  1.00  0.00     0.007 C 
HETATM   42  C25 UNL     1       3.790 -21.377  -8.413  1.00  0.00     0.000 C 
HETATM   43  C26 UNL     1       4.471 -21.814  -9.686  1.00  0.00     0.000 C 
HETATM   44  C27 UNL     1       3.408 -22.458 -10.567  1.00  0.00     0.000 C 
HETATM   45  C28 UNL     1       2.341 -21.470 -10.942  1.00  0.00     0.007 C 
ENDBRANCH  21  40
TORSDOF 10
ENDMDL
MODEL 2
REMARK VINA RESULT: -7.313700950      2.525      6.591
REMARK  10 active torsions:
REMARK  status: ('A' for Active; 'I' for Inactive)
REMARK    1  A    between atoms: C2_2  and  O1_3 
REMARK    2  A    between atoms: O1_3  and  C3_4 
REMARK    3  A    between atoms: C3_4  and  C4_5 
REMARK    4  A    between atoms: C4_5  and  N1_6 
REMARK    5  A    between atoms: N1_6  and  C5_7 
REMARK       I    between atoms: N1_6  and  C8_11 
REMARK    6  A    between atoms: C5_7  and  C6_8 
REMARK    7  A    between atoms: C6_8  and  O2_9 
REMARK    8  A    between atoms: C8_11  and  O4_13 
REMARK    9  A    between atoms: O4_13  and  C9_14 
REMARK   10  A    between atoms: C22_34  and  C23_35 
ROOT
HETATM    1  C9  UNL     1       1.796 -18.546 -13.113  1.00  0.00     0.100 C 
HETATM    2  C10 UNL     1       1.889 -19.369 -14.368  1.00  0.00     0.041 C 
HETATM    3  C11 UNL     1       3.232 -19.913 -14.688  1.00  0.00     0.003 C 
HETATM    4  C12 UNL     1       4.254 -19.800 -13.611  1.00  0.00     0.003 C 
HETATM    5  C13 UNL     1       4.229 -18.537 -12.844  1.00  0.00     0.036 C 
HETATM    6  C14 UNL     1       3.036 -17.658 -13.026  1.00  0.00     0.169 C 
HETATM    7  O5  UNL     1       3.109 -16.667 -13.944  1.00  0.00    -0.296 OA
HETATM    8  C15 UNL     1       3.986 -15.984 -14.679  1.00  0.00     0.360 C 
HETATM    9  O6  UNL     1       4.752 -15.011 -14.305  1.00  0.00    -0.239 OA
HETATM   10  N2  UNL     1       4.167 -16.295 -16.059  1.00  0.00    -0.337 N 
ATOM     11  H2  UNL     1       5.124 -16.331 -16.409  1.00  0.00     0.164 HD
HETATM   12  C16 UNL     1       3.104 -16.565 -17.004  1.00  0.00     0.125 C 
HETATM   13  C17 UNL     1       1.857 -15.800 -16.727  1.00  0.00     0.020 C 
HETATM   14  C18 UNL     1       1.566 -14.714 -17.699  1.00  0.00     0.003 C 
HETATM   15  C19 UNL     1       0.607 -13.701 -17.145  1.00  0.00     0.020 C 
HETATM   16  C20 UNL     1       0.016 -14.046 -15.821  1.00  0.00     0.122 C 
HETATM   17  N3  UNL     1       0.665 -13.335 -14.747  1.00  0.00    -0.359 N 
ATOM     18  H3  UNL     1       1.191 -12.496 -14.986  1.00  0.00     0.162 HD
HETATM   19  C21 UNL     1       0.623 -13.723 -13.371  1.00  0.00     0.248 C 
HETATM   20  O7  UNL     1       1.716 -13.498 -12.738  1.00  0.00    -0.271 OA
HETATM   21  C22 UNL     1      -0.540 -14.324 -12.700  1.00  0.00     0.281 C 
HETATM   22  N4  UNL     1      -0.678 -15.735 -12.842  1.00  0.00    -0.062 N 
ATOM     23  H41 UNL     1      -0.921 -15.976 -13.802  1.00  0.00     0.278 HD
ATOM     24  H42 UNL     1      -1.518 -16.061 -12.363  1.00  0.00     0.278 HD
HETATM   25  C29 UNL     1       0.480 -16.490 -12.406  1.00  0.00     0.236 C 
HETATM   26  C30 UNL     1       0.554 -17.705 -13.260  1.00  0.00     0.069 C 
ENDROOT
BRANCH   1  27
HETATM   27  O4  UNL     1       1.818 -19.321 -11.947  1.00  0.00    -0.290 OA
BRANCH  27  28
HETATM   28  C8  UNL     1       0.749 -19.779 -11.234  1.00  0.00     0.363 C 
HETATM   29  N1  UNL     1       0.401 -19.281  -9.915  1.00  0.00    -0.324 N 
HETATM   30  O3  UNL     1       0.037 -20.662 -11.728  1.00  0.00    -0.238 OA
BRANCH  29  31
HETATM   31  C4  UNL     1      -0.745 -19.850  -9.270  1.00  0.00     0.154 C 
BRANCH  31  32
HETATM   32  C3  UNL     1      -1.487 -18.763  -8.466  1.00  0.00     0.187 C 
BRANCH  32  33
HETATM   33  O1  UNL     1      -2.843 -18.964  -8.672  1.00  0.00    -0.390 OA
BRANCH  33  34
HETATM   34  C2  UNL     1      -3.158 -20.304  -8.845  1.00  0.00     0.163 C 
HETATM   35  C1  UNL     1      -4.631 -20.531  -8.917  1.00  0.00     0.033 C 
ENDBRANCH  33  34
ENDBRANCH  32  33
ENDBRANCH  31  32
ENDBRANCH  29  31
BRANCH  29  36
HETATM   36  C5  UNL     1       1.176 -18.222  -9.319  1.00  0.00     0.154 C 
BRANCH  36  37
HETATM   37  C6  UNL     1       2.380 -18.666  -8.559  1.00  0.00     0.187 C 
BRANCH  37  38
HETATM   38  O2  UNL     1       3.592 -18.567  -9.173  1.00  0.00    -0.394 OA
HETATM   39  C7  UNL     1       4.246 -19.777  -9.324  1.00  0.00     0.201 C 
ENDBRANCH  37  38
ENDBRANCH  36  37
ENDBRANCH  29  36
ENDBRANCH  27  28
ENDBRANCH   1  27
BRANCH  21  40
HETATM   40  C23 UNL     1      -0.620 -13.925 -11.235  1.00  0.00     0.025 C 
HETATM   41  C24 UNL     1      -0.814 -12.435 -11.109  1.00  0.00     0.007 C 
HETATM   42  C25 UNL     1      -1.034 -11.968  -9.711  1.00  0.00     0.000 C 
HETATM   43  C26 UNL     1      -0.975 -13.152  -8.777  1.00  0.00     0.000 C 
HETATM   44  C27 UNL     1      -2.060 -14.126  -9.215  1.00  0.00     0.000 C 
HETATM   45  C28 UNL     1      -1.805 -14.635 -10.605  1.00  0.00     0.007 C 
ENDBRANCH  21  40
TORSDOF 10
ENDMDL
MODEL 3
REMARK VINA RESULT: -7.251465474      1.503      2.227
REMARK  10 active torsions:
REMARK  status: ('A' for Active; 'I' for Inactive)
REMARK    1  A    between atoms: C2_2  and  O1_3 
REMARK    2  A    between atoms: O1_3  and  C3_4 
REMARK    3  A    between atoms: C3_4  and  C4_5 
REMARK    4  A    between atoms: C4_5  and  N1_6 
REMARK    5  A    between atoms: N1_6  and  C5_7 
REMARK       I    between atoms: N1_6  and  C8_11 
REMARK    6  A    between atoms: C5_7  and  C6_8 
REMARK    7  A    between atoms: C6_8  and  O2_9 
REMARK    8  A    between atoms: C8_11  and  O4_13 
REMARK    9  A    between atoms: O4_13  and  C9_14 
REMARK   10  A    between atoms: C22_34  and  C23_35 
ROOT
HETATM    1  C9  UNL     1       1.580 -17.522 -15.140  1.00  0.00     0.100 C 
HETATM    2  C10 UNL     1       0.326 -16.856 -15.638  1.00  0.00     0.041 C 
HETATM    3  C11 UNL     1       0.511 -15.543 -16.301  1.00  0.00     0.003 C 
HETATM    4  C12 UNL     1       1.915 -15.166 -16.622  1.00  0.00     0.003 C 
HETATM    5  C13 UNL     1       2.916 -15.523 -15.597  1.00  0.00     0.036 C 
HETATM    6  C14 UNL     1       2.476 -16.454 -14.516  1.00  0.00     0.169 C 
HETATM    7  O5  UNL     1       2.026 -15.918 -13.358  1.00  0.00    -0.296 OA
HETATM    8  C15 UNL     1       2.007 -14.777 -12.671  1.00  0.00     0.360 C 
HETATM    9  O6  UNL     1       2.954 -14.260 -11.958  1.00  0.00    -0.239 OA
HETATM   10  N2  UNL     1       0.838 -13.960 -12.664  1.00  0.00    -0.337 N 
ATOM     11  H2  UNL     1       0.969 -12.955 -12.771  1.00  0.00     0.164 HD
HETATM   12  C16 UNL     1      -0.520 -14.441 -12.518  1.00  0.00     0.125 C 
HETATM   13  C17 UNL     1      -0.632 -15.644 -11.649  1.00  0.00     0.020 C 
HETATM   14  C18 UNL     1      -1.266 -15.398 -10.327  1.00  0.00     0.003 C 
HETATM   15  C19 UNL     1      -0.941 -16.477  -9.334  1.00  0.00     0.020 C 
HETATM   16  C20 UNL     1      -0.197 -17.644  -9.888  1.00  0.00     0.122 C 
HETATM   17  N3  UNL     1       1.209 -17.575  -9.576  1.00  0.00    -0.359 N 
ATOM     18  H3  UNL     1       1.493 -16.975  -8.801  1.00  0.00     0.162 HD
HETATM   19  C21 UNL     1       2.234 -18.288 -10.272  1.00  0.00     0.248 C 
HETATM   20  O7  UNL     1       3.330 -17.631 -10.391  1.00  0.00    -0.271 OA
HETATM   21  C22 UNL     1       2.094 -19.646 -10.818  1.00  0.00     0.281 C 
HETATM   22  N4  UNL     1       1.500 -19.739 -12.110  1.00  0.00    -0.062 N 
ATOM     23  H41 UNL     1       0.511 -19.494 -12.068  1.00  0.00     0.278 HD
ATOM     24  H42 UNL     1       1.425 -20.714 -12.400  1.00  0.00     0.278 HD
HETATM   25  C29 UNL     1       2.174 -18.958 -13.128  1.00  0.00     0.236 C 
HETATM   26  C30 UNL     1       1.135 -18.513 -14.095  1.00  0.00     0.069 C 
ENDROOT
BRANCH   1  27
HETATM   27  O4  UNL     1       2.344 -18.088 -16.167  1.00  0.00    -0.290 OA
BRANCH  27  28
HETATM   28  C8  UNL     1       2.832 -19.361 -16.234  1.00  0.00     0.363 C 
HETATM   29  N1  UNL     1       4.246 -19.676 -16.127  1.00  0.00    -0.324 N 
HETATM   30  O3  UNL     1       2.038 -20.296 -16.394  1.00  0.00    -0.238 OA
BRANCH  29  31
HETATM   31  C4  UNL     1       4.628 -21.055 -16.219  1.00  0.00     0.154 C 
BRANCH  31  32
HETATM   32  C3  UNL     1       5.543 -21.264 -17.443  1.00  0.00     0.187 C 
BRANCH  32  33
HETATM   33  O1  UNL     1       4.715 -21.445 -18.540  1.00  0.00    -0.390 OA
BRANCH  33  34
HETATM   34  C2  UNL     1       5.177 -22.438 -19.391  1.00  0.00     0.163 C 
HETATM   35  C1  UNL     1       5.965 -21.881 -20.530  1.00  0.00     0.033 C 
ENDBRANCH  33  34
ENDBRANCH  32  33
ENDBRANCH  31  32
ENDBRANCH  29  31
BRANCH  29  36
HETATM   36  C5  UNL     1       5.202 -18.624 -15.896  1.00  0.00     0.154 C 
BRANCH  36  37
HETATM   37  C6  UNL     1       5.638 -18.462 -14.479  1.00  0.00     0.187 C 
BRANCH  37  38
HETATM   38  O2  UNL     1       6.055 -17.229 -14.079  1.00  0.00    -0.394 OA
HETATM   39  C7  UNL     1       6.236 -16.332 -15.116  1.00  0.00     0.201 C 
ENDBRANCH  37  38
ENDBRANCH  36  37
ENDBRANCH  29  36
ENDBRANCH  27  28
ENDBRANCH   1  27
BRANCH  21  40
HETATM   40  C23 UNL     1       3.406 -20.414 -10.779  1.00  0.00     0.025 C 
HETATM   41  C24 UNL     1       3.786 -20.726  -9.353  1.00  0.00     0.007 C 
HETATM   42  C25 UNL     1       4.993 -21.590  -9.222  1.00  0.00     0.000 C 
HETATM   43  C26 UNL     1       5.531 -21.902 -10.597  1.00  0.00     0.000 C 
HETATM   44  C27 UNL     1       4.422 -22.609 -11.365  1.00  0.00     0.000 C 
HETATM   45  C28 UNL     1       3.228 -21.715 -11.541  1.00  0.00     0.007 C 
ENDBRANCH  21  40
TORSDOF 10
ENDMDL
MODEL 4
REMARK VINA RESULT: -7.209999341      2.511      7.063
REMARK  10 active torsions:
REMARK  status: ('A' for Active; 'I' for Inactive)
REMARK    1  A    between atoms: C2_2  and  O1_3 
REMARK    2  A    between atoms: O1_3  and  C3_4 
REMARK    3  A    between atoms: C3_4  and  C4_5 
REMARK    4  A    between atoms: C4_5  and  N1_6 
REMARK    5  A    between atoms: N1_6  and  C5_7 
REMARK       I    between atoms: N1_6  and  C8_11 
REMARK    6  A    between atoms: C5_7  and  C6_8 
REMARK    7  A    between atoms: C6_8  and  O2_9 
REMARK    8  A    between atoms: C8_11  and  O4_13 
REMARK    9  A    between atoms: O4_13  and  C9_14 
REMARK   10  A    between atoms: C22_34  and  C23_35 
ROOT
HETATM    1  C9  UNL     1       2.019 -17.963 -15.481  1.00  0.00     0.100 C 
HETATM    2  C10 UNL     1       2.952 -18.763 -16.349  1.00  0.00     0.041 C 
HETATM    3  C11 UNL     1       2.318 -19.806 -17.191  1.00  0.00     0.003 C 
HETATM    4  C12 UNL     1       0.832 -19.764 -17.273  1.00  0.00     0.003 C 
HETATM    5  C13 UNL     1       0.138 -19.437 -16.011  1.00  0.00     0.036 C 
HETATM    6  C14 UNL     1       0.977 -18.913 -14.893  1.00  0.00     0.169 C 
HETATM    7  O5  UNL     1       1.442 -19.794 -13.977  1.00  0.00    -0.296 OA
HETATM    8  C15 UNL     1       1.259 -21.038 -13.535  1.00  0.00     0.360 C 
HETATM    9  O6  UNL     1       0.333 -21.476 -12.748  1.00  0.00    -0.239 OA
HETATM   10  N2  UNL     1       2.151 -22.079 -13.929  1.00  0.00    -0.337 N 
ATOM     11  H2  UNL     1       1.738 -22.974 -14.192  1.00  0.00     0.164 HD
HETATM   12  C16 UNL     1       3.593 -21.971 -13.987  1.00  0.00     0.125 C 
HETATM   13  C17 UNL     1       4.161 -21.065 -12.952  1.00  0.00     0.020 C 
HETATM   14  C18 UNL     1       4.904 -21.753 -11.863  1.00  0.00     0.003 C 
HETATM   15  C19 UNL     1       5.043 -20.893 -10.641  1.00  0.00     0.020 C 
HETATM   16  C20 UNL     1       4.564 -19.490 -10.796  1.00  0.00     0.122 C 
HETATM   17  N3  UNL     1       3.259 -19.304 -10.212  1.00  0.00    -0.359 N 
ATOM     18  H3  UNL     1       2.949 -19.988  -9.521  1.00  0.00     0.162 HD
HETATM   19  C21 UNL     1       2.368 -18.233 -10.530  1.00  0.00     0.248 C 
HETATM   20  O7  UNL     1       1.131 -18.573 -10.534  1.00  0.00    -0.271 OA
HETATM   21  C22 UNL     1       2.783 -16.854 -10.829  1.00  0.00     0.281 C 
HETATM   22  N4  UNL     1       3.168 -16.599 -12.177  1.00  0.00    -0.062 N 
ATOM     23  H41 UNL     1       4.048 -17.068 -12.392  1.00  0.00     0.278 HD
ATOM     24  H42 UNL     1       3.458 -15.628 -12.289  1.00  0.00     0.278 HD
HETATM   25  C29 UNL     1       2.158 -16.943 -13.157  1.00  0.00     0.236 C 
HETATM   26  C30 UNL     1       2.873 -17.374 -14.387  1.00  0.00     0.069 C 
ENDROOT
BRANCH   1  27
HETATM   27  O4  UNL     1       1.284 -17.012 -16.199  1.00  0.00    -0.290 OA
BRANCH  27  28
HETATM   28  C8  UNL     1       1.685 -15.762 -16.572  1.00  0.00     0.363 C 
HETATM   29  N1  UNL     1       1.032 -14.549 -16.112  1.00  0.00    -0.324 N 
HETATM   30  O3  UNL     1       2.649 -15.648 -17.338  1.00  0.00    -0.238 OA
BRANCH  29  31
HETATM   31  C4  UNL     1       1.548 -13.297 -16.582  1.00  0.00     0.154 C 
BRANCH  31  32
HETATM   32  C3  UNL     1       0.467 -12.559 -17.398  1.00  0.00     0.187 C 
BRANCH  32  33
HETATM   33  O1  UNL     1       1.048 -12.197 -18.603  1.00  0.00    -0.390 OA
BRANCH  33  34
HETATM   34  C2  UNL     1       0.220 -12.455 -19.687  1.00  0.00     0.163 C 
HETATM   35  C1  UNL     1      -0.114 -13.905 -19.806  1.00  0.00     0.033 C 
ENDBRANCH  33  34
ENDBRANCH  32  33
ENDBRANCH  31  32
ENDBRANCH  29  31
BRANCH  29  36
HETATM   36  C5  UNL     1      -0.066 -14.631 -15.183  1.00  0.00     0.154 C 
BRANCH  36  37
HETATM   37  C6  UNL     1       0.124 -13.885 -13.906  1.00  0.00     0.187 C 
BRANCH  37  38
HETATM   38  O2  UNL     1      -0.770 -14.103 -12.902  1.00  0.00    -0.394 OA
HETATM   39  C7  UNL     1      -1.144 -15.427 -12.760  1.00  0.00     0.201 C 
ENDBRANCH  37  38
ENDBRANCH  36  37
ENDBRANCH  29  36
ENDBRANCH  27  28
ENDBRANCH   1  27
BRANCH  21  40
HETATM   40  C23 UNL     1       1.750 -15.836 -10.370  1.00  0.00     0.025 C 
HETATM   41  C24 UNL     1       1.594 -15.890  -8.871  1.00  0.00     0.007 C 
HETATM   42  C25 UNL     1       0.696 -14.838  -8.317  1.00  0.00     0.000 C 
HETATM   43  C26 UNL     1       0.156 -14.000  -9.448  1.00  0.00     0.000 C 
HETATM   44  C27 UNL     1       1.351 -13.389 -10.167  1.00  0.00     0.000 C 
HETATM   45  C28 UNL     1       2.224 -14.451 -10.771  1.00  0.00     0.007 C 
ENDBRANCH  21  40
TORSDOF 10
ENDMDL
MODEL 5
REMARK VINA RESULT: -7.183578387      2.379      7.040
REMARK  10 active torsions:
REMARK  status: ('A' for Active; 'I' for Inactive)
REMARK    1  A    between atoms: C2_2  and  O1_3 
REMARK    2  A    between atoms: O1_3  and  C3_4 
REMARK    3  A    between atoms: C3_4  and  C4_5 
REMARK    4  A    between atoms: C4_5  and  N1_6 
REMARK    5  A    between atoms: N1_6  and  C5_7 
REMARK       I    between atoms: N1_6  and  C8_11 
REMARK    6  A    between atoms: C5_7  and  C6_8 
REMARK    7  A    between atoms: C6_8  and  O2_9 
REMARK    8  A    between atoms: C8_11  and  O4_13 
REMARK    9  A    between atoms: O4_13  and  C9_14 
REMARK   10  A    between atoms: C22_34  and  C23_35 
ROOT
HETATM    1  C9  UNL     1       3.045 -18.717 -14.868  1.00  0.00     0.100 C 
HETATM    2  C10 UNL     1       4.423 -19.202 -15.226  1.00  0.00     0.041 C 
HETATM    3  C11 UNL     1       4.486 -20.486 -15.965  1.00  0.00     0.003 C 
HETATM    4  C12 UNL     1       3.190 -21.003 -16.485  1.00  0.00     0.003 C 
HETATM    5  C13 UNL     1       2.032 -20.827 -15.586  1.00  0.00     0.036 C 
HETATM    6  C14 UNL     1       2.215 -19.917 -14.416  1.00  0.00     0.169 C 
HETATM    7  O5  UNL     1       2.578 -20.466 -13.234  1.00  0.00    -0.296 OA
HETATM    8  C15 UNL     1       2.651 -21.637 -12.602  1.00  0.00     0.360 C 
HETATM    9  O6  UNL     1       1.693 -22.302 -12.044  1.00  0.00    -0.239 OA
HETATM   10  N2  UNL     1       3.901 -22.311 -12.477  1.00  0.00    -0.337 N 
ATOM     11  H2  UNL     1       3.909 -23.317 -12.646  1.00  0.00     0.164 HD
HETATM   12  C16 UNL     1       5.161 -21.686 -12.132  1.00  0.00     0.125 C 
HETATM   13  C17 UNL     1       5.014 -20.532 -11.203  1.00  0.00     0.020 C 
HETATM   14  C18 UNL     1       5.502 -20.781  -9.821  1.00  0.00     0.003 C 
HETATM   15  C19 UNL     1       4.925 -19.810  -8.833  1.00  0.00     0.020 C 
HETATM   16  C20 UNL     1       4.119 -18.706  -9.427  1.00  0.00     0.122 C 
HETATM   17  N3  UNL     1       2.704 -18.955  -9.307  1.00  0.00    -0.359 N 
ATOM     18  H3  UNL     1       2.401 -19.630  -8.604  1.00  0.00     0.162 HD
HETATM   19  C21 UNL     1       1.694 -18.326 -10.100  1.00  0.00     0.248 C 
HETATM   20  O7  UNL     1       0.711 -19.097 -10.391  1.00  0.00    -0.271 OA
HETATM   21  C22 UNL     1       1.734 -16.930 -10.561  1.00  0.00     0.281 C 
HETATM   22  N4  UNL     1       2.470 -16.692 -11.759  1.00  0.00    -0.062 N 
ATOM     23  H41 UNL     1       3.468 -16.823 -11.598  1.00  0.00     0.278 HD
ATOM     24  H42 UNL     1       2.461 -15.699 -11.992  1.00  0.00     0.278 HD
HETATM   25  C29 UNL     1       2.031 -17.484 -12.890  1.00  0.00     0.236 C 
HETATM   26  C30 UNL     1       3.229 -17.745 -13.731  1.00  0.00     0.069 C 
ENDROOT
BRANCH   1  27
HETATM   27  O4  UNL     1       2.351 -18.183 -15.961  1.00  0.00    -0.290 OA
BRANCH  27  28
HETATM   28  C8  UNL     1       2.540 -16.967 -16.550  1.00  0.00     0.363 C 
HETATM   29  N1  UNL     1       1.553 -15.902 -16.508  1.00  0.00    -0.324 N 
HETATM   30  O3  UNL     1       3.600 -16.753 -17.151  1.00  0.00    -0.238 OA
BRANCH  29  31
HETATM   31  C4  UNL     1       1.873 -14.673 -17.172  1.00  0.00     0.154 C 
BRANCH  31  32
HETATM   32  C3  UNL     1       0.993 -14.513 -18.429  1.00  0.00     0.187 C 
BRANCH  32  33
HETATM   33  O1  UNL     1       0.063 -13.524 -18.147  1.00  0.00    -0.390 OA
BRANCH  33  34
HETATM   34  C2  UNL     1       0.610 -12.251 -18.214  1.00  0.00     0.163 C 
HETATM   35  C1  UNL     1       0.241 -11.546 -19.477  1.00  0.00     0.033 C 
ENDBRANCH  33  34
ENDBRANCH  32  33
ENDBRANCH  31  32
ENDBRANCH  29  31
BRANCH  29  36
HETATM   36  C5  UNL     1       0.323 -16.090 -15.782  1.00  0.00     0.154 C 
BRANCH  36  37
HETATM   37  C6  UNL     1       0.030 -15.055 -14.750  1.00  0.00     0.187 C 
BRANCH  37  38
HETATM   38  O2  UNL     1      -0.917 -14.119 -15.037  1.00  0.00    -0.394 OA
HETATM   39  C7  UNL     1      -0.566 -12.832 -14.670  1.00  0.00     0.201 C 
ENDBRANCH  37  38
ENDBRANCH  36  37
ENDBRANCH  29  36
ENDBRANCH  27  28
ENDBRANCH   1  27
BRANCH  21  40
HETATM   40  C23 UNL     1       0.343 -16.323 -10.662  1.00  0.00     0.025 C 
HETATM   41  C24 UNL     1      -0.313 -16.296  -9.304  1.00  0.00     0.007 C 
HETATM   42  C25 UNL     1      -1.630 -15.599  -9.282  1.00  0.00     0.000 C 
HETATM   43  C26 UNL     1      -1.963 -15.121 -10.673  1.00  0.00     0.000 C 
HETATM   44  C27 UNL     1      -0.844 -14.183 -11.107  1.00  0.00     0.000 C 
HETATM   45  C28 UNL     1       0.472 -14.903 -11.180  1.00  0.00     0.007 C 
ENDBRANCH  21  40
TORSDOF 10
ENDMDL
