MODEL 1
REMARK VINA RESULT: -8.875239621      0.000      0.000
REMARK  12 active torsions:
REMARK  status: ('A' for Active; 'I' for Inactive)
REMARK    1  A    between atoms: C2_2  and  O1_3 
REMARK    2  A    between atoms: O1_3  and  C3_4 
REMARK    3  A    between atoms: C3_4  and  C4_6 
REMARK    4  A    between atoms: C4_6  and  C5_7 
REMARK    5  A    between atoms: C5_7  and  C6_8 
REMARK    6  A    between atoms: C6_8  and  O4_10 
REMARK    7  A    between atoms: O4_10  and  C7_11 
REMARK    8  A    between atoms: C7_11  and  C8_12 
REMARK    9  A    between atoms: C10_14  and  C11_15 
REMARK   10  A    between atoms: C11_15  and  O5_17 
REMARK   11  A    between atoms: C22_29  and  O7_30 
REMARK   12  A    between atoms: O7_30  and  C23_31 
REMARK       I    between atoms: C23_31  and  N1_33 
ROOT
HETATM    1  C8  UNL     1       0.679 -14.160 -16.711  1.00  0.00    -0.004 C 
HETATM    2  C9  UNL     1       1.708 -13.000 -16.681  1.00  0.00     0.019 C 
HETATM    3  C10 UNL     1       1.070 -15.044 -17.804  1.00  0.00     0.095 C 
HETATM    4  C13 UNL     1       2.368 -15.615 -17.216  1.00  0.00     0.144 C 
HETATM    5  O6  UNL     1       3.398 -15.728 -17.831  1.00  0.00    -0.297 OA
HETATM    6  C14 UNL     1       2.073 -15.966 -15.814  1.00  0.00     0.034 C 
HETATM    7  C15 UNL     1       3.269 -15.612 -14.905  1.00  0.00     0.019 C 
HETATM    8  C16 UNL     1       3.251 -16.327 -13.593  1.00  0.00     0.007 C 
HETATM    9  C17 UNL     1       2.549 -17.604 -13.458  1.00  0.00     0.004 C 
HETATM   10  C18 UNL     1       3.160 -18.905 -13.640  1.00  0.00    -0.030 C 
HETATM   11  C19 UNL     1       2.099 -19.900 -13.257  1.00  0.00     0.016 C 
HETATM   12  C20 UNL     1       4.334 -19.407 -12.888  1.00  0.00     0.013 C 
HETATM   13  C21 UNL     1       4.439 -20.762 -13.626  1.00  0.00     0.034 C 
HETATM   14  C22 UNL     1       3.947 -20.513 -15.063  1.00  0.00     0.142 C 
HETATM   15  C25 UNL     1       3.799 -19.021 -14.988  1.00  0.00    -0.009 C 
HETATM   16  C26 UNL     1       5.280 -18.639 -14.996  1.00  0.00     0.018 C 
HETATM   17  C27 UNL     1       3.100 -18.260 -15.984  1.00  0.00     0.024 C 
HETATM   18  C28 UNL     1       1.912 -17.400 -15.650  1.00  0.00    -0.016 A 
HETATM   19  C29 UNL     1       0.767 -18.240 -15.391  1.00  0.00     0.022 A 
HETATM   20  C30 UNL     1       1.321 -17.555 -14.300  1.00  0.00    -0.026 A 
HETATM   21  C31 UNL     1       0.386 -16.530 -13.768  1.00  0.00     0.011 C 
HETATM   22  C32 UNL     1      -0.212 -15.639 -14.845  1.00  0.00     0.007 C 
HETATM   23  C33 UNL     1       0.979 -15.020 -15.479  1.00  0.00     0.013 C 
ENDROOT
BRANCH   1  24
HETATM   24  C7  UNL     1      -0.627 -13.507 -16.646  1.00  0.00     0.189 C 
BRANCH  24  25
HETATM   25  O4  UNL     1      -0.698 -12.135 -16.456  1.00  0.00    -0.321 OA
BRANCH  25  26
HETATM   26  C6  UNL     1      -1.175 -11.664 -15.243  1.00  0.00     0.259 C 
HETATM   27  O3  UNL     1      -0.883 -12.288 -14.202  1.00  0.00    -0.265 OA
BRANCH  26  28
HETATM   28  C5  UNL     1      -2.014 -10.457 -15.145  1.00  0.00     0.121 C 
BRANCH  28  29
HETATM   29  C4  UNL     1      -1.186  -9.255 -15.516  1.00  0.00     0.121 C 
BRANCH  29  30
HETATM   30  C3  UNL     1      -1.539  -8.717 -16.849  1.00  0.00     0.259 C 
HETATM   31  O2  UNL     1      -1.657  -7.453 -16.971  1.00  0.00    -0.265 OA
BRANCH  30  32
HETATM   32  O1  UNL     1      -1.758  -9.447 -17.988  1.00  0.00    -0.322 OA
BRANCH  32  33
HETATM   33  C2  UNL     1      -0.985  -9.318 -19.167  1.00  0.00     0.174 C 
HETATM   34  C1  UNL     1      -0.250 -10.614 -19.434  1.00  0.00     0.034 C 
ENDBRANCH  32  33
ENDBRANCH  30  32
ENDBRANCH  29  30
ENDBRANCH  28  29
ENDBRANCH  26  28
ENDBRANCH  25  26
ENDBRANCH  24  25
ENDBRANCH   1  24
BRANCH   3  35
HETATM   35  C11 UNL     1       1.366 -14.368 -19.086  1.00  0.00     0.126 C 
HETATM   36  C12 UNL     1       0.165 -14.146 -19.943  1.00  0.00     0.040 C 
BRANCH  35  37
HETATM   37  O5  UNL     1       2.309 -15.047 -19.865  1.00  0.00    -0.395 OA
ATOM     38  H5  UNL     1       2.800 -14.475 -20.444  1.00  0.00     0.210 HD
ENDBRANCH  35  37
ENDBRANCH   3  35
BRANCH  14  39
HETATM   39  O7  UNL     1       5.039 -20.915 -15.878  1.00  0.00    -0.298 OA
BRANCH  39  40
HETATM   40  C23 UNL     1       4.794 -21.348 -17.166  1.00  0.00     0.360 C 
HETATM   41  O8  UNL     1       3.717 -21.030 -17.730  1.00  0.00    -0.239 OA
HETATM   42  N1  UNL     1       5.713 -22.150 -17.903  1.00  0.00    -0.341 N 
HETATM   43  C24 UNL     1       5.443 -22.592 -19.238  1.00  0.00     0.151 C 
ATOM     44  H1  UNL     1       6.594 -22.419 -17.464  1.00  0.00     0.164 HD
ENDBRANCH  39  40
ENDBRANCH  14  39
TORSDOF 12
ENDMDL
MODEL 2
REMARK VINA RESULT: -8.860296640      0.961      1.704
REMARK  12 active torsions:
REMARK  status: ('A' for Active; 'I' for Inactive)
REMARK    1  A    between atoms: C2_2  and  O1_3 
REMARK    2  A    between atoms: O1_3  and  C3_4 
REMARK    3  A    between atoms: C3_4  and  C4_6 
REMARK    4  A    between atoms: C4_6  and  C5_7 
REMARK    5  A    between atoms: C5_7  and  C6_8 
REMARK    6  A    between atoms: C6_8  and  O4_10 
REMARK    7  A    between atoms: O4_10  and  C7_11 
REMARK    8  A    between atoms: C7_11  and  C8_12 
REMARK    9  A    between atoms: C10_14  and  C11_15 
REMARK   10  A    between atoms: C11_15  and  O5_17 
REMARK   11  A    between atoms: C22_29  and  O7_30 
REMARK   12  A    between atoms: O7_30  and  C23_31 
REMARK       I    between atoms: C23_31  and  N1_33 
ROOT
HETATM    1  C8  UNL     1       0.652 -13.953 -16.810  1.00  0.00    -0.004 C 
HETATM    2  C9  UNL     1       1.705 -12.815 -16.832  1.00  0.00     0.019 C 
HETATM    3  C10 UNL     1       0.997 -14.869 -17.892  1.00  0.00     0.095 C 
HETATM    4  C13 UNL     1       2.297 -15.454 -17.324  1.00  0.00     0.144 C 
HETATM    5  O6  UNL     1       3.309 -15.603 -17.961  1.00  0.00    -0.297 OA
HETATM    6  C14 UNL     1       2.031 -15.768 -15.906  1.00  0.00     0.034 C 
HETATM    7  C15 UNL     1       3.256 -15.419 -15.036  1.00  0.00     0.019 C 
HETATM    8  C16 UNL     1       3.257 -16.105 -13.708  1.00  0.00     0.007 C 
HETATM    9  C17 UNL     1       2.532 -17.363 -13.527  1.00  0.00     0.004 C 
HETATM   10  C18 UNL     1       3.111 -18.680 -13.695  1.00  0.00    -0.030 C 
HETATM   11  C19 UNL     1       2.039 -19.644 -13.263  1.00  0.00     0.016 C 
HETATM   12  C20 UNL     1       4.293 -19.191 -12.961  1.00  0.00     0.013 C 
HETATM   13  C21 UNL     1       4.352 -20.563 -13.670  1.00  0.00     0.034 C 
HETATM   14  C22 UNL     1       3.828 -20.336 -15.100  1.00  0.00     0.142 C 
HETATM   15  C25 UNL     1       3.713 -18.840 -15.055  1.00  0.00    -0.009 C 
HETATM   16  C26 UNL     1       5.202 -18.489 -15.108  1.00  0.00     0.018 C 
HETATM   17  C27 UNL     1       3.005 -18.086 -16.050  1.00  0.00     0.024 C 
HETATM   18  C28 UNL     1       1.844 -17.194 -15.706  1.00  0.00    -0.016 A 
HETATM   19  C29 UNL     1       0.689 -18.004 -15.401  1.00  0.00     0.022 A 
HETATM   20  C30 UNL     1       1.285 -17.307 -14.340  1.00  0.00    -0.026 A 
HETATM   21  C31 UNL     1       0.384 -16.250 -13.808  1.00  0.00     0.011 C 
HETATM   22  C32 UNL     1      -0.222 -15.371 -14.890  1.00  0.00     0.007 C 
HETATM   23  C33 UNL     1       0.966 -14.791 -15.567  1.00  0.00     0.013 C 
ENDROOT
BRANCH   1  24
HETATM   24  C7  UNL     1      -0.638 -13.271 -16.728  1.00  0.00     0.189 C 
BRANCH  24  25
HETATM   25  O4  UNL     1      -0.727 -11.930 -17.070  1.00  0.00    -0.321 OA
BRANCH  25  26
HETATM   26  C6  UNL     1      -1.376 -11.072 -16.197  1.00  0.00     0.259 C 
HETATM   27  O3  UNL     1      -2.419 -11.466 -15.635  1.00  0.00    -0.265 OA
BRANCH  26  28
HETATM   28  C5  UNL     1      -0.877  -9.715 -15.915  1.00  0.00     0.121 C 
BRANCH  28  29
HETATM   29  C4  UNL     1      -1.670  -8.723 -16.724  1.00  0.00     0.121 C 
BRANCH  29  30
HETATM   30  C3  UNL     1      -1.542  -7.343 -16.207  1.00  0.00     0.259 C 
HETATM   31  O2  UNL     1      -1.669  -6.380 -17.033  1.00  0.00    -0.265 OA
BRANCH  30  32
HETATM   32  O1  UNL     1      -1.295  -6.982 -14.907  1.00  0.00    -0.322 OA
BRANCH  32  33
HETATM   33  C2  UNL     1      -2.268  -6.413 -14.049  1.00  0.00     0.174 C 
HETATM   34  C1  UNL     1      -3.169  -7.505 -13.515  1.00  0.00     0.034 C 
ENDBRANCH  32  33
ENDBRANCH  30  32
ENDBRANCH  29  30
ENDBRANCH  28  29
ENDBRANCH  26  28
ENDBRANCH  25  26
ENDBRANCH  24  25
ENDBRANCH   1  24
BRANCH   3  35
HETATM   35  C11 UNL     1       1.275 -14.228 -19.195  1.00  0.00     0.126 C 
HETATM   36  C12 UNL     1       0.048 -13.877 -19.969  1.00  0.00     0.040 C 
BRANCH  35  37
HETATM   37  O5  UNL     1       2.083 -15.004 -20.033  1.00  0.00    -0.395 OA
ATOM     38  H5  UNL     1       2.971 -14.675 -20.109  1.00  0.00     0.210 HD
ENDBRANCH  35  37
ENDBRANCH   3  35
BRANCH  14  39
HETATM   39  O7  UNL     1       4.891 -20.779 -15.932  1.00  0.00    -0.298 OA
BRANCH  39  40
HETATM   40  C23 UNL     1       4.598 -21.323 -17.166  1.00  0.00     0.360 C 
HETATM   41  O8  UNL     1       3.580 -20.927 -17.789  1.00  0.00    -0.239 OA
HETATM   42  N1  UNL     1       5.400 -22.325 -17.784  1.00  0.00    -0.341 N 
HETATM   43  C24 UNL     1       5.081 -22.880 -19.065  1.00  0.00     0.151 C 
ATOM     44  H1  UNL     1       6.232 -22.660 -17.296  1.00  0.00     0.164 HD
ENDBRANCH  39  40
ENDBRANCH  14  39
TORSDOF 12
ENDMDL
MODEL 3
REMARK VINA RESULT: -8.658030907      1.379      2.984
REMARK  12 active torsions:
REMARK  status: ('A' for Active; 'I' for Inactive)
REMARK    1  A    between atoms: C2_2  and  O1_3 
REMARK    2  A    between atoms: O1_3  and  C3_4 
REMARK    3  A    between atoms: C3_4  and  C4_6 
REMARK    4  A    between atoms: C4_6  and  C5_7 
REMARK    5  A    between atoms: C5_7  and  C6_8 
REMARK    6  A    between atoms: C6_8  and  O4_10 
REMARK    7  A    between atoms: O4_10  and  C7_11 
REMARK    8  A    between atoms: C7_11  and  C8_12 
REMARK    9  A    between atoms: C10_14  and  C11_15 
REMARK   10  A    between atoms: C11_15  and  O5_17 
REMARK   11  A    between atoms: C22_29  and  O7_30 
REMARK   12  A    between atoms: O7_30  and  C23_31 
REMARK       I    between atoms: C23_31  and  N1_33 
ROOT
HETATM    1  C8  UNL     1       0.672 -14.086 -16.933  1.00  0.00    -0.004 C 
HETATM    2  C9  UNL     1       1.705 -12.931 -16.859  1.00  0.00     0.019 C 
HETATM    3  C10 UNL     1       1.085 -14.954 -18.031  1.00  0.00     0.095 C 
HETATM    4  C13 UNL     1       2.366 -15.540 -17.422  1.00  0.00     0.144 C 
HETATM    5  O6  UNL     1       3.410 -15.649 -18.013  1.00  0.00    -0.297 OA
HETATM    6  C14 UNL     1       2.036 -15.913 -16.032  1.00  0.00     0.034 C 
HETATM    7  C15 UNL     1       3.211 -15.579 -15.090  1.00  0.00     0.019 C 
HETATM    8  C16 UNL     1       3.160 -16.316 -13.791  1.00  0.00     0.007 C 
HETATM    9  C17 UNL     1       2.449 -17.592 -13.693  1.00  0.00     0.004 C 
HETATM   10  C18 UNL     1       3.058 -18.892 -13.882  1.00  0.00    -0.030 C 
HETATM   11  C19 UNL     1       1.983 -19.888 -13.541  1.00  0.00     0.016 C 
HETATM   12  C20 UNL     1       4.212 -19.412 -13.111  1.00  0.00     0.013 C 
HETATM   13  C21 UNL     1       4.328 -20.755 -13.869  1.00  0.00     0.034 C 
HETATM   14  C22 UNL     1       3.871 -20.480 -15.313  1.00  0.00     0.142 C 
HETATM   15  C25 UNL     1       3.728 -18.990 -15.217  1.00  0.00    -0.009 C 
HETATM   16  C26 UNL     1       5.211 -18.614 -15.183  1.00  0.00     0.018 C 
HETATM   17  C27 UNL     1       3.056 -18.209 -16.216  1.00  0.00     0.024 C 
HETATM   18  C28 UNL     1       1.865 -17.348 -15.896  1.00  0.00    -0.016 A 
HETATM   19  C29 UNL     1       0.710 -18.187 -15.679  1.00  0.00     0.022 A 
HETATM   20  C30 UNL     1       1.241 -17.522 -14.564  1.00  0.00    -0.026 A 
HETATM   21  C31 UNL     1       0.298 -16.501 -14.037  1.00  0.00     0.011 C 
HETATM   22  C32 UNL     1      -0.270 -15.591 -15.113  1.00  0.00     0.007 C 
HETATM   23  C33 UNL     1       0.939 -14.967 -15.709  1.00  0.00     0.013 C 
ENDROOT
BRANCH   1  24
HETATM   24  C7  UNL     1      -0.632 -13.427 -16.888  1.00  0.00     0.189 C 
BRANCH  24  25
HETATM   25  O4  UNL     1      -0.700 -12.050 -16.733  1.00  0.00    -0.321 OA
BRANCH  25  26
HETATM   26  C6  UNL     1      -1.210 -11.549 -15.546  1.00  0.00     0.259 C 
HETATM   27  O3  UNL     1      -2.420 -11.243 -15.496  1.00  0.00    -0.265 OA
BRANCH  26  28
HETATM   28  C5  UNL     1      -0.372 -11.364 -14.348  1.00  0.00     0.121 C 
BRANCH  28  29
HETATM   29  C4  UNL     1      -0.547 -12.553 -13.441  1.00  0.00     0.121 C 
BRANCH  29  30
HETATM   30  C3  UNL     1       0.488 -12.614 -12.385  1.00  0.00     0.259 C 
HETATM   31  O2  UNL     1       0.386 -11.808 -11.402  1.00  0.00    -0.265 OA
BRANCH  30  32
HETATM   32  O1  UNL     1       1.566 -13.460 -12.351  1.00  0.00    -0.322 OA
BRANCH  32  33
HETATM   33  C2  UNL     1       2.081 -14.031 -11.162  1.00  0.00     0.174 C 
HETATM   34  C1  UNL     1       1.207 -15.193 -10.740  1.00  0.00     0.034 C 
ENDBRANCH  32  33
ENDBRANCH  30  32
ENDBRANCH  29  30
ENDBRANCH  28  29
ENDBRANCH  26  28
ENDBRANCH  25  26
ENDBRANCH  24  25
ENDBRANCH   1  24
BRANCH   3  35
HETATM   35  C11 UNL     1       1.415 -14.258 -19.294  1.00  0.00     0.126 C 
HETATM   36  C12 UNL     1       0.220 -13.776 -20.047  1.00  0.00     0.040 C 
BRANCH  35  37
HETATM   37  O5  UNL     1       2.171 -15.039 -20.175  1.00  0.00    -0.395 OA
ATOM     38  H5  UNL     1       3.049 -15.219 -19.858  1.00  0.00     0.210 HD
ENDBRANCH  35  37
ENDBRANCH   3  35
BRANCH  14  39
HETATM   39  O7  UNL     1       4.980 -20.875 -16.108  1.00  0.00    -0.298 OA
BRANCH  39  40
HETATM   40  C23 UNL     1       4.756 -21.390 -17.368  1.00  0.00     0.360 C 
HETATM   41  O8  UNL     1       3.755 -21.003 -18.024  1.00  0.00    -0.239 OA
HETATM   42  N1  UNL     1       5.612 -22.352 -17.978  1.00  0.00    -0.341 N 
HETATM   43  C24 UNL     1       5.363 -22.877 -19.287  1.00  0.00     0.151 C 
ATOM     44  H1  UNL     1       6.431 -22.678 -17.464  1.00  0.00     0.164 HD
ENDBRANCH  39  40
ENDBRANCH  14  39
TORSDOF 12
ENDMDL
MODEL 4
REMARK VINA RESULT: -8.534062051      3.174      8.928
REMARK  12 active torsions:
REMARK  status: ('A' for Active; 'I' for Inactive)
REMARK    1  A    between atoms: C2_2  and  O1_3 
REMARK    2  A    between atoms: O1_3  and  C3_4 
REMARK    3  A    between atoms: C3_4  and  C4_6 
REMARK    4  A    between atoms: C4_6  and  C5_7 
REMARK    5  A    between atoms: C5_7  and  C6_8 
REMARK    6  A    between atoms: C6_8  and  O4_10 
REMARK    7  A    between atoms: O4_10  and  C7_11 
REMARK    8  A    between atoms: C7_11  and  C8_12 
REMARK    9  A    between atoms: C10_14  and  C11_15 
REMARK   10  A    between atoms: C11_15  and  O5_17 
REMARK   11  A    between atoms: C22_29  and  O7_30 
REMARK   12  A    between atoms: O7_30  and  C23_31 
REMARK       I    between atoms: C23_31  and  N1_33 
ROOT
HETATM    1  C8  UNL     1       1.499 -17.771 -12.751  1.00  0.00    -0.004 C 
HETATM    2  C9  UNL     1       2.984 -17.697 -12.309  1.00  0.00     0.019 C 
HETATM    3  C10 UNL     1       0.793 -16.712 -12.037  1.00  0.00     0.095 C 
HETATM    4  C13 UNL     1       1.404 -15.487 -12.732  1.00  0.00     0.144 C 
HETATM    5  O6  UNL     1       1.796 -14.506 -12.154  1.00  0.00    -0.297 OA
HETATM    6  C14 UNL     1       1.398 -15.780 -14.179  1.00  0.00     0.034 C 
HETATM    7  C15 UNL     1       2.693 -15.263 -14.839  1.00  0.00     0.019 C 
HETATM    8  C16 UNL     1       2.581 -15.103 -16.321  1.00  0.00     0.007 C 
HETATM    9  C17 UNL     1       1.274 -14.888 -16.944  1.00  0.00     0.004 C 
HETATM   10  C18 UNL     1       0.695 -13.590 -17.219  1.00  0.00    -0.030 C 
HETATM   11  C19 UNL     1      -0.568 -13.872 -17.987  1.00  0.00     0.016 C 
HETATM   12  C20 UNL     1       1.325 -12.534 -18.048  1.00  0.00     0.013 C 
HETATM   13  C21 UNL     1       0.213 -11.478 -17.849  1.00  0.00     0.034 C 
HETATM   14  C22 UNL     1      -0.369 -11.720 -16.444  1.00  0.00     0.142 C 
HETATM   15  C25 UNL     1       0.609 -12.759 -15.978  1.00  0.00    -0.009 C 
HETATM   16  C26 UNL     1       1.825 -11.856 -15.763  1.00  0.00     0.018 C 
HETATM   17  C27 UNL     1       0.391 -13.559 -14.807  1.00  0.00     0.024 C 
HETATM   18  C28 UNL     1       0.337 -15.061 -14.860  1.00  0.00    -0.016 A 
HETATM   19  C29 UNL     1      -0.909 -15.477 -15.459  1.00  0.00     0.022 A 
HETATM   20  C30 UNL     1       0.263 -15.690 -16.199  1.00  0.00    -0.026 A 
HETATM   21  C31 UNL     1       0.548 -17.139 -16.364  1.00  0.00     0.011 C 
HETATM   22  C32 UNL     1       0.461 -17.925 -15.066  1.00  0.00     0.007 C 
HETATM   23  C33 UNL     1       1.466 -17.263 -14.196  1.00  0.00     0.013 C 
ENDROOT
BRANCH   1  24
HETATM   24  C7  UNL     1       1.142 -19.183 -12.634  1.00  0.00     0.189 C 
BRANCH  24  25
HETATM   25  O4  UNL     1       2.042 -20.155 -13.047  1.00  0.00    -0.321 OA
BRANCH  25  26
HETATM   26  C6  UNL     1       1.583 -21.165 -13.876  1.00  0.00     0.259 C 
HETATM   27  O3  UNL     1       0.515 -21.743 -13.582  1.00  0.00    -0.265 OA
BRANCH  26  28
HETATM   28  C5  UNL     1       2.312 -21.578 -15.088  1.00  0.00     0.121 C 
BRANCH  28  29
HETATM   29  C4  UNL     1       3.565 -20.751 -15.210  1.00  0.00     0.121 C 
BRANCH  29  30
HETATM   30  C3  UNL     1       3.489 -19.771 -16.316  1.00  0.00     0.259 C 
HETATM   31  O2  UNL     1       2.908 -20.130 -17.394  1.00  0.00    -0.265 OA
BRANCH  30  32
HETATM   32  O1  UNL     1       3.986 -18.494 -16.306  1.00  0.00    -0.322 OA
BRANCH  32  33
HETATM   33  C2  UNL     1       5.085 -18.083 -15.512  1.00  0.00     0.174 C 
HETATM   34  C1  UNL     1       5.758 -16.892 -16.160  1.00  0.00     0.034 C 
ENDBRANCH  32  33
ENDBRANCH  30  32
ENDBRANCH  29  30
ENDBRANCH  28  29
ENDBRANCH  26  28
ENDBRANCH  25  26
ENDBRANCH  24  25
ENDBRANCH   1  24
BRANCH   3  35
HETATM   35  C11 UNL     1       1.065 -16.641 -10.586  1.00  0.00     0.126 C 
HETATM   36  C12 UNL     1       0.486 -17.775  -9.807  1.00  0.00     0.040 C 
BRANCH  35  37
HETATM   37  O5  UNL     1       0.609 -15.458  -9.994  1.00  0.00    -0.395 OA
ATOM     38  H5  UNL     1       1.165 -15.153  -9.287  1.00  0.00     0.210 HD
ENDBRANCH  35  37
ENDBRANCH   3  35
BRANCH  14  39
HETATM   39  O7  UNL     1      -0.202 -10.474 -15.782  1.00  0.00    -0.298 OA
BRANCH  39  40
HETATM   40  C23 UNL     1      -1.126 -10.086 -14.833  1.00  0.00     0.360 C 
HETATM   41  O8  UNL     1      -2.324 -10.446 -14.956  1.00  0.00    -0.239 OA
HETATM   42  N1  UNL     1      -0.790  -9.288 -13.702  1.00  0.00    -0.341 N 
HETATM   43  C24 UNL     1      -1.762  -8.894 -12.727  1.00  0.00     0.151 C 
ATOM     44  H1  UNL     1       0.178  -8.986 -13.583  1.00  0.00     0.164 HD
ENDBRANCH  39  40
ENDBRANCH  14  39
TORSDOF 12
ENDMDL
MODEL 5
REMARK VINA RESULT: -8.528407279      3.201      9.305
REMARK  12 active torsions:
REMARK  status: ('A' for Active; 'I' for Inactive)
REMARK    1  A    between atoms: C2_2  and  O1_3 
REMARK    2  A    between atoms: O1_3  and  C3_4 
REMARK    3  A    between atoms: C3_4  and  C4_6 
REMARK    4  A    between atoms: C4_6  and  C5_7 
REMARK    5  A    between atoms: C5_7  and  C6_8 
REMARK    6  A    between atoms: C6_8  and  O4_10 
REMARK    7  A    between atoms: O4_10  and  C7_11 
REMARK    8  A    between atoms: C7_11  and  C8_12 
REMARK    9  A    between atoms: C10_14  and  C11_15 
REMARK   10  A    between atoms: C11_15  and  O5_17 
REMARK   11  A    between atoms: C22_29  and  O7_30 
REMARK   12  A    between atoms: O7_30  and  C23_31 
REMARK       I    between atoms: C23_31  and  N1_33 
ROOT
HETATM    1  C8  UNL     1       2.523 -17.657 -12.957  1.00  0.00    -0.004 C 
HETATM    2  C9  UNL     1       4.068 -17.515 -12.926  1.00  0.00     0.019 C 
HETATM    3  C10 UNL     1       1.986 -16.627 -12.074  1.00  0.00     0.095 C 
HETATM    4  C13 UNL     1       2.336 -15.380 -12.897  1.00  0.00     0.144 C 
HETATM    5  O6  UNL     1       2.824 -14.379 -12.437  1.00  0.00    -0.297 OA
HETATM    6  C14 UNL     1       1.958 -15.680 -14.292  1.00  0.00     0.034 C 
HETATM    7  C15 UNL     1       3.007 -15.110 -15.270  1.00  0.00     0.019 C 
HETATM    8  C16 UNL     1       2.497 -14.961 -16.667  1.00  0.00     0.007 C 
HETATM    9  C17 UNL     1       1.064 -14.808 -16.919  1.00  0.00     0.004 C 
HETATM   10  C18 UNL     1       0.376 -13.537 -17.021  1.00  0.00    -0.030 C 
HETATM   11  C19 UNL     1      -1.033 -13.879 -17.426  1.00  0.00     0.016 C 
HETATM   12  C20 UNL     1       0.716 -12.459 -17.979  1.00  0.00     0.013 C 
HETATM   13  C21 UNL     1      -0.349 -11.453 -17.484  1.00  0.00     0.034 C 
HETATM   14  C22 UNL     1      -0.525 -11.713 -15.977  1.00  0.00     0.142 C 
HETATM   15  C25 UNL     1       0.586 -12.705 -15.795  1.00  0.00    -0.009 C 
HETATM   16  C26 UNL     1       1.775 -11.748 -15.906  1.00  0.00     0.018 C 
HETATM   17  C27 UNL     1       0.723 -13.509 -14.614  1.00  0.00     0.024 C 
HETATM   18  C28 UNL     1       0.723 -15.012 -14.662  1.00  0.00    -0.016 A 
HETATM   19  C29 UNL     1      -0.617 -15.486 -14.910  1.00  0.00     0.022 A 
HETATM   20  C30 UNL     1       0.324 -15.650 -15.937  1.00  0.00    -0.026 A 
HETATM   21  C31 UNL     1       0.618 -17.086 -16.182  1.00  0.00     0.011 C 
HETATM   22  C32 UNL     1       0.914 -17.869 -14.913  1.00  0.00     0.007 C 
HETATM   23  C33 UNL     1       2.084 -17.159 -14.337  1.00  0.00     0.013 C 
ENDROOT
BRANCH   1  24
HETATM   24  C7  UNL     1       2.272 -19.083 -12.759  1.00  0.00     0.189 C 
BRANCH  24  25
HETATM   25  O4  UNL     1       3.260 -20.004 -13.077  1.00  0.00    -0.321 OA
BRANCH  25  26
HETATM   26  C6  UNL     1       3.108 -20.759 -14.228  1.00  0.00     0.259 C 
HETATM   27  O3  UNL     1       1.998 -21.283 -14.459  1.00  0.00    -0.265 OA
BRANCH  26  28
HETATM   28  C5  UNL     1       4.210 -20.962 -15.185  1.00  0.00     0.121 C 
BRANCH  28  29
HETATM   29  C4  UNL     1       4.461 -19.675 -15.924  1.00  0.00     0.121 C 
BRANCH  29  30
HETATM   30  C3  UNL     1       5.887 -19.281 -15.902  1.00  0.00     0.259 C 
HETATM   31  O2  UNL     1       6.163 -18.039 -15.808  1.00  0.00    -0.265 OA
BRANCH  30  32
HETATM   32  O1  UNL     1       6.964 -20.125 -15.975  1.00  0.00    -0.322 OA
BRANCH  32  33
HETATM   33  C2  UNL     1       7.649 -20.427 -17.177  1.00  0.00     0.174 C 
HETATM   34  C1  UNL     1       6.932 -21.549 -17.898  1.00  0.00     0.034 C 
ENDBRANCH  32  33
ENDBRANCH  30  32
ENDBRANCH  29  30
ENDBRANCH  28  29
ENDBRANCH  26  28
ENDBRANCH  25  26
ENDBRANCH  24  25
ENDBRANCH   1  24
BRANCH   3  35
HETATM   35  C11 UNL     1       2.631 -16.537 -10.746  1.00  0.00     0.126 C 
HETATM   36  C12 UNL     1       2.108 -17.520  -9.753  1.00  0.00     0.040 C 
BRANCH  35  37
HETATM   37  O5  UNL     1       2.528 -15.268 -10.166  1.00  0.00    -0.395 OA
ATOM     38  H5  UNL     1       1.830 -15.204  -9.524  1.00  0.00     0.210 HD
ENDBRANCH  35  37
ENDBRANCH   3  35
BRANCH  14  39
HETATM   39  O7  UNL     1      -0.242 -10.457 -15.375  1.00  0.00    -0.298 OA
BRANCH  39  40
HETATM   40  C23 UNL     1      -1.180  -9.886 -14.538  1.00  0.00     0.360 C 
HETATM   41  O8  UNL     1      -2.393 -10.187 -14.674  1.00  0.00    -0.239 OA
HETATM   42  N1  UNL     1      -0.842  -8.959 -13.511  1.00  0.00    -0.341 N 
HETATM   43  C24 UNL     1      -1.828  -8.374 -12.653  1.00  0.00     0.151 C 
ATOM     44  H1  UNL     1       0.137  -8.702 -13.383  1.00  0.00     0.164 HD
ENDBRANCH  39  40
ENDBRANCH  14  39
TORSDOF 12
ENDMDL
