MODEL 1
REMARK VINA RESULT: -8.375285275      0.000      0.000
REMARK  10 active torsions:
REMARK  status: ('A' for Active; 'I' for Inactive)
REMARK       I    between atoms: N1_2  and  C2_4 
REMARK       I    between atoms: C2_4  and  N2_6 
REMARK    1  A    between atoms: C3_8  and  C4_9 
REMARK    2  A    between atoms: C4_9  and  C5_10 
REMARK    3  A    between atoms: C5_10  and  C7_12 
REMARK    4  A    between atoms: C11_17  and  O3_18 
REMARK    5  A    between atoms: C13_21  and  C14_22 
REMARK    6  A    between atoms: C14_22  and  C15_24 
REMARK    7  A    between atoms: C24_33  and  O5_34 
REMARK    8  A    between atoms: O5_34  and  C25_35 
REMARK    9  A    between atoms: C26_38  and  C27_39 
REMARK   10  A    between atoms: C27_39  and  O8_42 
ROOT
HETATM    1  C7  UNL     1       2.010 -17.898 -15.253  1.00  0.00     0.057 C 
HETATM    2  O2  UNL     1       3.183 -17.659 -15.902  1.00  0.00    -0.354 OA
HETATM    3  C8  UNL     1       4.304 -17.276 -15.353  1.00  0.00     0.175 C 
HETATM    4  C9  UNL     1       4.366 -17.121 -13.878  1.00  0.00     0.035 C 
HETATM    5  C10 UNL     1       3.050 -16.574 -13.358  1.00  0.00     0.031 C 
HETATM    6  C11 UNL     1       3.047 -15.125 -13.540  1.00  0.00     0.124 C 
HETATM    7  C12 UNL     1       2.034 -14.511 -14.397  1.00  0.00     0.050 C 
HETATM    8  C13 UNL     1       0.673 -14.269 -13.799  1.00  0.00     0.033 A 
HETATM    9  C18 UNL     1       0.121 -15.527 -13.156  1.00  0.00     0.014 A 
HETATM   10  C19 UNL     1       0.541 -16.830 -13.552  1.00  0.00     0.023 C 
HETATM   11  C20 UNL     1       1.877 -17.391 -13.834  1.00  0.00     0.012 C 
HETATM   12  C21 UNL     1       2.005 -18.640 -12.941  1.00  0.00     0.023 C 
HETATM   13  C22 UNL     1       0.186 -14.933 -11.797  1.00  0.00    -0.006 A 
HETATM   14  C23 UNL     1       0.747 -15.699 -10.707  1.00  0.00     0.019 C 
HETATM   15  C24 UNL     1      -1.046 -14.221 -11.292  1.00  0.00     0.151 A 
HETATM   16  C26 UNL     1      -0.638 -12.994 -12.062  1.00  0.00     0.056 A 
HETATM   17  C31 UNL     1       0.611 -13.688 -12.425  1.00  0.00     0.022 A 
ENDROOT
BRANCH   1  18
HETATM   18  C5  UNL     1       1.583 -19.233 -15.669  1.00  0.00    -0.049 C 
HETATM   19  C6  UNL     1       0.212 -19.277 -16.369  1.00  0.00     0.046 C 
BRANCH  18  20
HETATM   20  C4  UNL     1       2.457 -20.267 -16.220  1.00  0.00     0.081 C 
BRANCH  20  21
HETATM   21  C3  UNL     1       2.035 -21.579 -15.588  1.00  0.00     0.070 C 
HETATM   22  N2  UNL     1       2.782 -22.596 -15.481  1.00  0.00    -0.322 N 
HETATM   23  C2  UNL     1       2.445 -23.824 -14.910  1.00  0.00     0.319 C 
ATOM     24  H2  UNL     1       3.729 -22.509 -15.850  1.00  0.00     0.169 HD
HETATM   25  N1  UNL     1       2.822 -25.093 -15.416  1.00  0.00    -0.347 N 
HETATM   26  O1  UNL     1       1.748 -23.818 -13.854  1.00  0.00    -0.247 OA
HETATM   27  C1  UNL     1       2.472 -26.344 -14.827  1.00  0.00     0.151 C 
ATOM     28  H1  UNL     1       3.386 -25.114 -16.265  1.00  0.00     0.163 HD
ENDBRANCH  20  21
ENDBRANCH  18  20
ENDBRANCH   1  18
BRANCH   6  29
HETATM   29  O3  UNL     1       4.298 -14.649 -14.041  1.00  0.00    -0.395 OA
ATOM     30  H3  UNL     1       4.943 -14.555 -13.350  1.00  0.00     0.210 HD
ENDBRANCH   6  29
BRANCH   8  31
HETATM   31  C14 UNL     1      -0.162 -13.754 -14.902  1.00  0.00     0.140 C 
HETATM   32  O4  UNL     1      -0.953 -14.558 -15.383  1.00  0.00    -0.297 OA
BRANCH  31  33
HETATM   33  C15 UNL     1      -0.174 -12.415 -15.499  1.00  0.00     0.048 C 
HETATM   34  C16 UNL     1       0.367 -12.450 -16.945  1.00  0.00     0.017 C 
HETATM   35  C17 UNL     1      -1.432 -11.659 -15.562  1.00  0.00     0.017 C 
ENDBRANCH  31  33
ENDBRANCH   8  31
BRANCH  15  36
HETATM   36  O5  UNL     1      -1.319 -14.158  -9.975  1.00  0.00    -0.289 OA
BRANCH  36  37
HETATM   37  C25 UNL     1      -2.312 -14.672  -9.199  1.00  0.00     0.333 C 
HETATM   38  O6  UNL     1      -3.453 -14.270  -9.490  1.00  0.00    -0.624 OA
HETATM   39  O7  UNL     1      -2.069 -15.553  -8.184  1.00  0.00    -0.624 OA
ENDBRANCH  36  37
ENDBRANCH  15  36
BRANCH  16  40
HETATM   40  C27 UNL     1      -0.640 -11.726 -11.258  1.00  0.00     0.059 C 
HETATM   41  C28 UNL     1      -0.870 -10.471 -12.063  1.00  0.00     0.046 C 
HETATM   42  C29 UNL     1       0.654 -11.478 -10.510  1.00  0.00     0.046 C 
BRANCH  40  43
HETATM   43  O8  UNL     1      -1.656 -11.689 -10.307  1.00  0.00    -0.385 OA
HETATM   44  C30 UNL     1      -1.457 -10.783  -9.286  1.00  0.00     0.202 C 
ENDBRANCH  40  43
ENDBRANCH  16  40
TORSDOF 10
ENDMDL
MODEL 2
REMARK VINA RESULT: -8.107128047      2.117      2.511
REMARK  10 active torsions:
REMARK  status: ('A' for Active; 'I' for Inactive)
REMARK       I    between atoms: N1_2  and  C2_4 
REMARK       I    between atoms: C2_4  and  N2_6 
REMARK    1  A    between atoms: C3_8  and  C4_9 
REMARK    2  A    between atoms: C4_9  and  C5_10 
REMARK    3  A    between atoms: C5_10  and  C7_12 
REMARK    4  A    between atoms: C11_17  and  O3_18 
REMARK    5  A    between atoms: C13_21  and  C14_22 
REMARK    6  A    between atoms: C14_22  and  C15_24 
REMARK    7  A    between atoms: C24_33  and  O5_34 
REMARK    8  A    between atoms: O5_34  and  C25_35 
REMARK    9  A    between atoms: C26_38  and  C27_39 
REMARK   10  A    between atoms: C27_39  and  O8_42 
ROOT
HETATM    1  C7  UNL     1       3.056 -18.521 -15.402  1.00  0.00     0.057 C 
HETATM    2  O2  UNL     1       4.235 -18.211 -16.007  1.00  0.00    -0.354 OA
HETATM    3  C8  UNL     1       5.290 -17.703 -15.428  1.00  0.00     0.175 C 
HETATM    4  C9  UNL     1       5.262 -17.472 -13.962  1.00  0.00     0.035 C 
HETATM    5  C10 UNL     1       3.879 -17.019 -13.534  1.00  0.00     0.031 C 
HETATM    6  C11 UNL     1       3.760 -15.587 -13.792  1.00  0.00     0.124 C 
HETATM    7  C12 UNL     1       2.743 -15.108 -14.728  1.00  0.00     0.050 C 
HETATM    8  C13 UNL     1       1.337 -14.960 -14.208  1.00  0.00     0.033 A 
HETATM    9  C18 UNL     1       0.863 -16.229 -13.526  1.00  0.00     0.014 A 
HETATM   10  C19 UNL     1       1.415 -17.507 -13.832  1.00  0.00     0.023 C 
HETATM   11  C20 UNL     1       2.807 -17.959 -14.020  1.00  0.00     0.012 C 
HETATM   12  C21 UNL     1       2.997 -19.147 -13.056  1.00  0.00     0.023 C 
HETATM   13  C22 UNL     1       0.807 -15.565 -12.198  1.00  0.00    -0.006 A 
HETATM   14  C23 UNL     1       1.376 -16.224 -11.044  1.00  0.00     0.019 C 
HETATM   15  C24 UNL     1      -0.506 -14.942 -11.790  1.00  0.00     0.151 A 
HETATM   16  C26 UNL     1      -0.167 -13.723 -12.604  1.00  0.00     0.056 A 
HETATM   17  C31 UNL     1       1.155 -14.320 -12.871  1.00  0.00     0.022 A 
ENDROOT
BRANCH   1  18
HETATM   18  C5  UNL     1       2.769 -19.908 -15.766  1.00  0.00    -0.049 C 
HETATM   19  C6  UNL     1       1.926 -20.072 -17.045  1.00  0.00     0.046 C 
BRANCH  18  20
HETATM   20  C4  UNL     1       3.700 -21.027 -15.636  1.00  0.00     0.081 C 
BRANCH  20  21
HETATM   21  C3  UNL     1       3.964 -21.542 -17.038  1.00  0.00     0.070 C 
HETATM   22  N2  UNL     1       5.115 -21.673 -17.548  1.00  0.00    -0.322 N 
HETATM   23  C2  UNL     1       5.414 -22.139 -18.829  1.00  0.00     0.319 C 
ATOM     24  H2  UNL     1       5.908 -21.410 -16.962  1.00  0.00     0.169 HD
HETATM   25  N1  UNL     1       6.413 -21.610 -19.682  1.00  0.00    -0.347 N 
HETATM   26  O1  UNL     1       4.745 -23.116 -19.277  1.00  0.00    -0.247 OA
HETATM   27  C1  UNL     1       6.711 -22.092 -20.990  1.00  0.00     0.151 C 
ATOM     28  H1  UNL     1       6.963 -20.824 -19.333  1.00  0.00     0.163 HD
ENDBRANCH  20  21
ENDBRANCH  18  20
ENDBRANCH   1  18
BRANCH   6  29
HETATM   29  O3  UNL     1       4.989 -15.026 -14.259  1.00  0.00    -0.395 OA
ATOM     30  H3  UNL     1       5.740 -15.529 -13.969  1.00  0.00     0.210 HD
ENDBRANCH   6  29
BRANCH   8  31
HETATM   31  C14 UNL     1       0.519 -14.575 -15.375  1.00  0.00     0.140 C 
HETATM   32  O4  UNL     1      -0.508 -15.227 -15.536  1.00  0.00    -0.297 OA
BRANCH  31  33
HETATM   33  C15 UNL     1       0.764 -13.523 -16.365  1.00  0.00     0.048 C 
HETATM   34  C16 UNL     1      -0.451 -13.350 -17.302  1.00  0.00     0.017 C 
HETATM   35  C17 UNL     1       1.116 -12.169 -15.916  1.00  0.00     0.017 C 
ENDBRANCH  31  33
ENDBRANCH   8  31
BRANCH  15  36
HETATM   36  O5  UNL     1      -0.851 -14.839 -10.493  1.00  0.00    -0.289 OA
BRANCH  36  37
HETATM   37  C25 UNL     1      -1.913 -15.285  -9.768  1.00  0.00     0.333 C 
HETATM   38  O6  UNL     1      -1.748 -16.404  -9.249  1.00  0.00    -0.624 OA
HETATM   39  O7  UNL     1      -3.062 -14.561  -9.626  1.00  0.00    -0.624 OA
ENDBRANCH  36  37
ENDBRANCH  15  36
BRANCH  16  40
HETATM   40  C27 UNL     1      -0.320 -12.423 -11.870  1.00  0.00     0.059 C 
HETATM   41  C28 UNL     1      -0.631 -11.237 -12.750  1.00  0.00     0.046 C 
HETATM   42  C29 UNL     1       0.912 -12.016 -11.089  1.00  0.00     0.046 C 
BRANCH  40  43
HETATM   43  O8  UNL     1      -1.375 -12.434 -10.961  1.00  0.00    -0.385 OA
HETATM   44  C30 UNL     1      -1.298 -11.470  -9.977  1.00  0.00     0.202 C 
ENDBRANCH  40  43
ENDBRANCH  16  40
TORSDOF 10
ENDMDL
MODEL 3
REMARK VINA RESULT: -8.057435203      0.941      1.092
REMARK  10 active torsions:
REMARK  status: ('A' for Active; 'I' for Inactive)
REMARK       I    between atoms: N1_2  and  C2_4 
REMARK       I    between atoms: C2_4  and  N2_6 
REMARK    1  A    between atoms: C3_8  and  C4_9 
REMARK    2  A    between atoms: C4_9  and  C5_10 
REMARK    3  A    between atoms: C5_10  and  C7_12 
REMARK    4  A    between atoms: C11_17  and  O3_18 
REMARK    5  A    between atoms: C13_21  and  C14_22 
REMARK    6  A    between atoms: C14_22  and  C15_24 
REMARK    7  A    between atoms: C24_33  and  O5_34 
REMARK    8  A    between atoms: O5_34  and  C25_35 
REMARK    9  A    between atoms: C26_38  and  C27_39 
REMARK   10  A    between atoms: C27_39  and  O8_42 
ROOT
HETATM    1  C7  UNL     1       2.082 -17.911 -15.620  1.00  0.00     0.057 C 
HETATM    2  O2  UNL     1       3.275 -17.667 -16.228  1.00  0.00    -0.354 OA
HETATM    3  C8  UNL     1       4.392 -17.340 -15.634  1.00  0.00     0.175 C 
HETATM    4  C9  UNL     1       4.421 -17.265 -14.152  1.00  0.00     0.035 C 
HETATM    5  C10 UNL     1       3.106 -16.715 -13.634  1.00  0.00     0.031 C 
HETATM    6  C11 UNL     1       3.140 -15.258 -13.738  1.00  0.00     0.124 C 
HETATM    7  C12 UNL     1       2.164 -14.575 -14.585  1.00  0.00     0.050 C 
HETATM    8  C13 UNL     1       0.794 -14.333 -14.006  1.00  0.00     0.033 A 
HETATM    9  C18 UNL     1       0.197 -15.609 -13.445  1.00  0.00     0.014 A 
HETATM   10  C19 UNL     1       0.597 -16.899 -13.900  1.00  0.00     0.023 C 
HETATM   11  C20 UNL     1       1.926 -17.476 -14.180  1.00  0.00     0.012 C 
HETATM   12  C21 UNL     1       2.004 -18.773 -13.352  1.00  0.00     0.023 C 
HETATM   13  C22 UNL     1       0.243 -15.089 -12.054  1.00  0.00    -0.006 A 
HETATM   14  C23 UNL     1       0.760 -15.925 -10.994  1.00  0.00     0.019 C 
HETATM   15  C24 UNL     1      -0.984 -14.375 -11.541  1.00  0.00     0.151 A 
HETATM   16  C26 UNL     1      -0.529 -13.120 -12.234  1.00  0.00     0.056 A 
HETATM   17  C31 UNL     1       0.712 -13.824 -12.605  1.00  0.00     0.022 A 
ENDROOT
BRANCH   1  18
HETATM   18  C5  UNL     1       1.635 -19.211 -16.117  1.00  0.00    -0.049 C 
HETATM   19  C6  UNL     1       0.175 -19.241 -16.609  1.00  0.00     0.046 C 
BRANCH  18  20
HETATM   20  C4  UNL     1       2.445 -20.140 -16.904  1.00  0.00     0.081 C 
BRANCH  20  21
HETATM   21  C3  UNL     1       2.798 -21.296 -15.988  1.00  0.00     0.070 C 
HETATM   22  N2  UNL     1       2.093 -21.674 -15.006  1.00  0.00    -0.322 N 
HETATM   23  C2  UNL     1       2.371 -22.728 -14.135  1.00  0.00     0.319 C 
ATOM     24  H2  UNL     1       1.232 -21.155 -14.835  1.00  0.00     0.169 HD
HETATM   25  N1  UNL     1       2.159 -22.710 -12.734  1.00  0.00    -0.347 N 
HETATM   26  O1  UNL     1       2.850 -23.793 -14.623  1.00  0.00    -0.247 OA
HETATM   27  C1  UNL     1       2.447 -23.790 -11.850  1.00  0.00     0.151 C 
ATOM     28  H1  UNL     1       1.771 -21.859 -12.327  1.00  0.00     0.163 HD
ENDBRANCH  20  21
ENDBRANCH  18  20
ENDBRANCH   1  18
BRANCH   6  29
HETATM   29  O3  UNL     1       4.414 -14.787 -14.184  1.00  0.00    -0.395 OA
ATOM     30  H3  UNL     1       4.363 -13.904 -14.531  1.00  0.00     0.210 HD
ENDBRANCH   6  29
BRANCH   8  31
HETATM   31  C14 UNL     1      -0.001 -13.739 -15.099  1.00  0.00     0.140 C 
HETATM   32  O4  UNL     1      -0.903 -14.446 -15.538  1.00  0.00    -0.297 OA
BRANCH  31  33
HETATM   33  C15 UNL     1       0.138 -12.424 -15.730  1.00  0.00     0.048 C 
HETATM   34  C16 UNL     1       0.549 -12.563 -17.213  1.00  0.00     0.017 C 
HETATM   35  C17 UNL     1      -0.992 -11.487 -15.716  1.00  0.00     0.017 C 
ENDBRANCH  31  33
ENDBRANCH   8  31
BRANCH  15  36
HETATM   36  O5  UNL     1      -1.288 -14.375 -10.229  1.00  0.00    -0.289 OA
BRANCH  36  37
HETATM   37  C25 UNL     1      -2.333 -14.868  -9.510  1.00  0.00     0.333 C 
HETATM   38  O6  UNL     1      -2.080 -15.917  -8.888  1.00  0.00    -0.624 OA
HETATM   39  O7  UNL     1      -3.555 -14.260  -9.478  1.00  0.00    -0.624 OA
ENDBRANCH  36  37
ENDBRANCH  15  36
BRANCH  16  40
HETATM   40  C27 UNL     1      -0.522 -11.897 -11.364  1.00  0.00     0.059 C 
HETATM   41  C28 UNL     1      -0.769 -10.601 -12.098  1.00  0.00     0.046 C 
HETATM   42  C29 UNL     1       0.783 -11.684 -10.625  1.00  0.00     0.046 C 
BRANCH  40  43
HETATM   43  O8  UNL     1      -1.523 -11.914 -10.396  1.00  0.00    -0.385 OA
HETATM   44  C30 UNL     1      -1.303 -11.072  -9.325  1.00  0.00     0.202 C 
ENDBRANCH  40  43
ENDBRANCH  16  40
TORSDOF 10
ENDMDL
MODEL 4
REMARK VINA RESULT: -7.919558516      1.637      1.892
REMARK  10 active torsions:
REMARK  status: ('A' for Active; 'I' for Inactive)
REMARK       I    between atoms: N1_2  and  C2_4 
REMARK       I    between atoms: C2_4  and  N2_6 
REMARK    1  A    between atoms: C3_8  and  C4_9 
REMARK    2  A    between atoms: C4_9  and  C5_10 
REMARK    3  A    between atoms: C5_10  and  C7_12 
REMARK    4  A    between atoms: C11_17  and  O3_18 
REMARK    5  A    between atoms: C13_21  and  C14_22 
REMARK    6  A    between atoms: C14_22  and  C15_24 
REMARK    7  A    between atoms: C24_33  and  O5_34 
REMARK    8  A    between atoms: O5_34  and  C25_35 
REMARK    9  A    between atoms: C26_38  and  C27_39 
REMARK   10  A    between atoms: C27_39  and  O8_42 
ROOT
HETATM    1  C7  UNL     1       1.542 -18.008 -14.904  1.00  0.00     0.057 C 
HETATM    2  O2  UNL     1       2.736 -17.864 -15.541  1.00  0.00    -0.354 OA
HETATM    3  C8  UNL     1       3.882 -17.586 -14.981  1.00  0.00     0.175 C 
HETATM    4  C9  UNL     1       3.945 -17.455 -13.503  1.00  0.00     0.035 C 
HETATM    5  C10 UNL     1       2.677 -16.803 -12.986  1.00  0.00     0.031 C 
HETATM    6  C11 UNL     1       2.801 -15.356 -13.148  1.00  0.00     0.124 C 
HETATM    7  C12 UNL     1       1.852 -14.647 -14.005  1.00  0.00     0.050 C 
HETATM    8  C13 UNL     1       0.512 -14.295 -13.413  1.00  0.00     0.033 A 
HETATM    9  C18 UNL     1      -0.152 -15.508 -12.790  1.00  0.00     0.014 A 
HETATM   10  C19 UNL     1       0.157 -16.838 -13.200  1.00  0.00     0.023 C 
HETATM   11  C20 UNL     1       1.442 -17.508 -13.480  1.00  0.00     0.012 C 
HETATM   12  C21 UNL     1       1.454 -18.775 -12.601  1.00  0.00     0.023 C 
HETATM   13  C22 UNL     1      -0.046 -14.938 -11.423  1.00  0.00    -0.006 A 
HETATM   14  C23 UNL     1       0.438 -15.763 -10.339  1.00  0.00     0.019 C 
HETATM   15  C24 UNL     1      -1.216 -14.128 -10.918  1.00  0.00     0.151 A 
HETATM   16  C26 UNL     1      -0.697 -12.933 -11.669  1.00  0.00     0.056 A 
HETATM   17  C31 UNL     1       0.490 -13.728 -12.033  1.00  0.00     0.022 A 
ENDROOT
BRANCH   1  18
HETATM   18  C5  UNL     1       1.005 -19.296 -15.340  1.00  0.00    -0.049 C 
HETATM   19  C6  UNL     1       0.179 -19.239 -16.639  1.00  0.00     0.046 C 
BRANCH  18  20
HETATM   20  C4  UNL     1       1.702 -20.578 -15.250  1.00  0.00     0.081 C 
BRANCH  20  21
HETATM   21  C3  UNL     1       2.659 -20.638 -16.424  1.00  0.00     0.070 C 
HETATM   22  N2  UNL     1       3.644 -21.431 -16.507  1.00  0.00    -0.322 N 
HETATM   23  C2  UNL     1       4.553 -21.528 -17.561  1.00  0.00     0.319 C 
ATOM     24  H2  UNL     1       3.787 -22.066 -15.721  1.00  0.00     0.169 HD
HETATM   25  N1  UNL     1       5.949 -21.723 -17.423  1.00  0.00    -0.347 N 
HETATM   26  O1  UNL     1       4.107 -21.437 -18.742  1.00  0.00    -0.247 OA
HETATM   27  C1  UNL     1       6.872 -21.820 -18.505  1.00  0.00     0.151 C 
ATOM     28  H1  UNL     1       6.323 -21.801 -16.477  1.00  0.00     0.163 HD
ENDBRANCH  20  21
ENDBRANCH  18  20
ENDBRANCH   1  18
BRANCH   6  29
HETATM   29  O3  UNL     1       4.092 -14.984 -13.635  1.00  0.00    -0.395 OA
ATOM     30  H3  UNL     1       4.254 -14.054 -13.534  1.00  0.00     0.210 HD
ENDBRANCH   6  29
BRANCH   8  31
HETATM   31  C14 UNL     1      -0.266 -13.696 -14.515  1.00  0.00     0.140 C 
HETATM   32  O4  UNL     1      -0.959 -14.479 -15.157  1.00  0.00    -0.297 OA
BRANCH  31  33
HETATM   33  C15 UNL     1      -0.325 -12.297 -14.947  1.00  0.00     0.048 C 
HETATM   34  C16 UNL     1       0.777 -11.992 -15.985  1.00  0.00     0.017 C 
HETATM   35  C17 UNL     1      -1.568 -11.762 -15.517  1.00  0.00     0.017 C 
ENDBRANCH  31  33
ENDBRANCH   8  31
BRANCH  15  36
HETATM   36  O5  UNL     1      -1.494 -14.058  -9.602  1.00  0.00    -0.289 OA
BRANCH  36  37
HETATM   37  C25 UNL     1      -2.555 -14.450  -8.846  1.00  0.00     0.333 C 
HETATM   38  O6  UNL     1      -3.664 -14.245  -9.371  1.00  0.00    -0.624 OA
HETATM   39  O7  UNL     1      -2.408 -15.019  -7.613  1.00  0.00    -0.624 OA
ENDBRANCH  36  37
ENDBRANCH  15  36
BRANCH  16  40
HETATM   40  C27 UNL     1      -0.596 -11.679 -10.849  1.00  0.00     0.059 C 
HETATM   41  C28 UNL     1      -0.637 -10.400 -11.649  1.00  0.00     0.046 C 
HETATM   42  C29 UNL     1       0.675 -11.588 -10.031  1.00  0.00     0.046 C 
BRANCH  40  43
HETATM   43  O8  UNL     1      -1.651 -11.531  -9.953  1.00  0.00    -0.385 OA
HETATM   44  C30 UNL     1      -1.488 -10.515  -9.034  1.00  0.00     0.202 C 
ENDBRANCH  40  43
ENDBRANCH  16  40
TORSDOF 10
ENDMDL
MODEL 5
REMARK VINA RESULT: -7.675035175      4.711      9.353
REMARK  10 active torsions:
REMARK  status: ('A' for Active; 'I' for Inactive)
REMARK       I    between atoms: N1_2  and  C2_4 
REMARK       I    between atoms: C2_4  and  N2_6 
REMARK    1  A    between atoms: C3_8  and  C4_9 
REMARK    2  A    between atoms: C4_9  and  C5_10 
REMARK    3  A    between atoms: C5_10  and  C7_12 
REMARK    4  A    between atoms: C11_17  and  O3_18 
REMARK    5  A    between atoms: C13_21  and  C14_22 
REMARK    6  A    between atoms: C14_22  and  C15_24 
REMARK    7  A    between atoms: C24_33  and  O5_34 
REMARK    8  A    between atoms: O5_34  and  C25_35 
REMARK    9  A    between atoms: C26_38  and  C27_39 
REMARK   10  A    between atoms: C27_39  and  O8_42 
ROOT
HETATM    1  C7  UNL     1       0.246 -13.210 -15.813  1.00  0.00     0.057 C 
HETATM    2  O2  UNL     1       0.819 -12.365 -16.714  1.00  0.00    -0.354 OA
HETATM    3  C8  UNL     1       1.019 -12.609 -17.981  1.00  0.00     0.175 C 
HETATM    4  C9  UNL     1       0.545 -13.897 -18.548  1.00  0.00     0.035 C 
HETATM    5  C10 UNL     1       0.727 -15.008 -17.531  1.00  0.00     0.031 C 
HETATM    6  C11 UNL     1       2.114 -15.462 -17.583  1.00  0.00     0.124 C 
HETATM    7  C12 UNL     1       2.955 -15.337 -16.394  1.00  0.00     0.050 C 
HETATM    8  C13 UNL     1       2.824 -16.403 -15.336  1.00  0.00     0.033 A 
HETATM    9  C18 UNL     1       1.376 -16.606 -14.934  1.00  0.00     0.014 A 
HETATM   10  C19 UNL     1       0.393 -15.586 -15.092  1.00  0.00     0.023 C 
HETATM   11  C20 UNL     1       0.101 -14.663 -16.206  1.00  0.00     0.012 C 
HETATM   12  C21 UNL     1      -1.394 -14.852 -16.527  1.00  0.00     0.023 C 
HETATM   13  C22 UNL     1       1.350 -17.979 -15.500  1.00  0.00    -0.006 A 
HETATM   14  C23 UNL     1       0.241 -18.389 -16.332  1.00  0.00     0.019 C 
HETATM   15  C24 UNL     1       1.693 -19.118 -14.571  1.00  0.00     0.151 A 
HETATM   16  C26 UNL     1       3.155 -18.843 -14.793  1.00  0.00     0.056 A 
HETATM   17  C31 UNL     1       2.770 -17.824 -15.787  1.00  0.00     0.022 A 
ENDROOT
BRANCH   1  18
HETATM   18  C5  UNL     1      -0.820 -12.445 -15.166  1.00  0.00    -0.049 C 
HETATM   19  C6  UNL     1      -0.454 -11.885 -13.778  1.00  0.00     0.046 C 
BRANCH  18  20
HETATM   20  C4  UNL     1      -1.739 -11.533 -15.844  1.00  0.00     0.081 C 
BRANCH  20  21
HETATM   21  C3  UNL     1      -1.311 -10.126 -15.474  1.00  0.00     0.070 C 
HETATM   22  N2  UNL     1      -2.031  -9.095 -15.623  1.00  0.00    -0.322 N 
HETATM   23  C2  UNL     1      -1.688  -7.782 -15.300  1.00  0.00     0.319 C 
ATOM     24  H2  UNL     1      -2.960  -9.240 -16.020  1.00  0.00     0.169 HD
HETATM   25  N1  UNL     1      -1.998  -6.639 -16.077  1.00  0.00    -0.347 N 
HETATM   26  O1  UNL     1      -1.048  -7.581 -14.227  1.00  0.00    -0.247 OA
HETATM   27  C1  UNL     1      -1.643  -5.300 -15.741  1.00  0.00     0.151 C 
ATOM     28  H1  UNL     1      -2.517  -6.785 -16.944  1.00  0.00     0.163 HD
ENDBRANCH  20  21
ENDBRANCH  18  20
ENDBRANCH   1  18
BRANCH   6  29
HETATM   29  O3  UNL     1       2.847 -14.814 -18.626  1.00  0.00    -0.395 OA
ATOM     30  H3  UNL     1       2.982 -15.387 -19.372  1.00  0.00     0.210 HD
ENDBRANCH   6  29
BRANCH   8  31
HETATM   31  C14 UNL     1       3.691 -15.969 -14.224  1.00  0.00     0.140 C 
HETATM   32  O4  UNL     1       4.882 -15.860 -14.496  1.00  0.00    -0.297 OA
BRANCH  31  33
HETATM   33  C15 UNL     1       3.325 -15.650 -12.841  1.00  0.00     0.048 C 
HETATM   34  C16 UNL     1       2.490 -14.352 -12.775  1.00  0.00     0.017 C 
HETATM   35  C17 UNL     1       2.590 -16.637 -12.037  1.00  0.00     0.017 C 
ENDBRANCH  31  33
ENDBRANCH   8  31
BRANCH  15  36
HETATM   36  O5  UNL     1       1.179 -20.348 -14.763  1.00  0.00    -0.289 OA
BRANCH  36  37
HETATM   37  C25 UNL     1       0.498 -21.213 -13.963  1.00  0.00     0.333 C 
HETATM   38  O6  UNL     1      -0.560 -20.756 -13.493  1.00  0.00    -0.624 OA
HETATM   39  O7  UNL     1       0.944 -22.477 -13.701  1.00  0.00    -0.624 OA
ENDBRANCH  36  37
ENDBRANCH  15  36
BRANCH  16  40
HETATM   40  C27 UNL     1       3.966 -20.051 -15.162  1.00  0.00     0.059 C 
HETATM   41  C28 UNL     1       4.215 -21.013 -14.027  1.00  0.00     0.046 C 
HETATM   42  C29 UNL     1       5.343 -19.718 -15.700  1.00  0.00     0.046 C 
BRANCH  40  43
HETATM   43  O8  UNL     1       3.350 -20.844 -16.126  1.00  0.00    -0.385 OA
HETATM   44  C30 UNL     1       4.206 -21.374 -17.070  1.00  0.00     0.202 C 
ENDBRANCH  40  43
ENDBRANCH  16  40
TORSDOF 10
ENDMDL
