MODEL 1
REMARK VINA RESULT: -8.881741295      0.000      0.000
REMARK  12 active torsions:
REMARK  status: ('A' for Active; 'I' for Inactive)
REMARK    1  A    between atoms: C2_2  and  C3_4 
REMARK    2  A    between atoms: C3_4  and  C4_5 
REMARK    3  A    between atoms: C4_5  and  C5_6 
REMARK    4  A    between atoms: C5_6  and  O2_7 
REMARK    5  A    between atoms: C5_6  and  C6_9 
REMARK    6  A    between atoms: C8_11  and  C9_12 
REMARK    7  A    between atoms: C9_12  and  C10_13 
REMARK    8  A    between atoms: C11_14  and  O3_15 
REMARK    9  A    between atoms: O3_15  and  C12_16 
REMARK   10  A    between atoms: C23_29  and  O5_30 
REMARK   11  A    between atoms: O5_30  and  C24_31 
REMARK   12  A    between atoms: C32_42  and  O9_43 
ROOT
HETATM    1  C10 UNL     1       1.046 -15.695 -15.829  1.00  0.00     0.091 C 
HETATM    2  C11 UNL     1       0.252 -15.046 -14.703  1.00  0.00     0.148 C 
HETATM    3  C13 UNL     1       0.376 -15.953 -13.520  1.00  0.00     0.035 C 
HETATM    4  C14 UNL     1      -0.002 -17.370 -13.902  1.00  0.00     0.017 C 
HETATM    5  C15 UNL     1       1.012 -17.963 -14.907  1.00  0.00    -0.009 C 
HETATM    6  C16 UNL     1       0.136 -18.337 -16.104  1.00  0.00     0.021 C 
HETATM    7  C17 UNL     1       1.861 -16.838 -15.332  1.00  0.00     0.016 C 
HETATM    8  C18 UNL     1       3.048 -17.221 -16.138  1.00  0.00     0.008 C 
HETATM    9  C19 UNL     1       4.218 -17.498 -15.292  1.00  0.00     0.013 C 
HETATM   10  C20 UNL     1       4.080 -18.090 -13.977  1.00  0.00    -0.005 C 
HETATM   11  C21 UNL     1       4.236 -17.060 -12.850  1.00  0.00     0.019 C 
HETATM   12  C22 UNL     1       5.386 -18.916 -13.759  1.00  0.00     0.046 C 
HETATM   13  C23 UNL     1       4.926 -20.062 -12.827  1.00  0.00     0.144 C 
HETATM   14  C26 UNL     1       3.751 -20.439 -13.688  1.00  0.00     0.026 C 
HETATM   15  C27 UNL     1       4.251 -20.996 -14.948  1.00  0.00     0.022 C 
HETATM   16  C28 UNL     1       2.804 -21.452 -13.060  1.00  0.00     0.102 C 
HETATM   17  C29 UNL     1       1.844 -21.651 -14.187  1.00  0.00     0.200 C 
HETATM   18  O7  UNL     1       1.323 -22.793 -14.414  1.00  0.00    -0.289 OA
HETATM   19  C30 UNL     1       1.553 -20.455 -15.000  1.00  0.00     0.223 C 
HETATM   20  O8  UNL     1       1.220 -20.685 -16.156  1.00  0.00    -0.284 OA
HETATM   21  C31 UNL     1       1.703 -19.139 -14.295  1.00  0.00     0.018 C 
HETATM   22  C32 UNL     1       3.039 -19.081 -13.706  1.00  0.00     0.103 C 
ENDROOT
BRANCH   1  23
HETATM   23  C9  UNL     1       1.036 -15.201 -16.961  1.00  0.00    -0.148 C 
BRANCH  23  24
HETATM   24  C8  UNL     1       1.012 -14.633 -18.256  1.00  0.00     0.056 C 
HETATM   25  C6  UNL     1       1.858 -14.539 -19.250  1.00  0.00    -0.048 C 
HETATM   26  C7  UNL     1       3.153 -15.218 -19.279  1.00  0.00     0.046 C 
BRANCH  25  27
HETATM   27  C5  UNL     1       1.322 -13.810 -20.448  1.00  0.00     0.147 C 
BRANCH  27  28
HETATM   28  C4  UNL     1       0.036 -13.135 -20.290  1.00  0.00     0.044 C 
BRANCH  28  29
HETATM   29  C3  UNL     1       0.171 -11.665 -20.685  1.00  0.00     0.080 C 
BRANCH  29  30
HETATM   30  C2  UNL     1      -0.331 -10.771 -19.575  1.00  0.00     0.123 C 
HETATM   31  C1  UNL     1      -0.035 -11.177 -18.168  1.00  0.00     0.091 C 
HETATM   32  O1  UNL     1      -0.941  -9.789 -19.763  1.00  0.00    -0.298 OA
ENDBRANCH  29  30
ENDBRANCH  28  29
ENDBRANCH  27  28
BRANCH  27  33
HETATM   33  O2  UNL     1       2.290 -13.045 -21.085  1.00  0.00    -0.391 OA
ATOM     34  H2  UNL     1       2.940 -13.554 -21.555  1.00  0.00     0.210 HD
ENDBRANCH  27  33
ENDBRANCH  25  27
ENDBRANCH  23  24
ENDBRANCH   1  23
BRANCH   2  35
HETATM   35  O3  UNL     1       0.676 -13.771 -14.384  1.00  0.00    -0.300 OA
BRANCH  35  36
HETATM   36  C12 UNL     1      -0.323 -12.783 -14.202  1.00  0.00     0.373 C 
HETATM   37  N1  UNL     1      -0.435 -11.951 -13.056  1.00  0.00    -0.032 NA
HETATM   38  O4  UNL     1      -1.169 -12.637 -15.136  1.00  0.00    -0.242 OA
ENDBRANCH  35  36
ENDBRANCH   2  35
BRANCH  22  39
HETATM   39  O9  UNL     1       2.873 -18.961 -12.282  1.00  0.00    -0.383 OA
ATOM     40  H9  UNL     1       1.928 -18.928 -12.195  1.00  0.00     0.211 HD
ENDBRANCH  22  39
BRANCH  13  41
HETATM   41  O5  UNL     1       5.932 -21.052 -12.843  1.00  0.00    -0.315 OA
BRANCH  41  42
HETATM   42  C24 UNL     1       6.459 -21.443 -11.593  1.00  0.00     0.255 C 
HETATM   43  C25 UNL     1       5.761 -21.119 -10.305  1.00  0.00     0.126 C 
HETATM   44  O6  UNL     1       7.542 -22.075 -11.583  1.00  0.00    -0.266 OA
ENDBRANCH  41  42
ENDBRANCH  13  41
TORSDOF 12
ENDMDL
MODEL 2
REMARK VINA RESULT: -8.432303374      2.226      4.842
REMARK  12 active torsions:
REMARK  status: ('A' for Active; 'I' for Inactive)
REMARK    1  A    between atoms: C2_2  and  C3_4 
REMARK    2  A    between atoms: C3_4  and  C4_5 
REMARK    3  A    between atoms: C4_5  and  C5_6 
REMARK    4  A    between atoms: C5_6  and  O2_7 
REMARK    5  A    between atoms: C5_6  and  C6_9 
REMARK    6  A    between atoms: C8_11  and  C9_12 
REMARK    7  A    between atoms: C9_12  and  C10_13 
REMARK    8  A    between atoms: C11_14  and  O3_15 
REMARK    9  A    between atoms: O3_15  and  C12_16 
REMARK   10  A    between atoms: C23_29  and  O5_30 
REMARK   11  A    between atoms: O5_30  and  C24_31 
REMARK   12  A    between atoms: C32_42  and  O9_43 
ROOT
HETATM    1  C10 UNL     1       1.443 -14.790 -16.667  1.00  0.00     0.091 C 
HETATM    2  C11 UNL     1       2.091 -14.829 -18.046  1.00  0.00     0.148 C 
HETATM    3  C13 UNL     1       2.807 -16.139 -18.140  1.00  0.00     0.035 C 
HETATM    4  C14 UNL     1       3.719 -16.327 -16.945  1.00  0.00     0.017 C 
HETATM    5  C15 UNL     1       2.902 -16.466 -15.640  1.00  0.00    -0.009 C 
HETATM    6  C16 UNL     1       3.441 -15.329 -14.770  1.00  0.00     0.021 C 
HETATM    7  C17 UNL     1       1.517 -16.116 -15.993  1.00  0.00     0.016 C 
HETATM    8  C18 UNL     1       0.513 -16.390 -14.934  1.00  0.00     0.008 C 
HETATM    9  C19 UNL     1      -0.036 -17.749 -15.040  1.00  0.00     0.013 C 
HETATM   10  C20 UNL     1       0.770 -18.860 -15.504  1.00  0.00    -0.005 C 
HETATM   11  C21 UNL     1       0.457 -19.247 -16.956  1.00  0.00     0.019 C 
HETATM   12  C22 UNL     1       0.202 -20.116 -14.770  1.00  0.00     0.046 C 
HETATM   13  C23 UNL     1       1.436 -21.041 -14.652  1.00  0.00     0.144 C 
HETATM   14  C26 UNL     1       2.319 -19.973 -14.064  1.00  0.00     0.026 C 
HETATM   15  C27 UNL     1       1.822 -19.636 -12.727  1.00  0.00     0.022 C 
HETATM   16  C28 UNL     1       3.787 -20.358 -13.946  1.00  0.00     0.102 C 
HETATM   17  C29 UNL     1       4.326 -19.141 -13.266  1.00  0.00     0.200 C 
HETATM   18  O7  UNL     1       5.259 -19.228 -12.402  1.00  0.00    -0.289 OA
HETATM   19  C30 UNL     1       3.707 -17.861 -13.660  1.00  0.00     0.223 C 
HETATM   20  O8  UNL     1       3.747 -16.984 -12.806  1.00  0.00    -0.284 OA
HETATM   21  C31 UNL     1       3.127 -17.819 -15.043  1.00  0.00     0.018 C 
HETATM   22  C32 UNL     1       2.196 -18.935 -15.186  1.00  0.00     0.103 C 
ENDROOT
BRANCH   1  23
HETATM   23  C9  UNL     1       0.861 -13.771 -16.284  1.00  0.00    -0.148 C 
BRANCH  23  24
HETATM   24  C8  UNL     1       0.184 -12.611 -15.840  1.00  0.00     0.056 C 
HETATM   25  C6  UNL     1      -0.409 -12.242 -14.734  1.00  0.00    -0.048 C 
HETATM   26  C7  UNL     1      -0.376 -13.023 -13.497  1.00  0.00     0.046 C 
BRANCH  25  27
HETATM   27  C5  UNL     1      -0.991 -10.859 -14.778  1.00  0.00     0.147 C 
BRANCH  27  28
HETATM   28  C4  UNL     1      -0.587 -10.008 -15.895  1.00  0.00     0.044 C 
BRANCH  28  29
HETATM   29  C3  UNL     1      -1.815  -9.321 -16.492  1.00  0.00     0.080 C 
BRANCH  29  30
HETATM   30  C2  UNL     1      -1.979  -7.934 -15.913  1.00  0.00     0.123 C 
HETATM   31  C1  UNL     1      -1.495  -6.780 -16.727  1.00  0.00     0.091 C 
HETATM   32  O1  UNL     1      -2.455  -7.726 -14.863  1.00  0.00    -0.298 OA
ENDBRANCH  29  30
ENDBRANCH  28  29
ENDBRANCH  27  28
BRANCH  27  33
HETATM   33  O2  UNL     1      -2.354 -10.844 -14.516  1.00  0.00    -0.391 OA
ATOM     34  H2  UNL     1      -2.578 -10.566 -13.636  1.00  0.00     0.210 HD
ENDBRANCH  27  33
ENDBRANCH  25  27
ENDBRANCH  23  24
ENDBRANCH   1  23
BRANCH   2  35
HETATM   35  O3  UNL     1       1.194 -14.690 -19.088  1.00  0.00    -0.300 OA
BRANCH  35  36
HETATM   36  C12 UNL     1       1.249 -13.486 -19.831  1.00  0.00     0.373 C 
HETATM   37  N1  UNL     1       0.258 -12.468 -19.792  1.00  0.00    -0.032 NA
HETATM   38  O4  UNL     1       2.259 -13.311 -20.578  1.00  0.00    -0.242 OA
ENDBRANCH  35  36
ENDBRANCH   2  35
BRANCH  22  39
HETATM   39  O9  UNL     1       2.695 -19.774 -16.244  1.00  0.00    -0.383 OA
ATOM     40  H9  UNL     1       3.630 -19.611 -16.201  1.00  0.00     0.211 HD
ENDBRANCH  22  39
BRANCH  13  41
HETATM   41  O5  UNL     1       1.125 -22.046 -13.711  1.00  0.00    -0.315 OA
BRANCH  41  42
HETATM   42  C24 UNL     1       1.574 -23.352 -14.002  1.00  0.00     0.255 C 
HETATM   43  C25 UNL     1       2.850 -23.894 -13.428  1.00  0.00     0.126 C 
HETATM   44  O6  UNL     1       0.875 -24.059 -14.765  1.00  0.00    -0.266 OA
ENDBRANCH  41  42
ENDBRANCH  13  41
TORSDOF 12
ENDMDL
MODEL 3
REMARK VINA RESULT: -8.394516721      2.154      4.774
REMARK  12 active torsions:
REMARK  status: ('A' for Active; 'I' for Inactive)
REMARK    1  A    between atoms: C2_2  and  C3_4 
REMARK    2  A    between atoms: C3_4  and  C4_5 
REMARK    3  A    between atoms: C4_5  and  C5_6 
REMARK    4  A    between atoms: C5_6  and  O2_7 
REMARK    5  A    between atoms: C5_6  and  C6_9 
REMARK    6  A    between atoms: C8_11  and  C9_12 
REMARK    7  A    between atoms: C9_12  and  C10_13 
REMARK    8  A    between atoms: C11_14  and  O3_15 
REMARK    9  A    between atoms: O3_15  and  C12_16 
REMARK   10  A    between atoms: C23_29  and  O5_30 
REMARK   11  A    between atoms: O5_30  and  C24_31 
REMARK   12  A    between atoms: C32_42  and  O9_43 
ROOT
HETATM    1  C10 UNL     1       1.520 -15.119 -15.977  1.00  0.00     0.091 C 
HETATM    2  C11 UNL     1       1.970 -15.043 -17.430  1.00  0.00     0.148 C 
HETATM    3  C13 UNL     1       2.642 -16.345 -17.734  1.00  0.00     0.035 C 
HETATM    4  C14 UNL     1       3.707 -16.641 -16.698  1.00  0.00     0.017 C 
HETATM    5  C15 UNL     1       3.076 -16.888 -15.308  1.00  0.00    -0.009 C 
HETATM    6  C16 UNL     1       3.751 -15.834 -14.428  1.00  0.00     0.021 C 
HETATM    7  C17 UNL     1       1.662 -16.499 -15.434  1.00  0.00     0.016 C 
HETATM    8  C18 UNL     1       0.809 -16.857 -14.273  1.00  0.00     0.008 C 
HETATM    9  C19 UNL     1       0.225 -18.198 -14.416  1.00  0.00     0.013 C 
HETATM   10  C20 UNL     1       0.939 -19.270 -15.081  1.00  0.00    -0.005 C 
HETATM   11  C21 UNL     1       0.421 -19.527 -16.503  1.00  0.00     0.019 C 
HETATM   12  C22 UNL     1       0.454 -20.581 -14.384  1.00  0.00     0.046 C 
HETATM   13  C23 UNL     1       1.675 -21.521 -14.518  1.00  0.00     0.144 C 
HETATM   14  C26 UNL     1       2.650 -20.513 -13.970  1.00  0.00     0.026 C 
HETATM   15  C27 UNL     1       2.349 -20.290 -12.553  1.00  0.00     0.022 C 
HETATM   16  C28 UNL     1       4.113 -20.917 -14.090  1.00  0.00     0.102 C 
HETATM   17  C29 UNL     1       4.763 -19.768 -13.392  1.00  0.00     0.200 C 
HETATM   18  O7  UNL     1       5.805 -19.936 -12.676  1.00  0.00    -0.289 OA
HETATM   19  C30 UNL     1       4.120 -18.454 -13.586  1.00  0.00     0.223 C 
HETATM   20  O8  UNL     1       4.294 -17.654 -12.674  1.00  0.00    -0.284 OA
HETATM   21  C31 UNL     1       3.356 -18.288 -14.866  1.00  0.00     0.018 C 
HETATM   22  C32 UNL     1       2.393 -19.382 -14.972  1.00  0.00     0.103 C 
ENDROOT
BRANCH   1  23
HETATM   23  C9  UNL     1       1.015 -14.133 -15.431  1.00  0.00    -0.148 C 
BRANCH  23  24
HETATM   24  C8  UNL     1       0.433 -13.000 -14.817  1.00  0.00     0.056 C 
HETATM   25  C6  UNL     1      -0.561 -12.196 -15.094  1.00  0.00    -0.048 C 
HETATM   26  C7  UNL     1      -1.498 -12.415 -16.195  1.00  0.00     0.046 C 
BRANCH  25  27
HETATM   27  C5  UNL     1      -0.773 -11.107 -14.081  1.00  0.00     0.147 C 
BRANCH  27  28
HETATM   28  C4  UNL     1      -1.725 -10.056 -14.433  1.00  0.00     0.044 C 
BRANCH  28  29
HETATM   29  C3  UNL     1      -0.981  -8.872 -15.051  1.00  0.00     0.080 C 
BRANCH  29  30
HETATM   30  C2  UNL     1      -1.695  -8.390 -16.293  1.00  0.00     0.123 C 
HETATM   31  C1  UNL     1      -1.555  -6.948 -16.658  1.00  0.00     0.091 C 
HETATM   32  O1  UNL     1      -2.351  -9.084 -16.970  1.00  0.00    -0.298 OA
ENDBRANCH  29  30
ENDBRANCH  28  29
ENDBRANCH  27  28
BRANCH  27  33
HETATM   33  O2  UNL     1      -0.920 -11.599 -12.791  1.00  0.00    -0.391 OA
ATOM     34  H2  UNL     1      -0.296 -11.246 -12.167  1.00  0.00     0.210 HD
ENDBRANCH  27  33
ENDBRANCH  25  27
ENDBRANCH  23  24
ENDBRANCH   1  23
BRANCH   2  35
HETATM   35  O3  UNL     1       0.941 -14.808 -18.321  1.00  0.00    -0.300 OA
BRANCH  35  36
HETATM   36  C12 UNL     1       1.104 -13.733 -19.229  1.00  0.00     0.373 C 
HETATM   37  N1  UNL     1       0.945 -12.362 -18.892  1.00  0.00    -0.032 NA
HETATM   38  O4  UNL     1       1.419 -14.025 -20.422  1.00  0.00    -0.242 OA
ENDBRANCH  35  36
ENDBRANCH   2  35
BRANCH  22  39
HETATM   39  O9  UNL     1       2.725 -20.129 -16.156  1.00  0.00    -0.383 OA
ATOM     40  H9  UNL     1       3.026 -19.446 -16.743  1.00  0.00     0.211 HD
ENDBRANCH  22  39
BRANCH  13  41
HETATM   41  O5  UNL     1       1.478 -22.602 -13.631  1.00  0.00    -0.315 OA
BRANCH  41  42
HETATM   42  C24 UNL     1       1.588 -23.900 -14.175  1.00  0.00     0.255 C 
HETATM   43  C25 UNL     1       2.848 -24.704 -14.050  1.00  0.00     0.126 C 
HETATM   44  O6  UNL     1       0.595 -24.371 -14.777  1.00  0.00    -0.266 OA
ENDBRANCH  41  42
ENDBRANCH  13  41
TORSDOF 12
ENDMDL
MODEL 4
REMARK VINA RESULT: -8.393479944      2.108      4.691
REMARK  12 active torsions:
REMARK  status: ('A' for Active; 'I' for Inactive)
REMARK    1  A    between atoms: C2_2  and  C3_4 
REMARK    2  A    between atoms: C3_4  and  C4_5 
REMARK    3  A    between atoms: C4_5  and  C5_6 
REMARK    4  A    between atoms: C5_6  and  O2_7 
REMARK    5  A    between atoms: C5_6  and  C6_9 
REMARK    6  A    between atoms: C8_11  and  C9_12 
REMARK    7  A    between atoms: C9_12  and  C10_13 
REMARK    8  A    between atoms: C11_14  and  O3_15 
REMARK    9  A    between atoms: O3_15  and  C12_16 
REMARK   10  A    between atoms: C23_29  and  O5_30 
REMARK   11  A    between atoms: O5_30  and  C24_31 
REMARK   12  A    between atoms: C32_42  and  O9_43 
ROOT
HETATM    1  C10 UNL     1       1.728 -14.992 -16.529  1.00  0.00     0.091 C 
HETATM    2  C11 UNL     1       2.507 -15.011 -17.839  1.00  0.00     0.148 C 
HETATM    3  C13 UNL     1       3.228 -16.320 -17.883  1.00  0.00     0.035 C 
HETATM    4  C14 UNL     1       4.020 -16.528 -16.608  1.00  0.00     0.017 C 
HETATM    5  C15 UNL     1       3.080 -16.686 -15.391  1.00  0.00    -0.009 C 
HETATM    6  C16 UNL     1       3.532 -15.563 -14.455  1.00  0.00     0.021 C 
HETATM    7  C17 UNL     1       1.736 -16.328 -15.872  1.00  0.00     0.016 C 
HETATM    8  C18 UNL     1       0.633 -16.616 -14.920  1.00  0.00     0.008 C 
HETATM    9  C19 UNL     1       0.097 -17.973 -15.099  1.00  0.00     0.013 C 
HETATM   10  C20 UNL     1       0.945 -19.078 -15.501  1.00  0.00    -0.005 C 
HETATM   11  C21 UNL     1       0.774 -19.442 -16.982  1.00  0.00     0.019 C 
HETATM   12  C22 UNL     1       0.308 -20.344 -14.845  1.00  0.00     0.046 C 
HETATM   13  C23 UNL     1       1.524 -21.273 -14.622  1.00  0.00     0.144 C 
HETATM   14  C26 UNL     1       2.345 -20.215 -13.934  1.00  0.00     0.026 C 
HETATM   15  C27 UNL     1       1.721 -19.898 -12.647  1.00  0.00     0.022 C 
HETATM   16  C28 UNL     1       3.795 -20.605 -13.679  1.00  0.00     0.102 C 
HETATM   17  C29 UNL     1       4.265 -19.399 -12.932  1.00  0.00     0.200 C 
HETATM   18  O7  UNL     1       5.110 -19.502 -11.982  1.00  0.00    -0.289 OA
HETATM   19  C30 UNL     1       3.688 -18.112 -13.364  1.00  0.00     0.223 C 
HETATM   20  O8  UNL     1       3.645 -17.248 -12.496  1.00  0.00    -0.284 OA
HETATM   21  C31 UNL     1       3.246 -18.048 -14.796  1.00  0.00     0.018 C 
HETATM   22  C32 UNL     1       2.333 -19.161 -15.047  1.00  0.00     0.103 C 
ENDROOT
BRANCH   1  23
HETATM   23  C9  UNL     1       1.111 -13.978 -16.189  1.00  0.00    -0.148 C 
BRANCH  23  24
HETATM   24  C8  UNL     1       0.404 -12.813 -15.811  1.00  0.00     0.056 C 
HETATM   25  C6  UNL     1      -0.334 -12.459 -14.790  1.00  0.00    -0.048 C 
HETATM   26  C7  UNL     1      -0.496 -13.273 -13.586  1.00  0.00     0.046 C 
BRANCH  25  27
HETATM   27  C5  UNL     1      -0.873 -11.060 -14.875  1.00  0.00     0.147 C 
BRANCH  27  28
HETATM   28  C4  UNL     1      -0.366 -10.221 -15.958  1.00  0.00     0.044 C 
BRANCH  28  29
HETATM   29  C3  UNL     1      -1.479  -9.957 -16.971  1.00  0.00     0.080 C 
BRANCH  29  30
HETATM   30  C2  UNL     1      -0.949 -10.078 -18.382  1.00  0.00     0.123 C 
HETATM   31  C1  UNL     1       0.017 -11.180 -18.669  1.00  0.00     0.091 C 
HETATM   32  O1  UNL     1      -1.251  -9.351 -19.249  1.00  0.00    -0.298 OA
ENDBRANCH  29  30
ENDBRANCH  28  29
ENDBRANCH  27  28
BRANCH  27  33
HETATM   33  O2  UNL     1      -2.251 -11.008 -14.714  1.00  0.00    -0.391 OA
ATOM     34  H2  UNL     1      -2.541 -10.416 -14.029  1.00  0.00     0.210 HD
ENDBRANCH  27  33
ENDBRANCH  25  27
ENDBRANCH  23  24
ENDBRANCH   1  23
BRANCH   2  35
HETATM   35  O3  UNL     1       1.716 -14.854 -18.961  1.00  0.00    -0.300 OA
BRANCH  35  36
HETATM   36  C12 UNL     1       2.255 -14.099 -20.031  1.00  0.00     0.373 C 
HETATM   37  N1  UNL     1       1.481 -13.451 -21.031  1.00  0.00    -0.032 NA
HETATM   38  O4  UNL     1       3.518 -13.996 -20.089  1.00  0.00    -0.242 OA
ENDBRANCH  35  36
ENDBRANCH   2  35
BRANCH  22  39
HETATM   39  O9  UNL     1       2.932 -19.983 -16.063  1.00  0.00    -0.383 OA
ATOM     40  H9  UNL     1       3.537 -20.513 -15.558  1.00  0.00     0.211 HD
ENDBRANCH  22  39
BRANCH  13  41
HETATM   41  O5  UNL     1       1.122 -22.292 -13.731  1.00  0.00    -0.315 OA
BRANCH  41  42
HETATM   42  C24 UNL     1       1.508 -23.610 -14.056  1.00  0.00     0.255 C 
HETATM   43  C25 UNL     1       2.851 -24.158 -13.673  1.00  0.00     0.126 C 
HETATM   44  O6  UNL     1       0.691 -24.324 -14.685  1.00  0.00    -0.266 OA
ENDBRANCH  41  42
ENDBRANCH  13  41
TORSDOF 12
ENDMDL
MODEL 5
REMARK VINA RESULT: -8.090429834      2.295      3.769
REMARK  12 active torsions:
REMARK  status: ('A' for Active; 'I' for Inactive)
REMARK    1  A    between atoms: C2_2  and  C3_4 
REMARK    2  A    between atoms: C3_4  and  C4_5 
REMARK    3  A    between atoms: C4_5  and  C5_6 
REMARK    4  A    between atoms: C5_6  and  O2_7 
REMARK    5  A    between atoms: C5_6  and  C6_9 
REMARK    6  A    between atoms: C8_11  and  C9_12 
REMARK    7  A    between atoms: C9_12  and  C10_13 
REMARK    8  A    between atoms: C11_14  and  O3_15 
REMARK    9  A    between atoms: O3_15  and  C12_16 
REMARK   10  A    between atoms: C23_29  and  O5_30 
REMARK   11  A    between atoms: O5_30  and  C24_31 
REMARK   12  A    between atoms: C32_42  and  O9_43 
ROOT
HETATM    1  C10 UNL     1       1.667 -15.353 -13.410  1.00  0.00     0.091 C 
HETATM    2  C11 UNL     1       2.024 -15.229 -11.934  1.00  0.00     0.148 C 
HETATM    3  C13 UNL     1       2.718 -16.500 -11.559  1.00  0.00     0.035 C 
HETATM    4  C14 UNL     1       1.881 -17.697 -11.966  1.00  0.00     0.017 C 
HETATM    5  C15 UNL     1       1.771 -17.797 -13.505  1.00  0.00    -0.009 C 
HETATM    6  C16 UNL     1       0.261 -17.761 -13.749  1.00  0.00     0.021 C 
HETATM    7  C17 UNL     1       2.322 -16.538 -14.031  1.00  0.00     0.016 C 
HETATM    8  C18 UNL     1       2.515 -16.506 -15.503  1.00  0.00     0.008 C 
HETATM    9  C19 UNL     1       3.846 -16.994 -15.891  1.00  0.00     0.013 C 
HETATM   10  C20 UNL     1       4.517 -18.042 -15.148  1.00  0.00    -0.005 C 
HETATM   11  C21 UNL     1       5.622 -17.498 -14.232  1.00  0.00     0.019 C 
HETATM   12  C22 UNL     1       5.393 -18.794 -16.198  1.00  0.00     0.046 C 
HETATM   13  C23 UNL     1       5.455 -20.234 -15.637  1.00  0.00     0.144 C 
HETATM   14  C26 UNL     1       3.965 -20.346 -15.457  1.00  0.00     0.026 C 
HETATM   15  C27 UNL     1       3.332 -20.357 -16.778  1.00  0.00     0.022 C 
HETATM   16  C28 UNL     1       3.510 -21.586 -14.699  1.00  0.00     0.102 C 
HETATM   17  C29 UNL     1       2.028 -21.419 -14.784  1.00  0.00     0.200 C 
HETATM   18  O7  UNL     1       1.258 -22.427 -14.909  1.00  0.00    -0.289 OA
HETATM   19  C30 UNL     1       1.535 -20.030 -14.719  1.00  0.00     0.223 C 
HETATM   20  O8  UNL     1       0.463 -19.835 -15.280  1.00  0.00    -0.284 OA
HETATM   21  C31 UNL     1       2.411 -19.064 -13.976  1.00  0.00     0.018 C 
HETATM   22  C32 UNL     1       3.756 -19.135 -14.541  1.00  0.00     0.103 C 
ENDROOT
BRANCH   1  23
HETATM   23  C9  UNL     1       0.997 -14.475 -13.962  1.00  0.00    -0.148 C 
BRANCH  23  24
HETATM   24  C8  UNL     1       0.241 -13.465 -14.601  1.00  0.00     0.056 C 
HETATM   25  C6  UNL     1      -0.432 -12.414 -14.209  1.00  0.00    -0.048 C 
HETATM   26  C7  UNL     1      -0.431 -11.918 -12.832  1.00  0.00     0.046 C 
BRANCH  25  27
HETATM   27  C5  UNL     1      -1.078 -11.644 -15.324  1.00  0.00     0.147 C 
BRANCH  27  28
HETATM   28  C4  UNL     1      -1.005 -12.230 -16.660  1.00  0.00     0.044 C 
BRANCH  28  29
HETATM   29  C3  UNL     1      -0.136 -11.354 -17.562  1.00  0.00     0.080 C 
BRANCH  29  30
HETATM   30  C2  UNL     1       0.566 -12.198 -18.601  1.00  0.00     0.123 C 
HETATM   31  C1  UNL     1       1.208 -13.468 -18.147  1.00  0.00     0.091 C 
HETATM   32  O1  UNL     1       0.636 -11.902 -19.732  1.00  0.00    -0.298 OA
ENDBRANCH  29  30
ENDBRANCH  28  29
ENDBRANCH  27  28
BRANCH  27  33
HETATM   33  O2  UNL     1      -2.334 -11.161 -14.982  1.00  0.00    -0.391 OA
ATOM     34  H2  UNL     1      -2.321 -10.322 -14.536  1.00  0.00     0.210 HD
ENDBRANCH  27  33
ENDBRANCH  25  27
ENDBRANCH  23  24
ENDBRANCH   1  23
BRANCH   2  35
HETATM   35  O3  UNL     1       2.819 -14.138 -11.642  1.00  0.00    -0.300 OA
BRANCH  35  36
HETATM   36  C12 UNL     1       2.542 -13.438 -10.443  1.00  0.00     0.373 C 
HETATM   37  N1  UNL     1       1.278 -13.419  -9.794  1.00  0.00    -0.032 NA
HETATM   38  O4  UNL     1       3.496 -12.788  -9.917  1.00  0.00    -0.242 OA
ENDBRANCH  35  36
ENDBRANCH   2  35
BRANCH  22  39
HETATM   39  O9  UNL     1       4.639 -19.566 -13.490  1.00  0.00    -0.383 OA
ATOM     40  H9  UNL     1       4.312 -20.437 -13.302  1.00  0.00     0.211 HD
ENDBRANCH  22  39
BRANCH  13  41
HETATM   41  O5  UNL     1       5.927 -21.073 -16.670  1.00  0.00    -0.315 OA
BRANCH  41  42
HETATM   42  C24 UNL     1       7.239 -20.835 -17.133  1.00  0.00     0.255 C 
HETATM   43  C25 UNL     1       7.557 -20.748 -18.597  1.00  0.00     0.126 C 
HETATM   44  O6  UNL     1       8.148 -20.698 -16.281  1.00  0.00    -0.266 OA
ENDBRANCH  41  42
ENDBRANCH  13  41
TORSDOF 12
ENDMDL
