MODEL 1
REMARK VINA RESULT: -4.123260702      0.000      0.000
REMARK  3 active torsions:
REMARK  status: ('A' for Active; 'I' for Inactive)
REMARK    1  A    between atoms: O1_2  and  C2_3 
REMARK    2  A    between atoms: C2_3  and  C3_5 
REMARK    3  A    between atoms: C9_12  and  O3_13 
ROOT
HETATM    1  C3  UNL     1      17.534  27.514 -13.186  1.00  0.00     0.109 C 
HETATM    2  C4  UNL     1      18.119  27.807 -11.798  1.00  0.00     0.037 C 
HETATM    3  C5  UNL     1      18.513  26.856 -14.064  1.00  0.00    -0.027 C 
HETATM    4  C6  UNL     1      19.787  26.696 -14.404  1.00  0.00     0.008 C 
HETATM    5  C7  UNL     1      19.936  25.746 -15.493  1.00  0.00     0.084 C 
HETATM    6 CL1  UNL     1      21.185  24.491 -15.197  1.00  0.00    -0.112 Cl
HETATM    7  C8  UNL     1      19.811  26.163 -16.906  1.00  0.00     0.066 C 
HETATM    8  C9  UNL     1      18.743  25.066 -17.053  1.00  0.00     0.148 C 
HETATM    9  C10 UNL     1      18.580  25.041 -15.534  1.00  0.00     0.118 C 
HETATM   10 CL2  UNL     1      18.501  23.464 -14.786  1.00  0.00    -0.111 Cl
HETATM   11  C11 UNL     1      17.652  26.056 -14.993  1.00  0.00     0.127 C 
HETATM   12 CL3  UNL     1      16.998  27.098 -16.294  1.00  0.00    -0.105 Cl
HETATM   13  C12 UNL     1      16.587  25.635 -14.083  1.00  0.00     0.061 C 
HETATM   14 CL4  UNL     1      15.576  24.206 -14.375  1.00  0.00    -0.085 Cl
HETATM   15  C13 UNL     1      16.485  26.442 -13.040  1.00  0.00     0.054 C 
HETATM   16 CL5  UNL     1      15.322  26.251 -11.752  1.00  0.00    -0.086 Cl
ENDROOT
BRANCH   1  17
HETATM   17  C2  UNL     1      16.937  28.690 -13.775  1.00  0.00     0.276 C 
HETATM   18  O2  UNL     1      17.588  29.679 -14.256  1.00  0.00    -0.264 OA
BRANCH  17  19
HETATM   19  O1  UNL     1      15.540  28.875 -13.879  1.00  0.00    -0.325 OA
HETATM   20  C1  UNL     1      14.845  29.879 -13.163  1.00  0.00     0.213 C 
ENDBRANCH  17  19
ENDBRANCH   1  17
BRANCH   8  21
HETATM   21  O3  UNL     1      19.326  23.910 -17.547  1.00  0.00    -0.393 OA
ATOM     22  H3  UNL     1      18.854  23.151 -17.226  1.00  0.00     0.210 HD
ENDBRANCH   8  21
TORSDOF 3
ENDMDL
MODEL 2
REMARK VINA RESULT: -4.107167075      2.848      4.642
REMARK  3 active torsions:
REMARK  status: ('A' for Active; 'I' for Inactive)
REMARK    1  A    between atoms: O1_2  and  C2_3 
REMARK    2  A    between atoms: C2_3  and  C3_5 
REMARK    3  A    between atoms: C9_12  and  O3_13 
ROOT
HETATM    1  C3  UNL     1      14.492  30.415 -14.047  1.00  0.00     0.109 C 
HETATM    2  C4  UNL     1      12.996  30.192 -13.786  1.00  0.00     0.037 C 
HETATM    3  C5  UNL     1      15.309  29.317 -13.511  1.00  0.00    -0.027 C 
HETATM    4  C6  UNL     1      15.459  28.378 -12.583  1.00  0.00     0.008 C 
HETATM    5  C7  UNL     1      16.676  27.611 -12.788  1.00  0.00     0.084 C 
HETATM    6 CL1  UNL     1      16.434  25.834 -12.724  1.00  0.00    -0.112 Cl
HETATM    7  C8  UNL     1      17.979  28.070 -12.260  1.00  0.00     0.066 C 
HETATM    8  C9  UNL     1      18.515  27.946 -13.696  1.00  0.00     0.148 C 
HETATM    9  C10 UNL     1      17.080  27.965 -14.219  1.00  0.00     0.118 C 
HETATM   10 CL2  UNL     1      16.684  26.792 -15.451  1.00  0.00    -0.111 Cl
HETATM   11  C11 UNL     1      16.508  29.315 -14.409  1.00  0.00     0.127 C 
HETATM   12 CL3  UNL     1      17.666  30.588 -13.912  1.00  0.00    -0.105 Cl
HETATM   13  C12 UNL     1      15.888  29.652 -15.691  1.00  0.00     0.061 C 
HETATM   14 CL4  UNL     1      16.622  29.246 -17.255  1.00  0.00    -0.085 Cl
HETATM   15  C13 UNL     1      14.737  30.283 -15.529  1.00  0.00     0.054 C 
HETATM   16 CL5  UNL     1      13.723  30.842 -16.835  1.00  0.00    -0.086 Cl
ENDROOT
BRANCH   1  17
HETATM   17  C2  UNL     1      14.926  31.720 -13.605  1.00  0.00     0.276 C 
HETATM   18  O2  UNL     1      15.172  32.709 -14.376  1.00  0.00    -0.264 OA
BRANCH  17  19
HETATM   19  O1  UNL     1      15.133  32.043 -12.246  1.00  0.00    -0.325 OA
HETATM   20  C1  UNL     1      14.098  31.996 -11.281  1.00  0.00     0.213 C 
ENDBRANCH  17  19
ENDBRANCH   1  17
BRANCH   8  21
HETATM   21  O3  UNL     1      19.126  26.713 -13.860  1.00  0.00    -0.393 OA
ATOM     22  H3  UNL     1      19.828  26.785 -14.497  1.00  0.00     0.210 HD
ENDBRANCH   8  21
TORSDOF 3
ENDMDL
MODEL 3
REMARK VINA RESULT: -3.884862052      4.960      7.640
REMARK  3 active torsions:
REMARK  status: ('A' for Active; 'I' for Inactive)
REMARK    1  A    between atoms: O1_2  and  C2_3 
REMARK    2  A    between atoms: C2_3  and  C3_5 
REMARK    3  A    between atoms: C9_12  and  O3_13 
ROOT
HETATM    1  C3  UNL     1      17.584  21.289 -12.299  1.00  0.00     0.109 C 
HETATM    2  C4  UNL     1      18.774  21.319 -11.330  1.00  0.00     0.037 C 
HETATM    3  C5  UNL     1      16.299  21.332 -11.586  1.00  0.00    -0.027 C 
HETATM    4  C6  UNL     1      15.609  21.020 -10.494  1.00  0.00     0.008 C 
HETATM    5  C7  UNL     1      14.234  21.484 -10.577  1.00  0.00     0.084 C 
HETATM    6 CL1  UNL     1      13.680  22.378  -9.123  1.00  0.00    -0.112 Cl
HETATM    7  C8  UNL     1      13.185  20.679 -11.238  1.00  0.00     0.066 C 
HETATM    8  C9  UNL     1      12.895  21.914 -12.108  1.00  0.00     0.148 C 
HETATM    9  C10 UNL     1      14.267  22.477 -11.739  1.00  0.00     0.118 C 
HETATM   10 CL2  UNL     1      14.324  24.170 -11.313  1.00  0.00    -0.111 Cl
HETATM   11  C11 UNL     1      15.383  21.987 -12.575  1.00  0.00     0.127 C 
HETATM   12 CL3  UNL     1      14.815  20.796 -13.786  1.00  0.00    -0.105 Cl
HETATM   13  C12 UNL     1      16.293  22.955 -13.188  1.00  0.00     0.061 C 
HETATM   14 CL4  UNL     1      15.730  24.427 -14.003  1.00  0.00    -0.085 Cl
HETATM   15  C13 UNL     1      17.558  22.592 -13.055  1.00  0.00     0.054 C 
HETATM   16 CL5  UNL     1      18.917  23.502 -13.667  1.00  0.00    -0.086 Cl
ENDROOT
BRANCH   1  17
HETATM   17  C2  UNL     1      17.682  20.194 -13.236  1.00  0.00     0.276 C 
HETATM   18  O2  UNL     1      17.116  19.057 -13.094  1.00  0.00    -0.264 OA
BRANCH  17  19
HETATM   19  O1  UNL     1      18.434  20.267 -14.429  1.00  0.00    -0.325 OA
HETATM   20  C1  UNL     1      19.710  19.670 -14.568  1.00  0.00     0.213 C 
ENDBRANCH  17  19
ENDBRANCH   1  17
BRANCH   8  21
HETATM   21  O3  UNL     1      11.854  22.640 -11.554  1.00  0.00    -0.393 OA
ATOM     22  H3  UNL     1      11.068  22.522 -12.076  1.00  0.00     0.210 HD
ENDBRANCH   8  21
TORSDOF 3
ENDMDL
MODEL 4
REMARK VINA RESULT: -3.872049556      5.331      6.653
REMARK  3 active torsions:
REMARK  status: ('A' for Active; 'I' for Inactive)
REMARK    1  A    between atoms: O1_2  and  C2_3 
REMARK    2  A    between atoms: C2_3  and  C3_5 
REMARK    3  A    between atoms: C9_12  and  O3_13 
ROOT
HETATM    1  C3  UNL     1      14.719  22.119 -12.340  1.00  0.00     0.109 C 
HETATM    2  C4  UNL     1      13.601  22.178 -13.390  1.00  0.00     0.037 C 
HETATM    3  C5  UNL     1      15.771  21.163 -12.716  1.00  0.00    -0.027 C 
HETATM    4  C6  UNL     1      16.092  20.034 -13.338  1.00  0.00     0.008 C 
HETATM    5  C7  UNL     1      17.515  19.758 -13.248  1.00  0.00     0.084 C 
HETATM    6 CL1  UNL     1      18.275  19.342 -14.820  1.00  0.00    -0.112 Cl
HETATM    7  C8  UNL     1      18.096  19.057 -12.083  1.00  0.00     0.066 C 
HETATM    8  C9  UNL     1      19.051  20.254 -11.938  1.00  0.00     0.148 C 
HETATM    9  C10 UNL     1      18.105  21.094 -12.795  1.00  0.00     0.118 C 
HETATM   10 CL2  UNL     1      18.845  22.077 -14.035  1.00  0.00    -0.111 Cl
HETATM   11  C11 UNL     1      16.992  21.724 -12.054  1.00  0.00     0.127 C 
HETATM   12 CL3  UNL     1      17.028  21.275 -10.321  1.00  0.00    -0.105 Cl
HETATM   13  C12 UNL     1      16.753  23.159 -12.212  1.00  0.00     0.061 C 
HETATM   14 CL4  UNL     1      18.055  24.364 -12.184  1.00  0.00    -0.085 Cl
HETATM   15  C13 UNL     1      15.468  23.427 -12.375  1.00  0.00     0.054 C 
HETATM   16 CL5  UNL     1      14.812  25.031 -12.589  1.00  0.00    -0.086 Cl
ENDROOT
BRANCH   1  17
HETATM   17  C2  UNL     1      14.197  21.903 -11.011  1.00  0.00     0.276 C 
HETATM   18  O2  UNL     1      14.088  22.804 -10.112  1.00  0.00    -0.264 OA
BRANCH  17  19
HETATM   19  O1  UNL     1      13.749  20.643 -10.555  1.00  0.00    -0.325 OA
HETATM   20  C1  UNL     1      13.975  20.180  -9.237  1.00  0.00     0.213 C 
ENDBRANCH  17  19
ENDBRANCH   1  17
BRANCH   8  21
HETATM   21  O3  UNL     1      20.248  19.976 -12.579  1.00  0.00    -0.393 OA
ATOM     22  H3  UNL     1      20.516  20.727 -13.096  1.00  0.00     0.210 HD
ENDBRANCH   8  21
TORSDOF 3
ENDMDL
MODEL 5
REMARK VINA RESULT: -3.863894934      4.091      5.826
REMARK  3 active torsions:
REMARK  status: ('A' for Active; 'I' for Inactive)
REMARK    1  A    between atoms: O1_2  and  C2_3 
REMARK    2  A    between atoms: C2_3  and  C3_5 
REMARK    3  A    between atoms: C9_12  and  O3_13 
ROOT
HETATM    1  C3  UNL     1      16.631  24.729 -12.773  1.00  0.00     0.109 C 
HETATM    2  C4  UNL     1      17.833  25.429 -12.123  1.00  0.00     0.037 C 
HETATM    3  C5  UNL     1      16.406  23.392 -12.206  1.00  0.00    -0.027 C 
HETATM    4  C6  UNL     1      16.931  22.303 -11.653  1.00  0.00     0.008 C 
HETATM    5  C7  UNL     1      15.910  21.321 -11.329  1.00  0.00     0.084 C 
HETATM    6 CL1  UNL     1      16.031  20.673  -9.660  1.00  0.00    -0.112 Cl
HETATM    7  C8  UNL     1      15.428  20.347 -12.331  1.00  0.00     0.066 C 
HETATM    8  C9  UNL     1      14.009  20.860 -12.029  1.00  0.00     0.148 C 
HETATM    9  C10 UNL     1      14.610  22.122 -11.415  1.00  0.00     0.118 C 
HETATM   10 CL2  UNL     1      13.924  22.654  -9.899  1.00  0.00    -0.111 Cl
HETATM   11  C11 UNL     1      14.932  23.190 -12.385  1.00  0.00     0.127 C 
HETATM   12 CL3  UNL     1      14.569  22.678 -14.062  1.00  0.00    -0.105 Cl
HETATM   13  C12 UNL     1      14.441  24.547 -12.140  1.00  0.00     0.061 C 
HETATM   14 CL4  UNL     1      12.780  24.892 -11.619  1.00  0.00    -0.085 Cl
HETATM   15  C13 UNL     1      15.379  25.455 -12.353  1.00  0.00     0.054 C 
HETATM   16 CL5  UNL     1      15.150  27.175 -12.165  1.00  0.00    -0.086 Cl
ENDROOT
BRANCH   1  17
HETATM   17  C2  UNL     1      16.724  24.731 -14.214  1.00  0.00     0.276 C 
HETATM   18  O2  UNL     1      16.035  25.477 -14.991  1.00  0.00    -0.264 OA
BRANCH  17  19
HETATM   19  O1  UNL     1      17.601  23.887 -14.931  1.00  0.00    -0.325 OA
HETATM   20  C1  UNL     1      18.812  24.347 -15.502  1.00  0.00     0.213 C 
ENDBRANCH  17  19
ENDBRANCH   1  17
BRANCH   8  21
HETATM   21  O3  UNL     1      13.408  20.041 -11.087  1.00  0.00    -0.393 OA
ATOM     22  H3  UNL     1      12.648  20.478 -10.722  1.00  0.00     0.210 HD
ENDBRANCH   8  21
TORSDOF 3
ENDMDL
