MODEL 1
REMARK VINA RESULT: -5.682559385      0.000      0.000
REMARK  2 active torsions:
REMARK  status: ('A' for Active; 'I' for Inactive)
REMARK    1  A    between atoms: O1_1  and  C1_3 
REMARK    2  A    between atoms: C5_8  and  C6_9 
ROOT
HETATM    1  C1  UNL     1      16.674  22.183 -11.416  1.00  0.00     0.159 C 
HETATM    2  C2  UNL     1      17.638  22.853 -12.366  1.00  0.00     0.046 C 
HETATM    3  C3  UNL     1      16.783  23.779 -13.234  1.00  0.00    -0.008 C 
HETATM    4  C4  UNL     1      16.481  24.996 -12.475  1.00  0.00     0.085 C 
HETATM    5  S1  UNL     1      16.958  26.363 -13.569  1.00  0.00    -0.159 SA
HETATM    6  C5  UNL     1      18.018  25.344 -14.656  1.00  0.00     0.081 C 
HETATM    7  C11 UNL     1      17.410  24.009 -14.524  1.00  0.00     0.032 C 
HETATM    8  C12 UNL     1      15.489  22.961 -13.358  1.00  0.00     0.133 C 
HETATM    9 CL2  UNL     1      14.121  24.028 -13.740  1.00  0.00    -0.121 Cl
HETATM   10  C13 UNL     1      15.314  22.259 -12.054  1.00  0.00     0.156 C 
HETATM   11 CL3  UNL     1      14.712  20.590 -12.268  1.00  0.00    -0.097 Cl
HETATM   12 CL4  UNL     1      14.157  23.086 -10.979  1.00  0.00    -0.097 Cl
ENDROOT
BRANCH   1  13
HETATM   13  O1  UNL     1      17.053  20.866 -11.139  1.00  0.00    -0.392 OA
ATOM     14  H1  UNL     1      16.724  20.575 -10.296  1.00  0.00     0.210 HD
ENDBRANCH   1  13
BRANCH   6  15
HETATM   15  C6  UNL     1      18.068  25.915 -15.992  1.00  0.00    -0.040 A 
HETATM   16  C7  UNL     1      19.019  25.605 -16.939  1.00  0.00     0.025 A 
HETATM   17  C8  UNL     1      19.007  26.184 -18.189  1.00  0.00     0.089 A 
HETATM   18  N1  UNL     1      18.034  27.084 -18.495  1.00  0.00    -0.357 N 
HETATM   19  C9  UNL     1      17.084  27.422 -17.610  1.00  0.00     0.103 A 
ATOM     20  H1  UNL     1      18.025  27.513 -19.421  1.00  0.00     0.166 HD
HETATM   21 CL1  UNL     1      15.851  28.595 -18.074  1.00  0.00    -0.065 Cl
HETATM   22  C10 UNL     1      17.112  26.834 -16.373  1.00  0.00     0.050 A 
ENDBRANCH   6  15
TORSDOF 2
ENDMDL
MODEL 2
REMARK VINA RESULT: -5.495740302      4.602      6.190
REMARK  2 active torsions:
REMARK  status: ('A' for Active; 'I' for Inactive)
REMARK    1  A    between atoms: O1_1  and  C1_3 
REMARK    2  A    between atoms: C5_8  and  C6_9 
ROOT
HETATM    1  C1  UNL     1      16.295  28.490 -15.154  1.00  0.00     0.159 C 
HETATM    2  C2  UNL     1      17.086  27.323 -15.696  1.00  0.00     0.046 C 
HETATM    3  C3  UNL     1      17.623  26.585 -14.469  1.00  0.00    -0.008 C 
HETATM    4  C4  UNL     1      16.550  25.763 -13.902  1.00  0.00     0.085 C 
HETATM    5  S1  UNL     1      17.265  24.102 -13.741  1.00  0.00    -0.159 SA
HETATM    6  C5  UNL     1      18.644  24.402 -14.903  1.00  0.00     0.081 C 
HETATM    7  C11 UNL     1      18.839  25.857 -14.789  1.00  0.00     0.032 C 
HETATM    8  C12 UNL     1      17.885  27.754 -13.509  1.00  0.00     0.133 C 
HETATM    9 CL2  UNL     1      17.889  27.181 -11.827  1.00  0.00    -0.121 Cl
HETATM   10  C13 UNL     1      16.809  28.753 -13.765  1.00  0.00     0.156 C 
HETATM   11 CL3  UNL     1      17.426  30.430 -13.716  1.00  0.00    -0.097 Cl
HETATM   12 CL4  UNL     1      15.487  28.660 -12.573  1.00  0.00    -0.097 Cl
ENDROOT
BRANCH   1  13
HETATM   13  O1  UNL     1      16.401  29.614 -15.978  1.00  0.00    -0.392 OA
ATOM     14  H1  UNL     1      16.274  29.393 -16.893  1.00  0.00     0.210 HD
ENDBRANCH   1  13
BRANCH   6  15
HETATM   15  C6  UNL     1      19.780  23.558 -14.567  1.00  0.00    -0.040 A 
HETATM   16  C7  UNL     1      19.744  22.526 -13.656  1.00  0.00     0.025 A 
HETATM   17  C8  UNL     1      20.858  21.764 -13.385  1.00  0.00     0.089 A 
HETATM   18  N1  UNL     1      22.023  22.037 -14.033  1.00  0.00    -0.357 N 
HETATM   19  C9  UNL     1      22.114  23.031 -14.930  1.00  0.00     0.103 A 
ATOM     20  H1  UNL     1      22.849  21.473 -13.832  1.00  0.00     0.166 HD
HETATM   21 CL1  UNL     1      23.655  23.329 -15.733  1.00  0.00    -0.065 Cl
HETATM   22  C10 UNL     1      20.994  23.777 -15.186  1.00  0.00     0.050 A 
ENDBRANCH   6  15
TORSDOF 2
ENDMDL
MODEL 3
REMARK VINA RESULT: -5.389790075      3.585      4.282
REMARK  2 active torsions:
REMARK  status: ('A' for Active; 'I' for Inactive)
REMARK    1  A    between atoms: O1_1  and  C1_3 
REMARK    2  A    between atoms: C5_8  and  C6_9 
ROOT
HETATM    1  C1  UNL     1      21.625  21.318 -15.038  1.00  0.00     0.159 C 
HETATM    2  C2  UNL     1      21.394  22.399 -16.068  1.00  0.00     0.046 C 
HETATM    3  C3  UNL     1      20.195  23.202 -15.558  1.00  0.00    -0.008 C 
HETATM    4  C4  UNL     1      20.649  24.118 -14.507  1.00  0.00     0.085 C 
HETATM    5  S1  UNL     1      20.023  25.748 -15.001  1.00  0.00    -0.159 SA
HETATM    6  C5  UNL     1      19.731  25.291 -16.748  1.00  0.00     0.081 C 
HETATM    7  C11 UNL     1      19.491  23.841 -16.656  1.00  0.00     0.032 C 
HETATM    8  C12 UNL     1      19.356  22.098 -14.897  1.00  0.00     0.133 C 
HETATM    9 CL2  UNL     1      18.264  22.799 -13.683  1.00  0.00    -0.121 Cl
HETATM   10  C13 UNL     1      20.327  21.137 -14.300  1.00  0.00     0.156 C 
HETATM   11 CL3  UNL     1      19.806  19.441 -14.512  1.00  0.00    -0.097 Cl
HETATM   12 CL4  UNL     1      20.553  21.388 -12.550  1.00  0.00    -0.097 Cl
ENDROOT
BRANCH   1  13
HETATM   13  O1  UNL     1      22.067  20.130 -15.627  1.00  0.00    -0.392 OA
ATOM     14  H1  UNL     1      22.106  20.199 -16.574  1.00  0.00     0.210 HD
ENDBRANCH   1  13
BRANCH   6  15
HETATM   15  C6  UNL     1      18.661  26.101 -17.309  1.00  0.00    -0.040 A 
HETATM   16  C7  UNL     1      17.696  26.743 -16.566  1.00  0.00     0.025 A 
HETATM   17  C8  UNL     1      16.710  27.497 -17.163  1.00  0.00     0.089 A 
HETATM   18  N1  UNL     1      16.688  27.608 -18.519  1.00  0.00    -0.357 N 
HETATM   19  C9  UNL     1      17.604  27.003 -19.290  1.00  0.00     0.103 A 
ATOM     20  H1  UNL     1      15.957  28.166 -18.961  1.00  0.00     0.166 HD
HETATM   21 CL1  UNL     1      17.516  27.190 -21.041  1.00  0.00    -0.065 Cl
HETATM   22  C10 UNL     1      18.577  26.258 -18.677  1.00  0.00     0.050 A 
ENDBRANCH   6  15
TORSDOF 2
ENDMDL
MODEL 4
REMARK VINA RESULT: -5.366199781      4.302      6.259
REMARK  2 active torsions:
REMARK  status: ('A' for Active; 'I' for Inactive)
REMARK    1  A    between atoms: O1_1  and  C1_3 
REMARK    2  A    between atoms: C5_8  and  C6_9 
ROOT
HETATM    1  C1  UNL     1      16.171  28.715 -15.171  1.00  0.00     0.159 C 
HETATM    2  C2  UNL     1      16.976  27.590 -15.778  1.00  0.00     0.046 C 
HETATM    3  C3  UNL     1      17.566  26.822 -14.595  1.00  0.00    -0.008 C 
HETATM    4  C4  UNL     1      16.530  25.951 -14.031  1.00  0.00     0.085 C 
HETATM    5  S1  UNL     1      17.292  24.305 -13.952  1.00  0.00    -0.159 SA
HETATM    6  C5  UNL     1      18.630  24.685 -15.138  1.00  0.00     0.081 C 
HETATM    7  C11 UNL     1      18.791  26.139 -14.974  1.00  0.00     0.032 C 
HETATM    8  C12 UNL     1      17.824  27.961 -13.598  1.00  0.00     0.133 C 
HETATM    9 CL2  UNL     1      17.888  27.325 -11.939  1.00  0.00    -0.121 Cl
HETATM   10  C13 UNL     1      16.716  28.940 -13.787  1.00  0.00     0.156 C 
HETATM   11 CL3  UNL     1      17.291  30.629 -13.690  1.00  0.00    -0.097 Cl
HETATM   12 CL4  UNL     1      15.430  28.767 -12.565  1.00  0.00    -0.097 Cl
ENDROOT
BRANCH   1  13
HETATM   13  O1  UNL     1      16.226  29.872 -15.954  1.00  0.00    -0.392 OA
ATOM     14  H1  UNL     1      15.673  29.803 -16.724  1.00  0.00     0.210 HD
ENDBRANCH   1  13
BRANCH   6  15
HETATM   15  C6  UNL     1      19.796  23.859 -14.865  1.00  0.00    -0.040 A 
HETATM   16  C7  UNL     1      21.011  23.989 -15.499  1.00  0.00     0.025 A 
HETATM   17  C8  UNL     1      22.077  23.173 -15.191  1.00  0.00     0.089 A 
HETATM   18  N1  UNL     1      21.925  22.214 -14.237  1.00  0.00    -0.357 N 
HETATM   19  C9  UNL     1      20.762  22.044 -13.589  1.00  0.00     0.103 A 
ATOM     20  H1  UNL     1      22.714  21.610 -14.009  1.00  0.00     0.166 HD
HETATM   21 CL1  UNL     1      20.636  20.783 -12.363  1.00  0.00    -0.065 Cl
HETATM   22  C10 UNL     1      19.715  22.867 -13.909  1.00  0.00     0.050 A 
ENDBRANCH   6  15
TORSDOF 2
ENDMDL
MODEL 5
REMARK VINA RESULT: -5.254621324      4.832      6.128
REMARK  2 active torsions:
REMARK  status: ('A' for Active; 'I' for Inactive)
REMARK    1  A    between atoms: O1_1  and  C1_3 
REMARK    2  A    between atoms: C5_8  and  C6_9 
ROOT
HETATM    1  C1  UNL     1      18.577  28.282 -12.798  1.00  0.00     0.159 C 
HETATM    2  C2  UNL     1      17.814  29.458 -13.363  1.00  0.00     0.046 C 
HETATM    3  C3  UNL     1      16.503  28.879 -13.895  1.00  0.00    -0.008 C 
HETATM    4  C4  UNL     1      15.589  28.659 -12.770  1.00  0.00     0.085 C 
HETATM    5  S1  UNL     1      14.044  29.481 -13.252  1.00  0.00    -0.159 SA
HETATM    6  C5  UNL     1      14.806  30.518 -14.552  1.00  0.00     0.081 C 
HETATM    7  C11 UNL     1      15.963  29.705 -14.961  1.00  0.00     0.032 C 
HETATM    8  C12 UNL     1      16.967  27.507 -14.406  1.00  0.00     0.133 C 
HETATM    9 CL2  UNL     1      15.596  26.379 -14.475  1.00  0.00    -0.121 Cl
HETATM   10  C13 UNL     1      18.029  27.050 -13.464  1.00  0.00     0.156 C 
HETATM   11 CL3  UNL     1      19.377  26.242 -14.317  1.00  0.00    -0.097 Cl
HETATM   12 CL4  UNL     1      17.423  25.892 -12.253  1.00  0.00    -0.097 Cl
ENDROOT
BRANCH   1  13
HETATM   13  O1  UNL     1      19.955  28.419 -12.991  1.00  0.00    -0.392 OA
ATOM     14  H1  UNL     1      20.451  27.964 -12.321  1.00  0.00     0.210 HD
ENDBRANCH   1  13
BRANCH   6  15
HETATM   15  C6  UNL     1      13.828  30.837 -15.580  1.00  0.00    -0.040 A 
HETATM   16  C7  UNL     1      12.630  31.474 -15.348  1.00  0.00     0.025 A 
HETATM   17  C8  UNL     1      11.749  31.747 -16.371  1.00  0.00     0.089 A 
HETATM   18  N1  UNL     1      12.069  31.377 -17.640  1.00  0.00    -0.357 N 
HETATM   19  C9  UNL     1      13.222  30.752 -17.922  1.00  0.00     0.103 A 
ATOM     20  H1  UNL     1      11.416  31.579 -18.397  1.00  0.00     0.166 HD
HETATM   21 CL1  UNL     1      13.573  30.301 -19.590  1.00  0.00    -0.065 Cl
HETATM   22  C10 UNL     1      14.086  30.491 -16.891  1.00  0.00     0.050 A 
ENDBRANCH   6  15
TORSDOF 2
ENDMDL
