MODEL 1
REMARK VINA RESULT: -7.065683133      0.000      0.000
REMARK  1 active torsions:
REMARK  status: ('A' for Active; 'I' for Inactive)
REMARK    1  A    between atoms: C6_12  and  N3_13 
ROOT
HETATM    1  C1  UNL     1      17.323  27.304 -20.423  1.00  0.00     0.070 C 
HETATM    2  C2  UNL     1      17.573  26.980 -18.990  1.00  0.00     0.036 A 
HETATM    3  N1  UNL     1      18.426  25.977 -18.704  1.00  0.00    -0.347 N 
ATOM      4  H1  UNL     1      18.877  25.467 -19.463  1.00  0.00     0.167 HD
HETATM    5  C3  UNL     1      18.688  25.641 -17.428  1.00  0.00     0.128 A 
HETATM    6 CL1  UNL     1      19.804  24.330 -17.095  1.00  0.00    -0.062 Cl
HETATM    7  C4  UNL     1      18.072  26.339 -16.413  1.00  0.00     0.102 A 
HETATM    8 CL2  UNL     1      18.398  25.920 -14.723  1.00  0.00    -0.078 Cl
HETATM    9  C5  UNL     1      17.197  27.367 -16.673  1.00  0.00     0.103 A 
HETATM   10  N2  UNL     1      16.471  28.198 -15.878  1.00  0.00    -0.188 N 
ATOM     11  H2  UNL     1      16.454  28.195 -14.859  1.00  0.00     0.184 HD
HETATM   12  C6  UNL     1      15.779  29.025 -16.682  1.00  0.00     0.684 A 
HETATM   13  N4  UNL     1      16.069  28.713 -17.957  1.00  0.00    -0.187 N 
ATOM     14  H4  UNL     1      15.685  29.180 -18.778  1.00  0.00     0.184 HD
HETATM   15  C12 UNL     1      16.948  27.687 -17.988  1.00  0.00     0.100 A 
ENDROOT
BRANCH  12  16
HETATM   16  N3  UNL     1      14.904  30.036 -16.201  1.00  0.00    -0.175 N 
HETATM   17  C7  UNL     1      13.680  30.461 -16.814  1.00  0.00     0.120 C 
HETATM   18  C8  UNL     1      13.862  30.894 -18.249  1.00  0.00     0.034 C 
HETATM   19  C9  UNL     1      13.120  31.522 -15.932  1.00  0.00     0.110 C 
HETATM   20 CL3  UNL     1      12.628  32.984 -16.801  1.00  0.00    -0.123 Cl
HETATM   21  C10 UNL     1      14.178  31.890 -14.927  1.00  0.00     0.088 C 
HETATM   22  C11 UNL     1      15.171  30.781 -14.980  1.00  0.00     0.205 C 
HETATM   23 CL4  UNL     1      15.020  29.657 -13.596  1.00  0.00    -0.077 Cl
HETATM   24 CL5  UNL     1      16.845  31.391 -15.114  1.00  0.00    -0.077 Cl
ENDBRANCH  12  16
TORSDOF 1
ENDMDL
MODEL 2
REMARK VINA RESULT: -6.976671068      2.165      6.774
REMARK  1 active torsions:
REMARK  status: ('A' for Active; 'I' for Inactive)
REMARK    1  A    between atoms: C6_12  and  N3_13 
ROOT
HETATM    1  C1  UNL     1      15.717  31.017 -14.273  1.00  0.00     0.070 C 
HETATM    2  C2  UNL     1      15.192  30.595 -15.603  1.00  0.00     0.036 A 
HETATM    3  N1  UNL     1      14.198  31.320 -16.153  1.00  0.00    -0.347 N 
ATOM      4  H1  UNL     1      13.829  32.130 -15.656  1.00  0.00     0.167 HD
HETATM    5  C3  UNL     1      13.687  30.985 -17.353  1.00  0.00     0.128 A 
HETATM    6 CL1  UNL     1      12.394  31.952 -18.036  1.00  0.00    -0.062 Cl
HETATM    7  C4  UNL     1      14.195  29.888 -18.013  1.00  0.00     0.102 A 
HETATM    8 CL2  UNL     1      13.542  29.423 -19.592  1.00  0.00    -0.078 Cl
HETATM    9  C5  UNL     1      15.209  29.130 -17.477  1.00  0.00     0.103 A 
HETATM   10  N2  UNL     1      15.876  28.027 -17.908  1.00  0.00    -0.188 N 
ATOM     11  H2  UNL     1      15.719  27.531 -18.785  1.00  0.00     0.184 HD
HETATM   12  C6  UNL     1      16.782  27.707 -16.967  1.00  0.00     0.684 A 
HETATM   13  N4  UNL     1      16.678  28.598 -15.965  1.00  0.00    -0.187 N 
ATOM     14  H4  UNL     1      17.245  28.597 -15.117  1.00  0.00     0.184 HD
HETATM   15  C12 UNL     1      15.711  29.497 -16.250  1.00  0.00     0.100 A 
ENDROOT
BRANCH  12  16
HETATM   16  N3  UNL     1      17.667  26.602 -17.073  1.00  0.00    -0.175 N 
HETATM   17  C7  UNL     1      17.984  25.665 -16.035  1.00  0.00     0.120 C 
HETATM   18  C8  UNL     1      18.500  26.330 -14.781  1.00  0.00     0.034 C 
HETATM   19  C9  UNL     1      18.935  24.687 -16.632  1.00  0.00     0.110 C 
HETATM   20 CL3  UNL     1      20.372  24.396 -15.642  1.00  0.00    -0.123 Cl
HETATM   21  C10 UNL     1      19.369  25.227 -17.968  1.00  0.00     0.088 C 
HETATM   22  C11 UNL     1      18.379  26.289 -18.303  1.00  0.00     0.205 C 
HETATM   23 CL4  UNL     1      17.183  25.754 -19.520  1.00  0.00    -0.077 Cl
HETATM   24 CL5  UNL     1      19.175  27.800 -18.826  1.00  0.00    -0.077 Cl
ENDBRANCH  12  16
TORSDOF 1
ENDMDL
MODEL 3
REMARK VINA RESULT: -6.933772476      4.326      5.218
REMARK  1 active torsions:
REMARK  status: ('A' for Active; 'I' for Inactive)
REMARK    1  A    between atoms: C6_12  and  N3_13 
ROOT
HETATM    1  C1  UNL     1      19.535  25.144 -17.808  1.00  0.00     0.070 C 
HETATM    2  C2  UNL     1      19.744  24.331 -16.576  1.00  0.00     0.036 A 
HETATM    3  N1  UNL     1      20.694  23.376 -16.598  1.00  0.00    -0.347 N 
ATOM      4  H1  UNL     1      21.243  23.230 -17.445  1.00  0.00     0.167 HD
HETATM    5  C3  UNL     1      20.926  22.612 -15.515  1.00  0.00     0.128 A 
HETATM    6 CL1  UNL     1      22.171  21.379 -15.582  1.00  0.00    -0.062 Cl
HETATM    7  C4  UNL     1      20.176  22.819 -14.378  1.00  0.00     0.102 A 
HETATM    8 CL2  UNL     1      20.459  21.830 -12.937  1.00  0.00    -0.078 Cl
HETATM    9  C5  UNL     1      19.200  23.786 -14.325  1.00  0.00     0.103 A 
HETATM   10  N2  UNL     1      18.338  24.189 -13.354  1.00  0.00    -0.188 N 
ATOM     11  H2  UNL     1      18.267  23.803 -12.413  1.00  0.00     0.184 HD
HETATM   12  C6  UNL     1      17.597  25.191 -13.859  1.00  0.00     0.684 A 
HETATM   13  N4  UNL     1      17.991  25.406 -15.127  1.00  0.00    -0.187 N 
ATOM     14  H4  UNL     1      17.598  26.110 -15.753  1.00  0.00     0.184 HD
HETATM   15  C12 UNL     1      18.986  24.551 -15.448  1.00  0.00     0.100 A 
ENDROOT
BRANCH  12  16
HETATM   16  N3  UNL     1      16.583  25.863 -13.127  1.00  0.00    -0.175 N 
HETATM   17  C7  UNL     1      15.433  25.261 -12.519  1.00  0.00     0.120 C 
HETATM   18  C8  UNL     1      14.603  24.463 -13.496  1.00  0.00     0.034 C 
HETATM   19  C9  UNL     1      14.685  26.366 -11.857  1.00  0.00     0.110 C 
HETATM   20 CL3  UNL     1      12.955  26.378 -12.229  1.00  0.00    -0.123 Cl
HETATM   21  C10 UNL     1      15.288  27.667 -12.315  1.00  0.00     0.088 C 
HETATM   22  C11 UNL     1      16.605  27.302 -12.907  1.00  0.00     0.205 C 
HETATM   23 CL4  UNL     1      17.975  27.679 -11.820  1.00  0.00    -0.077 Cl
HETATM   24 CL5  UNL     1      16.848  28.056 -14.508  1.00  0.00    -0.077 Cl
ENDBRANCH  12  16
TORSDOF 1
ENDMDL
MODEL 4
REMARK VINA RESULT: -6.832039594      4.603      5.787
REMARK  1 active torsions:
REMARK  status: ('A' for Active; 'I' for Inactive)
REMARK    1  A    between atoms: C6_12  and  N3_13 
ROOT
HETATM    1  C1  UNL     1      18.735  23.116 -12.927  1.00  0.00     0.070 C 
HETATM    2  C2  UNL     1      17.279  23.259 -12.641  1.00  0.00     0.036 A 
HETATM    3  N1  UNL     1      16.568  22.143 -12.385  1.00  0.00    -0.347 N 
ATOM      4  H1  UNL     1      17.034  21.236 -12.392  1.00  0.00     0.167 HD
HETATM    5  C3  UNL     1      15.251  22.213 -12.120  1.00  0.00     0.128 A 
HETATM    6 CL1  UNL     1      14.360  20.739 -11.791  1.00  0.00    -0.062 Cl
HETATM    7  C4  UNL     1      14.635  23.445 -12.114  1.00  0.00     0.102 A 
HETATM    8 CL2  UNL     1      12.902  23.569 -11.769  1.00  0.00    -0.078 Cl
HETATM    9  C5  UNL     1      15.334  24.601 -12.372  1.00  0.00     0.103 A 
HETATM   10  N2  UNL     1      14.979  25.913 -12.427  1.00  0.00    -0.188 N 
ATOM     11  H2  UNL     1      14.045  26.291 -12.272  1.00  0.00     0.184 HD
HETATM   12  C6  UNL     1      16.084  26.619 -12.724  1.00  0.00     0.684 A 
HETATM   13  N4  UNL     1      17.110  25.760 -12.853  1.00  0.00    -0.187 N 
ATOM     14  H4  UNL     1      18.070  26.021 -13.077  1.00  0.00     0.184 HD
HETATM   15  C12 UNL     1      16.679  24.498 -12.639  1.00  0.00     0.100 A 
ENDROOT
BRANCH  12  16
HETATM   16  N3  UNL     1      16.097  28.032 -12.866  1.00  0.00    -0.175 N 
HETATM   17  C7  UNL     1      15.220  28.959 -12.213  1.00  0.00     0.120 C 
HETATM   18  C8  UNL     1      13.760  28.657 -12.455  1.00  0.00     0.034 C 
HETATM   19  C9  UNL     1      15.637  30.316 -12.665  1.00  0.00     0.110 C 
HETATM   20 CL3  UNL     1      14.293  31.327 -13.216  1.00  0.00    -0.123 Cl
HETATM   21  C10 UNL     1      16.609  30.143 -13.801  1.00  0.00     0.088 C 
HETATM   22  C11 UNL     1      17.045  28.720 -13.730  1.00  0.00     0.205 C 
HETATM   23 CL4  UNL     1      18.678  28.536 -13.024  1.00  0.00    -0.077 Cl
HETATM   24 CL5  UNL     1      16.955  27.916 -15.323  1.00  0.00    -0.077 Cl
ENDBRANCH  12  16
TORSDOF 1
ENDMDL
MODEL 5
REMARK VINA RESULT: -6.722636942      1.720      6.452
REMARK  1 active torsions:
REMARK  status: ('A' for Active; 'I' for Inactive)
REMARK    1  A    between atoms: C6_12  and  N3_13 
ROOT
HETATM    1  C1  UNL     1      13.854  29.045 -19.880  1.00  0.00     0.070 C 
HETATM    2  C2  UNL     1      14.323  29.459 -18.527  1.00  0.00     0.036 A 
HETATM    3  N1  UNL     1      13.749  30.537 -17.958  1.00  0.00    -0.347 N 
ATOM      4  H1  UNL     1      13.016  31.040 -18.457  1.00  0.00     0.167 HD
HETATM    5  C3  UNL     1      14.133  30.955 -16.737  1.00  0.00     0.128 A 
HETATM    6 CL1  UNL     1      13.362  32.362 -16.029  1.00  0.00    -0.062 Cl
HETATM    7  C4  UNL     1      15.124  30.265 -16.076  1.00  0.00     0.102 A 
HETATM    8 CL2  UNL     1      15.651  30.792 -14.469  1.00  0.00    -0.078 Cl
HETATM    9  C5  UNL     1      15.728  29.162 -16.632  1.00  0.00     0.103 A 
HETATM   10  N2  UNL     1      16.707  28.320 -16.204  1.00  0.00    -0.188 N 
ATOM     11  H2  UNL     1      17.202  28.373 -15.314  1.00  0.00     0.184 HD
HETATM   12  C6  UNL     1      16.903  27.403 -17.168  1.00  0.00     0.684 A 
HETATM   13  N4  UNL     1      16.060  27.672 -18.181  1.00  0.00    -0.187 N 
ATOM     14  H4  UNL     1      15.992  27.136 -19.046  1.00  0.00     0.184 HD
HETATM   15  C12 UNL     1      15.315  28.758 -17.879  1.00  0.00     0.100 A 
ENDROOT
BRANCH  12  16
HETATM   16  N3  UNL     1      17.856  26.355 -17.072  1.00  0.00    -0.175 N 
HETATM   17  C7  UNL     1      18.108  25.539 -15.921  1.00  0.00     0.120 C 
HETATM   18  C8  UNL     1      18.441  26.347 -14.690  1.00  0.00     0.034 C 
HETATM   19  C9  UNL     1      19.175  24.578 -16.317  1.00  0.00     0.110 C 
HETATM   20 CL3  UNL     1      20.507  24.475 -15.156  1.00  0.00    -0.123 Cl
HETATM   21  C10 UNL     1      19.724  25.024 -17.645  1.00  0.00     0.088 C 
HETATM   22  C11 UNL     1      18.719  25.982 -18.184  1.00  0.00     0.205 C 
HETATM   23 CL4  UNL     1      17.699  25.261 -19.464  1.00  0.00    -0.077 Cl
HETATM   24 CL5  UNL     1      19.480  27.491 -18.763  1.00  0.00    -0.077 Cl
ENDBRANCH  12  16
TORSDOF 1
ENDMDL
