MODEL 1
REMARK VINA RESULT: -6.440195960      0.000      0.000
REMARK  3 active torsions:
REMARK  status: ('A' for Active; 'I' for Inactive)
REMARK    1  A    between atoms: C5_5  and  C6_7 
REMARK    2  A    between atoms: C6_7  and  O2_9 
REMARK    3  A    between atoms: O2_9  and  C7_10 
ROOT
HETATM    1  C1  UNL     1      18.683  24.778 -16.229  1.00  0.00     0.038 C 
HETATM    2  C2  UNL     1      18.469  24.723 -14.718  1.00  0.00     0.025 C 
HETATM    3  C3  UNL     1      19.411  23.694 -14.175  1.00  0.00     0.038 C 
HETATM    4  C4  UNL     1      17.019  24.383 -14.499  1.00  0.00     0.071 C 
HETATM    5  C5  UNL     1      16.552  24.799 -13.107  1.00  0.00     0.156 C 
HETATM    6 CL1  UNL     1      17.611  24.214 -11.843  1.00  0.00    -0.103 Cl
HETATM    7  C8  UNL     1      16.610  26.284 -13.095  1.00  0.00     0.003 A 
HETATM    8  C9  UNL     1      15.607  27.042 -12.549  1.00  0.00     0.035 A 
HETATM    9  C10 UNL     1      15.658  28.421 -12.537  1.00  0.00     0.034 A 
HETATM   10 CL5  UNL     1      14.411  29.428 -11.857  1.00  0.00    -0.084 Cl
HETATM   11  C11 UNL     1      16.791  28.984 -13.113  1.00  0.00     0.026 A 
HETATM   12  C12 UNL     1      17.803  28.250 -13.664  1.00  0.00     0.031 A 
HETATM   13  C13 UNL     1      17.722  26.868 -13.661  1.00  0.00     0.037 A 
HETATM   14  N1  UNL     1      18.746  26.053 -14.218  1.00  0.00    -0.381 N 
ATOM     15  H1  UNL     1      19.698  26.414 -14.267  1.00  0.00     0.160 HD
ENDROOT
BRANCH   5  16
HETATM   16  C6  UNL     1      15.206  24.269 -12.924  1.00  0.00     0.291 C 
HETATM   17  O1  UNL     1      14.379  24.358 -13.865  1.00  0.00    -0.263 OA
BRANCH  16  18
HETATM   18  O2  UNL     1      14.752  23.655 -11.761  1.00  0.00    -0.263 OA
BRANCH  18  19
HETATM   19  C7  UNL     1      14.283  22.299 -11.806  1.00  0.00     0.305 C 
HETATM   20 CL2  UNL     1      12.534  22.284 -12.120  1.00  0.00    -0.053 Cl
HETATM   21 CL3  UNL     1      14.604  21.562 -10.198  1.00  0.00    -0.053 Cl
HETATM   22 CL4  UNL     1      15.183  21.393 -13.037  1.00  0.00    -0.053 Cl
ENDBRANCH  18  19
ENDBRANCH  16  18
ENDBRANCH   5  16
TORSDOF 3
ENDMDL
MODEL 2
REMARK VINA RESULT: -6.234872081      4.380      6.722
REMARK  3 active torsions:
REMARK  status: ('A' for Active; 'I' for Inactive)
REMARK    1  A    between atoms: C5_5  and  C6_7 
REMARK    2  A    between atoms: C6_7  and  O2_9 
REMARK    3  A    between atoms: O2_9  and  C7_10 
ROOT
HETATM    1  C1  UNL     1      15.106  33.379 -12.610  1.00  0.00     0.038 C 
HETATM    2  C2  UNL     1      14.645  31.936 -12.800  1.00  0.00     0.025 C 
HETATM    3  C3  UNL     1      14.134  31.457 -11.477  1.00  0.00     0.038 C 
HETATM    4  C4  UNL     1      15.838  31.163 -13.297  1.00  0.00     0.071 C 
HETATM    5  C5  UNL     1      15.416  29.882 -14.009  1.00  0.00     0.156 C 
HETATM    6 CL1  UNL     1      14.303  28.923 -13.058  1.00  0.00    -0.103 Cl
HETATM    7  C8  UNL     1      14.701  30.324 -15.234  1.00  0.00     0.003 A 
HETATM    8  C9  UNL     1      14.911  29.725 -16.449  1.00  0.00     0.035 A 
HETATM    9  C10 UNL     1      14.248  30.134 -17.588  1.00  0.00     0.034 A 
HETATM   10 CL5  UNL     1      14.479  29.408 -19.154  1.00  0.00    -0.084 Cl
HETATM   11  C11 UNL     1      13.358  31.188 -17.418  1.00  0.00     0.026 A 
HETATM   12  C12 UNL     1      13.132  31.801 -16.218  1.00  0.00     0.031 A 
HETATM   13  C13 UNL     1      13.813  31.367 -15.094  1.00  0.00     0.037 A 
HETATM   14  N1  UNL     1      13.617  31.966 -13.818  1.00  0.00    -0.381 N 
ATOM     15  H1  UNL     1      12.731  32.428 -13.617  1.00  0.00     0.160 HD
ENDROOT
BRANCH   5  16
HETATM   16  C6  UNL     1      16.629  29.120 -14.287  1.00  0.00     0.291 C 
HETATM   17  O1  UNL     1      17.746  29.675 -14.148  1.00  0.00    -0.263 OA
BRANCH  16  18
HETATM   18  O2  UNL     1      16.647  27.793 -14.703  1.00  0.00    -0.263 OA
BRANCH  18  19
HETATM   19  C7  UNL     1      17.283  26.798 -13.888  1.00  0.00     0.305 C 
HETATM   20 CL2  UNL     1      18.904  26.449 -14.529  1.00  0.00    -0.053 Cl
HETATM   21 CL3  UNL     1      16.279  25.308 -13.969  1.00  0.00    -0.053 Cl
HETATM   22 CL4  UNL     1      17.344  27.351 -12.204  1.00  0.00    -0.053 Cl
ENDBRANCH  18  19
ENDBRANCH  16  18
ENDBRANCH   5  16
TORSDOF 3
ENDMDL
MODEL 3
REMARK VINA RESULT: -6.046316277      4.187      6.078
REMARK  3 active torsions:
REMARK  status: ('A' for Active; 'I' for Inactive)
REMARK    1  A    between atoms: C5_5  and  C6_7 
REMARK    2  A    between atoms: C6_7  and  O2_9 
REMARK    3  A    between atoms: O2_9  and  C7_10 
ROOT
HETATM    1  C1  UNL     1      18.196  28.267 -13.313  1.00  0.00     0.038 C 
HETATM    2  C2  UNL     1      17.881  26.937 -13.994  1.00  0.00     0.025 C 
HETATM    3  C3  UNL     1      17.339  26.019 -12.943  1.00  0.00     0.038 C 
HETATM    4  C4  UNL     1      19.166  26.451 -14.609  1.00  0.00     0.071 C 
HETATM    5  C5  UNL     1      18.906  25.446 -15.727  1.00  0.00     0.156 C 
HETATM    6 CL1  UNL     1      17.831  24.157 -15.231  1.00  0.00    -0.103 Cl
HETATM    7  C8  UNL     1      18.226  26.214 -16.802  1.00  0.00     0.003 A 
HETATM    8  C9  UNL     1      18.560  26.061 -18.123  1.00  0.00     0.035 A 
HETATM    9  C10 UNL     1      17.931  26.773 -19.123  1.00  0.00     0.034 A 
HETATM   10 CL5  UNL     1      18.318  26.615 -20.813  1.00  0.00    -0.084 Cl
HETATM   11  C11 UNL     1      16.939  27.651 -18.701  1.00  0.00     0.026 A 
HETATM   12  C12 UNL     1      16.589  27.822 -17.391  1.00  0.00     0.031 A 
HETATM   13  C13 UNL     1      17.240  27.093 -16.411  1.00  0.00     0.037 A 
HETATM   14  N1  UNL     1      16.916  27.228 -15.032  1.00  0.00    -0.381 N 
ATOM     15  H1  UNL     1      15.981  27.538 -14.769  1.00  0.00     0.160 HD
ENDROOT
BRANCH   5  16
HETATM   16  C6  UNL     1      20.197  24.900 -16.131  1.00  0.00     0.291 C 
HETATM   17  O1  UNL     1      21.160  25.683 -16.322  1.00  0.00    -0.263 OA
BRANCH  16  18
HETATM   18  O2  UNL     1      20.454  23.547 -16.324  1.00  0.00    -0.263 OA
BRANCH  18  19
HETATM   19  C7  UNL     1      21.244  22.827 -15.366  1.00  0.00     0.305 C 
HETATM   20 CL2  UNL     1      22.948  23.311 -15.514  1.00  0.00    -0.053 Cl
HETATM   21 CL3  UNL     1      21.089  21.075 -15.744  1.00  0.00    -0.053 Cl
HETATM   22 CL4  UNL     1      20.615  23.113 -13.733  1.00  0.00    -0.053 Cl
ENDBRANCH  18  19
ENDBRANCH  16  18
ENDBRANCH   5  16
TORSDOF 3
ENDMDL
MODEL 4
REMARK VINA RESULT: -5.785810536      5.415      7.760
REMARK  3 active torsions:
REMARK  status: ('A' for Active; 'I' for Inactive)
REMARK    1  A    between atoms: C5_5  and  C6_7 
REMARK    2  A    between atoms: C6_7  and  O2_9 
REMARK    3  A    between atoms: O2_9  and  C7_10 
ROOT
HETATM    1  C1  UNL     1      12.800  33.405 -17.496  1.00  0.00     0.038 C 
HETATM    2  C2  UNL     1      12.842  32.119 -16.673  1.00  0.00     0.025 C 
HETATM    3  C3  UNL     1      11.686  32.164 -15.723  1.00  0.00     0.038 C 
HETATM    4  C4  UNL     1      14.181  32.090 -15.985  1.00  0.00     0.071 C 
HETATM    5  C5  UNL     1      14.565  30.674 -15.570  1.00  0.00     0.156 C 
HETATM    6 CL1  UNL     1      13.295  29.873 -14.671  1.00  0.00    -0.103 Cl
HETATM    7  C8  UNL     1      14.763  29.926 -16.839  1.00  0.00     0.003 A 
HETATM    8  C9  UNL     1      15.819  29.071 -17.017  1.00  0.00     0.035 A 
HETATM    9  C10 UNL     1      16.005  28.376 -18.194  1.00  0.00     0.034 A 
HETATM   10 CL5  UNL     1      17.328  27.279 -18.471  1.00  0.00    -0.084 Cl
HETATM   11  C11 UNL     1      15.052  28.602 -19.181  1.00  0.00     0.026 A 
HETATM   12  C12 UNL     1      13.992  29.450 -19.027  1.00  0.00     0.031 A 
HETATM   13  C13 UNL     1      13.833  30.133 -17.834  1.00  0.00     0.037 A 
HETATM   14  N1  UNL     1      12.748  31.027 -17.617  1.00  0.00    -0.381 N 
ATOM     15  H1  UNL     1      11.883  30.895 -18.139  1.00  0.00     0.160 HD
ENDROOT
BRANCH   5  16
HETATM   16  C6  UNL     1      15.774  30.771 -14.759  1.00  0.00     0.291 C 
HETATM   17  O1  UNL     1      15.884  31.711 -13.934  1.00  0.00    -0.263 OA
BRANCH  16  18
HETATM   18  O2  UNL     1      16.842  29.882 -14.827  1.00  0.00    -0.263 OA
BRANCH  18  19
HETATM   19  C7  UNL     1      17.058  28.944 -13.762  1.00  0.00     0.305 C 
HETATM   20 CL2  UNL     1      18.572  29.338 -12.919  1.00  0.00    -0.053 Cl
HETATM   21 CL3  UNL     1      17.197  27.310 -14.500  1.00  0.00    -0.053 Cl
HETATM   22 CL4  UNL     1      15.667  28.955 -12.662  1.00  0.00    -0.053 Cl
ENDBRANCH  18  19
ENDBRANCH  16  18
ENDBRANCH   5  16
TORSDOF 3
ENDMDL
MODEL 5
REMARK VINA RESULT: -5.732327390      4.203      6.801
REMARK  3 active torsions:
REMARK  status: ('A' for Active; 'I' for Inactive)
REMARK    1  A    between atoms: C5_5  and  C6_7 
REMARK    2  A    between atoms: C6_7  and  O2_9 
REMARK    3  A    between atoms: O2_9  and  C7_10 
ROOT
HETATM    1  C1  UNL     1      15.647  24.521 -13.656  1.00  0.00     0.038 C 
HETATM    2  C2  UNL     1      17.047  25.117 -13.780  1.00  0.00     0.025 C 
HETATM    3  C3  UNL     1      17.003  26.482 -13.164  1.00  0.00     0.038 C 
HETATM    4  C4  UNL     1      17.381  25.134 -15.248  1.00  0.00     0.071 C 
HETATM    5  C5  UNL     1      18.888  25.204 -15.477  1.00  0.00     0.156 C 
HETATM    6 CL1  UNL     1      19.644  26.495 -14.569  1.00  0.00    -0.103 Cl
HETATM    7  C8  UNL     1      19.428  23.916 -14.969  1.00  0.00     0.003 A 
HETATM    8  C9  UNL     1      20.381  23.210 -15.657  1.00  0.00     0.035 A 
HETATM    9  C10 UNL     1      20.884  22.014 -15.187  1.00  0.00     0.034 A 
HETATM   10 CL5  UNL     1      22.093  21.080 -16.022  1.00  0.00    -0.084 Cl
HETATM   11  C11 UNL     1      20.360  21.578 -13.976  1.00  0.00     0.026 A 
HETATM   12  C12 UNL     1      19.410  22.263 -13.272  1.00  0.00     0.031 A 
HETATM   13  C13 UNL     1      18.926  23.460 -13.770  1.00  0.00     0.037 A 
HETATM   14  N1  UNL     1      17.938  24.217 -13.081  1.00  0.00    -0.381 N 
ATOM     15  H1  UNL     1      17.856  24.123 -12.069  1.00  0.00     0.160 HD
ENDROOT
BRANCH   5  16
HETATM   16  C6  UNL     1      19.101  25.400 -16.907  1.00  0.00     0.291 C 
HETATM   17  O1  UNL     1      20.272  25.543 -17.337  1.00  0.00    -0.263 OA
BRANCH  16  18
HETATM   18  O2  UNL     1      18.086  25.440 -17.856  1.00  0.00    -0.263 OA
BRANCH  18  19
HETATM   19  C7  UNL     1      17.790  26.671 -18.532  1.00  0.00     0.305 C 
HETATM   20 CL2  UNL     1      16.964  27.781 -17.416  1.00  0.00    -0.053 Cl
HETATM   21 CL3  UNL     1      16.693  26.285 -19.905  1.00  0.00    -0.053 Cl
HETATM   22 CL4  UNL     1      19.284  27.375 -19.178  1.00  0.00    -0.053 Cl
ENDBRANCH  18  19
ENDBRANCH  16  18
ENDBRANCH   5  16
TORSDOF 3
ENDMDL
