MODEL 1
REMARK VINA RESULT: -5.869042919      0.000      0.000
REMARK  1 active torsions:
REMARK  status: ('A' for Active; 'I' for Inactive)
REMARK    1  A    between atoms: C3_3  and  C4_4 
ROOT
HETATM    1  C1  UNL     1      16.213  24.337 -14.025  1.00  0.00     0.069 C 
HETATM    2  C2  UNL     1      17.691  24.343 -14.173  1.00  0.00     0.028 A 
HETATM    3  C3  UNL     1      18.420  25.379 -14.714  1.00  0.00     0.068 A 
HETATM    4  C10 UNL     1      19.799  25.354 -14.838  1.00  0.00     0.262 A 
HETATM    5  O1  UNL     1      20.437  26.328 -15.341  1.00  0.00    -0.267 OA
HETATM    6  N1  UNL     1      20.415  24.242 -14.395  1.00  0.00    -0.275 N 
ATOM      7  H1  UNL     1      21.431  24.184 -14.469  1.00  0.00     0.173 HD
HETATM    8  C11 UNL     1      19.746  23.203 -13.859  1.00  0.00     0.329 A 
HETATM    9  O2  UNL     1      20.385  22.192 -13.464  1.00  0.00    -0.246 OA
HETATM   10  N2  UNL     1      18.391  23.272 -13.757  1.00  0.00    -0.307 N 
HETATM   11  C12 UNL     1      17.697  22.118 -13.167  1.00  0.00     0.161 C 
ENDROOT
BRANCH   3  12
HETATM   12  C4  UNL     1      17.690  26.535 -15.165  1.00  0.00     0.029 A 
HETATM   13  C5  UNL     1      17.425  26.684 -16.495  1.00  0.00     0.070 A 
HETATM   14 CL1  UNL     1      17.946  25.496 -17.717  1.00  0.00    -0.081 Cl
HETATM   15  C6  UNL     1      16.728  27.781 -16.945  1.00  0.00     0.080 A 
HETATM   16 CL2  UNL     1      16.370  28.004 -18.646  1.00  0.00    -0.081 Cl
HETATM   17  C7  UNL     1      16.298  28.738 -16.030  1.00  0.00     0.081 A 
HETATM   18 CL3  UNL     1      15.405  30.161 -16.542  1.00  0.00    -0.081 Cl
HETATM   19  C8  UNL     1      16.563  28.594 -14.685  1.00  0.00     0.080 A 
HETATM   20 CL4  UNL     1      16.034  29.785 -13.505  1.00  0.00    -0.081 Cl
HETATM   21  C9  UNL     1      17.264  27.482 -14.271  1.00  0.00     0.070 A 
HETATM   22 CL5  UNL     1      17.593  27.321 -12.519  1.00  0.00    -0.081 Cl
ENDBRANCH   3  12
TORSDOF 1
ENDMDL
MODEL 2
REMARK VINA RESULT: -5.856603741      0.023      2.611
REMARK  1 active torsions:
REMARK  status: ('A' for Active; 'I' for Inactive)
REMARK    1  A    between atoms: C3_3  and  C4_4 
ROOT
HETATM    1  C1  UNL     1      16.213  24.344 -14.020  1.00  0.00     0.069 C 
HETATM    2  C2  UNL     1      17.691  24.351 -14.170  1.00  0.00     0.028 A 
HETATM    3  C3  UNL     1      18.419  25.387 -14.711  1.00  0.00     0.068 A 
HETATM    4  C10 UNL     1      19.797  25.363 -14.838  1.00  0.00     0.262 A 
HETATM    5  O1  UNL     1      20.434  26.338 -15.342  1.00  0.00    -0.267 OA
HETATM    6  N1  UNL     1      20.415  24.252 -14.397  1.00  0.00    -0.275 N 
ATOM      7  H1  UNL     1      21.431  24.194 -14.472  1.00  0.00     0.173 HD
HETATM    8  C11 UNL     1      19.747  23.212 -13.860  1.00  0.00     0.329 A 
HETATM    9  O2  UNL     1      20.388  22.201 -13.467  1.00  0.00    -0.246 OA
HETATM   10  N2  UNL     1      18.393  23.280 -13.755  1.00  0.00    -0.307 N 
HETATM   11  C12 UNL     1      17.700  22.126 -13.165  1.00  0.00     0.161 C 
ENDROOT
BRANCH   3  12
HETATM   12  C4  UNL     1      17.687  26.543 -15.161  1.00  0.00     0.029 A 
HETATM   13  C5  UNL     1      17.272  27.471 -14.252  1.00  0.00     0.070 A 
HETATM   14 CL1  UNL     1      17.599  27.318 -12.507  1.00  0.00    -0.081 Cl
HETATM   15  C6  UNL     1      16.573  28.581 -14.663  1.00  0.00     0.080 A 
HETATM   16 CL2  UNL     1      16.024  29.793 -13.522  1.00  0.00    -0.081 Cl
HETATM   17  C7  UNL     1      16.292  28.747 -16.017  1.00  0.00     0.081 A 
HETATM   18 CL3  UNL     1      15.402  30.143 -16.604  1.00  0.00    -0.081 Cl
HETATM   19  C8  UNL     1      16.708  27.814 -16.941  1.00  0.00     0.080 A 
HETATM   20 CL4  UNL     1      16.369  27.995 -18.657  1.00  0.00    -0.081 Cl
HETATM   21  C9  UNL     1      17.406  26.714 -16.492  1.00  0.00     0.070 A 
HETATM   22 CL5  UNL     1      17.934  25.518 -17.715  1.00  0.00    -0.081 Cl
ENDBRANCH   3  12
TORSDOF 1
ENDMDL
MODEL 3
REMARK VINA RESULT: -5.849687750      3.409      5.760
REMARK  1 active torsions:
REMARK  status: ('A' for Active; 'I' for Inactive)
REMARK    1  A    between atoms: C3_3  and  C4_4 
ROOT
HETATM    1  C1  UNL     1      17.504  27.285 -12.574  1.00  0.00     0.069 C 
HETATM    2  C2  UNL     1      17.238  27.544 -14.012  1.00  0.00     0.028 A 
HETATM    3  C3  UNL     1      17.432  26.629 -15.023  1.00  0.00     0.068 A 
HETATM    4  C10 UNL     1      17.176  26.902 -16.355  1.00  0.00     0.262 A 
HETATM    5  O1  UNL     1      17.367  26.034 -17.259  1.00  0.00    -0.267 OA
HETATM    6  N1  UNL     1      16.714  28.137 -16.631  1.00  0.00    -0.275 N 
ATOM      7  H1  UNL     1      16.512  28.378 -17.601  1.00  0.00     0.173 HD
HETATM    8  C11 UNL     1      16.508  29.066 -15.677  1.00  0.00     0.329 A 
HETATM    9  O2  UNL     1      16.075  30.203 -16.005  1.00  0.00    -0.246 OA
HETATM   10  N2  UNL     1      16.774  28.753 -14.381  1.00  0.00    -0.307 N 
HETATM   11  C12 UNL     1      16.537  29.794 -13.370  1.00  0.00     0.161 C 
ENDROOT
BRANCH   3  12
HETATM   12  C4  UNL     1      17.929  25.330 -14.650  1.00  0.00     0.029 A 
HETATM   13  C5  UNL     1      19.247  25.035 -14.840  1.00  0.00     0.070 A 
HETATM   14 CL1  UNL     1      20.401  26.200 -15.536  1.00  0.00    -0.081 Cl
HETATM   15  C6  UNL     1      19.738  23.800 -14.489  1.00  0.00     0.080 A 
HETATM   16 CL2  UNL     1      21.426  23.387 -14.719  1.00  0.00    -0.081 Cl
HETATM   17  C7  UNL     1      18.877  22.853 -13.940  1.00  0.00     0.081 A 
HETATM   18 CL3  UNL     1      19.444  21.258 -13.473  1.00  0.00    -0.081 Cl
HETATM   19  C8  UNL     1      17.544  23.144 -13.746  1.00  0.00     0.080 A 
HETATM   20 CL4  UNL     1      16.431  21.971 -13.056  1.00  0.00    -0.081 Cl
HETATM   21  C9  UNL     1      17.087  24.393 -14.110  1.00  0.00     0.070 A 
HETATM   22 CL5  UNL     1      15.351  24.744 -13.846  1.00  0.00    -0.081 Cl
ENDBRANCH   3  12
TORSDOF 1
ENDMDL
MODEL 4
REMARK VINA RESULT: -5.838453756      3.411      5.915
REMARK  1 active torsions:
REMARK  status: ('A' for Active; 'I' for Inactive)
REMARK    1  A    between atoms: C3_3  and  C4_4 
ROOT
HETATM    1  C1  UNL     1      17.515  27.299 -12.562  1.00  0.00     0.069 C 
HETATM    2  C2  UNL     1      17.240  27.554 -13.999  1.00  0.00     0.028 A 
HETATM    3  C3  UNL     1      17.422  26.634 -15.008  1.00  0.00     0.068 A 
HETATM    4  C10 UNL     1      17.157  26.903 -16.339  1.00  0.00     0.262 A 
HETATM    5  O1  UNL     1      17.337  26.029 -17.241  1.00  0.00    -0.267 OA
HETATM    6  N1  UNL     1      16.699  28.138 -16.616  1.00  0.00    -0.275 N 
ATOM      7  H1  UNL     1      16.491  28.376 -17.586  1.00  0.00     0.173 HD
HETATM    8  C11 UNL     1      16.505  29.073 -15.665  1.00  0.00     0.329 A 
HETATM    9  O2  UNL     1      16.075  30.210 -15.994  1.00  0.00    -0.246 OA
HETATM   10  N2  UNL     1      16.779  28.763 -14.369  1.00  0.00    -0.307 N 
HETATM   11  C12 UNL     1      16.555  29.809 -13.361  1.00  0.00     0.161 C 
ENDROOT
BRANCH   3  12
HETATM   12  C4  UNL     1      17.915  25.333 -14.633  1.00  0.00     0.029 A 
HETATM   13  C5  UNL     1      17.057  24.421 -14.092  1.00  0.00     0.070 A 
HETATM   14 CL1  UNL     1      15.330  24.768 -13.824  1.00  0.00    -0.081 Cl
HETATM   15  C6  UNL     1      17.509  23.175 -13.729  1.00  0.00     0.080 A 
HETATM   16 CL2  UNL     1      16.436  21.978 -13.031  1.00  0.00    -0.081 Cl
HETATM   17  C7  UNL     1      18.851  22.854 -13.918  1.00  0.00     0.081 A 
HETATM   18 CL3  UNL     1      19.489  21.279 -13.474  1.00  0.00    -0.081 Cl
HETATM   19  C8  UNL     1      19.723  23.770 -14.464  1.00  0.00     0.080 A 
HETATM   20 CL4  UNL     1      21.422  23.396 -14.716  1.00  0.00    -0.081 Cl
HETATM   21  C9  UNL     1      19.234  25.010 -14.816  1.00  0.00     0.070 A 
HETATM   22 CL5  UNL     1      20.389  26.181 -15.523  1.00  0.00    -0.081 Cl
ENDBRANCH   3  12
TORSDOF 1
ENDMDL
MODEL 5
REMARK VINA RESULT: -5.530253355      3.396      6.007
REMARK  1 active torsions:
REMARK  status: ('A' for Active; 'I' for Inactive)
REMARK    1  A    between atoms: C3_3  and  C4_4 
ROOT
HETATM    1  C1  UNL     1      17.937  26.908 -13.014  1.00  0.00     0.069 C 
HETATM    2  C2  UNL     1      17.624  27.012 -14.462  1.00  0.00     0.028 A 
HETATM    3  C3  UNL     1      17.946  26.061 -15.404  1.00  0.00     0.068 A 
HETATM    4  C10 UNL     1      17.641  26.188 -16.749  1.00  0.00     0.262 A 
HETATM    5  O1  UNL     1      17.954  25.290 -17.588  1.00  0.00    -0.267 OA
HETATM    6  N1  UNL     1      16.996  27.314 -17.107  1.00  0.00    -0.275 N 
ATOM      7  H1  UNL     1      16.752  27.446 -18.089  1.00  0.00     0.173 HD
HETATM    8  C11 UNL     1      16.659  28.274 -16.223  1.00  0.00     0.329 A 
HETATM    9  O2  UNL     1      16.057  29.303 -16.627  1.00  0.00    -0.246 OA
HETATM   10  N2  UNL     1      16.980  28.106 -14.912  1.00  0.00    -0.307 N 
HETATM   11  C12 UNL     1      16.596  29.174 -13.979  1.00  0.00     0.161 C 
ENDROOT
BRANCH   3  12
HETATM   12  C4  UNL     1      18.636  24.884 -14.944  1.00  0.00     0.029 A 
HETATM   13  C5  UNL     1      17.951  23.935 -14.243  1.00  0.00     0.070 A 
HETATM   14 CL1  UNL     1      16.216  24.087 -13.865  1.00  0.00    -0.081 Cl
HETATM   15  C6  UNL     1      18.592  22.805 -13.796  1.00  0.00     0.080 A 
HETATM   16 CL2  UNL     1      17.743  21.566 -12.892  1.00  0.00    -0.081 Cl
HETATM   17  C7  UNL     1      19.948  22.638 -14.065  1.00  0.00     0.081 A 
HETATM   18 CL3  UNL     1      20.824  21.217 -13.521  1.00  0.00    -0.081 Cl
HETATM   19  C8  UNL     1      20.647  23.592 -14.772  1.00  0.00     0.080 A 
HETATM   20 CL4  UNL     1      22.359  23.412 -15.128  1.00  0.00    -0.081 Cl
HETATM   21  C9  UNL     1      19.970  24.713 -15.205  1.00  0.00     0.070 A 
HETATM   22 CL5  UNL     1      20.903  25.935 -16.122  1.00  0.00    -0.081 Cl
ENDBRANCH   3  12
TORSDOF 1
ENDMDL
