MODEL 1
REMARK VINA RESULT: -4.773058324      0.000      0.000
REMARK  4 active torsions:
REMARK  status: ('A' for Active; 'I' for Inactive)
REMARK    1  A    between atoms: C2_2  and  O1_5 
REMARK    2  A    between atoms: O1_5  and  C5_6 
REMARK    3  A    between atoms: C5_6  and  C6_8 
REMARK    4  A    between atoms: C9_13  and  N1_14 
ROOT
HETATM    1  C6  UNL     1       4.361  23.315 -18.641  1.00  0.00     0.109 A 
HETATM    2  S1  UNL     1       4.760  24.365 -17.339  1.00  0.00    -0.052 SA
HETATM    3  C7  UNL     1       5.803  23.343 -16.469  1.00  0.00     0.160 A 
HETATM    4  F1  UNL     1       6.488  23.579 -15.290  1.00  0.00    -0.198 F 
HETATM    5  C8  UNL     1       5.816  22.202 -17.218  1.00  0.00     0.081 A 
HETATM    6  C9  UNL     1       5.066  22.184 -18.352  1.00  0.00     0.057 A 
ENDROOT
BRANCH   1   7
HETATM    7  C5  UNL     1       3.455  23.611 -19.779  1.00  0.00     0.303 C 
HETATM    8  O2  UNL     1       2.380  23.076 -19.997  1.00  0.00    -0.259 OA
BRANCH   7   9
HETATM    9  O1  UNL     1       3.885  24.587 -20.666  1.00  0.00    -0.307 OA
BRANCH   9  10
HETATM   10  C2  UNL     1       3.387  25.884 -20.726  1.00  0.00     0.060 C 
HETATM   11  C1  UNL     1       2.841  26.400 -19.427  1.00  0.00     0.046 C 
HETATM   12  C3  UNL     1       2.337  26.010 -21.801  1.00  0.00     0.046 C 
HETATM   13  C4  UNL     1       4.557  26.797 -21.114  1.00  0.00     0.046 C 
ENDBRANCH   9  10
ENDBRANCH   7   9
ENDBRANCH   1   7
BRANCH   6  14
HETATM   14  N1  UNL     1       5.063  20.994 -19.189  1.00  0.00    -0.375 N 
HETATM   15  C10 UNL     1       6.233  20.264 -19.568  1.00  0.00     0.149 C 
HETATM   16  C11 UNL     1       6.126  18.802 -19.126  1.00  0.00     0.187 C 
HETATM   17  O3  UNL     1       4.789  18.425 -19.025  1.00  0.00    -0.388 OA
HETATM   18  C12 UNL     1       3.970  18.981 -19.982  1.00  0.00     0.187 C 
HETATM   19  C13 UNL     1       3.796  20.455 -19.689  1.00  0.00     0.149 C 
ENDBRANCH   6  14
TORSDOF 4
ENDMDL
MODEL 2
REMARK VINA RESULT: -4.613700289      9.847     11.335
REMARK  4 active torsions:
REMARK  status: ('A' for Active; 'I' for Inactive)
REMARK    1  A    between atoms: C2_2  and  O1_5 
REMARK    2  A    between atoms: O1_5  and  C5_6 
REMARK    3  A    between atoms: C5_6  and  C6_8 
REMARK    4  A    between atoms: C9_13  and  N1_14 
ROOT
HETATM    1  C6  UNL     1      10.735  14.633 -22.885  1.00  0.00     0.109 A 
HETATM    2  S1  UNL     1      12.122  13.982 -22.103  1.00  0.00    -0.052 SA
HETATM    3  C7  UNL     1      11.371  12.787 -21.157  1.00  0.00     0.160 A 
HETATM    4  F1  UNL     1      11.931  11.881 -20.273  1.00  0.00    -0.198 F 
HETATM    5  C8  UNL     1      10.050  12.923 -21.474  1.00  0.00     0.081 A 
HETATM    6  C9  UNL     1       9.715  13.885 -22.375  1.00  0.00     0.057 A 
ENDROOT
BRANCH   1   7
HETATM    7  C5  UNL     1      10.705  15.747 -23.865  1.00  0.00     0.303 C 
HETATM    8  O2  UNL     1      11.387  16.759 -23.820  1.00  0.00    -0.259 OA
BRANCH   7   9
HETATM    9  O1  UNL     1       9.817  15.610 -24.922  1.00  0.00    -0.307 OA
BRANCH   9  10
HETATM   10  C2  UNL     1      10.177  15.317 -26.233  1.00  0.00     0.060 C 
HETATM   11  C1  UNL     1      11.455  14.541 -26.368  1.00  0.00     0.046 C 
HETATM   12  C3  UNL     1      10.260  16.574 -27.063  1.00  0.00     0.046 C 
HETATM   13  C4  UNL     1       9.061  14.448 -26.822  1.00  0.00     0.046 C 
ENDBRANCH   9  10
ENDBRANCH   7   9
ENDBRANCH   1   7
BRANCH   6  14
HETATM   14  N1  UNL     1       8.321  14.055 -22.754  1.00  0.00    -0.375 N 
HETATM   15  C10 UNL     1       7.598  13.167 -23.611  1.00  0.00     0.149 C 
HETATM   16  C11 UNL     1       6.356  12.621 -22.903  1.00  0.00     0.187 C 
HETATM   17  O3  UNL     1       5.932  13.510 -21.917  1.00  0.00    -0.388 OA
HETATM   18  C12 UNL     1       6.083  14.838 -22.250  1.00  0.00     0.187 C 
HETATM   19  C13 UNL     1       7.555  15.188 -22.232  1.00  0.00     0.149 C 
ENDBRANCH   6  14
TORSDOF 4
ENDMDL
MODEL 3
REMARK VINA RESULT: -4.504937704     10.075     11.552
REMARK  4 active torsions:
REMARK  status: ('A' for Active; 'I' for Inactive)
REMARK    1  A    between atoms: C2_2  and  O1_5 
REMARK    2  A    between atoms: O1_5  and  C5_6 
REMARK    3  A    between atoms: C5_6  and  C6_8 
REMARK    4  A    between atoms: C9_13  and  N1_14 
ROOT
HETATM    1  C6  UNL     1      10.543  13.727 -23.646  1.00  0.00     0.109 A 
HETATM    2  S1  UNL     1      11.998  13.279 -22.844  1.00  0.00    -0.052 SA
HETATM    3  C7  UNL     1      11.347  12.746 -21.367  1.00  0.00     0.160 A 
HETATM    4  F1  UNL     1      11.990  12.242 -20.250  1.00  0.00    -0.198 F 
HETATM    5  C8  UNL     1      10.004  12.930 -21.534  1.00  0.00     0.081 A 
HETATM    6  C9  UNL     1       9.582  13.441 -22.721  1.00  0.00     0.057 A 
ENDROOT
BRANCH   1   7
HETATM    7  C5  UNL     1      10.417  14.292 -25.012  1.00  0.00     0.303 C 
HETATM    8  O2  UNL     1      10.283  13.651 -26.043  1.00  0.00    -0.259 OA
BRANCH   7   9
HETATM    9  O1  UNL     1      10.457  15.675 -25.110  1.00  0.00    -0.307 OA
BRANCH   9  10
HETATM   10  C2  UNL     1      11.609  16.426 -25.316  1.00  0.00     0.060 C 
HETATM   11  C1  UNL     1      12.779  15.640 -25.834  1.00  0.00     0.046 C 
HETATM   12  C3  UNL     1      12.009  17.156 -24.058  1.00  0.00     0.046 C 
HETATM   13  C4  UNL     1      11.274  17.481 -26.376  1.00  0.00     0.046 C 
ENDBRANCH   9  10
ENDBRANCH   7   9
ENDBRANCH   1   7
BRANCH   6  14
HETATM   14  N1  UNL     1       8.158  13.639 -22.949  1.00  0.00    -0.375 N 
HETATM   15  C10 UNL     1       7.298  12.690 -23.585  1.00  0.00     0.149 C 
HETATM   16  C11 UNL     1       6.135  12.312 -22.664  1.00  0.00     0.187 C 
HETATM   17  O3  UNL     1       5.876  13.343 -21.764  1.00  0.00    -0.388 OA
HETATM   18  C12 UNL     1       6.036  14.606 -22.289  1.00  0.00     0.187 C 
HETATM   19  C13 UNL     1       7.511  14.872 -22.497  1.00  0.00     0.149 C 
ENDBRANCH   6  14
TORSDOF 4
ENDMDL
MODEL 4
REMARK VINA RESULT: -4.456470392     10.032     12.206
REMARK  4 active torsions:
REMARK  status: ('A' for Active; 'I' for Inactive)
REMARK    1  A    between atoms: C2_2  and  O1_5 
REMARK    2  A    between atoms: O1_5  and  C5_6 
REMARK    3  A    between atoms: C5_6  and  C6_8 
REMARK    4  A    between atoms: C9_13  and  N1_14 
ROOT
HETATM    1  C6  UNL     1       9.802  15.161 -23.057  1.00  0.00     0.109 A 
HETATM    2  S1  UNL     1       8.564  14.961 -21.879  1.00  0.00    -0.052 SA
HETATM    3  C7  UNL     1       7.201  15.145 -22.877  1.00  0.00     0.160 A 
HETATM    4  F1  UNL     1       5.857  15.096 -22.552  1.00  0.00    -0.198 F 
HETATM    5  C8  UNL     1       7.745  15.359 -24.111  1.00  0.00     0.081 A 
HETATM    6  C9  UNL     1       9.101  15.368 -24.208  1.00  0.00     0.057 A 
ENDROOT
BRANCH   1   7
HETATM    7  C5  UNL     1      11.268  15.118 -22.825  1.00  0.00     0.303 C 
HETATM    8  O2  UNL     1      12.103  15.799 -23.398  1.00  0.00    -0.259 OA
BRANCH   7   9
HETATM    9  O1  UNL     1      11.711  14.217 -21.869  1.00  0.00    -0.307 OA
BRANCH   9  10
HETATM   10  C2  UNL     1      11.915  12.859 -22.087  1.00  0.00     0.060 C 
HETATM   11  C1  UNL     1      11.829  12.441 -23.526  1.00  0.00     0.046 C 
HETATM   12  C3  UNL     1      10.960  12.032 -21.263  1.00  0.00     0.046 C 
HETATM   13  C4  UNL     1      13.335  12.535 -21.611  1.00  0.00     0.046 C 
ENDBRANCH   9  10
ENDBRANCH   7   9
ENDBRANCH   1   7
BRANCH   6  14
HETATM   14  N1  UNL     1       9.724  15.576 -25.507  1.00  0.00    -0.375 N 
HETATM   15  C10 UNL     1       9.860  16.848 -26.148  1.00  0.00     0.149 C 
HETATM   16  C11 UNL     1      11.331  17.147 -26.450  1.00  0.00     0.187 C 
HETATM   17  O3  UNL     1      12.048  15.959 -26.580  1.00  0.00    -0.388 OA
HETATM   18  C12 UNL     1      11.350  14.940 -27.188  1.00  0.00     0.187 C 
HETATM   19  C13 UNL     1      10.281  14.439 -26.241  1.00  0.00     0.149 C 
ENDBRANCH   6  14
TORSDOF 4
ENDMDL
MODEL 5
REMARK VINA RESULT: -4.318843884      2.812      4.062
REMARK  4 active torsions:
REMARK  status: ('A' for Active; 'I' for Inactive)
REMARK    1  A    between atoms: C2_2  and  O1_5 
REMARK    2  A    between atoms: O1_5  and  C5_6 
REMARK    3  A    between atoms: C5_6  and  C6_8 
REMARK    4  A    between atoms: C9_13  and  N1_14 
ROOT
HETATM    1  C6  UNL     1       4.273  20.795 -19.312  1.00  0.00     0.109 A 
HETATM    2  S1  UNL     1       3.988  19.306 -20.126  1.00  0.00    -0.052 SA
HETATM    3  C7  UNL     1       5.292  18.403 -19.513  1.00  0.00     0.160 A 
HETATM    4  F1  UNL     1       5.654  17.093 -19.770  1.00  0.00    -0.198 F 
HETATM    5  C8  UNL     1       5.921  19.287 -18.685  1.00  0.00     0.081 A 
HETATM    6  C9  UNL     1       5.392  20.535 -18.577  1.00  0.00     0.057 A 
ENDROOT
BRANCH   1   7
HETATM    7  C5  UNL     1       3.470  22.038 -19.422  1.00  0.00     0.303 C 
HETATM    8  O2  UNL     1       2.251  22.109 -19.383  1.00  0.00    -0.259 OA
BRANCH   7   9
HETATM    9  O1  UNL     1       4.182  23.217 -19.585  1.00  0.00    -0.307 OA
BRANCH   9  10
HETATM   10  C2  UNL     1       3.681  24.491 -19.344  1.00  0.00     0.060 C 
HETATM   11  C1  UNL     1       4.732  25.546 -19.151  1.00  0.00     0.046 C 
HETATM   12  C3  UNL     1       2.746  24.488 -18.160  1.00  0.00     0.046 C 
HETATM   13  C4  UNL     1       2.864  24.893 -20.577  1.00  0.00     0.046 C 
ENDBRANCH   9  10
ENDBRANCH   7   9
ENDBRANCH   1   7
BRANCH   6  14
HETATM   14  N1  UNL     1       6.021  21.505 -17.693  1.00  0.00    -0.375 N 
HETATM   15  C10 UNL     1       7.354  22.001 -17.848  1.00  0.00     0.149 C 
HETATM   16  C11 UNL     1       7.353  23.526 -17.971  1.00  0.00     0.187 C 
HETATM   17  O3  UNL     1       6.231  24.061 -17.342  1.00  0.00    -0.388 OA
HETATM   18  C12 UNL     1       5.858  23.401 -16.193  1.00  0.00     0.187 C 
HETATM   19  C13 UNL     1       5.273  22.056 -16.562  1.00  0.00     0.149 C 
ENDBRANCH   6  14
TORSDOF 4
ENDMDL
