MODEL 1
REMARK VINA RESULT: -4.887258825      0.000      0.000
REMARK  5 active torsions:
REMARK  status: ('A' for Active; 'I' for Inactive)
REMARK    1  A    between atoms: C2_2  and  C3_3 
REMARK    2  A    between atoms: C2_2  and  C8_15 
REMARK    3  A    between atoms: N2_7  and  O2_8 
REMARK    4  A    between atoms: C4_10  and  C5_11 
REMARK    5  A    between atoms: C6_12  and  C7_13 
ROOT
HETATM    1  C3  UNL     1       7.794  14.465 -23.793  1.00  0.00     0.080 A 
HETATM    2  N1  UNL     1       7.601  13.228 -24.281  1.00  0.00    -0.240 N 
ATOM      3  H1  UNL     1       8.015  12.855 -25.136  1.00  0.00     0.196 HD
HETATM    4  O1  UNL     1       6.801  12.583 -23.485  1.00  0.00    -0.127 OA
HETATM    5  N2  UNL     1       6.443  13.327 -22.483  1.00  0.00    -0.091 N 
HETATM    6  C4  UNL     1       7.043  14.518 -22.635  1.00  0.00     0.168 A 
ENDROOT
BRANCH   1   7
HETATM    7  C2  UNL     1       8.615  15.581 -24.293  1.00  0.00     0.060 C 
HETATM    8  C1  UNL     1       8.089  16.017 -25.641  1.00  0.00     0.018 C 
BRANCH   7   9
HETATM    9  C8  UNL     1      10.043  15.096 -24.438  1.00  0.00     0.118 C 
HETATM   10  S1  UNL     1      10.878  14.979 -22.812  1.00  0.00    -0.152 SA
HETATM   11  C9  UNL     1      12.604  15.280 -23.218  1.00  0.00     0.085 C 
HETATM   12  C10 UNL     1      12.715  15.955 -24.528  1.00  0.00     0.085 C 
HETATM   13  S2  UNL     1      11.099  16.402 -25.168  1.00  0.00    -0.152 SA
ENDBRANCH   7   9
ENDBRANCH   1   7
BRANCH   6  14
HETATM   14  C5  UNL     1       6.950  15.676 -21.786  1.00  0.00    -0.041 C 
HETATM   15  C6  UNL     1       6.885  16.647 -21.042  1.00  0.00    -0.084 C 
BRANCH  15  16
HETATM   16  C7  UNL     1       6.835  17.804 -20.147  1.00  0.00     0.208 C 
HETATM   17 CL1  UNL     1       5.100  18.180 -19.925  1.00  0.00    -0.117 Cl
ENDBRANCH  15  16
ENDBRANCH   6  14
BRANCH   5  18
HETATM   18  O2  UNL     1       5.615  12.999 -21.443  1.00  0.00    -0.260 OA
ATOM     19  H2  UNL     1       4.759  13.357 -21.243  1.00  0.00     0.247 HD
ENDBRANCH   5  18
TORSDOF 5
ENDMDL
MODEL 2
REMARK VINA RESULT: -4.758782772      8.605     10.639
REMARK  5 active torsions:
REMARK  status: ('A' for Active; 'I' for Inactive)
REMARK    1  A    between atoms: C2_2  and  C3_3 
REMARK    2  A    between atoms: C2_2  and  C8_15 
REMARK    3  A    between atoms: N2_7  and  O2_8 
REMARK    4  A    between atoms: C4_10  and  C5_11 
REMARK    5  A    between atoms: C6_12  and  C7_13 
ROOT
HETATM    1  C3  UNL     1       4.750  22.959 -17.909  1.00  0.00     0.080 A 
HETATM    2  N1  UNL     1       5.577  22.714 -16.877  1.00  0.00    -0.240 N 
ATOM      3  H1  UNL     1       5.738  21.802 -16.450  1.00  0.00     0.196 HD
HETATM    4  O1  UNL     1       6.137  23.830 -16.514  1.00  0.00    -0.127 OA
HETATM    5  N2  UNL     1       5.727  24.817 -17.251  1.00  0.00    -0.091 N 
HETATM    6  C4  UNL     1       4.855  24.317 -18.140  1.00  0.00     0.168 A 
ENDROOT
BRANCH   1   7
HETATM    7  C2  UNL     1       3.896  22.054 -18.696  1.00  0.00     0.060 C 
HETATM    8  C1  UNL     1       2.462  22.212 -18.247  1.00  0.00     0.018 C 
BRANCH   7   9
HETATM    9  C8  UNL     1       4.352  20.631 -18.447  1.00  0.00     0.118 C 
HETATM   10  S1  UNL     1       6.177  20.489 -18.526  1.00  0.00    -0.152 SA
HETATM   11  C9  UNL     1       6.431  18.801 -19.092  1.00  0.00     0.085 C 
HETATM   12  C10 UNL     1       5.203  18.282 -19.730  1.00  0.00     0.085 C 
HETATM   13  S2  UNL     1       3.957  19.565 -19.883  1.00  0.00    -0.152 SA
ENDBRANCH   7   9
ENDBRANCH   1   7
BRANCH   6  14
HETATM   14  C5  UNL     1       4.126  25.020 -19.162  1.00  0.00    -0.041 C 
HETATM   15  C6  UNL     1       3.510  25.644 -20.018  1.00  0.00    -0.084 C 
BRANCH  15  16
HETATM   16  C7  UNL     1       2.793  26.408 -21.040  1.00  0.00     0.208 C 
HETATM   17 CL1  UNL     1       3.948  27.638 -21.636  1.00  0.00    -0.117 Cl
ENDBRANCH  15  16
ENDBRANCH   6  14
BRANCH   5  18
HETATM   18  O2  UNL     1       6.091  26.134 -17.172  1.00  0.00    -0.260 OA
ATOM     19  H2  UNL     1       5.891  26.833 -17.784  1.00  0.00     0.247 HD
ENDBRANCH   5  18
TORSDOF 5
ENDMDL
MODEL 3
REMARK VINA RESULT: -4.474339643      8.807     10.866
REMARK  5 active torsions:
REMARK  status: ('A' for Active; 'I' for Inactive)
REMARK    1  A    between atoms: C2_2  and  C3_3 
REMARK    2  A    between atoms: C2_2  and  C8_15 
REMARK    3  A    between atoms: N2_7  and  O2_8 
REMARK    4  A    between atoms: C4_10  and  C5_11 
REMARK    5  A    between atoms: C6_12  and  C7_13 
ROOT
HETATM    1  C3  UNL     1       4.763  23.270 -17.766  1.00  0.00     0.080 A 
HETATM    2  N1  UNL     1       5.572  23.172 -16.697  1.00  0.00    -0.240 N 
ATOM      3  H1  UNL     1       5.757  22.318 -16.169  1.00  0.00     0.196 HD
HETATM    4  O1  UNL     1       6.082  24.341 -16.447  1.00  0.00    -0.127 OA
HETATM    5  N2  UNL     1       5.653  25.225 -17.296  1.00  0.00    -0.091 N 
HETATM    6  C4  UNL     1       4.823  24.597 -18.143  1.00  0.00     0.168 A 
ENDROOT
BRANCH   1   7
HETATM    7  C2  UNL     1       3.964  22.251 -18.467  1.00  0.00     0.060 C 
HETATM    8  C1  UNL     1       3.076  21.546 -17.468  1.00  0.00     0.018 C 
BRANCH   7   9
HETATM    9  C8  UNL     1       4.912  21.251 -19.098  1.00  0.00     0.118 C 
HETATM   10  S1  UNL     1       4.002  19.859 -19.865  1.00  0.00    -0.152 SA
HETATM   11  C9  UNL     1       5.159  18.489 -19.724  1.00  0.00     0.085 C 
HETATM   12  C10 UNL     1       6.173  18.775 -18.687  1.00  0.00     0.085 C 
HETATM   13  S2  UNL     1       5.793  20.294 -17.809  1.00  0.00    -0.152 SA
ENDBRANCH   7   9
ENDBRANCH   1   7
BRANCH   6  14
HETATM   14  C5  UNL     1       4.095  25.155 -19.251  1.00  0.00    -0.041 C 
HETATM   15  C6  UNL     1       3.489  25.656 -20.192  1.00  0.00    -0.084 C 
BRANCH  15  16
HETATM   16  C7  UNL     1       2.790  26.263 -21.325  1.00  0.00     0.208 C 
HETATM   17 CL1  UNL     1       3.714  27.737 -21.742  1.00  0.00    -0.117 Cl
ENDBRANCH  15  16
ENDBRANCH   6  14
BRANCH   5  18
HETATM   18  O2  UNL     1       5.966  26.557 -17.355  1.00  0.00    -0.260 OA
ATOM     19  H2  UNL     1       6.821  26.951 -17.484  1.00  0.00     0.247 HD
ENDBRANCH   5  18
TORSDOF 5
ENDMDL
MODEL 4
REMARK VINA RESULT: -4.105425211      2.801      3.753
REMARK  5 active torsions:
REMARK  status: ('A' for Active; 'I' for Inactive)
REMARK    1  A    between atoms: C2_2  and  C3_3 
REMARK    2  A    between atoms: C2_2  and  C8_15 
REMARK    3  A    between atoms: N2_7  and  O2_8 
REMARK    4  A    between atoms: C4_10  and  C5_11 
REMARK    5  A    between atoms: C6_12  and  C7_13 
ROOT
HETATM    1  C3  UNL     1       8.482  13.440 -22.468  1.00  0.00     0.080 A 
HETATM    2  N1  UNL     1       7.812  12.811 -21.487  1.00  0.00    -0.240 N 
ATOM      3  H1  UNL     1       8.193  12.085 -20.879  1.00  0.00     0.196 HD
HETATM    4  O1  UNL     1       6.600  13.279 -21.439  1.00  0.00    -0.127 OA
HETATM    5  N2  UNL     1       6.420  14.194 -22.343  1.00  0.00    -0.091 N 
HETATM    6  C4  UNL     1       7.575  14.328 -23.012  1.00  0.00     0.168 A 
ENDROOT
BRANCH   1   7
HETATM    7  C2  UNL     1       9.875  13.302 -22.927  1.00  0.00     0.060 C 
HETATM    8  C1  UNL     1      10.333  11.881 -22.695  1.00  0.00     0.018 C 
BRANCH   7   9
HETATM    9  C8  UNL     1      10.739  14.251 -22.120  1.00  0.00     0.118 C 
HETATM   10  S1  UNL     1      11.666  15.398 -23.207  1.00  0.00    -0.152 SA
HETATM   11  C9  UNL     1      13.155  15.743 -22.259  1.00  0.00     0.085 C 
HETATM   12  C10 UNL     1      13.365  14.701 -21.232  1.00  0.00     0.085 C 
HETATM   13  S2  UNL     1      12.175  13.368 -21.405  1.00  0.00    -0.152 SA
ENDBRANCH   7   9
ENDBRANCH   1   7
BRANCH   6  14
HETATM   14  C5  UNL     1       7.869  15.211 -24.109  1.00  0.00    -0.041 C 
HETATM   15  C6  UNL     1       8.114  15.941 -25.063  1.00  0.00    -0.084 C 
BRANCH  15  16
HETATM   16  C7  UNL     1       8.385  16.803 -26.214  1.00  0.00     0.208 C 
HETATM   17 CL1  UNL     1      10.154  17.068 -26.227  1.00  0.00    -0.117 Cl
ENDBRANCH  15  16
ENDBRANCH   6  14
BRANCH   5  18
HETATM   18  O2  UNL     1       5.283  14.913 -22.597  1.00  0.00    -0.260 OA
ATOM     19  H2  UNL     1       4.911  15.619 -22.082  1.00  0.00     0.247 HD
ENDBRANCH   5  18
TORSDOF 5
ENDMDL
MODEL 5
REMARK VINA RESULT: -3.761557133      4.156      5.837
REMARK  5 active torsions:
REMARK  status: ('A' for Active; 'I' for Inactive)
REMARK    1  A    between atoms: C2_2  and  C3_3 
REMARK    2  A    between atoms: C2_2  and  C8_15 
REMARK    3  A    between atoms: N2_7  and  O2_8 
REMARK    4  A    between atoms: C4_10  and  C5_11 
REMARK    5  A    between atoms: C6_12  and  C7_13 
ROOT
HETATM    1  C3  UNL     1       9.658  15.609 -25.559  1.00  0.00     0.080 A 
HETATM    2  N1  UNL     1       8.899  15.951 -26.614  1.00  0.00    -0.240 N 
ATOM      3  H1  UNL     1       8.101  15.421 -26.968  1.00  0.00     0.196 HD
HETATM    4  O1  UNL     1       9.347  17.066 -27.111  1.00  0.00    -0.127 OA
HETATM    5  N2  UNL     1      10.374  17.493 -26.441  1.00  0.00    -0.091 N 
HETATM    6  C4  UNL     1      10.604  16.610 -25.457  1.00  0.00     0.168 A 
ENDROOT
BRANCH   1   7
HETATM    7  C2  UNL     1       9.573  14.461 -24.641  1.00  0.00     0.060 C 
HETATM    8  C1  UNL     1      10.193  13.252 -25.302  1.00  0.00     0.018 C 
BRANCH   7   9
HETATM    9  C8  UNL     1       8.110  14.187 -24.354  1.00  0.00     0.118 C 
HETATM   10  S1  UNL     1       7.480  15.258 -23.008  1.00  0.00    -0.152 SA
HETATM   11  C9  UNL     1       6.189  14.255 -22.259  1.00  0.00     0.085 C 
HETATM   12  C10 UNL     1       6.372  12.831 -22.613  1.00  0.00     0.085 C 
HETATM   13  S2  UNL     1       7.908  12.576 -23.507  1.00  0.00    -0.152 SA
ENDBRANCH   7   9
ENDBRANCH   1   7
BRANCH   6  14
HETATM   14  C5  UNL     1      11.639  16.643 -24.458  1.00  0.00    -0.041 C 
HETATM   15  C6  UNL     1      12.523  16.641 -23.609  1.00  0.00    -0.084 C 
BRANCH  15  16
HETATM   16  C7  UNL     1      13.594  16.623 -22.612  1.00  0.00     0.208 C 
HETATM   17 CL1  UNL     1      13.249  15.230 -21.542  1.00  0.00    -0.117 Cl
ENDBRANCH  15  16
ENDBRANCH   6  14
BRANCH   5  18
HETATM   18  O2  UNL     1      11.110  18.626 -26.660  1.00  0.00    -0.260 OA
ATOM     19  H2  UNL     1      12.031  18.769 -26.477  1.00  0.00     0.247 HD
ENDBRANCH   5  18
TORSDOF 5
ENDMDL
