MODEL 1
REMARK VINA RESULT: -7.050323944      0.000      0.000
REMARK  2 active torsions:
REMARK  status: ('A' for Active; 'I' for Inactive)
REMARK    1  A    between atoms: N1_6  and  C4_7 
REMARK    2  A    between atoms: C4_7  and  N2_8 
ROOT
HETATM    1  C4  UNL     1       3.652  22.850 -18.788  1.00  0.00     0.163 C 
ENDROOT
BRANCH   1   2
HETATM    2  N1  UNL     1       4.737  21.901 -18.642  1.00  0.00    -0.271 N 
HETATM    3  C3  UNL     1       5.917  22.065 -18.024  1.00  0.00     0.228 A 
HETATM    4  O1  UNL     1       6.635  20.955 -18.128  1.00  0.00    -0.285 OA
HETATM    5  S1  UNL     1       6.437  23.419 -17.240  1.00  0.00    -0.032 SA
HETATM    6  C2  UNL     1       5.977  20.054 -18.794  1.00  0.00     0.091 A 
HETATM    7  C1  UNL     1       6.419  18.657 -19.142  1.00  0.00     0.080 C 
HETATM    8  C11 UNL     1       4.771  20.623 -19.133  1.00  0.00     0.142 A 
HETATM    9 CL1  UNL     1       3.458  19.884 -20.040  1.00  0.00    -0.061 Cl
ENDBRANCH   1   2
BRANCH   1  10
HETATM   10  N2  UNL     1       4.033  24.189 -19.036  1.00  0.00    -0.274 NA
HETATM   11  C5  UNL     1       3.986  25.111 -17.962  1.00  0.00     0.122 C 
HETATM   12  C6  UNL     1       4.462  26.482 -18.385  1.00  0.00     0.183 C 
HETATM   13  O2  UNL     1       4.827  26.440 -19.711  1.00  0.00    -0.379 OA
HETATM   14  C7  UNL     1       3.746  26.088 -20.532  1.00  0.00     0.066 C 
HETATM   15  C8  UNL     1       4.099  26.147 -21.980  1.00  0.00     0.047 C 
HETATM   16  C9  UNL     1       2.624  27.049 -20.249  1.00  0.00     0.047 C 
HETATM   17  C10 UNL     1       3.276  24.681 -20.192  1.00  0.00     0.133 C 
ENDBRANCH   1  10
TORSDOF 2
ENDMDL
MODEL 2
REMARK VINA RESULT: -6.150540463      1.167      1.261
REMARK  2 active torsions:
REMARK  status: ('A' for Active; 'I' for Inactive)
REMARK    1  A    between atoms: N1_6  and  C4_7 
REMARK    2  A    between atoms: C4_7  and  N2_8 
ROOT
HETATM    1  C4  UNL     1       4.457  23.864 -17.675  1.00  0.00     0.163 C 
ENDROOT
BRANCH   1   2
HETATM    2  N1  UNL     1       4.914  22.595 -18.204  1.00  0.00    -0.271 N 
HETATM    3  C3  UNL     1       6.165  22.117 -18.274  1.00  0.00     0.228 A 
HETATM    4  O1  UNL     1       6.156  20.918 -18.841  1.00  0.00    -0.285 OA
HETATM    5  S1  UNL     1       7.536  22.868 -17.749  1.00  0.00    -0.032 SA
HETATM    6  C2  UNL     1       4.942  20.577 -19.151  1.00  0.00     0.091 A 
HETATM    7  C1  UNL     1       4.481  19.303 -19.809  1.00  0.00     0.080 C 
HETATM    8  C11 UNL     1       4.132  21.617 -18.760  1.00  0.00     0.142 A 
HETATM    9 CL1  UNL     1       2.384  21.731 -18.921  1.00  0.00    -0.061 Cl
ENDBRANCH   1   2
BRANCH   1  10
HETATM   10  N2  UNL     1       4.523  24.961 -18.564  1.00  0.00    -0.274 NA
HETATM   11  C5  UNL     1       4.811  26.242 -18.032  1.00  0.00     0.122 C 
HETATM   12  C6  UNL     1       4.886  27.291 -19.116  1.00  0.00     0.183 C 
HETATM   13  O2  UNL     1       4.664  26.693 -20.336  1.00  0.00    -0.379 OA
HETATM   14  C7  UNL     1       3.395  26.101 -20.395  1.00  0.00     0.066 C 
HETATM   15  C8  UNL     1       3.099  25.546 -21.748  1.00  0.00     0.047 C 
HETATM   16  C9  UNL     1       2.381  27.158 -20.054  1.00  0.00     0.047 C 
HETATM   17  C10 UNL     1       3.296  24.984 -19.366  1.00  0.00     0.133 C 
ENDBRANCH   1  10
TORSDOF 2
ENDMDL
MODEL 3
REMARK VINA RESULT: -5.388441695      2.622      5.703
REMARK  2 active torsions:
REMARK  status: ('A' for Active; 'I' for Inactive)
REMARK    1  A    between atoms: N1_6  and  C4_7 
REMARK    2  A    between atoms: C4_7  and  N2_8 
ROOT
HETATM    1  C4  UNL     1       3.941  24.551 -17.609  1.00  0.00     0.163 C 
ENDROOT
BRANCH   1   2
HETATM    2  N1  UNL     1       3.729  24.947 -18.986  1.00  0.00    -0.271 N 
HETATM    3  C3  UNL     1       3.252  24.217 -20.005  1.00  0.00     0.228 A 
HETATM    4  O1  UNL     1       3.226  24.951 -21.110  1.00  0.00    -0.285 OA
HETATM    5  S1  UNL     1       2.759  22.644 -19.942  1.00  0.00    -0.032 SA
HETATM    6  C2  UNL     1       3.668  26.148 -20.864  1.00  0.00     0.091 A 
HETATM    7  C1  UNL     1       3.809  27.295 -21.829  1.00  0.00     0.080 C 
HETATM    8  C11 UNL     1       3.995  26.176 -19.529  1.00  0.00     0.142 A 
HETATM    9 CL1  UNL     1       4.647  27.532 -18.616  1.00  0.00    -0.061 Cl
ENDBRANCH   1   2
BRANCH   1  10
HETATM   10  N2  UNL     1       5.007  23.650 -17.385  1.00  0.00    -0.274 NA
HETATM   11  C5  UNL     1       6.258  23.922 -17.991  1.00  0.00     0.122 C 
HETATM   12  C6  UNL     1       7.295  22.888 -17.619  1.00  0.00     0.183 C 
HETATM   13  O2  UNL     1       6.724  21.967 -16.769  1.00  0.00    -0.379 OA
HETATM   14  C7  UNL     1       5.651  21.302 -17.377  1.00  0.00     0.066 C 
HETATM   15  C8  UNL     1       5.095  20.225 -16.508  1.00  0.00     0.047 C 
HETATM   16  C9  UNL     1       6.153  20.701 -18.661  1.00  0.00     0.047 C 
HETATM   17  C10 UNL     1       4.546  22.295 -17.706  1.00  0.00     0.133 C 
ENDBRANCH   1  10
TORSDOF 2
ENDMDL
MODEL 4
REMARK VINA RESULT: -5.275227911      1.305      1.926
REMARK  2 active torsions:
REMARK  status: ('A' for Active; 'I' for Inactive)
REMARK    1  A    between atoms: N1_6  and  C4_7 
REMARK    2  A    between atoms: C4_7  and  N2_8 
ROOT
HETATM    1  C4  UNL     1       4.503  23.878 -17.771  1.00  0.00     0.163 C 
ENDROOT
BRANCH   1   2
HETATM    2  N1  UNL     1       4.983  22.585 -18.216  1.00  0.00    -0.271 N 
HETATM    3  C3  UNL     1       6.245  22.134 -18.277  1.00  0.00     0.228 A 
HETATM    4  O1  UNL     1       6.257  20.897 -18.756  1.00  0.00    -0.285 OA
HETATM    5  S1  UNL     1       7.606  22.955 -17.835  1.00  0.00    -0.032 SA
HETATM    6  C2  UNL     1       5.046  20.505 -19.016  1.00  0.00     0.091 A 
HETATM    7  C1  UNL     1       4.606  19.176 -19.571  1.00  0.00     0.080 C 
HETATM    8  C11 UNL     1       4.217  21.551 -18.685  1.00  0.00     0.142 A 
HETATM    9 CL1  UNL     1       2.464  21.610 -18.819  1.00  0.00    -0.061 Cl
ENDBRANCH   1   2
BRANCH   1  10
HETATM   10  N2  UNL     1       3.876  24.675 -18.756  1.00  0.00    -0.274 NA
HETATM   11  C5  UNL     1       3.678  24.120 -20.044  1.00  0.00     0.122 C 
HETATM   12  C6  UNL     1       2.961  25.083 -20.961  1.00  0.00     0.183 C 
HETATM   13  O2  UNL     1       2.686  26.241 -20.269  1.00  0.00    -0.379 OA
HETATM   14  C7  UNL     1       3.860  26.864 -19.822  1.00  0.00     0.066 C 
HETATM   15  C8  UNL     1       3.582  28.175 -19.166  1.00  0.00     0.047 C 
HETATM   16  C9  UNL     1       4.749  27.077 -21.015  1.00  0.00     0.047 C 
HETATM   17  C10 UNL     1       4.582  25.958 -18.835  1.00  0.00     0.133 C 
ENDBRANCH   1  10
TORSDOF 2
ENDMDL
MODEL 5
REMARK VINA RESULT: -5.232866605      2.071      2.581
REMARK  2 active torsions:
REMARK  status: ('A' for Active; 'I' for Inactive)
REMARK    1  A    between atoms: N1_6  and  C4_7 
REMARK    2  A    between atoms: C4_7  and  N2_8 
ROOT
HETATM    1  C4  UNL     1       4.933  24.148 -17.771  1.00  0.00     0.163 C 
ENDROOT
BRANCH   1   2
HETATM    2  N1  UNL     1       4.928  22.701 -17.846  1.00  0.00    -0.271 N 
HETATM    3  C3  UNL     1       3.885  21.860 -17.770  1.00  0.00     0.228 A 
HETATM    4  O1  UNL     1       4.310  20.608 -17.870  1.00  0.00    -0.285 OA
HETATM    5  S1  UNL     1       2.299  22.275 -17.584  1.00  0.00    -0.032 SA
HETATM    6  C2  UNL     1       5.601  20.582 -18.010  1.00  0.00     0.091 A 
HETATM    7  C1  UNL     1       6.488  19.374 -18.158  1.00  0.00     0.080 C 
HETATM    8  C11 UNL     1       6.022  21.891 -17.999  1.00  0.00     0.142 A 
HETATM    9 CL1  UNL     1       7.670  22.485 -18.151  1.00  0.00    -0.061 Cl
ENDBRANCH   1   2
BRANCH   1  10
HETATM   10  N2  UNL     1       4.162  24.817 -18.749  1.00  0.00    -0.274 NA
HETATM   11  C5  UNL     1       3.909  24.155 -19.976  1.00  0.00     0.122 C 
HETATM   12  C6  UNL     1       3.039  24.988 -20.889  1.00  0.00     0.183 C 
HETATM   13  O2  UNL     1       2.722  26.167 -20.254  1.00  0.00    -0.379 OA
HETATM   14  C7  UNL     1       3.870  26.914 -19.952  1.00  0.00     0.066 C 
HETATM   15  C8  UNL     1       3.534  28.243 -19.363  1.00  0.00     0.047 C 
HETATM   16  C9  UNL     1       4.638  27.111 -21.229  1.00  0.00     0.047 C 
HETATM   17  C10 UNL     1       4.745  26.144 -18.973  1.00  0.00     0.133 C 
ENDBRANCH   1  10
TORSDOF 2
ENDMDL
