MODEL 1
REMARK VINA RESULT: -5.894717795      0.000      0.000
REMARK  7 active torsions:
REMARK  status: ('A' for Active; 'I' for Inactive)
REMARK    1  A    between atoms: N1_1  and  C1_4 
REMARK    2  A    between atoms: C2_5  and  C3_6 
REMARK    3  A    between atoms: C3_6  and  O1_7 
REMARK    4  A    between atoms: O1_7  and  C4_8 
REMARK    5  A    between atoms: C4_8  and  C5_9 
REMARK    6  A    between atoms: C4_8  and  N3_12 
REMARK    7  A    between atoms: C4_8  and  C12_23 
ROOT
HETATM    1  C4  UNL     1      28.663   7.387  10.333  1.00  0.00     0.439 C 
ENDROOT
BRANCH   1   2
HETATM    2  O1  UNL     1      27.585   6.947   9.661  1.00  0.00    -0.326 OA
BRANCH   2   3
HETATM    3  C3  UNL     1      27.643   6.221   8.544  1.00  0.00     0.267 C 
BRANCH   3   4
HETATM    4  C2  UNL     1      26.770   5.017   8.721  1.00  0.00    -0.058 C 
HETATM    5  C1  UNL     1      26.049   4.058   8.857  1.00  0.00     0.005 C 
BRANCH   5   6
HETATM    6  N1  UNL     1      25.193   2.961   9.013  1.00  0.00    -0.359 N 
ATOM      7  H12 UNL     1      25.611   3.475   8.237  1.00  0.00     0.166 HD
ATOM      8  H11 UNL     1      24.571   2.164   9.145  1.00  0.00     0.166 HD
ENDBRANCH   5   6
ENDBRANCH   3   4
ENDBRANCH   2   3
ENDBRANCH   1   2
BRANCH   1   9
HETATM    9  C5  UNL     1      28.918   6.462  11.511  1.00  0.00     0.307 C 
HETATM   10  N2  UNL     1      29.753   6.856  12.581  1.00  0.00    -0.057 NA
HETATM   11  O2  UNL     1      28.397   5.332  11.559  1.00  0.00    -0.271 OA
ENDBRANCH   1   9
BRANCH   1  12
HETATM   12  N3  UNL     1      28.456   8.733  10.778  1.00  0.00     0.165 N 
HETATM   13  C6  UNL     1      28.827   9.634   9.712  1.00  0.00     0.312 C 
HETATM   14  C7  UNL     1      28.186  11.023   9.847  1.00  0.00     0.214 C 
HETATM   15  C8  UNL     1      26.752  11.053   9.449  1.00  0.00     0.037 C 
HETATM   16  N4  UNL     1      28.246  11.267  11.299  1.00  0.00    -0.062 N 
HETATM   17  C9  UNL     1      26.025  11.168  10.798  1.00  0.00     0.038 C 
HETATM   18  C10 UNL     1      27.087  10.481  11.679  1.00  0.00     0.234 C 
HETATM   19  C11 UNL     1      27.148   9.047  11.210  1.00  0.00     0.353 C 
HETATM   20 CL1  UNL     1      26.513   8.099  12.565  1.00  0.00    -0.089 Cl
ATOM     21  H42 UNL     1      29.124  11.043  11.766  1.00  0.00     0.278 HD
ATOM     22  H41 UNL     1      28.259  12.241  11.600  1.00  0.00     0.278 HD
ENDBRANCH   1  12
BRANCH   1  23
HETATM   23  C12 UNL     1      29.971   7.301   9.581  1.00  0.00     0.458 C 
HETATM   24  F1  UNL     1      30.476   5.991   9.614  1.00  0.00    -0.166 F 
HETATM   25  F2  UNL     1      30.924   8.110  10.128  1.00  0.00    -0.166 F 
HETATM   26  F3  UNL     1      29.886   7.565   8.234  1.00  0.00    -0.166 F 
ENDBRANCH   1  23
TORSDOF 7
ENDMDL
MODEL 2
REMARK VINA RESULT: -5.866558212      4.825      5.351
REMARK  7 active torsions:
REMARK  status: ('A' for Active; 'I' for Inactive)
REMARK    1  A    between atoms: N1_1  and  C1_4 
REMARK    2  A    between atoms: C2_5  and  C3_6 
REMARK    3  A    between atoms: C3_6  and  O1_7 
REMARK    4  A    between atoms: O1_7  and  C4_8 
REMARK    5  A    between atoms: C4_8  and  C5_9 
REMARK    6  A    between atoms: C4_8  and  N3_12 
REMARK    7  A    between atoms: C4_8  and  C12_23 
ROOT
HETATM    1  C4  UNL     1      25.160   6.333  13.714  1.00  0.00     0.439 C 
ENDROOT
BRANCH   1   2
HETATM    2  O1  UNL     1      23.932   6.574  14.203  1.00  0.00    -0.326 OA
BRANCH   2   3
HETATM    3  C3  UNL     1      23.644   6.653  15.502  1.00  0.00     0.267 C 
BRANCH   3   4
HETATM    4  C2  UNL     1      22.693   5.547  15.840  1.00  0.00    -0.058 C 
HETATM    5  C1  UNL     1      21.915   4.668  16.123  1.00  0.00     0.005 C 
BRANCH   5   6
HETATM    6  N1  UNL     1      21.002   3.665  16.469  1.00  0.00    -0.359 N 
ATOM      7  H12 UNL     1      21.929   3.714  16.047  1.00  0.00     0.166 HD
ATOM      8  H11 UNL     1      20.325   2.947  16.728  1.00  0.00     0.166 HD
ENDBRANCH   5   6
ENDBRANCH   3   4
ENDBRANCH   2   3
ENDBRANCH   1   2
BRANCH   1   9
HETATM    9  C5  UNL     1      25.967   5.582  14.761  1.00  0.00     0.307 C 
HETATM   10  N2  UNL     1      26.922   6.247  15.562  1.00  0.00    -0.057 NA
HETATM   11  O2  UNL     1      25.803   4.360  14.936  1.00  0.00    -0.271 OA
ENDBRANCH   1   9
BRANCH   1  12
HETATM   12  N3  UNL     1      25.806   7.562  13.359  1.00  0.00     0.165 N 
HETATM   13  C6  UNL     1      27.060   7.254  12.712  1.00  0.00     0.312 C 
HETATM   14  C7  UNL     1      27.585   8.404  11.841  1.00  0.00     0.214 C 
HETATM   15  C8  UNL     1      26.879   8.529  10.536  1.00  0.00     0.037 C 
HETATM   16  N4  UNL     1      27.248   9.596  12.640  1.00  0.00    -0.062 N 
HETATM   17  C9  UNL     1      26.009   9.780  10.737  1.00  0.00     0.038 C 
HETATM   18  C10 UNL     1      25.850   9.695  12.267  1.00  0.00     0.234 C 
HETATM   19  C11 UNL     1      25.063   8.433  12.532  1.00  0.00     0.353 C 
HETATM   20 CL1  UNL     1      23.507   8.992  13.165  1.00  0.00    -0.089 Cl
ATOM     21  H42 UNL     1      27.455   9.552  13.638  1.00  0.00     0.278 HD
ATOM     22  H41 UNL     1      27.823  10.425  12.492  1.00  0.00     0.278 HD
ENDBRANCH   1  12
BRANCH   1  23
HETATM   23  C12 UNL     1      25.212   5.380  12.542  1.00  0.00     0.458 C 
HETATM   24  F1  UNL     1      24.184   4.429  12.631  1.00  0.00    -0.166 F 
HETATM   25  F2  UNL     1      26.390   4.693  12.498  1.00  0.00    -0.166 F 
HETATM   26  F3  UNL     1      24.992   5.959  11.314  1.00  0.00    -0.166 F 
ENDBRANCH   1  23
TORSDOF 7
ENDMDL
MODEL 3
REMARK VINA RESULT: -5.781175748      2.053      2.373
REMARK  7 active torsions:
REMARK  status: ('A' for Active; 'I' for Inactive)
REMARK    1  A    between atoms: N1_1  and  C1_4 
REMARK    2  A    between atoms: C2_5  and  C3_6 
REMARK    3  A    between atoms: C3_6  and  O1_7 
REMARK    4  A    between atoms: O1_7  and  C4_8 
REMARK    5  A    between atoms: C4_8  and  C5_9 
REMARK    6  A    between atoms: C4_8  and  N3_12 
REMARK    7  A    between atoms: C4_8  and  C12_23 
ROOT
HETATM    1  C4  UNL     1      29.204   7.295  10.814  1.00  0.00     0.439 C 
ENDROOT
BRANCH   1   2
HETATM    2  O1  UNL     1      28.698   6.216  11.436  1.00  0.00    -0.326 OA
BRANCH   2   3
HETATM    3  C3  UNL     1      28.007   5.253  10.826  1.00  0.00     0.267 C 
BRANCH   3   4
HETATM    4  C2  UNL     1      26.672   5.139  11.493  1.00  0.00    -0.058 C 
HETATM    5  C1  UNL     1      25.597   5.066  12.039  1.00  0.00     0.005 C 
BRANCH   5   6
HETATM    6  N1  UNL     1      24.358   5.002  12.687  1.00  0.00    -0.359 N 
ATOM      7  H12 UNL     1      25.341   5.012  12.960  1.00  0.00     0.166 HD
ATOM      8  H11 UNL     1      23.447   4.956  13.144  1.00  0.00     0.166 HD
ENDBRANCH   5   6
ENDBRANCH   3   4
ENDBRANCH   2   3
ENDBRANCH   1   2
BRANCH   1   9
HETATM    9  C5  UNL     1      30.654   7.470  11.237  1.00  0.00     0.307 C 
HETATM   10  N2  UNL     1      31.311   8.712  11.093  1.00  0.00    -0.057 NA
HETATM   11  O2  UNL     1      31.296   6.518  11.719  1.00  0.00    -0.271 OA
ENDBRANCH   1   9
BRANCH   1  12
HETATM   12  N3  UNL     1      28.436   8.461  11.136  1.00  0.00     0.165 N 
HETATM   13  C6  UNL     1      27.378   8.599  10.163  1.00  0.00     0.312 C 
HETATM   14  C7  UNL     1      26.208   9.459  10.664  1.00  0.00     0.214 C 
HETATM   15  C8  UNL     1      25.315   8.746  11.617  1.00  0.00     0.037 C 
HETATM   16  N4  UNL     1      26.891  10.527  11.415  1.00  0.00    -0.062 N 
HETATM   17  C9  UNL     1      25.674   9.387  12.967  1.00  0.00     0.038 C 
HETATM   18  C10 UNL     1      27.125   9.788  12.641  1.00  0.00     0.234 C 
HETATM   19  C11 UNL     1      27.876   8.494  12.432  1.00  0.00     0.353 C 
HETATM   20 CL1  UNL     1      29.011   8.403  13.788  1.00  0.00    -0.089 Cl
ATOM     21  H42 UNL     1      27.707  10.951  10.972  1.00  0.00     0.278 HD
ATOM     22  H41 UNL     1      26.396  11.415  11.502  1.00  0.00     0.278 HD
ENDBRANCH   1  12
BRANCH   1  23
HETATM   23  C12 UNL     1      29.331   7.173   9.313  1.00  0.00     0.458 C 
HETATM   24  F1  UNL     1      30.266   6.183   8.974  1.00  0.00    -0.166 F 
HETATM   25  F2  UNL     1      29.758   8.338   8.745  1.00  0.00    -0.166 F 
HETATM   26  F3  UNL     1      28.191   6.757   8.666  1.00  0.00    -0.166 F 
ENDBRANCH   1  23
TORSDOF 7
ENDMDL
MODEL 4
REMARK VINA RESULT: -5.714646319      3.703      5.448
REMARK  7 active torsions:
REMARK  status: ('A' for Active; 'I' for Inactive)
REMARK    1  A    between atoms: N1_1  and  C1_4 
REMARK    2  A    between atoms: C2_5  and  C3_6 
REMARK    3  A    between atoms: C3_6  and  O1_7 
REMARK    4  A    between atoms: O1_7  and  C4_8 
REMARK    5  A    between atoms: C4_8  and  C5_9 
REMARK    6  A    between atoms: C4_8  and  N3_12 
REMARK    7  A    between atoms: C4_8  and  C12_23 
ROOT
HETATM    1  C4  UNL     1      26.398   7.926  13.373  1.00  0.00     0.439 C 
ENDROOT
BRANCH   1   2
HETATM    2  O1  UNL     1      26.747   9.179  13.035  1.00  0.00    -0.326 OA
BRANCH   2   3
HETATM    3  C3  UNL     1      25.893  10.103  12.593  1.00  0.00     0.267 C 
BRANCH   3   4
HETATM    4  C2  UNL     1      26.261  10.445  11.183  1.00  0.00    -0.058 C 
HETATM    5  C1  UNL     1      26.552  10.741  10.049  1.00  0.00     0.005 C 
BRANCH   5   6
HETATM    6  N1  UNL     1      26.875  11.107   8.737  1.00  0.00    -0.359 N 
ATOM      7  H12 UNL     1      26.882  11.550   9.656  1.00  0.00     0.166 HD
ATOM      8  H11 UNL     1      27.106  11.356   7.775  1.00  0.00     0.166 HD
ENDBRANCH   5   6
ENDBRANCH   3   4
ENDBRANCH   2   3
ENDBRANCH   1   2
BRANCH   1   9
HETATM    9  C5  UNL     1      26.774   7.687  14.826  1.00  0.00     0.307 C 
HETATM   10  N2  UNL     1      27.088   8.763  15.686  1.00  0.00    -0.057 NA
HETATM   11  O2  UNL     1      26.814   6.533  15.293  1.00  0.00    -0.271 OA
ENDBRANCH   1   9
BRANCH   1  12
HETATM   12  N3  UNL     1      27.049   6.979  12.517  1.00  0.00     0.165 N 
HETATM   13  C6  UNL     1      26.214   6.752  11.361  1.00  0.00     0.312 C 
HETATM   14  C7  UNL     1      26.990   6.195  10.158  1.00  0.00     0.214 C 
HETATM   15  C8  UNL     1      27.795   7.224   9.445  1.00  0.00     0.037 C 
HETATM   16  N4  UNL     1      27.934   5.256  10.790  1.00  0.00    -0.062 N 
HETATM   17  C9  UNL     1      29.234   6.881   9.861  1.00  0.00     0.038 C 
HETATM   18  C10 UNL     1      28.920   6.229  11.221  1.00  0.00     0.234 C 
HETATM   19  C11 UNL     1      28.348   7.328  12.085  1.00  0.00     0.353 C 
HETATM   20 CL1  UNL     1      29.560   7.589  13.350  1.00  0.00    -0.089 Cl
ATOM     21  H42 UNL     1      27.555   4.638  11.507  1.00  0.00     0.278 HD
ATOM     22  H41 UNL     1      28.271   4.486  10.212  1.00  0.00     0.278 HD
ENDBRANCH   1  12
BRANCH   1  23
HETATM   23  C12 UNL     1      24.912   7.652  13.388  1.00  0.00     0.458 C 
HETATM   24  F1  UNL     1      24.312   8.239  14.513  1.00  0.00    -0.166 F 
HETATM   25  F2  UNL     1      24.643   6.315  13.443  1.00  0.00    -0.166 F 
HETATM   26  F3  UNL     1      24.209   8.202  12.341  1.00  0.00    -0.166 F 
ENDBRANCH   1  23
TORSDOF 7
ENDMDL
MODEL 5
REMARK VINA RESULT: -5.690032840      4.307      5.290
REMARK  7 active torsions:
REMARK  status: ('A' for Active; 'I' for Inactive)
REMARK    1  A    between atoms: N1_1  and  C1_4 
REMARK    2  A    between atoms: C2_5  and  C3_6 
REMARK    3  A    between atoms: C3_6  and  O1_7 
REMARK    4  A    between atoms: O1_7  and  C4_8 
REMARK    5  A    between atoms: C4_8  and  C5_9 
REMARK    6  A    between atoms: C4_8  and  N3_12 
REMARK    7  A    between atoms: C4_8  and  C12_23 
ROOT
HETATM    1  C4  UNL     1      25.983   6.656  11.977  1.00  0.00     0.439 C 
ENDROOT
BRANCH   1   2
HETATM    2  O1  UNL     1      25.686   5.935  10.882  1.00  0.00    -0.326 OA
BRANCH   2   3
HETATM    3  C3  UNL     1      26.577   5.236  10.179  1.00  0.00     0.267 C 
BRANCH   3   4
HETATM    4  C2  UNL     1      25.832   4.336   9.242  1.00  0.00    -0.058 C 
HETATM    5  C1  UNL     1      25.235   3.595   8.500  1.00  0.00     0.005 C 
BRANCH   5   6
HETATM    6  N1  UNL     1      24.553   2.714   7.652  1.00  0.00    -0.359 N 
ATOM      7  H12 UNL     1      25.047   2.657   8.542  1.00  0.00     0.166 HD
ATOM      8  H11 UNL     1      24.051   2.087   7.022  1.00  0.00     0.166 HD
ENDBRANCH   5   6
ENDBRANCH   3   4
ENDBRANCH   2   3
ENDBRANCH   1   2
BRANCH   1   9
HETATM    9  C5  UNL     1      27.435   7.097  11.895  1.00  0.00     0.307 C 
HETATM   10  N2  UNL     1      27.870   7.995  10.894  1.00  0.00    -0.057 NA
HETATM   11  O2  UNL     1      28.277   6.675  12.709  1.00  0.00    -0.271 OA
ENDBRANCH   1   9
BRANCH   1  12
HETATM   12  N3  UNL     1      25.753   5.881  13.161  1.00  0.00     0.165 N 
HETATM   13  C6  UNL     1      25.999   6.716  14.313  1.00  0.00     0.312 C 
HETATM   14  C7  UNL     1      25.310   6.203  15.586  1.00  0.00     0.214 C 
HETATM   15  C8  UNL     1      23.848   6.486  15.623  1.00  0.00     0.037 C 
HETATM   16  N4  UNL     1      25.473   4.742  15.476  1.00  0.00    -0.062 N 
HETATM   17  C9  UNL     1      23.226   5.104  15.363  1.00  0.00     0.038 C 
HETATM   18  C10 UNL     1      24.383   4.491  14.551  1.00  0.00     0.234 C 
HETATM   19  C11 UNL     1      24.471   5.300  13.279  1.00  0.00     0.353 C 
HETATM   20 CL1  UNL     1      23.988   4.180  11.995  1.00  0.00    -0.089 Cl
ATOM     21  H42 UNL     1      26.395   4.403  15.201  1.00  0.00     0.278 HD
ATOM     22  H41 UNL     1      25.467   4.213  16.348  1.00  0.00     0.278 HD
ENDBRANCH   1  12
BRANCH   1  23
HETATM   23  C12 UNL     1      25.263   7.979  12.094  1.00  0.00     0.458 C 
HETATM   24  F1  UNL     1      24.921   8.470  10.824  1.00  0.00    -0.166 F 
HETATM   25  F2  UNL     1      26.040   8.928  12.693  1.00  0.00    -0.166 F 
HETATM   26  F3  UNL     1      24.051   7.926  12.742  1.00  0.00    -0.166 F 
ENDBRANCH   1  23
TORSDOF 7
ENDMDL
