MODEL 1
REMARK VINA RESULT: -7.454194220      0.000      0.000
REMARK  5 active torsions:
REMARK  status: ('A' for Active; 'I' for Inactive)
REMARK    1  A    between atoms: N1_2  and  C2_4 
REMARK    2  A    between atoms: N3_8  and  C4_9 
REMARK    3  A    between atoms: C5_11  and  C6_12 
REMARK    4  A    between atoms: C6_12  and  N4_13 
REMARK       I    between atoms: N4_13  and  C7_15 
REMARK    5  A    between atoms: C7_15  and  C8_17 
ROOT
HETATM    1  C4  UNL     1      28.447   7.545  10.205  1.00  0.00     0.279 C 
HETATM    2  O1  UNL     1      27.798   6.666  11.090  1.00  0.00    -0.355 OA
HETATM    3  C5  UNL     1      26.743   6.238  10.316  1.00  0.00     0.144 C 
HETATM    4  C9  UNL     1      27.438   5.754   9.061  1.00  0.00     0.075 C 
HETATM    5  C10 UNL     1      28.496   6.822   8.871  1.00  0.00     0.223 C 
HETATM    6  F3  UNL     1      29.735   6.298   8.606  1.00  0.00    -0.245 F 
ENDROOT
BRANCH   1   7
HETATM    7  N3  UNL     1      29.752   7.916  10.672  1.00  0.00    -0.241 N 
HETATM    8  C3  UNL     1      30.444   9.013  10.339  1.00  0.00     0.221 A 
HETATM    9  N2  UNL     1      31.625   9.006  10.981  1.00  0.00    -0.185 N 
HETATM   10  C2  UNL     1      31.662   7.896  11.714  1.00  0.00     0.693 A 
ATOM     11  H2  UNL     1      32.355   9.715  10.917  1.00  0.00     0.185 HD
HETATM   12  N5  UNL     1      30.519   7.246  11.516  1.00  0.00    -0.127 N 
ATOM     13  H5  UNL     1      30.269   6.358  11.952  1.00  0.00     0.206 HD
BRANCH  10  14
HETATM   14  N1  UNL     1      32.656   7.567  12.464  1.00  0.00    -0.229 N 
HETATM   15  C1  UNL     1      32.420   7.136  13.831  1.00  0.00     0.165 C 
ATOM     16  H1  UNL     1      33.607   7.609  12.098  1.00  0.00     0.177 HD
ENDBRANCH  10  14
ENDBRANCH   1   7
BRANCH   3  17
HETATM   17  C6  UNL     1      25.913   5.170  10.959  1.00  0.00     0.155 C 
BRANCH  17  18
HETATM   18  N4  UNL     1      25.647   4.051  10.117  1.00  0.00    -0.352 N 
HETATM   19  C7  UNL     1      24.421   3.350  10.247  1.00  0.00     0.306 C 
HETATM   20  O2  UNL     1      23.571   3.711  11.098  1.00  0.00    -0.265 OA
ATOM     21  H4  UNL     1      26.335   3.755   9.425  1.00  0.00     0.162 HD
BRANCH  19  22
HETATM   22  C8  UNL     1      24.085   2.173   9.397  1.00  0.00     0.400 C 
HETATM   23  F1  UNL     1      24.889   1.089   9.742  1.00  0.00    -0.177 F 
HETATM   24  F2  UNL     1      22.783   1.766   9.609  1.00  0.00    -0.177 F 
HETATM   25 CL1  UNL     1      24.294   2.569   7.670  1.00  0.00    -0.038 Cl
ENDBRANCH  19  22
ENDBRANCH  17  18
ENDBRANCH   3  17
TORSDOF 5
ENDMDL
MODEL 2
REMARK VINA RESULT: -7.286246021      4.867      5.810
REMARK  5 active torsions:
REMARK  status: ('A' for Active; 'I' for Inactive)
REMARK    1  A    between atoms: N1_2  and  C2_4 
REMARK    2  A    between atoms: N3_8  and  C4_9 
REMARK    3  A    between atoms: C5_11  and  C6_12 
REMARK    4  A    between atoms: C6_12  and  N4_13 
REMARK       I    between atoms: N4_13  and  C7_15 
REMARK    5  A    between atoms: C7_15  and  C8_17 
ROOT
HETATM    1  C4  UNL     1      25.111   6.940  13.977  1.00  0.00     0.279 C 
HETATM    2  O1  UNL     1      24.429   6.352  12.898  1.00  0.00    -0.355 OA
HETATM    3  C5  UNL     1      24.447   5.024  13.262  1.00  0.00     0.144 C 
HETATM    4  C9  UNL     1      23.867   5.063  14.660  1.00  0.00     0.075 C 
HETATM    5  C10 UNL     1      24.530   6.303  15.227  1.00  0.00     0.223 C 
HETATM    6  F3  UNL     1      23.644   7.128  15.871  1.00  0.00    -0.245 F 
ENDROOT
BRANCH   1   7
HETATM    7  N3  UNL     1      24.980   8.369  13.984  1.00  0.00    -0.241 N 
HETATM    8  C3  UNL     1      25.750   9.245  14.643  1.00  0.00     0.221 A 
HETATM    9  N2  UNL     1      25.313  10.492  14.402  1.00  0.00    -0.185 N 
HETATM   10  C2  UNL     1      24.265  10.386  13.588  1.00  0.00     0.693 A 
ATOM     11  H2  UNL     1      25.708  11.356  14.772  1.00  0.00     0.185 HD
HETATM   12  N5  UNL     1      24.076   9.092  13.344  1.00  0.00    -0.127 N 
ATOM     13  H5  UNL     1      23.340   8.712  12.749  1.00  0.00     0.206 HD
BRANCH  10  14
HETATM   14  N1  UNL     1      23.596  11.394  13.148  1.00  0.00    -0.229 N 
HETATM   15  C1  UNL     1      24.282  12.471  12.454  1.00  0.00     0.165 C 
ATOM     16  H1  UNL     1      22.587  11.437  13.287  1.00  0.00     0.177 HD
ENDBRANCH  10  14
ENDBRANCH   1   7
BRANCH   3  17
HETATM   17  C6  UNL     1      23.671   4.132  12.344  1.00  0.00     0.155 C 
BRANCH  17  18
HETATM   18  N4  UNL     1      24.426   3.620  11.249  1.00  0.00    -0.352 N 
HETATM   19  C7  UNL     1      23.799   3.430   9.991  1.00  0.00     0.306 C 
HETATM   20  O2  UNL     1      22.585   3.710   9.838  1.00  0.00    -0.265 OA
ATOM     21  H4  UNL     1      25.413   3.392  11.369  1.00  0.00     0.162 HD
BRANCH  19  22
HETATM   22  C8  UNL     1      24.536   2.899   8.809  1.00  0.00     0.400 C 
HETATM   23  F1  UNL     1      24.939   1.587   9.047  1.00  0.00    -0.177 F 
HETATM   24  F2  UNL     1      23.719   2.851   7.698  1.00  0.00    -0.177 F 
HETATM   25 CL1  UNL     1      25.952   3.921   8.443  1.00  0.00    -0.038 Cl
ENDBRANCH  19  22
ENDBRANCH  17  18
ENDBRANCH   3  17
TORSDOF 5
ENDMDL
MODEL 3
REMARK VINA RESULT: -7.213942041      4.000      5.625
REMARK  5 active torsions:
REMARK  status: ('A' for Active; 'I' for Inactive)
REMARK    1  A    between atoms: N1_2  and  C2_4 
REMARK    2  A    between atoms: N3_8  and  C4_9 
REMARK    3  A    between atoms: C5_11  and  C6_12 
REMARK    4  A    between atoms: C6_12  and  N4_13 
REMARK       I    between atoms: N4_13  and  C7_15 
REMARK    5  A    between atoms: C7_15  and  C8_17 
ROOT
HETATM    1  C4  UNL     1      25.494   7.372  12.652  1.00  0.00     0.279 C 
HETATM    2  O1  UNL     1      25.422   6.259  11.796  1.00  0.00    -0.355 OA
HETATM    3  C5  UNL     1      26.391   6.571  10.869  1.00  0.00     0.144 C 
HETATM    4  C9  UNL     1      27.598   6.844  11.741  1.00  0.00     0.075 C 
HETATM    5  C10 UNL     1      26.974   7.615  12.887  1.00  0.00     0.223 C 
HETATM    6  F3  UNL     1      27.388   7.165  14.115  1.00  0.00    -0.245 F 
ENDROOT
BRANCH   1   7
HETATM    7  N3  UNL     1      24.775   7.160  13.875  1.00  0.00    -0.241 N 
HETATM    8  C3  UNL     1      24.308   8.100  14.707  1.00  0.00     0.221 A 
HETATM    9  N2  UNL     1      23.692   7.510  15.745  1.00  0.00    -0.185 N 
HETATM   10  C2  UNL     1      23.779   6.196  15.552  1.00  0.00     0.693 A 
ATOM     11  H2  UNL     1      23.243   7.979  16.531  1.00  0.00     0.185 HD
HETATM   12  N5  UNL     1      24.439   6.000  14.414  1.00  0.00    -0.127 N 
ATOM     13  H5  UNL     1      24.656   5.087  14.015  1.00  0.00     0.206 HD
BRANCH  10  14
HETATM   14  N1  UNL     1      23.291   5.321  16.360  1.00  0.00    -0.229 N 
HETATM   15  C1  UNL     1      22.212   4.452  15.920  1.00  0.00     0.165 C 
ATOM     16  H1  UNL     1      23.660   5.237  17.307  1.00  0.00     0.177 HD
ENDBRANCH  10  14
ENDBRANCH   1   7
BRANCH   3  17
HETATM   17  C6  UNL     1      26.643   5.488   9.866  1.00  0.00     0.155 C 
BRANCH  17  18
HETATM   18  N4  UNL     1      25.629   4.486   9.820  1.00  0.00    -0.352 N 
HETATM   19  C7  UNL     1      25.468   3.703   8.649  1.00  0.00     0.306 C 
HETATM   20  O2  UNL     1      26.213   3.888   7.655  1.00  0.00    -0.265 OA
ATOM     21  H4  UNL     1      25.023   4.334  10.626  1.00  0.00     0.162 HD
BRANCH  19  22
HETATM   22  C8  UNL     1      24.428   2.641   8.541  1.00  0.00     0.400 C 
HETATM   23  F1  UNL     1      23.185   3.150   8.912  1.00  0.00    -0.177 F 
HETATM   24  F2  UNL     1      24.291   2.215   7.236  1.00  0.00    -0.177 F 
HETATM   25 CL1  UNL     1      24.852   1.243   9.565  1.00  0.00    -0.038 Cl
ENDBRANCH  19  22
ENDBRANCH  17  18
ENDBRANCH   3  17
TORSDOF 5
ENDMDL
MODEL 4
REMARK VINA RESULT: -7.152674766      5.090      5.989
REMARK  5 active torsions:
REMARK  status: ('A' for Active; 'I' for Inactive)
REMARK    1  A    between atoms: N1_2  and  C2_4 
REMARK    2  A    between atoms: N3_8  and  C4_9 
REMARK    3  A    between atoms: C5_11  and  C6_12 
REMARK    4  A    between atoms: C6_12  and  N4_13 
REMARK       I    between atoms: N4_13  and  C7_15 
REMARK    5  A    between atoms: C7_15  and  C8_17 
ROOT
HETATM    1  C4  UNL     1      24.975   6.846  14.180  1.00  0.00     0.279 C 
HETATM    2  O1  UNL     1      24.255   6.322  13.093  1.00  0.00    -0.355 OA
HETATM    3  C5  UNL     1      24.452   4.971  13.268  1.00  0.00     0.144 C 
HETATM    4  C9  UNL     1      24.014   4.763  14.703  1.00  0.00     0.075 C 
HETATM    5  C10 UNL     1      24.595   5.991  15.376  1.00  0.00     0.223 C 
HETATM    6  F3  UNL     1      23.696   6.616  16.201  1.00  0.00    -0.245 F 
ENDROOT
BRANCH   1   7
HETATM    7  N3  UNL     1      24.694   8.237  14.394  1.00  0.00    -0.241 N 
HETATM    8  C3  UNL     1      23.895   9.019  13.656  1.00  0.00     0.221 A 
HETATM    9  N2  UNL     1      23.887  10.260  14.172  1.00  0.00    -0.185 N 
HETATM   10  C2  UNL     1      24.686  10.243  15.236  1.00  0.00     0.693 A 
ATOM     11  H2  UNL     1      23.368  11.062  13.816  1.00  0.00     0.185 HD
HETATM   12  N5  UNL     1      25.168   9.009  15.358  1.00  0.00    -0.127 N 
ATOM     13  H5  UNL     1      25.810   8.703  16.088  1.00  0.00     0.206 HD
BRANCH  10  14
HETATM   14  N1  UNL     1      24.911  11.272  15.977  1.00  0.00    -0.229 N 
HETATM   15  C1  UNL     1      23.937  12.349  16.037  1.00  0.00     0.165 C 
ATOM     16  H1  UNL     1      25.772  11.331  16.521  1.00  0.00     0.177 HD
ENDBRANCH  10  14
ENDBRANCH   1   7
BRANCH   3  17
HETATM   17  C6  UNL     1      23.687   4.115  12.307  1.00  0.00     0.155 C 
BRANCH  17  18
HETATM   18  N4  UNL     1      24.459   3.635  11.209  1.00  0.00    -0.352 N 
HETATM   19  C7  UNL     1      23.839   3.430   9.950  1.00  0.00     0.306 C 
HETATM   20  O2  UNL     1      22.615   3.670   9.799  1.00  0.00    -0.265 OA
ATOM     21  H4  UNL     1      25.453   3.440  11.328  1.00  0.00     0.162 HD
BRANCH  19  22
HETATM   22  C8  UNL     1      24.593   2.931   8.765  1.00  0.00     0.400 C 
HETATM   23  F1  UNL     1      25.027   1.626   8.990  1.00  0.00    -0.177 F 
HETATM   24  F2  UNL     1      23.781   2.876   7.650  1.00  0.00    -0.177 F 
HETATM   25 CL1  UNL     1      25.984   3.992   8.417  1.00  0.00    -0.038 Cl
ENDBRANCH  19  22
ENDBRANCH  17  18
ENDBRANCH   3  17
TORSDOF 5
ENDMDL
MODEL 5
REMARK VINA RESULT: -7.106896757      4.650      5.829
REMARK  5 active torsions:
REMARK  status: ('A' for Active; 'I' for Inactive)
REMARK    1  A    between atoms: N1_2  and  C2_4 
REMARK    2  A    between atoms: N3_8  and  C4_9 
REMARK    3  A    between atoms: C5_11  and  C6_12 
REMARK    4  A    between atoms: C6_12  and  N4_13 
REMARK       I    between atoms: N4_13  and  C7_15 
REMARK    5  A    between atoms: C7_15  and  C8_17 
ROOT
HETATM    1  C4  UNL     1      25.510   7.424  13.814  1.00  0.00     0.279 C 
HETATM    2  O1  UNL     1      25.797   7.229  12.452  1.00  0.00    -0.355 OA
HETATM    3  C5  UNL     1      26.081   5.883  12.427  1.00  0.00     0.144 C 
HETATM    4  C9  UNL     1      24.859   5.282  13.089  1.00  0.00     0.075 C 
HETATM    5  C10 UNL     1      24.609   6.268  14.212  1.00  0.00     0.223 C 
HETATM    6  F3  UNL     1      23.292   6.640  14.305  1.00  0.00    -0.245 F 
ENDROOT
BRANCH   1   7
HETATM    7  N3  UNL     1      24.901   8.699  14.061  1.00  0.00    -0.241 N 
HETATM    8  C3  UNL     1      24.744   9.299  15.248  1.00  0.00     0.221 A 
HETATM    9  N2  UNL     1      24.129  10.481  15.071  1.00  0.00    -0.185 N 
HETATM   10  C2  UNL     1      23.905  10.611  13.766  1.00  0.00     0.693 A 
ATOM     11  H2  UNL     1      23.881  11.151  15.799  1.00  0.00     0.185 HD
HETATM   12  N5  UNL     1      24.378   9.521  13.167  1.00  0.00    -0.127 N 
ATOM     13  H5  UNL     1      24.343   9.346  12.163  1.00  0.00     0.206 HD
BRANCH  10  14
HETATM   14  N1  UNL     1      23.328  11.634  13.238  1.00  0.00    -0.229 N 
HETATM   15  C1  UNL     1      23.705  12.974  13.656  1.00  0.00     0.165 C 
ATOM     16  H1  UNL     1      22.608  11.504  12.528  1.00  0.00     0.177 HD
ENDBRANCH  10  14
ENDBRANCH   1   7
BRANCH   3  17
HETATM   17  C6  UNL     1      26.315   5.336  11.053  1.00  0.00     0.155 C 
BRANCH  17  18
HETATM   18  N4  UNL     1      25.338   4.390  10.626  1.00  0.00    -0.352 N 
HETATM   19  C7  UNL     1      25.417   3.839   9.322  1.00  0.00     0.306 C 
HETATM   20  O2  UNL     1      26.344   4.178   8.544  1.00  0.00    -0.265 OA
ATOM     21  H4  UNL     1      24.585   4.112  11.255  1.00  0.00     0.162 HD
BRANCH  19  22
HETATM   22  C8  UNL     1      24.426   2.846   8.818  1.00  0.00     0.400 C 
HETATM   23  F1  UNL     1      23.131   3.292   9.073  1.00  0.00    -0.177 F 
HETATM   24  F2  UNL     1      24.519   2.707   7.448  1.00  0.00    -0.177 F 
HETATM   25 CL1  UNL     1      24.692   1.255   9.580  1.00  0.00    -0.038 Cl
ENDBRANCH  19  22
ENDBRANCH  17  18
ENDBRANCH   3  17
TORSDOF 5
ENDMDL
