MODEL 1
REMARK VINA RESULT: -6.635969196      0.000      0.000
REMARK  6 active torsions:
REMARK  status: ('A' for Active; 'I' for Inactive)
REMARK    1  A    between atoms: C2_2  and  C9_20 
REMARK    2  A    between atoms: N1_3  and  N2_5 
REMARK       I    between atoms: N2_5  and  C3_7 
REMARK    3  A    between atoms: C3_7  and  C4_9 
REMARK    4  A    between atoms: C4_9  and  N3_11 
REMARK    5  A    between atoms: C4_9  and  C8_16 
REMARK       I    between atoms: C9_20  and  N4_22 
REMARK    6  A    between atoms: N4_22  and  N5_24 
ROOT
HETATM    1  N2  UNL     1      27.092   6.741  10.736  1.00  0.00    -0.265 N 
ATOM      2  H2  UNL     1      26.734   7.095   9.849  1.00  0.00     0.190 HD
HETATM    3  C3  UNL     1      28.482   6.719  11.003  1.00  0.00     0.318 C 
HETATM    4  O1  UNL     1      28.915   6.277  12.114  1.00  0.00    -0.265 OA
ENDROOT
BRANCH   1   5
HETATM    5  N1  UNL     1      26.233   6.269  11.716  1.00  0.00    -0.297 N 
HETATM    6  C2  UNL     1      25.534   5.199  11.630  1.00  0.00     0.090 C 
HETATM    7  C1  UNL     1      25.589   4.331  10.418  1.00  0.00     0.076 C 
ATOM      8  H1  UNL     1      26.150   6.817  12.573  1.00  0.00     0.187 HD
BRANCH   6   9
HETATM    9  C9  UNL     1      24.669   4.829  12.726  1.00  0.00     0.279 C 
HETATM   10  O3  UNL     1      23.723   4.038  12.521  1.00  0.00    -0.265 OA
HETATM   11  N4  UNL     1      24.896   5.358  14.012  1.00  0.00    -0.285 N 
ATOM     12  H4  UNL     1      25.669   6.003  14.180  1.00  0.00     0.184 HD
BRANCH  11  13
HETATM   13  N5  UNL     1      24.044   4.984  15.052  1.00  0.00    -0.237 NA
HETATM   14  C10 UNL     1      23.204   6.112  15.378  1.00  0.00     0.135 C 
HETATM   15  C11 UNL     1      24.721   4.412  16.182  1.00  0.00     0.135 C 
ENDBRANCH  11  13
ENDBRANCH   6   9
ENDBRANCH   1   5
BRANCH   3  16
HETATM   16  C4  UNL     1      29.511   7.194  10.040  1.00  0.00     0.478 C 
HETATM   17  F1  UNL     1      30.647   6.441  10.165  1.00  0.00    -0.190 F 
BRANCH  16  18
HETATM   18  N3  UNL     1      29.749   8.618  10.204  1.00  0.00     0.173 N 
HETATM   19  C5  UNL     1      31.032   8.952  10.739  1.00  0.00     0.307 C 
HETATM   20  C6  UNL     1      30.686  10.260  11.478  1.00  0.00     0.200 C 
HETATM   21  O2  UNL     1      29.495   9.890  12.095  1.00  0.00    -0.361 OA
HETATM   22  C7  UNL     1      28.797   9.232  11.110  1.00  0.00     0.446 C 
ENDBRANCH  16  18
BRANCH  16  23
HETATM   23  C8  UNL     1      28.952   6.989   8.650  1.00  0.00     0.464 C 
HETATM   24  F2  UNL     1      27.876   7.835   8.383  1.00  0.00    -0.165 F 
HETATM   25  F3  UNL     1      28.455   5.704   8.499  1.00  0.00    -0.165 F 
HETATM   26  F4  UNL     1      29.910   7.285   7.707  1.00  0.00    -0.165 F 
ENDBRANCH  16  23
ENDBRANCH   3  16
TORSDOF 6
ENDMDL
MODEL 2
REMARK VINA RESULT: -6.570485531      3.811      5.021
REMARK  6 active torsions:
REMARK  status: ('A' for Active; 'I' for Inactive)
REMARK    1  A    between atoms: C2_2  and  C9_20 
REMARK    2  A    between atoms: N1_3  and  N2_5 
REMARK       I    between atoms: N2_5  and  C3_7 
REMARK    3  A    between atoms: C3_7  and  C4_9 
REMARK    4  A    between atoms: C4_9  and  N3_11 
REMARK    5  A    between atoms: C4_9  and  C8_16 
REMARK       I    between atoms: C9_20  and  N4_22 
REMARK    6  A    between atoms: N4_22  and  N5_24 
ROOT
HETATM    1  N2  UNL     1      24.831   6.856  12.227  1.00  0.00    -0.265 N 
ATOM      2  H2  UNL     1      24.459   7.173  11.331  1.00  0.00     0.190 HD
HETATM    3  C3  UNL     1      25.675   5.723  12.305  1.00  0.00     0.318 C 
HETATM    4  O1  UNL     1      26.133   5.340  13.427  1.00  0.00    -0.265 OA
ENDROOT
BRANCH   1   5
HETATM    5  N1  UNL     1      24.525   7.523  13.403  1.00  0.00    -0.297 N 
HETATM    6  C2  UNL     1      25.065   8.618  13.791  1.00  0.00     0.090 C 
HETATM    7  C1  UNL     1      26.111   9.300  12.974  1.00  0.00     0.076 C 
ATOM      8  H1  UNL     1      23.815   7.110  14.007  1.00  0.00     0.187 HD
BRANCH   6   9
HETATM    9  C9  UNL     1      24.658   9.202  15.048  1.00  0.00     0.279 C 
HETATM   10  O3  UNL     1      24.126   8.479  15.917  1.00  0.00    -0.265 OA
HETATM   11  N4  UNL     1      24.861  10.577  15.284  1.00  0.00    -0.285 N 
ATOM     12  H4  UNL     1      25.295  11.168  14.575  1.00  0.00     0.184 HD
BRANCH  11  13
HETATM   13  N5  UNL     1      24.456  11.114  16.507  1.00  0.00    -0.237 NA
HETATM   14  C10 UNL     1      23.858  12.404  16.259  1.00  0.00     0.135 C 
HETATM   15  C11 UNL     1      25.487  11.130  17.506  1.00  0.00     0.135 C 
ENDBRANCH  11  13
ENDBRANCH   6   9
ENDBRANCH   1   5
BRANCH   3  16
HETATM   16  C4  UNL     1      26.080   4.918  11.121  1.00  0.00     0.478 C 
HETATM   17  F1  UNL     1      27.053   4.024  11.478  1.00  0.00    -0.190 F 
BRANCH  16  18
HETATM   18  N3  UNL     1      26.475   5.783  10.023  1.00  0.00     0.173 N 
HETATM   19  C5  UNL     1      27.117   5.113   8.935  1.00  0.00     0.307 C 
HETATM   20  C6  UNL     1      28.034   6.242   8.423  1.00  0.00     0.200 C 
HETATM   21  O2  UNL     1      28.528   6.728   9.629  1.00  0.00    -0.361 OA
HETATM   22  C7  UNL     1      27.419   6.802  10.440  1.00  0.00     0.446 C 
ENDBRANCH  16  18
BRANCH  16  23
HETATM   23  C8  UNL     1      24.862   4.145  10.668  1.00  0.00     0.464 C 
HETATM   24  F2  UNL     1      23.968   3.907  11.711  1.00  0.00    -0.165 F 
HETATM   25  F3  UNL     1      25.218   2.892  10.194  1.00  0.00    -0.165 F 
HETATM   26  F4  UNL     1      24.165   4.871   9.728  1.00  0.00    -0.165 F 
ENDBRANCH  16  23
ENDBRANCH   3  16
TORSDOF 6
ENDMDL
MODEL 3
REMARK VINA RESULT: -6.564619620      1.027      1.304
REMARK  6 active torsions:
REMARK  status: ('A' for Active; 'I' for Inactive)
REMARK    1  A    between atoms: C2_2  and  C9_20 
REMARK    2  A    between atoms: N1_3  and  N2_5 
REMARK       I    between atoms: N2_5  and  C3_7 
REMARK    3  A    between atoms: C3_7  and  C4_9 
REMARK    4  A    between atoms: C4_9  and  N3_11 
REMARK    5  A    between atoms: C4_9  and  C8_16 
REMARK       I    between atoms: C9_20  and  N4_22 
REMARK    6  A    between atoms: N4_22  and  N5_24 
ROOT
HETATM    1  N2  UNL     1      26.576   7.133  10.964  1.00  0.00    -0.265 N 
ATOM      2  H2  UNL     1      26.099   7.548  10.163  1.00  0.00     0.190 HD
HETATM    3  C3  UNL     1      27.982   7.212  11.096  1.00  0.00     0.318 C 
HETATM    4  O1  UNL     1      28.563   6.693  12.100  1.00  0.00    -0.265 OA
ENDROOT
BRANCH   1   5
HETATM    5  N1  UNL     1      25.864   6.476  11.956  1.00  0.00    -0.297 N 
HETATM    6  C2  UNL     1      25.275   5.348  11.816  1.00  0.00     0.090 C 
HETATM    7  C1  UNL     1      25.307   4.611  10.519  1.00  0.00     0.076 C 
ATOM      8  H1  UNL     1      25.805   6.927  12.870  1.00  0.00     0.187 HD
BRANCH   6   9
HETATM    9  C9  UNL     1      24.559   4.780  12.934  1.00  0.00     0.279 C 
HETATM   10  O3  UNL     1      23.672   3.925  12.725  1.00  0.00    -0.265 OA
HETATM   11  N4  UNL     1      24.863   5.191  14.247  1.00  0.00    -0.285 N 
ATOM     12  H4  UNL     1      25.587   5.888  14.419  1.00  0.00     0.184 HD
BRANCH  11  13
HETATM   13  N5  UNL     1      24.154   4.626  15.309  1.00  0.00    -0.237 NA
HETATM   14  C10 UNL     1      23.051   5.500  15.633  1.00  0.00     0.135 C 
HETATM   15  C11 UNL     1      24.973   4.276  16.435  1.00  0.00     0.135 C 
ENDBRANCH  11  13
ENDBRANCH   6   9
ENDBRANCH   1   5
BRANCH   3  16
HETATM   16  C4  UNL     1      28.863   7.886  10.104  1.00  0.00     0.478 C 
HETATM   17  F1  UNL     1      30.168   7.802  10.509  1.00  0.00    -0.190 F 
BRANCH  16  18
HETATM   18  N3  UNL     1      28.425   9.251   9.872  1.00  0.00     0.173 N 
HETATM   19  C5  UNL     1      29.452  10.143   9.431  1.00  0.00     0.307 C 
HETATM   20  C6  UNL     1      28.934  11.469  10.023  1.00  0.00     0.200 C 
HETATM   21  O2  UNL     1      28.561  11.046  11.294  1.00  0.00    -0.361 OA
HETATM   22  C7  UNL     1      27.890   9.867  11.072  1.00  0.00     0.446 C 
ENDBRANCH  16  18
BRANCH  16  23
HETATM   23  C8  UNL     1      28.719   7.140   8.797  1.00  0.00     0.464 C 
HETATM   24  F2  UNL     1      28.416   5.793   8.987  1.00  0.00    -0.165 F 
HETATM   25  F3  UNL     1      29.908   7.154   8.084  1.00  0.00    -0.165 F 
HETATM   26  F4  UNL     1      27.676   7.664   8.067  1.00  0.00    -0.165 F 
ENDBRANCH  16  23
ENDBRANCH   3  16
TORSDOF 6
ENDMDL
MODEL 4
REMARK VINA RESULT: -6.515477442      3.006      4.557
REMARK  6 active torsions:
REMARK  status: ('A' for Active; 'I' for Inactive)
REMARK    1  A    between atoms: C2_2  and  C9_20 
REMARK    2  A    between atoms: N1_3  and  N2_5 
REMARK       I    between atoms: N2_5  and  C3_7 
REMARK    3  A    between atoms: C3_7  and  C4_9 
REMARK    4  A    between atoms: C4_9  and  N3_11 
REMARK    5  A    between atoms: C4_9  and  C8_16 
REMARK       I    between atoms: C9_20  and  N4_22 
REMARK    6  A    between atoms: N4_22  and  N5_24 
ROOT
HETATM    1  N2  UNL     1      26.974   6.815  12.442  1.00  0.00    -0.265 N 
ATOM      2  H2  UNL     1      27.440   5.940  12.680  1.00  0.00     0.190 HD
HETATM    3  C3  UNL     1      26.915   7.268  11.103  1.00  0.00     0.318 C 
HETATM    4  O1  UNL     1      26.330   8.360  10.819  1.00  0.00    -0.265 OA
ENDROOT
BRANCH   1   5
HETATM    5  N1  UNL     1      26.378   7.596  13.421  1.00  0.00    -0.297 N 
HETATM    6  C2  UNL     1      25.371   7.247  14.130  1.00  0.00     0.090 C 
HETATM    7  C1  UNL     1      24.727   5.912  13.960  1.00  0.00     0.076 C 
ATOM      8  H1  UNL     1      26.773   8.522  13.589  1.00  0.00     0.187 HD
BRANCH   6   9
HETATM    9  C9  UNL     1      24.844   8.166  15.112  1.00  0.00     0.279 C 
HETATM   10  O3  UNL     1      24.018   7.757  15.955  1.00  0.00    -0.265 OA
HETATM   11  N4  UNL     1      25.262   9.512  15.112  1.00  0.00    -0.285 N 
ATOM     12  H4  UNL     1      25.937   9.847  14.424  1.00  0.00     0.184 HD
BRANCH  11  13
HETATM   13  N5  UNL     1      24.735  10.379  16.071  1.00  0.00    -0.237 NA
HETATM   14  C10 UNL     1      24.191  11.530  15.391  1.00  0.00     0.135 C 
HETATM   15  C11 UNL     1      25.650  10.702  17.129  1.00  0.00     0.135 C 
ENDBRANCH  11  13
ENDBRANCH   6   9
ENDBRANCH   1   5
BRANCH   3  16
HETATM   16  C4  UNL     1      27.514   6.528   9.959  1.00  0.00     0.478 C 
HETATM   17  F1  UNL     1      27.329   7.234   8.801  1.00  0.00    -0.190 F 
BRANCH  16  18
HETATM   18  N3  UNL     1      26.989   5.175   9.893  1.00  0.00     0.173 N 
HETATM   19  C5  UNL     1      26.830   4.659   8.568  1.00  0.00     0.307 C 
HETATM   20  C6  UNL     1      25.639   3.706   8.789  1.00  0.00     0.200 C 
HETATM   21  O2  UNL     1      24.817   4.510   9.572  1.00  0.00    -0.361 OA
HETATM   22  C7  UNL     1      25.673   5.067  10.493  1.00  0.00     0.446 C 
ENDBRANCH  16  18
BRANCH  16  23
HETATM   23  C8  UNL     1      28.999   6.420  10.223  1.00  0.00     0.464 C 
HETATM   24  F2  UNL     1      29.729   6.216   9.053  1.00  0.00    -0.165 F 
HETATM   25  F3  UNL     1      29.281   5.329  11.029  1.00  0.00    -0.165 F 
HETATM   26  F4  UNL     1      29.469   7.595  10.764  1.00  0.00    -0.165 F 
ENDBRANCH  16  23
ENDBRANCH   3  16
TORSDOF 6
ENDMDL
MODEL 5
REMARK VINA RESULT: -6.393629020      3.287      7.287
REMARK  6 active torsions:
REMARK  status: ('A' for Active; 'I' for Inactive)
REMARK    1  A    between atoms: C2_2  and  C9_20 
REMARK    2  A    between atoms: N1_3  and  N2_5 
REMARK       I    between atoms: N2_5  and  C3_7 
REMARK    3  A    between atoms: C3_7  and  C4_9 
REMARK    4  A    between atoms: C4_9  and  N3_11 
REMARK    5  A    between atoms: C4_9  and  C8_16 
REMARK       I    between atoms: C9_20  and  N4_22 
REMARK    6  A    between atoms: N4_22  and  N5_24 
ROOT
HETATM    1  N2  UNL     1      29.181   5.932  11.223  1.00  0.00    -0.265 N 
ATOM      2  H2  UNL     1      29.465   5.052  11.655  1.00  0.00     0.190 HD
HETATM    3  C3  UNL     1      27.823   6.193  10.926  1.00  0.00     0.318 C 
HETATM    4  O1  UNL     1      27.483   7.294  10.390  1.00  0.00    -0.265 OA
ENDROOT
BRANCH   1   5
HETATM    5  N1  UNL     1      30.115   6.908  10.911  1.00  0.00    -0.297 N 
HETATM    6  C2  UNL     1      30.868   7.505  11.758  1.00  0.00     0.090 C 
HETATM    7  C1  UNL     1      30.804   7.186  13.214  1.00  0.00     0.076 C 
ATOM      8  H1  UNL     1      30.211   7.171   9.930  1.00  0.00     0.187 HD
BRANCH   6   9
HETATM    9  C9  UNL     1      31.794   8.512  11.295  1.00  0.00     0.279 C 
HETATM   10  O3  UNL     1      31.395   9.400  10.513  1.00  0.00    -0.265 OA
HETATM   11  N4  UNL     1      33.136   8.486  11.726  1.00  0.00    -0.285 N 
ATOM     12  H4  UNL     1      33.463   7.761  12.365  1.00  0.00     0.184 HD
BRANCH  11  13
HETATM   13  N5  UNL     1      34.009   9.471  11.261  1.00  0.00    -0.237 NA
HETATM   14  C10 UNL     1      35.307   8.871  11.065  1.00  0.00     0.135 C 
HETATM   15  C11 UNL     1      34.030  10.658  12.068  1.00  0.00     0.135 C 
ENDBRANCH  11  13
ENDBRANCH   6   9
ENDBRANCH   1   5
BRANCH   3  16
HETATM   16  C4  UNL     1      26.722   5.232  11.208  1.00  0.00     0.478 C 
HETATM   17  F1  UNL     1      27.239   4.062  11.693  1.00  0.00    -0.190 F 
BRANCH  16  18
HETATM   18  N3  UNL     1      25.892   5.044  10.030  1.00  0.00     0.173 N 
HETATM   19  C5  UNL     1      24.973   3.952  10.114  1.00  0.00     0.307 C 
HETATM   20  C6  UNL     1      24.883   3.557   8.627  1.00  0.00     0.200 C 
HETATM   21  O2  UNL     1      26.227   3.608   8.273  1.00  0.00    -0.361 OA
HETATM   22  C7  UNL     1      26.679   4.776   8.841  1.00  0.00     0.446 C 
ENDBRANCH  16  18
BRANCH  16  23
HETATM   23  C8  UNL     1      25.850   5.850  12.277  1.00  0.00     0.464 C 
HETATM   24  F2  UNL     1      26.588   6.592  13.197  1.00  0.00    -0.165 F 
HETATM   25  F3  UNL     1      25.209   4.872  13.021  1.00  0.00    -0.165 F 
HETATM   26  F4  UNL     1      24.958   6.731  11.708  1.00  0.00    -0.165 F 
ENDBRANCH  16  23
ENDBRANCH   3  16
TORSDOF 6
ENDMDL
