MODEL 1
REMARK VINA RESULT: -6.396464206      0.000      0.000
REMARK  6 active torsions:
REMARK  status: ('A' for Active; 'I' for Inactive)
REMARK    1  A    between atoms: C2_2  and  O1_3 
REMARK    2  A    between atoms: O1_3  and  C3_4 
REMARK    3  A    between atoms: C4_5  and  O2_6 
REMARK    4  A    between atoms: C5_8  and  C6_9 
REMARK       I    between atoms: C6_9  and  N1_11 
REMARK    5  A    between atoms: C11_17  and  O4_18 
REMARK    6  A    between atoms: C11_17  and  C12_20 
ROOT
HETATM    1  C3  UNL     1      25.610   5.152  12.155  1.00  0.00     0.393 C 
HETATM    2  C4  UNL     1      26.598   6.328  12.193  1.00  0.00     0.193 C 
HETATM    3  C5  UNL     1      27.322   6.142  10.880  1.00  0.00     0.147 C 
HETATM    4  C9  UNL     1      26.197   5.698   9.970  1.00  0.00     0.285 C 
HETATM    5  C10 UNL     1      26.432   4.356   9.363  1.00  0.00     0.275 C 
HETATM    6  F1  UNL     1      26.451   4.292   7.992  1.00  0.00    -0.242 F 
HETATM    7  C11 UNL     1      25.180   3.970  10.052  1.00  0.00     0.340 C 
HETATM    8  N2  UNL     1      25.143   5.198  10.811  1.00  0.00     0.171 N 
ENDROOT
BRANCH   3   9
HETATM    9  C6  UNL     1      27.995   7.332  10.375  1.00  0.00     0.228 C 
HETATM   10  O3  UNL     1      27.323   8.260   9.858  1.00  0.00    -0.273 OA
HETATM   11  N1  UNL     1      29.394   7.475  10.449  1.00  0.00    -0.360 N 
HETATM   12  C7  UNL     1      30.061   8.674   9.954  1.00  0.00     0.152 C 
HETATM   13  C8  UNL     1      30.230   6.441  11.012  1.00  0.00     0.152 C 
ENDBRANCH   3   9
BRANCH   2  14
HETATM   14  O2  UNL     1      25.812   7.478  12.198  1.00  0.00    -0.390 OA
ATOM     15  H2  UNL     1      26.400   8.191  11.976  1.00  0.00     0.210 HD
ENDBRANCH   2  14
BRANCH   1  16
HETATM   16  O1  UNL     1      24.553   5.382  13.023  1.00  0.00    -0.355 OA
BRANCH  16  17
HETATM   17  C2  UNL     1      24.802   4.816  14.272  1.00  0.00     0.166 C 
HETATM   18  C1  UNL     1      23.557   4.383  14.971  1.00  0.00     0.033 C 
ENDBRANCH  16  17
ENDBRANCH   1  16
BRANCH   7  19
HETATM   19  O4  UNL     1      25.358   2.804  10.793  1.00  0.00    -0.357 OA
ATOM     20  H4  UNL     1      24.701   2.730  11.474  1.00  0.00     0.213 HD
ENDBRANCH   7  19
BRANCH   7  21
HETATM   21  C12 UNL     1      23.939   3.848   9.207  1.00  0.00     0.334 C 
HETATM   22  F2  UNL     1      22.793   3.709   9.956  1.00  0.00    -0.227 F 
HETATM   23 CL1  UNL     1      24.055   2.481   8.069  1.00  0.00    -0.084 Cl
ENDBRANCH   7  21
TORSDOF 6
ENDMDL
MODEL 2
REMARK VINA RESULT: -6.099821246      3.167      5.416
REMARK  6 active torsions:
REMARK  status: ('A' for Active; 'I' for Inactive)
REMARK    1  A    between atoms: C2_2  and  O1_3 
REMARK    2  A    between atoms: O1_3  and  C3_4 
REMARK    3  A    between atoms: C4_5  and  O2_6 
REMARK    4  A    between atoms: C5_8  and  C6_9 
REMARK       I    between atoms: C6_9  and  N1_11 
REMARK    5  A    between atoms: C11_17  and  O4_18 
REMARK    6  A    between atoms: C11_17  and  C12_20 
ROOT
HETATM    1  C3  UNL     1      26.769   5.062  10.409  1.00  0.00     0.393 C 
HETATM    2  C4  UNL     1      25.535   5.013  11.324  1.00  0.00     0.193 C 
HETATM    3  C5  UNL     1      25.969   5.927  12.446  1.00  0.00     0.147 C 
HETATM    4  C9  UNL     1      26.719   7.004  11.692  1.00  0.00     0.285 C 
HETATM    5  C10 UNL     1      28.141   7.134  12.121  1.00  0.00     0.275 C 
HETATM    6  F1  UNL     1      28.534   8.359  12.597  1.00  0.00    -0.242 F 
HETATM    7  C11 UNL     1      28.459   6.810  10.712  1.00  0.00     0.340 C 
HETATM    8  N2  UNL     1      27.092   6.448  10.419  1.00  0.00     0.171 N 
ENDROOT
BRANCH   3   9
HETATM    9  C6  UNL     1      24.881   6.477  13.246  1.00  0.00     0.228 C 
HETATM   10  O3  UNL     1      24.267   7.498  12.848  1.00  0.00    -0.273 OA
HETATM   11  N1  UNL     1      24.494   5.891  14.466  1.00  0.00    -0.360 N 
HETATM   12  C7  UNL     1      23.397   6.438  15.255  1.00  0.00     0.152 C 
HETATM   13  C8  UNL     1      25.169   4.728  14.993  1.00  0.00     0.152 C 
ENDBRANCH   3   9
BRANCH   2  14
HETATM   14  O2  UNL     1      24.493   5.559  10.578  1.00  0.00    -0.390 OA
ATOM     15  H2  UNL     1      24.737   6.465  10.422  1.00  0.00     0.210 HD
ENDBRANCH   2  14
BRANCH   1  16
HETATM   16  O1  UNL     1      26.431   4.672   9.122  1.00  0.00    -0.355 OA
BRANCH  16  17
HETATM   17  C2  UNL     1      25.996   3.349   9.101  1.00  0.00     0.166 C 
HETATM   18  C1  UNL     1      24.897   3.115   8.118  1.00  0.00     0.033 C 
ENDBRANCH  16  17
ENDBRANCH   1  16
BRANCH   7  19
HETATM   19  O4  UNL     1      29.390   5.777  10.636  1.00  0.00    -0.357 OA
ATOM     20  H4  UNL     1      30.032   5.947   9.956  1.00  0.00     0.213 HD
ENDBRANCH   7  19
BRANCH   7  21
HETATM   21  C12 UNL     1      28.893   7.949   9.826  1.00  0.00     0.334 C 
HETATM   22  F2  UNL     1      28.821   7.642   8.486  1.00  0.00    -0.227 F 
HETATM   23 CL1  UNL     1      30.551   8.480  10.208  1.00  0.00    -0.084 Cl
ENDBRANCH   7  21
TORSDOF 6
ENDMDL
MODEL 3
REMARK VINA RESULT: -5.989719711      3.769      5.134
REMARK  6 active torsions:
REMARK  status: ('A' for Active; 'I' for Inactive)
REMARK    1  A    between atoms: C2_2  and  O1_3 
REMARK    2  A    between atoms: O1_3  and  C3_4 
REMARK    3  A    between atoms: C4_5  and  O2_6 
REMARK    4  A    between atoms: C5_8  and  C6_9 
REMARK       I    between atoms: C6_9  and  N1_11 
REMARK    5  A    between atoms: C11_17  and  O4_18 
REMARK    6  A    between atoms: C11_17  and  C12_20 
ROOT
HETATM    1  C3  UNL     1      24.534   6.372  13.672  1.00  0.00     0.393 C 
HETATM    2  C4  UNL     1      24.907   5.175  12.784  1.00  0.00     0.193 C 
HETATM    3  C5  UNL     1      25.099   5.852  11.447  1.00  0.00     0.147 C 
HETATM    4  C9  UNL     1      25.763   7.150  11.854  1.00  0.00     0.285 C 
HETATM    5  C10 UNL     1      24.987   8.356  11.444  1.00  0.00     0.275 C 
HETATM    6  F1  UNL     1      25.627   9.253  10.625  1.00  0.00    -0.242 F 
HETATM    7  C11 UNL     1      24.942   8.659  12.892  1.00  0.00     0.340 C 
HETATM    8  N2  UNL     1      25.465   7.359  13.246  1.00  0.00     0.171 N 
ENDROOT
BRANCH   3   9
HETATM    9  C6  UNL     1      25.904   5.104  10.489  1.00  0.00     0.228 C 
HETATM   10  O3  UNL     1      27.149   5.269  10.455  1.00  0.00    -0.273 OA
HETATM   11  N1  UNL     1      25.320   4.193   9.589  1.00  0.00    -0.360 N 
HETATM   12  C7  UNL     1      26.132   3.438   8.641  1.00  0.00     0.152 C 
HETATM   13  C8  UNL     1      23.893   3.969   9.559  1.00  0.00     0.152 C 
ENDBRANCH   3   9
BRANCH   2  14
HETATM   14  O2  UNL     1      26.105   4.685  13.299  1.00  0.00    -0.390 OA
ATOM     15  H2  UNL     1      26.280   5.201  14.077  1.00  0.00     0.210 HD
ENDBRANCH   2  14
BRANCH   1  16
HETATM   16  O1  UNL     1      24.754   6.069  15.007  1.00  0.00    -0.355 OA
BRANCH  16  17
HETATM   17  C2  UNL     1      23.570   6.149  15.737  1.00  0.00     0.166 C 
HETATM   18  C1  UNL     1      22.874   4.834  15.858  1.00  0.00     0.033 C 
ENDBRANCH  16  17
ENDBRANCH   1  16
BRANCH   7  19
HETATM   19  O4  UNL     1      23.639   8.921  13.306  1.00  0.00    -0.357 OA
ATOM     20  H4  UNL     1      23.452   8.493  14.134  1.00  0.00     0.213 HD
ENDBRANCH   7  19
BRANCH   7  21
HETATM   21  C12 UNL     1      25.861   9.740  13.398  1.00  0.00     0.334 C 
HETATM   22  F2  UNL     1      26.134   9.626  14.742  1.00  0.00    -0.227 F 
HETATM   23 CL1  UNL     1      25.197  11.364  13.080  1.00  0.00    -0.084 Cl
ENDBRANCH   7  21
TORSDOF 6
ENDMDL
MODEL 4
REMARK VINA RESULT: -5.844124051      3.544      4.701
REMARK  6 active torsions:
REMARK  status: ('A' for Active; 'I' for Inactive)
REMARK    1  A    between atoms: C2_2  and  O1_3 
REMARK    2  A    between atoms: O1_3  and  C3_4 
REMARK    3  A    between atoms: C4_5  and  O2_6 
REMARK    4  A    between atoms: C5_8  and  C6_9 
REMARK       I    between atoms: C6_9  and  N1_11 
REMARK    5  A    between atoms: C11_17  and  O4_18 
REMARK    6  A    between atoms: C11_17  and  C12_20 
ROOT
HETATM    1  C3  UNL     1      25.775   6.595  11.706  1.00  0.00     0.393 C 
HETATM    2  C4  UNL     1      25.097   7.734  12.484  1.00  0.00     0.193 C 
HETATM    3  C5  UNL     1      26.256   8.684  12.676  1.00  0.00     0.147 C 
HETATM    4  C9  UNL     1      26.982   8.554  11.354  1.00  0.00     0.285 C 
HETATM    5  C10 UNL     1      28.390   8.087  11.505  1.00  0.00     0.275 C 
HETATM    6  F1  UNL     1      29.371   8.911  11.013  1.00  0.00    -0.242 F 
HETATM    7  C11 UNL     1      27.964   6.946  10.662  1.00  0.00     0.340 C 
HETATM    8  N2  UNL     1      26.569   7.309  10.765  1.00  0.00     0.171 N 
ENDROOT
BRANCH   3   9
HETATM    9  C6  UNL     1      25.879  10.064  12.959  1.00  0.00     0.228 C 
HETATM   10  O3  UNL     1      25.567  10.833  12.016  1.00  0.00    -0.273 OA
HETATM   11  N1  UNL     1      25.856  10.567  14.274  1.00  0.00    -0.360 N 
HETATM   12  C7  UNL     1      25.466  11.944  14.552  1.00  0.00     0.152 C 
HETATM   13  C8  UNL     1      26.223   9.745  15.404  1.00  0.00     0.152 C 
ENDBRANCH   3   9
BRANCH   2  14
HETATM   14  O2  UNL     1      24.132   8.254  11.624  1.00  0.00    -0.390 OA
ATOM     15  H2  UNL     1      23.955   9.132  11.939  1.00  0.00     0.210 HD
ENDBRANCH   2  14
BRANCH   1  16
HETATM   16  O1  UNL     1      24.826   5.838  11.035  1.00  0.00    -0.355 OA
BRANCH  16  17
HETATM   17  C2  UNL     1      25.196   4.496  10.997  1.00  0.00     0.166 C 
HETATM   18  C1  UNL     1      25.423   3.996   9.609  1.00  0.00     0.033 C 
ENDBRANCH  16  17
ENDBRANCH   1  16
BRANCH   7  19
HETATM   19  O4  UNL     1      28.320   5.734  11.247  1.00  0.00    -0.357 OA
ATOM     20  H4  UNL     1      27.588   5.129  11.249  1.00  0.00     0.213 HD
ENDBRANCH   7  19
BRANCH   7  21
HETATM   21  C12 UNL     1      28.395   6.959   9.219  1.00  0.00     0.334 C 
HETATM   22  F2  UNL     1      27.571   6.212   8.408  1.00  0.00    -0.227 F 
HETATM   23 CL1  UNL     1      30.070   6.378   9.032  1.00  0.00    -0.084 Cl
ENDBRANCH   7  21
TORSDOF 6
ENDMDL
MODEL 5
REMARK VINA RESULT: -5.837945302      2.956      3.739
REMARK  6 active torsions:
REMARK  status: ('A' for Active; 'I' for Inactive)
REMARK    1  A    between atoms: C2_2  and  O1_3 
REMARK    2  A    between atoms: O1_3  and  C3_4 
REMARK    3  A    between atoms: C4_5  and  O2_6 
REMARK    4  A    between atoms: C5_8  and  C6_9 
REMARK       I    between atoms: C6_9  and  N1_11 
REMARK    5  A    between atoms: C11_17  and  O4_18 
REMARK    6  A    between atoms: C11_17  and  C12_20 
ROOT
HETATM    1  C3  UNL     1      24.946   5.488  13.865  1.00  0.00     0.393 C 
HETATM    2  C4  UNL     1      24.833   6.763  14.716  1.00  0.00     0.193 C 
HETATM    3  C5  UNL     1      25.833   7.661  14.027  1.00  0.00     0.147 C 
HETATM    4  C9  UNL     1      25.615   7.304  12.572  1.00  0.00     0.285 C 
HETATM    5  C10 UNL     1      26.844   6.782  11.909  1.00  0.00     0.275 C 
HETATM    6  F1  UNL     1      27.292   7.470  10.809  1.00  0.00    -0.242 F 
HETATM    7  C11 UNL     1      26.040   5.561  11.674  1.00  0.00     0.340 C 
HETATM    8  N2  UNL     1      24.980   6.015  12.544  1.00  0.00     0.171 N 
ENDROOT
BRANCH   3   9
HETATM    9  C6  UNL     1      25.650   9.086  14.273  1.00  0.00     0.228 C 
HETATM   10  O3  UNL     1      24.677   9.691  13.756  1.00  0.00    -0.273 OA
HETATM   11  N1  UNL     1      26.542   9.816  15.082  1.00  0.00    -0.360 N 
HETATM   12  C7  UNL     1      26.347  11.238  15.335  1.00  0.00     0.152 C 
HETATM   13  C8  UNL     1      27.693   9.190  15.692  1.00  0.00     0.152 C 
ENDBRANCH   3   9
BRANCH   2  14
HETATM   14  O2  UNL     1      23.525   7.211  14.549  1.00  0.00    -0.390 OA
ATOM     15  H2  UNL     1      23.416   7.920  15.172  1.00  0.00     0.210 HD
ENDBRANCH   2  14
BRANCH   1  16
HETATM   16  O1  UNL     1      23.815   4.700  14.024  1.00  0.00    -0.355 OA
BRANCH  16  17
HETATM   17  C2  UNL     1      23.746   4.185  15.317  1.00  0.00     0.166 C 
HETATM   18  C1  UNL     1      22.360   4.195  15.872  1.00  0.00     0.033 C 
ENDBRANCH  16  17
ENDBRANCH   1  16
BRANCH   7  19
HETATM   19  O4  UNL     1      26.726   4.425  12.095  1.00  0.00    -0.357 OA
ATOM     20  H4  UNL     1      26.262   3.634  11.844  1.00  0.00     0.213 HD
ENDBRANCH   7  19
BRANCH   7  21
HETATM   21  C12 UNL     1      25.509   5.344  10.281  1.00  0.00     0.334 C 
HETATM   22  F2  UNL     1      24.462   4.451  10.240  1.00  0.00    -0.227 F 
HETATM   23 CL1  UNL     1      26.788   4.786   9.173  1.00  0.00    -0.084 Cl
ENDBRANCH   7  21
TORSDOF 6
ENDMDL
