MODEL 1
REMARK VINA RESULT: -6.576446868      0.000      0.000
REMARK  3 active torsions:
REMARK  status: ('A' for Active; 'I' for Inactive)
REMARK    1  A    between atoms: C2_2  and  C4_5 
REMARK    2  A    between atoms: C4_5  and  N3_9 
REMARK    3  A    between atoms: N3_9  and  C5_11 
ROOT
HETATM    1  C1  UNL     1      -7.317 -42.485  13.731  1.00  0.00     0.033 C 
HETATM    2  C2  UNL     1      -6.698 -43.790  13.221  1.00  0.00     0.155 C 
HETATM    3  C3  UNL     1      -5.285 -43.820  13.583  1.00  0.00     0.071 C 
HETATM    4  N1  UNL     1      -4.141 -43.839  13.863  1.00  0.00    -0.196 NA
ENDROOT
BRANCH   2   5
HETATM    5  C4  UNL     1      -6.873 -43.780  11.748  1.00  0.00     0.088 C 
HETATM    6  N2  UNL     1      -6.077 -42.994  11.071  1.00  0.00    -0.388 N 
ATOM      7  H22 UNL     1      -5.369 -42.416  11.524  1.00  0.00     0.157 HD
ATOM      8  H21 UNL     1      -6.198 -42.987  10.059  1.00  0.00     0.157 HD
BRANCH   5   9
HETATM    9  N3  UNL     1      -7.853 -44.580  11.122  1.00  0.00    -0.374 N 
ATOM     10  H3  UNL     1      -8.023 -45.530  11.453  1.00  0.00     0.161 HD
BRANCH   9  11
HETATM   11  C5  UNL     1      -8.602 -44.063  10.026  1.00  0.00     0.082 C 
HETATM   12  C6  UNL     1      -8.140 -44.793   8.758  1.00  0.00     0.025 C 
HETATM   13  C7  UNL     1      -8.843 -44.068   7.612  1.00  0.00     0.002 C 
HETATM   14  C8  UNL     1     -10.315 -44.419   7.741  1.00  0.00     0.000 C 
HETATM   15  C9  UNL     1     -10.861 -43.837   9.021  1.00  0.00     0.002 C 
HETATM   16  C10 UNL     1     -10.083 -44.258  10.234  1.00  0.00     0.025 C 
ENDBRANCH   9  11
ENDBRANCH   5   9
ENDBRANCH   2   5
TORSDOF 3
ENDMDL
MODEL 2
REMARK VINA RESULT: -6.535539953      1.548      1.815
REMARK  3 active torsions:
REMARK  status: ('A' for Active; 'I' for Inactive)
REMARK    1  A    between atoms: C2_2  and  C4_5 
REMARK    2  A    between atoms: C4_5  and  N3_9 
REMARK    3  A    between atoms: N3_9  and  C5_11 
ROOT
HETATM    1  C1  UNL     1      -7.433 -43.034  15.016  1.00  0.00     0.033 C 
HETATM    2  C2  UNL     1      -6.029 -43.332  14.479  1.00  0.00     0.155 C 
HETATM    3  C3  UNL     1      -5.144 -42.224  14.821  1.00  0.00     0.071 C 
HETATM    4  N1  UNL     1      -4.431 -41.324  15.084  1.00  0.00    -0.196 NA
ENDROOT
BRANCH   2   5
HETATM    5  C4  UNL     1      -6.173 -43.469  13.009  1.00  0.00     0.088 C 
HETATM    6  N2  UNL     1      -5.294 -42.838  12.276  1.00  0.00    -0.388 N 
ATOM      7  H22 UNL     1      -4.545 -42.279  12.684  1.00  0.00     0.157 HD
ATOM      8  H21 UNL     1      -5.393 -42.933  11.265  1.00  0.00     0.157 HD
BRANCH   5   9
HETATM    9  N3  UNL     1      -7.208 -44.244  12.444  1.00  0.00    -0.374 N 
ATOM     10  H3  UNL     1      -7.455 -45.144  12.855  1.00  0.00     0.161 HD
BRANCH   9  11
HETATM   11  C5  UNL     1      -7.909 -43.770  11.298  1.00  0.00     0.082 C 
HETATM   12  C6  UNL     1      -8.271 -44.987  10.436  1.00  0.00     0.025 C 
HETATM   13  C7  UNL     1      -8.850 -44.396   9.150  1.00  0.00     0.002 C 
HETATM   14  C8  UNL     1     -10.186 -43.789   9.538  1.00  0.00     0.000 C 
HETATM   15  C9  UNL     1      -9.961 -42.635  10.482  1.00  0.00     0.002 C 
HETATM   16  C10 UNL     1      -9.154 -43.015  11.689  1.00  0.00     0.025 C 
ENDBRANCH   9  11
ENDBRANCH   5   9
ENDBRANCH   2   5
TORSDOF 3
ENDMDL
MODEL 3
REMARK VINA RESULT: -6.516092420      1.860      2.685
REMARK  3 active torsions:
REMARK  status: ('A' for Active; 'I' for Inactive)
REMARK    1  A    between atoms: C2_2  and  C4_5 
REMARK    2  A    between atoms: C4_5  and  N3_9 
REMARK    3  A    between atoms: N3_9  and  C5_11 
ROOT
HETATM    1  C1  UNL     1      -6.723 -41.665  14.562  1.00  0.00     0.033 C 
HETATM    2  C2  UNL     1      -7.259 -43.097  14.651  1.00  0.00     0.155 C 
HETATM    3  C3  UNL     1      -6.969 -43.632  15.976  1.00  0.00     0.071 C 
HETATM    4  N1  UNL     1      -6.722 -44.071  17.042  1.00  0.00    -0.196 NA
ENDROOT
BRANCH   2   5
HETATM    5  C4  UNL     1      -6.555 -43.865  13.596  1.00  0.00     0.088 C 
HETATM    6  N2  UNL     1      -5.632 -44.699  14.000  1.00  0.00    -0.388 N 
ATOM      7  H22 UNL     1      -5.402 -44.821  14.986  1.00  0.00     0.157 HD
ATOM      8  H21 UNL     1      -5.147 -45.227  13.274  1.00  0.00     0.157 HD
BRANCH   5   9
HETATM    9  N3  UNL     1      -6.872 -43.697  12.231  1.00  0.00    -0.374 N 
ATOM     10  H3  UNL     1      -6.130 -43.531  11.552  1.00  0.00     0.161 HD
BRANCH   9  11
HETATM   11  C5  UNL     1      -8.229 -43.758  11.802  1.00  0.00     0.082 C 
HETATM   12  C6  UNL     1      -8.659 -42.338  11.409  1.00  0.00     0.025 C 
HETATM   13  C7  UNL     1     -10.159 -42.445  11.139  1.00  0.00     0.002 C 
HETATM   14  C8  UNL     1     -10.294 -43.254   9.861  1.00  0.00     0.000 C 
HETATM   15  C9  UNL     1      -9.796 -44.658  10.099  1.00  0.00     0.002 C 
HETATM   16  C10 UNL     1      -8.394 -44.698  10.635  1.00  0.00     0.025 C 
ENDBRANCH   9  11
ENDBRANCH   5   9
ENDBRANCH   2   5
TORSDOF 3
ENDMDL
MODEL 4
REMARK VINA RESULT: -6.504118626      1.756      5.515
REMARK  3 active torsions:
REMARK  status: ('A' for Active; 'I' for Inactive)
REMARK    1  A    between atoms: C2_2  and  C4_5 
REMARK    2  A    between atoms: C4_5  and  N3_9 
REMARK    3  A    between atoms: N3_9  and  C5_11 
ROOT
HETATM    1  C1  UNL     1     -10.357 -44.081   9.205  1.00  0.00     0.033 C 
HETATM    2  C2  UNL     1     -10.014 -43.643  10.632  1.00  0.00     0.155 C 
HETATM    3  C3  UNL     1     -10.214 -42.203  10.749  1.00  0.00     0.071 C 
HETATM    4  N1  UNL     1     -10.362 -41.037  10.841  1.00  0.00    -0.196 NA
ENDROOT
BRANCH   2   5
HETATM    5  C4  UNL     1      -8.591 -44.005  10.842  1.00  0.00     0.088 C 
HETATM    6  N2  UNL     1      -8.270 -45.255  10.632  1.00  0.00    -0.388 N 
ATOM      7  H22 UNL     1      -8.956 -45.951  10.340  1.00  0.00     0.157 HD
ATOM      8  H21 UNL     1      -7.292 -45.504  10.777  1.00  0.00     0.157 HD
BRANCH   5   9
HETATM    9  N3  UNL     1      -7.642 -43.042  11.246  1.00  0.00    -0.374 N 
ATOM     10  H3  UNL     1      -7.341 -42.317  10.594  1.00  0.00     0.161 HD
BRANCH   9  11
HETATM   11  C5  UNL     1      -7.103 -43.081  12.564  1.00  0.00     0.082 C 
HETATM   12  C6  UNL     1      -5.578 -43.197  12.442  1.00  0.00     0.025 C 
HETATM   13  C7  UNL     1      -5.087 -43.418  13.872  1.00  0.00     0.002 C 
HETATM   14  C8  UNL     1      -5.315 -42.104  14.597  1.00  0.00     0.000 C 
HETATM   15  C9  UNL     1      -6.795 -41.827  14.685  1.00  0.00     0.002 C 
HETATM   16  C10 UNL     1      -7.475 -41.847  13.346  1.00  0.00     0.025 C 
ENDBRANCH   9  11
ENDBRANCH   5   9
ENDBRANCH   2   5
TORSDOF 3
ENDMDL
MODEL 5
REMARK VINA RESULT: -6.451300387      1.237      2.097
REMARK  3 active torsions:
REMARK  status: ('A' for Active; 'I' for Inactive)
REMARK    1  A    between atoms: C2_2  and  C4_5 
REMARK    2  A    between atoms: C4_5  and  N3_9 
REMARK    3  A    between atoms: N3_9  and  C5_11 
ROOT
HETATM    1  C1  UNL     1      -5.419 -42.593  10.452  1.00  0.00     0.033 C 
HETATM    2  C2  UNL     1      -6.110 -42.556  11.819  1.00  0.00     0.155 C 
HETATM    3  C3  UNL     1      -5.254 -43.210  12.802  1.00  0.00     0.071 C 
HETATM    4  N1  UNL     1      -4.569 -43.750  13.595  1.00  0.00    -0.196 NA
ENDROOT
BRANCH   2   5
HETATM    5  C4  UNL     1      -7.389 -43.287  11.652  1.00  0.00     0.088 C 
HETATM    6  N2  UNL     1      -7.495 -44.429  12.280  1.00  0.00    -0.388 N 
ATOM      7  H22 UNL     1      -6.743 -44.804  12.857  1.00  0.00     0.157 HD
ATOM      8  H21 UNL     1      -8.375 -44.931  12.165  1.00  0.00     0.157 HD
BRANCH   5   9
HETATM    9  N3  UNL     1      -8.431 -42.768  10.853  1.00  0.00    -0.374 N 
ATOM     10  H3  UNL     1      -8.688 -41.783  10.928  1.00  0.00     0.161 HD
BRANCH   9  11
HETATM   11  C5  UNL     1      -9.124 -43.617   9.944  1.00  0.00     0.082 C 
HETATM   12  C6  UNL     1     -10.403 -42.890   9.507  1.00  0.00     0.025 C 
HETATM   13  C7  UNL     1     -11.178 -43.920   8.689  1.00  0.00     0.002 C 
HETATM   14  C8  UNL     1     -10.388 -44.111   7.406  1.00  0.00     0.000 C 
HETATM   15  C9  UNL     1      -9.051 -44.729   7.726  1.00  0.00     0.002 C 
HETATM   16  C10 UNL     1      -8.273 -43.948   8.745  1.00  0.00     0.025 C 
ENDBRANCH   9  11
ENDBRANCH   5   9
ENDBRANCH   2   5
TORSDOF 3
ENDMDL
