MODEL 1
REMARK VINA RESULT: -5.851394977      0.000      0.000
REMARK  3 active torsions:
REMARK  status: ('A' for Active; 'I' for Inactive)
REMARK    1  A    between atoms: C2_2  and  N1_4 
REMARK       I    between atoms: N1_4  and  C4_6 
REMARK       I    between atoms: C4_6  and  N3_11 
REMARK    2  A    between atoms: N2_7  and  O1_9 
REMARK    3  A    between atoms: N3_11  and  C5_13 
ROOT
HETATM    1  N1  UNL     1      -7.219 -43.001  13.745  1.00  0.00    -0.221 N 
ATOM      2  H1  UNL     1      -7.038 -43.998  13.628  1.00  0.00     0.178 HD
HETATM    3  C4  UNL     1      -7.714 -42.308  12.621  1.00  0.00     0.694 C 
HETATM    4  N2  UNL     1      -8.249 -41.165  12.780  1.00  0.00    -0.099 N 
ATOM      5  H2  UNL     1      -8.293 -40.800  13.732  1.00  0.00     0.213 HD
HETATM    6  N3  UNL     1      -7.640 -42.832  11.322  1.00  0.00    -0.220 N 
ATOM      7  H3  UNL     1      -7.409 -42.177  10.574  1.00  0.00     0.178 HD
ENDROOT
BRANCH   1   8
HETATM    8  C2  UNL     1      -6.947 -42.447  15.024  1.00  0.00     0.091 C 
HETATM    9  C1  UNL     1      -5.506 -42.108  15.282  1.00  0.00     0.032 C 
HETATM   10  C3  UNL     1      -7.386 -43.371  16.163  1.00  0.00     0.032 C 
ENDBRANCH   1   8
BRANCH   4  11
HETATM   11  O1  UNL     1      -8.769 -40.382  11.790  1.00  0.00    -0.276 OA
ATOM     12  H1  UNL     1      -8.776 -39.432  11.778  1.00  0.00     0.245 HD
ENDBRANCH   4  11
BRANCH   6  13
HETATM   13  C5  UNL     1      -7.857 -44.197  10.943  1.00  0.00     0.099 C 
HETATM   14  C6  UNL     1      -9.264 -44.570  10.583  1.00  0.00     0.026 C 
HETATM   15  C7  UNL     1      -8.915 -44.539   9.111  1.00  0.00     0.004 C 
HETATM   16  C8  UNL     1      -7.457 -44.512   9.517  1.00  0.00     0.026 C 
ENDBRANCH   6  13
TORSDOF 3
ENDMDL
MODEL 2
REMARK VINA RESULT: -5.790707903      1.230      1.315
REMARK  3 active torsions:
REMARK  status: ('A' for Active; 'I' for Inactive)
REMARK    1  A    between atoms: C2_2  and  N1_4 
REMARK       I    between atoms: N1_4  and  C4_6 
REMARK       I    between atoms: C4_6  and  N3_11 
REMARK    2  A    between atoms: N2_7  and  O1_9 
REMARK    3  A    between atoms: N3_11  and  C5_13 
ROOT
HETATM    1  N1  UNL     1      -6.954 -43.892  12.862  1.00  0.00    -0.221 N 
ATOM      2  H1  UNL     1      -7.047 -44.854  12.535  1.00  0.00     0.178 HD
HETATM    3  C4  UNL     1      -7.614 -42.898  12.110  1.00  0.00     0.694 C 
HETATM    4  N2  UNL     1      -7.802 -41.750  12.624  1.00  0.00    -0.099 N 
ATOM      5  H2  UNL     1      -7.458 -41.604  13.574  1.00  0.00     0.213 HD
HETATM    6  N3  UNL     1      -8.077 -43.125  10.806  1.00  0.00    -0.220 N 
ATOM      7  H3  UNL     1      -7.957 -42.365  10.136  1.00  0.00     0.178 HD
ENDROOT
BRANCH   1   8
HETATM    8  C2  UNL     1      -6.173 -43.686  14.029  1.00  0.00     0.091 C 
HETATM    9  C1  UNL     1      -4.967 -44.575  14.159  1.00  0.00     0.032 C 
HETATM   10  C3  UNL     1      -6.986 -43.868  15.314  1.00  0.00     0.032 C 
ENDBRANCH   1   8
BRANCH   4  11
HETATM   11  O1  UNL     1      -8.421 -40.695  12.019  1.00  0.00    -0.276 OA
ATOM     12  H1  UNL     1      -8.045 -40.140  11.346  1.00  0.00     0.245 HD
ENDBRANCH   4  11
BRANCH   6  13
HETATM   13  C5  UNL     1      -8.702 -44.321  10.322  1.00  0.00     0.099 C 
HETATM   14  C6  UNL     1      -9.545 -44.177   9.091  1.00  0.00     0.026 C 
HETATM   15  C7  UNL     1      -8.445 -44.779   8.245  1.00  0.00     0.004 C 
HETATM   16  C8  UNL     1      -7.779 -45.222   9.530  1.00  0.00     0.026 C 
ENDBRANCH   6  13
TORSDOF 3
ENDMDL
MODEL 3
REMARK VINA RESULT: -5.730189504      2.519      5.724
REMARK  3 active torsions:
REMARK  status: ('A' for Active; 'I' for Inactive)
REMARK    1  A    between atoms: C2_2  and  N1_4 
REMARK       I    between atoms: N1_4  and  C4_6 
REMARK       I    between atoms: C4_6  and  N3_11 
REMARK    2  A    between atoms: N2_7  and  O1_9 
REMARK    3  A    between atoms: N3_11  and  C5_13 
ROOT
HETATM    1  N1  UNL     1      -9.526 -43.039   8.824  1.00  0.00    -0.221 N 
ATOM      2  H1  UNL     1      -8.527 -43.224   8.915  1.00  0.00     0.178 HD
HETATM    3  C4  UNL     1     -10.183 -42.519   9.958  1.00  0.00     0.694 C 
HETATM    4  N2  UNL     1     -11.327 -41.981   9.823  1.00  0.00    -0.099 N 
ATOM      5  H2  UNL     1     -11.719 -41.953   8.882  1.00  0.00     0.213 HD
HETATM    6  N3  UNL     1      -9.621 -42.571  11.243  1.00  0.00    -0.220 N 
ATOM      7  H3  UNL     1     -10.254 -42.784  12.014  1.00  0.00     0.178 HD
ENDROOT
BRANCH   1   8
HETATM    8  C2  UNL     1     -10.119 -43.333   7.568  1.00  0.00     0.091 C 
HETATM    9  C1  UNL     1     -10.800 -44.670   7.478  1.00  0.00     0.032 C 
HETATM   10  C3  UNL     1      -9.106 -43.284   6.421  1.00  0.00     0.032 C 
ENDBRANCH   1   8
BRANCH   4  11
HETATM   11  O1  UNL     1     -12.078 -41.438  10.826  1.00  0.00    -0.276 OA
ATOM     12  H1  UNL     1     -12.976 -41.667  11.035  1.00  0.00     0.245 HD
ENDBRANCH   4  11
BRANCH   6  13
HETATM   13  C5  UNL     1      -8.244 -42.354  11.577  1.00  0.00     0.099 C 
HETATM   14  C6  UNL     1      -7.979 -41.449  12.742  1.00  0.00     0.026 C 
HETATM   15  C7  UNL     1      -7.686 -42.641  13.626  1.00  0.00     0.004 C 
HETATM   16  C8  UNL     1      -7.617 -43.482  12.369  1.00  0.00     0.026 C 
ENDBRANCH   6  13
TORSDOF 3
ENDMDL
MODEL 4
REMARK VINA RESULT: -5.629074451      1.881      2.231
REMARK  3 active torsions:
REMARK  status: ('A' for Active; 'I' for Inactive)
REMARK    1  A    between atoms: C2_2  and  N1_4 
REMARK       I    between atoms: N1_4  and  C4_6 
REMARK       I    between atoms: C4_6  and  N3_11 
REMARK    2  A    between atoms: N2_7  and  O1_9 
REMARK    3  A    between atoms: N3_11  and  C5_13 
ROOT
HETATM    1  N1  UNL     1      -7.277 -43.579  13.480  1.00  0.00    -0.221 N 
ATOM      2  H1  UNL     1      -8.253 -43.842  13.611  1.00  0.00     0.178 HD
HETATM    3  C4  UNL     1      -6.766 -43.661  12.168  1.00  0.00     0.694 C 
HETATM    4  N2  UNL     1      -5.681 -43.062  11.883  1.00  0.00    -0.099 N 
ATOM      5  H2  UNL     1      -5.226 -42.541  12.633  1.00  0.00     0.213 HD
HETATM    6  N3  UNL     1      -7.412 -44.384  11.153  1.00  0.00    -0.220 N 
ATOM      7  H3  UNL     1      -6.818 -44.917  10.519  1.00  0.00     0.178 HD
ENDROOT
BRANCH   1   8
HETATM    8  C2  UNL     1      -6.564 -43.166  14.636  1.00  0.00     0.091 C 
HETATM    9  C1  UNL     1      -7.057 -43.746  15.933  1.00  0.00     0.032 C 
HETATM   10  C3  UNL     1      -6.571 -41.645  14.812  1.00  0.00     0.032 C 
ENDBRANCH   1   8
BRANCH   4  11
HETATM   11  O1  UNL     1      -5.071 -43.053  10.662  1.00  0.00    -0.276 OA
ATOM     12  H1  UNL     1      -4.151 -43.226  10.498  1.00  0.00     0.245 HD
ENDBRANCH   4  11
BRANCH   6  13
HETATM   13  C5  UNL     1      -8.825 -44.446  10.922  1.00  0.00     0.099 C 
HETATM   14  C6  UNL     1      -9.562 -43.141  10.966  1.00  0.00     0.026 C 
HETATM   15  C7  UNL     1      -9.628 -43.107   9.455  1.00  0.00     0.004 C 
HETATM   16  C8  UNL     1      -9.206 -44.560   9.462  1.00  0.00     0.026 C 
ENDBRANCH   6  13
TORSDOF 3
ENDMDL
MODEL 5
REMARK VINA RESULT: -5.598282966      1.536      1.917
REMARK  3 active torsions:
REMARK  status: ('A' for Active; 'I' for Inactive)
REMARK    1  A    between atoms: C2_2  and  N1_4 
REMARK       I    between atoms: N1_4  and  C4_6 
REMARK       I    between atoms: C4_6  and  N3_11 
REMARK    2  A    between atoms: N2_7  and  O1_9 
REMARK    3  A    between atoms: N3_11  and  C5_13 
ROOT
HETATM    1  N1  UNL     1      -8.008 -42.948  12.224  1.00  0.00    -0.221 N 
ATOM      2  H1  UNL     1      -8.012 -43.928  11.942  1.00  0.00     0.178 HD
HETATM    3  C4  UNL     1      -8.927 -42.096  11.579  1.00  0.00     0.694 C 
HETATM    4  N2  UNL     1      -9.191 -40.962  12.091  1.00  0.00    -0.099 N 
ATOM      5  H2  UNL     1      -8.714 -40.722  12.960  1.00  0.00     0.213 HD
HETATM    6  N3  UNL     1      -9.569 -42.450  10.383  1.00  0.00    -0.220 N 
ATOM      7  H3  UNL     1      -9.680 -41.715   9.685  1.00  0.00     0.178 HD
ENDROOT
BRANCH   1   8
HETATM    8  C2  UNL     1      -7.076 -42.576  13.229  1.00  0.00     0.091 C 
HETATM    9  C1  UNL     1      -5.673 -43.074  13.018  1.00  0.00     0.032 C 
HETATM   10  C3  UNL     1      -7.500 -43.052  14.621  1.00  0.00     0.032 C 
ENDBRANCH   1   8
BRANCH   4  11
HETATM   11  O1  UNL     1     -10.055 -40.037  11.580  1.00  0.00    -0.276 OA
ATOM     12  H1  UNL     1     -10.039 -39.103  11.758  1.00  0.00     0.245 HD
ENDBRANCH   4  11
BRANCH   6  13
HETATM   13  C5  UNL     1     -10.085 -43.745  10.046  1.00  0.00     0.099 C 
HETATM   14  C6  UNL     1     -11.146 -43.782   8.989  1.00  0.00     0.026 C 
HETATM   15  C7  UNL     1     -10.138 -44.258   7.967  1.00  0.00     0.004 C 
HETATM   16  C8  UNL     1      -9.194 -44.540   9.116  1.00  0.00     0.026 C 
ENDBRANCH   6  13
TORSDOF 3
ENDMDL
