MODEL 1
REMARK VINA RESULT: -6.074166768      0.000      0.000
REMARK  2 active torsions:
REMARK  status: ('A' for Active; 'I' for Inactive)
REMARK    1  A    between atoms: C5_5  and  N1_6 
REMARK    2  A    between atoms: N1_6  and  C6_9 
ROOT
HETATM    1  N1  UNL     1      -7.144 -44.158  12.479  1.00  0.00    -0.054 N 
ATOM      2  H11 UNL     1      -7.264 -45.171  12.455  1.00  0.00     0.279 HD
ATOM      3  H12 UNL     1      -7.826 -43.970  13.214  1.00  0.00     0.279 HD
ENDROOT
BRANCH   1   4
HETATM    4  C5  UNL     1      -7.463 -43.497  11.194  1.00  0.00     0.255 C 
HETATM    5  C4  UNL     1      -7.659 -44.661  10.161  1.00  0.00     0.071 C 
HETATM    6  C3  UNL     1      -8.877 -44.437   9.281  1.00  0.00    -0.028 C 
HETATM    7  C2  UNL     1     -10.198 -44.222   9.793  1.00  0.00    -0.030 C 
HETATM    8  C1  UNL     1     -10.753 -42.822  10.078  1.00  0.00     0.038 C 
HETATM    9  C10 UNL     1      -9.870 -42.059  11.125  1.00  0.00     0.086 C 
HETATM   10  C9  UNL     1      -8.653 -42.753  11.189  1.00  0.00    -0.150 C 
ENDBRANCH   1   4
BRANCH   1  11
HETATM   11  C6  UNL     1      -5.825 -43.753  12.815  1.00  0.00     0.238 C 
HETATM   12  C7  UNL     1      -5.736 -42.467  13.634  1.00  0.00     0.267 C 
HETATM   13  N2  UNL     1      -4.578 -43.059  14.292  1.00  0.00    -0.071 N 
HETATM   14  C8  UNL     1      -5.220 -44.353  14.066  1.00  0.00     0.267 C 
ATOM     15  H22 UNL     1      -3.628 -42.872  13.970  1.00  0.00     0.277 HD
ATOM     16  H21 UNL     1      -4.286 -42.764  15.224  1.00  0.00     0.277 HD
ENDBRANCH   1  11
TORSDOF 2
ENDMDL
MODEL 2
REMARK VINA RESULT: -6.029356219      1.662      5.371
REMARK  2 active torsions:
REMARK  status: ('A' for Active; 'I' for Inactive)
REMARK    1  A    between atoms: C5_5  and  N1_6 
REMARK    2  A    between atoms: N1_6  and  C6_9 
ROOT
HETATM    1  N1  UNL     1      -7.415 -44.224  11.999  1.00  0.00    -0.054 N 
ATOM      2  H11 UNL     1      -8.320 -44.181  12.469  1.00  0.00     0.279 HD
ATOM      3  H12 UNL     1      -7.213 -45.202  12.208  1.00  0.00     0.279 HD
ENDROOT
BRANCH   1   4
HETATM    4  C5  UNL     1      -6.417 -43.283  12.553  1.00  0.00     0.255 C 
HETATM    5  C4  UNL     1      -7.250 -42.166  13.274  1.00  0.00     0.071 C 
HETATM    6  C3  UNL     1      -6.668 -41.813  14.632  1.00  0.00    -0.028 C 
HETATM    7  C2  UNL     1      -6.433 -42.773  15.670  1.00  0.00    -0.030 C 
HETATM    8  C1  UNL     1      -5.095 -43.503  15.829  1.00  0.00     0.038 C 
HETATM    9  C10 UNL     1      -4.733 -44.322  14.541  1.00  0.00     0.086 C 
HETATM   10  C9  UNL     1      -5.560 -43.829  13.521  1.00  0.00    -0.150 C 
ENDBRANCH   1   4
BRANCH   1  11
HETATM   11  C6  UNL     1      -7.488 -43.947  10.607  1.00  0.00     0.238 C 
HETATM   12  C7  UNL     1      -7.878 -45.139   9.735  1.00  0.00     0.267 C 
HETATM   13  N2  UNL     1      -8.568 -44.182   8.876  1.00  0.00    -0.071 N 
HETATM   14  C8  UNL     1      -8.797 -43.394  10.086  1.00  0.00     0.267 C 
ATOM     15  H22 UNL     1      -8.115 -43.780   8.055  1.00  0.00     0.277 HD
ATOM     16  H21 UNL     1      -9.338 -44.468   8.272  1.00  0.00     0.277 HD
ENDBRANCH   1  11
TORSDOF 2
ENDMDL
MODEL 3
REMARK VINA RESULT: -5.987365029      4.209      5.493
REMARK  2 active torsions:
REMARK  status: ('A' for Active; 'I' for Inactive)
REMARK    1  A    between atoms: C5_5  and  N1_6 
REMARK    2  A    between atoms: N1_6  and  C6_9 
ROOT
HETATM    1  N1  UNL     1      -3.630 -43.712  14.646  1.00  0.00    -0.054 N 
ATOM      2  H11 UNL     1      -2.892 -43.247  14.116  1.00  0.00     0.279 HD
ATOM      3  H12 UNL     1      -4.099 -44.147  13.850  1.00  0.00     0.279 HD
ENDROOT
BRANCH   1   4
HETATM    4  C5  UNL     1      -4.493 -42.778  15.401  1.00  0.00     0.255 C 
HETATM    5  C4  UNL     1      -5.306 -41.989  14.316  1.00  0.00     0.071 C 
HETATM    6  C3  UNL     1      -6.773 -41.863  14.689  1.00  0.00    -0.028 C 
HETATM    7  C2  UNL     1      -7.617 -42.982  14.987  1.00  0.00    -0.030 C 
HETATM    8  C1  UNL     1      -7.804 -43.517  16.411  1.00  0.00     0.038 C 
HETATM    9  C10 UNL     1      -6.438 -43.964  17.038  1.00  0.00     0.086 C 
HETATM   10  C9  UNL     1      -5.436 -43.389  16.241  1.00  0.00    -0.150 C 
ENDBRANCH   1   4
BRANCH   1  11
HETATM   11  C6  UNL     1      -3.139 -44.650  15.593  1.00  0.00     0.238 C 
HETATM   12  C7  UNL     1      -2.516 -45.907  14.990  1.00  0.00     0.267 C 
HETATM   13  N2  UNL     1      -1.591 -45.894  16.117  1.00  0.00    -0.071 N 
HETATM   14  C8  UNL     1      -1.729 -44.438  16.101  1.00  0.00     0.267 C 
ATOM     15  H22 UNL     1      -1.772 -46.437  16.961  1.00  0.00     0.277 HD
ATOM     16  H21 UNL     1      -0.677 -46.344  16.062  1.00  0.00     0.277 HD
ENDBRANCH   1  11
TORSDOF 2
ENDMDL
MODEL 4
REMARK VINA RESULT: -5.963998528      0.875      1.182
REMARK  2 active torsions:
REMARK  status: ('A' for Active; 'I' for Inactive)
REMARK    1  A    between atoms: C5_5  and  N1_6 
REMARK    2  A    between atoms: N1_6  and  C6_9 
ROOT
HETATM    1  N1  UNL     1      -7.453 -44.336  11.866  1.00  0.00    -0.054 N 
ATOM      2  H11 UNL     1      -6.883 -45.148  11.624  1.00  0.00     0.279 HD
ATOM      3  H12 UNL     1      -8.261 -44.852  12.215  1.00  0.00     0.279 HD
ENDROOT
BRANCH   1   4
HETATM    4  C5  UNL     1      -7.762 -43.467  10.709  1.00  0.00     0.255 C 
HETATM    5  C4  UNL     1      -7.598 -44.381   9.444  1.00  0.00     0.071 C 
HETATM    6  C3  UNL     1      -8.734 -44.186   8.454  1.00  0.00    -0.028 C 
HETATM    7  C2  UNL     1     -10.118 -44.335   8.793  1.00  0.00    -0.030 C 
HETATM    8  C1  UNL     1     -10.981 -43.161   9.269  1.00  0.00     0.038 C 
HETATM    9  C10 UNL     1     -10.396 -42.511  10.570  1.00  0.00     0.086 C 
HETATM   10  C9  UNL     1      -9.074 -42.970  10.674  1.00  0.00    -0.150 C 
ENDBRANCH   1   4
BRANCH   1  11
HETATM   11  C6  UNL     1      -6.854 -43.495  12.841  1.00  0.00     0.238 C 
HETATM   12  C7  UNL     1      -5.629 -44.088  13.536  1.00  0.00     0.267 C 
HETATM   13  N2  UNL     1      -5.100 -42.729  13.588  1.00  0.00    -0.071 N 
HETATM   14  C8  UNL     1      -5.837 -42.488  12.348  1.00  0.00     0.267 C 
ATOM     15  H22 UNL     1      -5.231 -42.138  14.409  1.00  0.00     0.277 HD
ATOM     16  H21 UNL     1      -4.098 -42.550  13.657  1.00  0.00     0.277 HD
ENDBRANCH   1  11
TORSDOF 2
ENDMDL
MODEL 5
REMARK VINA RESULT: -5.912141464      1.369      2.586
REMARK  2 active torsions:
REMARK  status: ('A' for Active; 'I' for Inactive)
REMARK    1  A    between atoms: C5_5  and  N1_6 
REMARK    2  A    between atoms: N1_6  and  C6_9 
ROOT
HETATM    1  N1  UNL     1      -8.182 -43.272  11.575  1.00  0.00    -0.054 N 
ATOM      2  H11 UNL     1      -8.755 -42.869  12.317  1.00  0.00     0.279 HD
ATOM      3  H12 UNL     1      -8.062 -42.416  11.033  1.00  0.00     0.279 HD
ENDROOT
BRANCH   1   4
HETATM    4  C5  UNL     1      -8.861 -44.353  10.827  1.00  0.00     0.255 C 
HETATM    5  C4  UNL     1     -10.055 -43.661  10.081  1.00  0.00     0.071 C 
HETATM    6  C3  UNL     1     -10.173 -44.131   8.642  1.00  0.00    -0.028 C 
HETATM    7  C2  UNL     1      -9.103 -44.059   7.692  1.00  0.00    -0.030 C 
HETATM    8  C1  UNL     1      -8.115 -45.211   7.475  1.00  0.00     0.038 C 
HETATM    9  C10 UNL     1      -7.352 -45.567   8.797  1.00  0.00     0.086 C 
HETATM   10  C9  UNL     1      -8.079 -44.972   9.839  1.00  0.00    -0.150 C 
ENDBRANCH   1   4
BRANCH   1  11
HETATM   11  C6  UNL     1      -6.958 -43.822  12.041  1.00  0.00     0.238 C 
HETATM   12  C7  UNL     1      -5.759 -42.879  11.964  1.00  0.00     0.267 C 
HETATM   13  N2  UNL     1      -5.278 -43.521  13.182  1.00  0.00    -0.071 N 
HETATM   14  C8  UNL     1      -6.684 -43.725  13.526  1.00  0.00     0.267 C 
ATOM     15  H22 UNL     1      -4.618 -44.298  13.150  1.00  0.00     0.277 HD
ATOM     16  H21 UNL     1      -4.637 -43.044  13.817  1.00  0.00     0.277 HD
ENDBRANCH   1  11
TORSDOF 2
ENDMDL
