MODEL 1
REMARK VINA RESULT: -6.227155850      0.000      0.000
REMARK  2 active torsions:
REMARK  status: ('A' for Active; 'I' for Inactive)
REMARK    1  A    between atoms: C4_4  and  N1_5 
REMARK    2  A    between atoms: N1_5  and  C5_7 
ROOT
HETATM    1  N1  UNL     1      -7.960 -44.567  11.253  1.00  0.00    -0.391 N 
ATOM      2  H1  UNL     1      -8.206 -45.508  11.559  1.00  0.00     0.155 HD
ENDROOT
BRANCH   1   3
HETATM    3  C4  UNL     1      -8.555 -43.962  10.079  1.00  0.00     0.078 C 
HETATM    4  C3  UNL     1      -7.987 -44.612   8.869  1.00  0.00     0.024 C 
HETATM    5  C2  UNL     1      -8.676 -44.061   7.656  1.00  0.00     0.002 C 
HETATM    6  C1  UNL     1     -10.133 -44.359   7.668  1.00  0.00     0.000 C 
HETATM    7  C10 UNL     1     -10.825 -44.280   8.968  1.00  0.00     0.002 C 
HETATM    8  C9  UNL     1     -10.049 -43.930  10.159  1.00  0.00     0.024 C 
ENDBRANCH   1   3
BRANCH   1   9
HETATM    9  C5  UNL     1      -7.016 -43.773  11.954  1.00  0.00     0.280 C 
HETATM   10  C6  UNL     1      -7.558 -42.366  12.191  1.00  0.00     0.055 C 
HETATM   11  C7  UNL     1      -7.153 -42.016  13.621  1.00  0.00     0.031 C 
HETATM   12  C8  UNL     1      -6.044 -43.043  13.865  1.00  0.00     0.235 C 
HETATM   13  N2  UNL     1      -6.705 -44.229  13.297  1.00  0.00    -0.055 N 
ATOM     14  H22 UNL     1      -7.498 -44.583  13.831  1.00  0.00     0.279 HD
ATOM     15  H21 UNL     1      -6.166 -45.094  13.348  1.00  0.00     0.279 HD
ENDBRANCH   1   9
TORSDOF 2
ENDMDL
MODEL 2
REMARK VINA RESULT: -6.164055990      1.251      2.056
REMARK  2 active torsions:
REMARK  status: ('A' for Active; 'I' for Inactive)
REMARK    1  A    between atoms: C4_4  and  N1_5 
REMARK    2  A    between atoms: N1_5  and  C5_7 
ROOT
HETATM    1  N1  UNL     1      -6.994 -42.576  11.595  1.00  0.00    -0.391 N 
ATOM      2  H1  UNL     1      -6.770 -41.698  11.126  1.00  0.00     0.155 HD
ENDROOT
BRANCH   1   3
HETATM    3  C4  UNL     1      -7.822 -43.589  10.973  1.00  0.00     0.078 C 
HETATM    4  C3  UNL     1      -9.217 -43.083  10.896  1.00  0.00     0.024 C 
HETATM    5  C2  UNL     1     -10.055 -44.086  10.159  1.00  0.00     0.002 C 
HETATM    6  C1  UNL     1      -9.582 -44.277   8.762  1.00  0.00     0.000 C 
HETATM    7  C10 UNL     1      -8.123 -44.278   8.540  1.00  0.00     0.002 C 
HETATM    8  C9  UNL     1      -7.236 -44.080   9.686  1.00  0.00     0.024 C 
ENDBRANCH   1   3
BRANCH   1   9
HETATM    9  C5  UNL     1      -6.512 -42.875  12.895  1.00  0.00     0.280 C 
HETATM   10  C6  UNL     1      -7.322 -42.138  13.958  1.00  0.00     0.055 C 
HETATM   11  C7  UNL     1      -7.530 -43.153  15.080  1.00  0.00     0.031 C 
HETATM   12  C8  UNL     1      -6.437 -44.174  14.750  1.00  0.00     0.235 C 
HETATM   13  N2  UNL     1      -6.645 -44.265  13.295  1.00  0.00    -0.055 N 
ATOM     14  H22 UNL     1      -7.510 -44.720  13.007  1.00  0.00     0.279 HD
ATOM     15  H21 UNL     1      -6.030 -44.918  12.809  1.00  0.00     0.279 HD
ENDBRANCH   1   9
TORSDOF 2
ENDMDL
MODEL 3
REMARK VINA RESULT: -6.159977935      1.674      5.698
REMARK  2 active torsions:
REMARK  status: ('A' for Active; 'I' for Inactive)
REMARK    1  A    between atoms: C4_4  and  N1_5 
REMARK    2  A    between atoms: N1_5  and  C5_7 
ROOT
HETATM    1  N1  UNL     1      -6.869 -44.103  12.302  1.00  0.00    -0.391 N 
ATOM      2  H1  UNL     1      -6.234 -44.894  12.193  1.00  0.00     0.155 HD
ENDROOT
BRANCH   1   3
HETATM    3  C4  UNL     1      -6.918 -43.322  13.520  1.00  0.00     0.078 C 
HETATM    4  C3  UNL     1      -6.791 -44.240  14.682  1.00  0.00     0.024 C 
HETATM    5  C2  UNL     1      -6.736 -43.424  15.940  1.00  0.00     0.002 C 
HETATM    6  C1  UNL     1      -5.551 -42.528  15.962  1.00  0.00     0.000 C 
HETATM    7  C10 UNL     1      -5.168 -41.887  14.689  1.00  0.00     0.002 C 
HETATM    8  C9  UNL     1      -5.955 -42.175  13.490  1.00  0.00     0.024 C 
ENDBRANCH   1   3
BRANCH   1   9
HETATM    9  C5  UNL     1      -7.756 -43.705  11.269  1.00  0.00     0.280 C 
HETATM   10  C6  UNL     1      -8.352 -44.920  10.565  1.00  0.00     0.055 C 
HETATM   11  C7  UNL     1      -9.826 -44.578  10.352  1.00  0.00     0.031 C 
HETATM   12  C8  UNL     1      -9.793 -43.056  10.522  1.00  0.00     0.235 C 
HETATM   13  N2  UNL     1      -8.932 -42.979  11.714  1.00  0.00    -0.055 N 
ATOM     14  H22 UNL     1      -9.353 -43.321  12.577  1.00  0.00     0.279 HD
ATOM     15  H21 UNL     1      -8.756 -42.037  12.063  1.00  0.00     0.279 HD
ENDBRANCH   1   9
TORSDOF 2
ENDMDL
MODEL 4
REMARK VINA RESULT: -6.154413101      1.733      5.863
REMARK  2 active torsions:
REMARK  status: ('A' for Active; 'I' for Inactive)
REMARK    1  A    between atoms: C4_4  and  N1_5 
REMARK    2  A    between atoms: N1_5  and  C5_7 
ROOT
HETATM    1  N1  UNL     1      -7.124 -42.167  12.704  1.00  0.00    -0.391 N 
ATOM      2  H1  UNL     1      -6.622 -41.536  12.079  1.00  0.00     0.155 HD
ENDROOT
BRANCH   1   3
HETATM    3  C4  UNL     1      -6.993 -42.083  14.144  1.00  0.00     0.078 C 
HETATM    4  C3  UNL     1      -7.653 -43.268  14.752  1.00  0.00     0.024 C 
HETATM    5  C2  UNL     1      -7.428 -43.238  16.235  1.00  0.00     0.002 C 
HETATM    6  C1  UNL     1      -5.984 -43.323  16.574  1.00  0.00     0.000 C 
HETATM    7  C10 UNL     1      -5.045 -42.589  15.705  1.00  0.00     0.002 C 
HETATM    8  C9  UNL     1      -5.577 -41.841  14.566  1.00  0.00     0.024 C 
ENDBRANCH   1   3
BRANCH   1   9
HETATM    9  C5  UNL     1      -7.992 -43.176  12.214  1.00  0.00     0.280 C 
HETATM   10  C6  UNL     1      -9.021 -42.588  11.252  1.00  0.00     0.055 C 
HETATM   11  C7  UNL     1      -9.120 -43.594  10.107  1.00  0.00     0.031 C 
HETATM   12  C8  UNL     1      -8.510 -44.836  10.763  1.00  0.00     0.235 C 
HETATM   13  N2  UNL     1      -7.351 -44.203  11.413  1.00  0.00    -0.055 N 
ATOM     14  H22 UNL     1      -6.625 -43.870  10.779  1.00  0.00     0.279 HD
ATOM     15  H21 UNL     1      -6.740 -44.838  11.927  1.00  0.00     0.279 HD
ENDBRANCH   1   9
TORSDOF 2
ENDMDL
MODEL 5
REMARK VINA RESULT: -6.121520447      0.889      1.652
REMARK  2 active torsions:
REMARK  status: ('A' for Active; 'I' for Inactive)
REMARK    1  A    between atoms: C4_4  and  N1_5 
REMARK    2  A    between atoms: N1_5  and  C5_7 
ROOT
HETATM    1  N1  UNL     1      -8.537 -43.542  11.682  1.00  0.00    -0.391 N 
ATOM      2  H1  UNL     1      -9.165 -42.950  12.226  1.00  0.00     0.155 HD
ENDROOT
BRANCH   1   3
HETATM    3  C4  UNL     1      -9.001 -44.307  10.543  1.00  0.00     0.078 C 
HETATM    4  C3  UNL     1      -9.823 -43.422   9.676  1.00  0.00     0.024 C 
HETATM    5  C2  UNL     1     -10.217 -44.183   8.445  1.00  0.00     0.002 C 
HETATM    6  C1  UNL     1      -9.031 -44.594   7.649  1.00  0.00     0.000 C 
HETATM    7  C10 UNL     1      -7.839 -45.035   8.397  1.00  0.00     0.002 C 
HETATM    8  C9  UNL     1      -7.883 -45.031   9.859  1.00  0.00     0.024 C 
ENDBRANCH   1   3
BRANCH   1   9
HETATM    9  C5  UNL     1      -7.160 -43.663  11.995  1.00  0.00     0.280 C 
HETATM   10  C6  UNL     1      -6.511 -42.289  12.138  1.00  0.00     0.055 C 
HETATM   11  C7  UNL     1      -5.591 -42.403  13.352  1.00  0.00     0.031 C 
HETATM   12  C8  UNL     1      -5.460 -43.925  13.470  1.00  0.00     0.235 C 
HETATM   13  N2  UNL     1      -6.872 -44.290  13.273  1.00  0.00    -0.055 N 
ATOM     14  H22 UNL     1      -7.498 -44.031  14.035  1.00  0.00     0.279 HD
ATOM     15  H21 UNL     1      -7.074 -45.289  13.323  1.00  0.00     0.279 HD
ENDBRANCH   1   9
TORSDOF 2
ENDMDL
