MODEL 1
REMARK VINA RESULT: -9.611217798      0.000      0.000
REMARK  8 active torsions:
REMARK  status: ('A' for Active; 'I' for Inactive)
REMARK    1  A    between atoms: C3_3  and  C4_4 
REMARK    2  A    between atoms: C4_4  and  O1_5 
REMARK    3  A    between atoms: O1_5  and  C5_6 
REMARK    4  A    between atoms: C5_6  and  C6_8 
REMARK    5  A    between atoms: C13_17  and  C14_18 
REMARK    6  A    between atoms: C14_18  and  O6_20 
REMARK    7  A    between atoms: O6_20  and  C15_21 
REMARK    8  A    between atoms: C15_21  and  C16_22 
ROOT
HETATM    1  C6  UNL     1     -21.396   0.653 -10.665  1.00  0.00     0.186 C 
HETATM    2  C7  UNL     1     -20.528  -0.525 -10.386  1.00  0.00     0.145 C 
HETATM    3  O3  UNL     1     -19.690  -1.069 -11.073  1.00  0.00    -0.297 OA
HETATM    4  C8  UNL     1     -20.858  -0.991  -9.014  1.00  0.00     0.090 C 
HETATM    5  C9  UNL     1     -21.721   0.091  -8.402  1.00  0.00     0.044 C 
HETATM    6  C10 UNL     1     -22.406   0.634  -9.573  1.00  0.00    -0.031 C 
HETATM    7  C11 UNL     1     -23.656   1.052  -9.729  1.00  0.00     0.139 C 
HETATM    8  O4  UNL     1     -24.693   1.092  -8.811  1.00  0.00    -0.362 OA
HETATM    9  C12 UNL     1     -24.896   0.211  -7.727  1.00  0.00     0.190 C 
HETATM   10  C13 UNL     1     -23.711   0.308  -6.823  1.00  0.00     0.129 C 
HETATM   11  C22 UNL     1     -22.482  -0.391  -7.271  1.00  0.00     0.106 C 
HETATM   12 CL2  UNL     1     -22.909  -2.112  -7.512  1.00  0.00    -0.123 Cl
ENDROOT
BRANCH  10  13
HETATM   13  C14 UNL     1     -23.472   1.733  -6.440  1.00  0.00     0.266 C 
HETATM   14  O5  UNL     1     -24.407   2.439  -5.982  1.00  0.00    -0.265 OA
BRANCH  13  15
HETATM   15  O6  UNL     1     -22.233   2.333  -6.569  1.00  0.00    -0.316 OA
BRANCH  15  16
HETATM   16  C15 UNL     1     -21.259   2.447  -5.556  1.00  0.00     0.217 C 
BRANCH  16  17
HETATM   17  C16 UNL     1     -20.263   3.471  -5.950  1.00  0.00    -0.032 A 
HETATM   18  C17 UNL     1     -20.045   3.856  -7.251  1.00  0.00     0.009 A 
HETATM   19  C18 UNL     1     -19.116   4.807  -7.623  1.00  0.00     0.002 A 
HETATM   20  C19 UNL     1     -18.356   5.414  -6.649  1.00  0.00     0.024 A 
HETATM   21  C20 UNL     1     -18.553   5.047  -5.336  1.00  0.00     0.034 A 
HETATM   22 CL1  UNL     1     -17.563   5.847  -4.131  1.00  0.00    -0.084 Cl
HETATM   23  C21 UNL     1     -19.484   4.096  -4.972  1.00  0.00     0.033 A 
ENDBRANCH  16  17
ENDBRANCH  15  16
ENDBRANCH  13  15
ENDBRANCH  10  13
BRANCH   1  24
HETATM   24  C5  UNL     1     -20.621   1.905 -10.708  1.00  0.00     0.274 C 
HETATM   25  O2  UNL     1     -19.640   2.163  -9.991  1.00  0.00    -0.264 OA
BRANCH  24  26
HETATM   26  O1  UNL     1     -21.021   2.867 -11.624  1.00  0.00    -0.317 OA
BRANCH  26  27
HETATM   27  C4  UNL     1     -20.199   3.850 -12.175  1.00  0.00     0.206 C 
BRANCH  27  28
HETATM   28  C3  UNL     1     -20.550   5.232 -11.759  1.00  0.00    -0.005 C 
HETATM   29  C2  UNL     1     -19.769   5.935 -10.963  1.00  0.00    -0.033 C 
HETATM   30  C1  UNL     1     -20.139   7.310 -10.562  1.00  0.00     0.036 C 
ENDBRANCH  27  28
ENDBRANCH  26  27
ENDBRANCH  24  26
ENDBRANCH   1  24
TORSDOF 8
ENDMDL
MODEL 2
REMARK VINA RESULT: -9.517367016      1.218      1.732
REMARK  8 active torsions:
REMARK  status: ('A' for Active; 'I' for Inactive)
REMARK    1  A    between atoms: C3_3  and  C4_4 
REMARK    2  A    between atoms: C4_4  and  O1_5 
REMARK    3  A    between atoms: O1_5  and  C5_6 
REMARK    4  A    between atoms: C5_6  and  C6_8 
REMARK    5  A    between atoms: C13_17  and  C14_18 
REMARK    6  A    between atoms: C14_18  and  O6_20 
REMARK    7  A    between atoms: O6_20  and  C15_21 
REMARK    8  A    between atoms: C15_21  and  C16_22 
ROOT
HETATM    1  C6  UNL     1     -21.432   1.216 -10.808  1.00  0.00     0.186 C 
HETATM    2  C7  UNL     1     -20.718  -0.078 -10.997  1.00  0.00     0.145 C 
HETATM    3  O3  UNL     1     -20.302  -0.610 -12.004  1.00  0.00    -0.297 OA
HETATM    4  C8  UNL     1     -20.568  -0.690  -9.651  1.00  0.00     0.090 C 
HETATM    5  C9  UNL     1     -20.951   0.385  -8.658  1.00  0.00     0.044 C 
HETATM    6  C10 UNL     1     -21.938   1.158  -9.411  1.00  0.00    -0.031 C 
HETATM    7  C11 UNL     1     -23.071   1.728  -9.021  1.00  0.00     0.139 C 
HETATM    8  O4  UNL     1     -23.659   1.755  -7.767  1.00  0.00    -0.362 OA
HETATM    9  C12 UNL     1     -23.567   0.760  -6.770  1.00  0.00     0.190 C 
HETATM   10  C13 UNL     1     -22.128   0.599  -6.406  1.00  0.00     0.129 C 
HETATM   11  C22 UNL     1     -21.288  -0.162  -7.363  1.00  0.00     0.106 C 
HETATM   12 CL2  UNL     1     -22.037  -1.775  -7.558  1.00  0.00    -0.123 Cl
ENDROOT
BRANCH  10  13
HETATM   13  C14 UNL     1     -21.542   1.923  -6.031  1.00  0.00     0.266 C 
HETATM   14  O5  UNL     1     -22.161   2.704  -5.264  1.00  0.00    -0.265 OA
BRANCH  13  15
HETATM   15  O6  UNL     1     -20.312   2.344  -6.502  1.00  0.00    -0.316 OA
BRANCH  15  16
HETATM   16  C15 UNL     1     -20.074   3.491  -7.286  1.00  0.00     0.217 C 
BRANCH  16  17
HETATM   17  C16 UNL     1     -19.357   4.500  -6.473  1.00  0.00    -0.032 A 
HETATM   18  C17 UNL     1     -18.997   4.299  -5.161  1.00  0.00     0.009 A 
HETATM   19  C18 UNL     1     -18.332   5.237  -4.398  1.00  0.00     0.002 A 
HETATM   20  C19 UNL     1     -18.001   6.447  -4.966  1.00  0.00     0.024 A 
HETATM   21  C20 UNL     1     -18.349   6.674  -6.279  1.00  0.00     0.034 A 
HETATM   22 CL1  UNL     1     -17.906   8.228  -6.959  1.00  0.00    -0.084 Cl
HETATM   23  C21 UNL     1     -19.014   5.732  -7.036  1.00  0.00     0.033 A 
ENDBRANCH  16  17
ENDBRANCH  15  16
ENDBRANCH  13  15
ENDBRANCH  10  13
BRANCH   1  24
HETATM   24  C5  UNL     1     -20.547   2.369 -11.050  1.00  0.00     0.274 C 
HETATM   25  O2  UNL     1     -19.309   2.313 -11.140  1.00  0.00    -0.264 OA
BRANCH  24  26
HETATM   26  O1  UNL     1     -21.149   3.611 -11.189  1.00  0.00    -0.317 OA
BRANCH  26  27
HETATM   27  C4  UNL     1     -20.552   4.739 -11.753  1.00  0.00     0.206 C 
BRANCH  27  28
HETATM   28  C3  UNL     1     -20.148   5.767 -10.759  1.00  0.00    -0.005 C 
HETATM   29  C2  UNL     1     -20.150   7.052 -11.054  1.00  0.00    -0.033 C 
HETATM   30  C1  UNL     1     -19.744   8.058 -10.049  1.00  0.00     0.036 C 
ENDBRANCH  27  28
ENDBRANCH  26  27
ENDBRANCH  24  26
ENDBRANCH   1  24
TORSDOF 8
ENDMDL
MODEL 3
REMARK VINA RESULT: -9.448718580      1.170      1.579
REMARK  8 active torsions:
REMARK  status: ('A' for Active; 'I' for Inactive)
REMARK    1  A    between atoms: C3_3  and  C4_4 
REMARK    2  A    between atoms: C4_4  and  O1_5 
REMARK    3  A    between atoms: O1_5  and  C5_6 
REMARK    4  A    between atoms: C5_6  and  C6_8 
REMARK    5  A    between atoms: C13_17  and  C14_18 
REMARK    6  A    between atoms: C14_18  and  O6_20 
REMARK    7  A    between atoms: O6_20  and  C15_21 
REMARK    8  A    between atoms: C15_21  and  C16_22 
ROOT
HETATM    1  C6  UNL     1     -21.582   0.981 -10.828  1.00  0.00     0.186 C 
HETATM    2  C7  UNL     1     -20.635  -0.146 -10.600  1.00  0.00     0.145 C 
HETATM    3  O3  UNL     1     -19.773  -0.608 -11.315  1.00  0.00    -0.297 OA
HETATM    4  C8  UNL     1     -20.917  -0.680  -9.242  1.00  0.00     0.090 C 
HETATM    5  C9  UNL     1     -21.841   0.321  -8.583  1.00  0.00     0.044 C 
HETATM    6  C10 UNL     1     -22.575   0.858  -9.728  1.00  0.00    -0.031 C 
HETATM    7  C11 UNL     1     -23.852   1.197  -9.855  1.00  0.00     0.139 C 
HETATM    8  O4  UNL     1     -24.878   1.137  -8.926  1.00  0.00    -0.362 OA
HETATM    9  C12 UNL     1     -25.008   0.207  -7.872  1.00  0.00     0.190 C 
HETATM   10  C13 UNL     1     -23.822   0.350  -6.977  1.00  0.00     0.129 C 
HETATM   11  C22 UNL     1     -22.554  -0.250  -7.463  1.00  0.00     0.106 C 
HETATM   12 CL2  UNL     1     -22.871  -1.986  -7.761  1.00  0.00    -0.123 Cl
ENDROOT
BRANCH  10  13
HETATM   13  C14 UNL     1     -23.672   1.774  -6.546  1.00  0.00     0.266 C 
HETATM   14  O5  UNL     1     -24.645   2.401  -6.055  1.00  0.00    -0.265 OA
BRANCH  13  15
HETATM   15  O6  UNL     1     -22.476   2.458  -6.665  1.00  0.00    -0.316 OA
BRANCH  15  16
HETATM   16  C15 UNL     1     -21.437   2.481  -5.714  1.00  0.00     0.217 C 
BRANCH  16  17
HETATM   17  C16 UNL     1     -20.386   3.425  -6.159  1.00  0.00    -0.032 A 
HETATM   18  C17 UNL     1     -20.114   3.687  -7.481  1.00  0.00     0.009 A 
HETATM   19  C18 UNL     1     -19.133   4.564  -7.901  1.00  0.00     0.002 A 
HETATM   20  C19 UNL     1     -18.378   5.222  -6.958  1.00  0.00     0.024 A 
HETATM   21  C20 UNL     1     -18.630   4.979  -5.626  1.00  0.00     0.034 A 
HETATM   22 CL1  UNL     1     -17.643   5.841  -4.461  1.00  0.00    -0.084 Cl
HETATM   23  C21 UNL     1     -19.611   4.102  -5.213  1.00  0.00     0.033 A 
ENDBRANCH  16  17
ENDBRANCH  15  16
ENDBRANCH  13  15
ENDBRANCH  10  13
BRANCH   1  24
HETATM   24  C5  UNL     1     -20.892   2.283 -10.834  1.00  0.00     0.274 C 
HETATM   25  O2  UNL     1     -21.451   3.388 -10.737  1.00  0.00    -0.264 OA
BRANCH  24  26
HETATM   26  O1  UNL     1     -19.511   2.267 -10.958  1.00  0.00    -0.317 OA
BRANCH  26  27
HETATM   27  C4  UNL     1     -18.769   3.059 -11.834  1.00  0.00     0.206 C 
BRANCH  27  28
HETATM   28  C3  UNL     1     -19.117   2.863 -13.265  1.00  0.00    -0.005 C 
HETATM   29  C2  UNL     1     -19.515   3.865 -14.024  1.00  0.00    -0.033 C 
HETATM   30  C1  UNL     1     -19.857   3.646 -15.446  1.00  0.00     0.036 C 
ENDBRANCH  27  28
ENDBRANCH  26  27
ENDBRANCH  24  26
ENDBRANCH   1  24
TORSDOF 8
ENDMDL
MODEL 4
REMARK VINA RESULT: -9.418029708      1.427      1.751
REMARK  8 active torsions:
REMARK  status: ('A' for Active; 'I' for Inactive)
REMARK    1  A    between atoms: C3_3  and  C4_4 
REMARK    2  A    between atoms: C4_4  and  O1_5 
REMARK    3  A    between atoms: O1_5  and  C5_6 
REMARK    4  A    between atoms: C5_6  and  C6_8 
REMARK    5  A    between atoms: C13_17  and  C14_18 
REMARK    6  A    between atoms: C14_18  and  O6_20 
REMARK    7  A    between atoms: O6_20  and  C15_21 
REMARK    8  A    between atoms: C15_21  and  C16_22 
ROOT
HETATM    1  C6  UNL     1     -21.508   0.716 -10.728  1.00  0.00     0.186 C 
HETATM    2  C7  UNL     1     -20.540  -0.390 -10.488  1.00  0.00     0.145 C 
HETATM    3  O3  UNL     1     -19.714  -0.889 -11.222  1.00  0.00    -0.297 OA
HETATM    4  C8  UNL     1     -20.741  -0.845  -9.088  1.00  0.00     0.090 C 
HETATM    5  C9  UNL     1     -21.636   0.187  -8.438  1.00  0.00     0.044 C 
HETATM    6  C10 UNL     1     -22.437   0.652  -9.569  1.00  0.00    -0.031 C 
HETATM    7  C11 UNL     1     -23.722   0.976  -9.644  1.00  0.00     0.139 C 
HETATM    8  O4  UNL     1     -24.695   0.964  -8.657  1.00  0.00    -0.362 OA
HETATM    9  C12 UNL     1     -24.758   0.097  -7.545  1.00  0.00     0.190 C 
HETATM   10  C13 UNL     1     -23.525   0.300  -6.728  1.00  0.00     0.129 C 
HETATM   11  C22 UNL     1     -22.281  -0.321  -7.248  1.00  0.00     0.106 C 
HETATM   12 CL2  UNL     1     -22.598  -2.072  -7.425  1.00  0.00    -0.123 Cl
ENDROOT
BRANCH  10  13
HETATM   13  C14 UNL     1     -23.364   1.747  -6.390  1.00  0.00     0.266 C 
HETATM   14  O5  UNL     1     -24.335   2.413  -5.945  1.00  0.00    -0.265 OA
BRANCH  13  15
HETATM   15  O6  UNL     1     -22.162   2.412  -6.547  1.00  0.00    -0.316 OA
BRANCH  15  16
HETATM   16  C15 UNL     1     -21.138   2.510  -5.584  1.00  0.00     0.217 C 
BRANCH  16  17
HETATM   17  C16 UNL     1     -20.136   3.504  -6.034  1.00  0.00    -0.032 A 
HETATM   18  C17 UNL     1     -19.402   4.283  -5.172  1.00  0.00     0.009 A 
HETATM   19  C18 UNL     1     -18.470   5.214  -5.586  1.00  0.00     0.002 A 
HETATM   20  C19 UNL     1     -18.250   5.383  -6.935  1.00  0.00     0.024 A 
HETATM   21  C20 UNL     1     -18.972   4.615  -7.821  1.00  0.00     0.034 A 
HETATM   22 CL1  UNL     1     -18.658   4.865  -9.527  1.00  0.00    -0.084 Cl
HETATM   23  C21 UNL     1     -19.902   3.688  -7.400  1.00  0.00     0.033 A 
ENDBRANCH  16  17
ENDBRANCH  15  16
ENDBRANCH  13  15
ENDBRANCH  10  13
BRANCH   1  24
HETATM   24  C5  UNL     1     -20.831   2.020 -10.849  1.00  0.00     0.274 C 
HETATM   25  O2  UNL     1     -21.338   3.117 -10.563  1.00  0.00    -0.264 OA
BRANCH  24  26
HETATM   26  O1  UNL     1     -19.526   2.015 -11.319  1.00  0.00    -0.317 OA
BRANCH  26  27
HETATM   27  C4  UNL     1     -19.139   2.284 -12.631  1.00  0.00     0.206 C 
BRANCH  27  28
HETATM   28  C3  UNL     1     -18.803   3.709 -12.881  1.00  0.00    -0.005 C 
HETATM   29  C2  UNL     1     -19.676   4.544 -13.408  1.00  0.00    -0.033 C 
HETATM   30  C1  UNL     1     -19.320   5.959 -13.648  1.00  0.00     0.036 C 
ENDBRANCH  27  28
ENDBRANCH  26  27
ENDBRANCH  24  26
ENDBRANCH   1  24
TORSDOF 8
ENDMDL
MODEL 5
REMARK VINA RESULT: -9.387985021      0.863      1.057
REMARK  8 active torsions:
REMARK  status: ('A' for Active; 'I' for Inactive)
REMARK    1  A    between atoms: C3_3  and  C4_4 
REMARK    2  A    between atoms: C4_4  and  O1_5 
REMARK    3  A    between atoms: O1_5  and  C5_6 
REMARK    4  A    between atoms: C5_6  and  C6_8 
REMARK    5  A    between atoms: C13_17  and  C14_18 
REMARK    6  A    between atoms: C14_18  and  O6_20 
REMARK    7  A    between atoms: O6_20  and  C15_21 
REMARK    8  A    between atoms: C15_21  and  C16_22 
ROOT
HETATM    1  C6  UNL     1     -21.336   0.697 -10.590  1.00  0.00     0.186 C 
HETATM    2  C7  UNL     1     -20.522  -0.551 -10.563  1.00  0.00     0.145 C 
HETATM    3  O3  UNL     1     -19.957  -1.144 -11.456  1.00  0.00    -0.297 OA
HETATM    4  C8  UNL     1     -20.490  -1.016  -9.152  1.00  0.00     0.090 C 
HETATM    5  C9  UNL     1     -21.057   0.118  -8.325  1.00  0.00     0.044 C 
HETATM    6  C10 UNL     1     -21.997   0.736  -9.258  1.00  0.00    -0.031 C 
HETATM    7  C11 UNL     1     -23.203   1.253  -9.057  1.00  0.00     0.139 C 
HETATM    8  O4  UNL     1     -23.934   1.356  -7.885  1.00  0.00    -0.362 OA
HETATM    9  C12 UNL     1     -23.894   0.472  -6.785  1.00  0.00     0.190 C 
HETATM   10  C13 UNL     1     -22.500   0.458  -6.250  1.00  0.00     0.129 C 
HETATM   11  C22 UNL     1     -21.506  -0.326  -7.025  1.00  0.00     0.106 C 
HETATM   12 CL2  UNL     1     -22.121  -2.003  -7.130  1.00  0.00    -0.123 Cl
ENDROOT
BRANCH  10  13
HETATM   13  C14 UNL     1     -22.049   1.853  -5.955  1.00  0.00     0.266 C 
HETATM   14  O5  UNL     1     -22.626   2.539  -5.072  1.00  0.00    -0.265 OA
BRANCH  13  15
HETATM   15  O6  UNL     1     -20.995   2.445  -6.626  1.00  0.00    -0.316 OA
BRANCH  15  16
HETATM   16  C15 UNL     1     -21.073   3.590  -7.443  1.00  0.00     0.217 C 
BRANCH  16  17
HETATM   17  C16 UNL     1     -19.869   4.427  -7.228  1.00  0.00    -0.032 A 
HETATM   18  C17 UNL     1     -19.162   5.013  -8.250  1.00  0.00     0.009 A 
HETATM   19  C18 UNL     1     -18.038   5.791  -8.055  1.00  0.00     0.002 A 
HETATM   20  C19 UNL     1     -17.587   6.002  -6.772  1.00  0.00     0.024 A 
HETATM   21  C20 UNL     1     -18.277   5.427  -5.729  1.00  0.00     0.034 A 
HETATM   22 CL1  UNL     1     -17.666   5.724  -4.112  1.00  0.00    -0.084 Cl
HETATM   23  C21 UNL     1     -19.399   4.651  -5.931  1.00  0.00     0.033 A 
ENDBRANCH  16  17
ENDBRANCH  15  16
ENDBRANCH  13  15
ENDBRANCH  10  13
BRANCH   1  24
HETATM   24  C5  UNL     1     -20.506   1.886 -10.853  1.00  0.00     0.274 C 
HETATM   25  O2  UNL     1     -19.476   2.190 -10.229  1.00  0.00    -0.264 OA
BRANCH  24  26
HETATM   26  O1  UNL     1     -20.910   2.726 -11.880  1.00  0.00    -0.317 OA
BRANCH  26  27
HETATM   27  C4  UNL     1     -20.219   3.855 -12.319  1.00  0.00     0.206 C 
BRANCH  27  28
HETATM   28  C3  UNL     1     -20.619   5.111 -11.633  1.00  0.00    -0.005 C 
HETATM   29  C2  UNL     1     -19.883   6.203 -11.705  1.00  0.00    -0.033 C 
HETATM   30  C1  UNL     1     -20.300   7.442 -11.013  1.00  0.00     0.036 C 
ENDBRANCH  27  28
ENDBRANCH  26  27
ENDBRANCH  24  26
ENDBRANCH   1  24
TORSDOF 8
ENDMDL
