MODEL 1
REMARK VINA RESULT: -9.076220355      0.000      0.000
REMARK  7 active torsions:
REMARK  status: ('A' for Active; 'I' for Inactive)
REMARK    1  A    between atoms: C2_2  and  C3_3 
REMARK    2  A    between atoms: C6_6  and  S1_7 
REMARK    3  A    between atoms: S1_7  and  C7_8 
REMARK    4  A    between atoms: C7_8  and  C8_9 
REMARK       I    between atoms: C8_9  and  N1_11 
REMARK    5  A    between atoms: C11_14  and  C12_15 
REMARK    6  A    between atoms: C12_15  and  C13_17 
REMARK    7  A    between atoms: C16_23  and  C17_24 
ROOT
HETATM    1  C3  UNL     1     -18.195   7.131  -5.524  1.00  0.00    -0.015 A 
HETATM    2  C4  UNL     1     -18.358   6.441  -6.694  1.00  0.00     0.031 A 
HETATM    3  C5  UNL     1     -18.721   7.150  -7.789  1.00  0.00     0.032 A 
HETATM    4  C6  UNL     1     -18.943   6.636  -9.085  1.00  0.00     0.084 A 
HETATM    5  N2  UNL     1     -19.305   7.480 -10.058  1.00  0.00    -0.339 N 
ATOM      6  H2  UNL     1     -19.462   7.086 -10.985  1.00  0.00     0.168 HD
HETATM    7  C16 UNL     1     -19.477   8.795  -9.914  1.00  0.00     0.096 A 
HETATM    8  N3  UNL     1     -19.265   9.293  -8.685  1.00  0.00    -0.339 N 
ATOM      9  H3  UNL     1     -19.385  10.294  -8.527  1.00  0.00     0.168 HD
HETATM   10  C18 UNL     1     -18.893   8.493  -7.635  1.00  0.00     0.088 A 
HETATM   11  S2  UNL     1     -18.549   8.737  -5.982  1.00  0.00    -0.076 SA
ENDROOT
BRANCH   4  12
HETATM   12  S1  UNL     1     -18.714   4.911  -9.476  1.00  0.00    -0.102 SA
BRANCH  12  13
HETATM   13  C7  UNL     1     -20.190   3.925  -9.358  1.00  0.00     0.183 C 
BRANCH  13  14
HETATM   14  C8  UNL     1     -20.104   2.577  -9.905  1.00  0.00     0.229 C 
HETATM   15  O1  UNL     1     -19.566   2.426 -11.022  1.00  0.00    -0.273 OA
HETATM   16  N1  UNL     1     -20.603   1.416  -9.233  1.00  0.00    -0.351 N 
HETATM   17  C9  UNL     1     -21.175   1.593  -7.919  1.00  0.00     0.126 C 
HETATM   18  C15 UNL     1     -20.522   0.159  -9.905  1.00  0.00     0.126 C 
HETATM   19  C10 UNL     1     -20.983   0.305  -7.120  1.00  0.00     0.032 C 
HETATM   20  C11 UNL     1     -21.699  -0.794  -7.901  1.00  0.00     0.059 C 
HETATM   21  C14 UNL     1     -20.955  -1.048  -9.172  1.00  0.00     0.032 C 
BRANCH  20  22
HETATM   22  C12 UNL     1     -21.825  -2.004  -7.081  1.00  0.00     0.144 C 
HETATM   23  O2  UNL     1     -21.045  -2.198  -6.148  1.00  0.00    -0.296 OA
BRANCH  22  24
HETATM   24  C13 UNL     1     -22.866  -3.041  -7.316  1.00  0.00     0.193 C 
HETATM   25 CL1  UNL     1     -22.523  -4.513  -6.377  1.00  0.00    -0.123 Cl
ENDBRANCH  22  24
ENDBRANCH  20  22
ENDBRANCH  13  14
ENDBRANCH  12  13
ENDBRANCH   4  12
BRANCH   7  26
HETATM   26  C17 UNL     1     -19.875   9.614 -11.079  1.00  0.00     0.191 C 
HETATM   27 CL2  UNL     1     -21.528   9.218 -11.557  1.00  0.00    -0.122 Cl
ENDBRANCH   7  26
BRANCH   1  28
HETATM   28  C2  UNL     1     -17.789   6.598  -4.170  1.00  0.00     0.042 C 
HETATM   29  C1  UNL     1     -17.804   7.728  -3.200  1.00  0.00     0.010 C 
ENDBRANCH   1  28
TORSDOF 7
ENDMDL
MODEL 2
REMARK VINA RESULT: -8.995072676      1.228      1.587
REMARK  7 active torsions:
REMARK  status: ('A' for Active; 'I' for Inactive)
REMARK    1  A    between atoms: C2_2  and  C3_3 
REMARK    2  A    between atoms: C6_6  and  S1_7 
REMARK    3  A    between atoms: S1_7  and  C7_8 
REMARK    4  A    between atoms: C7_8  and  C8_9 
REMARK       I    between atoms: C8_9  and  N1_11 
REMARK    5  A    between atoms: C11_14  and  C12_15 
REMARK    6  A    between atoms: C12_15  and  C13_17 
REMARK    7  A    between atoms: C16_23  and  C17_24 
ROOT
HETATM    1  C3  UNL     1     -18.198   7.204  -5.409  1.00  0.00    -0.015 A 
HETATM    2  C4  UNL     1     -18.388   6.469  -6.546  1.00  0.00     0.031 A 
HETATM    3  C5  UNL     1     -18.745   7.139  -7.668  1.00  0.00     0.032 A 
HETATM    4  C6  UNL     1     -18.992   6.576  -8.938  1.00  0.00     0.084 A 
HETATM    5  N2  UNL     1     -19.343   7.387  -9.943  1.00  0.00    -0.339 N 
ATOM      6  H2  UNL     1     -19.518   6.957 -10.851  1.00  0.00     0.168 HD
HETATM    7  C16 UNL     1     -19.483   8.710  -9.854  1.00  0.00     0.096 A 
HETATM    8  N3  UNL     1     -19.248   9.255  -8.649  1.00  0.00    -0.339 N 
ATOM      9  H3  UNL     1     -19.343  10.264  -8.533  1.00  0.00     0.168 HD
HETATM   10  C18 UNL     1     -18.885   8.491  -7.569  1.00  0.00     0.088 A 
HETATM   11  S2  UNL     1     -18.519   8.797  -5.931  1.00  0.00    -0.076 SA
ENDROOT
BRANCH   4  12
HETATM   12  S1  UNL     1     -18.806   4.832  -9.258  1.00  0.00    -0.102 SA
BRANCH  12  13
HETATM   13  C7  UNL     1     -20.339   3.945  -9.427  1.00  0.00     0.183 C 
BRANCH  13  14
HETATM   14  C8  UNL     1     -20.945   3.473  -8.189  1.00  0.00     0.229 C 
HETATM   15  O1  UNL     1     -21.271   4.319  -7.330  1.00  0.00    -0.273 OA
HETATM   16  N1  UNL     1     -21.189   2.091  -7.903  1.00  0.00    -0.351 N 
HETATM   17  C9  UNL     1     -20.859   1.125  -8.923  1.00  0.00     0.126 C 
HETATM   18  C15 UNL     1     -21.724   1.751  -6.625  1.00  0.00     0.126 C 
HETATM   19  C10 UNL     1     -21.781  -0.084  -8.774  1.00  0.00     0.032 C 
HETATM   20  C11 UNL     1     -21.536  -0.639  -7.373  1.00  0.00     0.059 C 
HETATM   21  C14 UNL     1     -22.058   0.335  -6.368  1.00  0.00     0.032 C 
BRANCH  20  22
HETATM   22  C12 UNL     1     -22.151  -1.964  -7.233  1.00  0.00     0.144 C 
HETATM   23  O2  UNL     1     -23.353  -2.110  -7.461  1.00  0.00    -0.296 OA
BRANCH  22  24
HETATM   24  C13 UNL     1     -21.391  -3.174  -6.821  1.00  0.00     0.193 C 
HETATM   25 CL1  UNL     1     -22.494  -4.496  -6.369  1.00  0.00    -0.123 Cl
ENDBRANCH  22  24
ENDBRANCH  20  22
ENDBRANCH  13  14
ENDBRANCH  12  13
ENDBRANCH   4  12
BRANCH   7  26
HETATM   26  C17 UNL     1     -19.873   9.488 -11.049  1.00  0.00     0.191 C 
HETATM   27 CL2  UNL     1     -21.585   9.236 -11.399  1.00  0.00    -0.122 Cl
ENDBRANCH   7  26
BRANCH   1  28
HETATM   28  C2  UNL     1     -17.791   6.720  -4.036  1.00  0.00     0.042 C 
HETATM   29  C1  UNL     1     -17.787   7.887  -3.111  1.00  0.00     0.010 C 
ENDBRANCH   1  28
TORSDOF 7
ENDMDL
MODEL 3
REMARK VINA RESULT: -8.992283685      2.596      3.216
REMARK  7 active torsions:
REMARK  status: ('A' for Active; 'I' for Inactive)
REMARK    1  A    between atoms: C2_2  and  C3_3 
REMARK    2  A    between atoms: C6_6  and  S1_7 
REMARK    3  A    between atoms: S1_7  and  C7_8 
REMARK    4  A    between atoms: C7_8  and  C8_9 
REMARK       I    between atoms: C8_9  and  N1_11 
REMARK    5  A    between atoms: C11_14  and  C12_15 
REMARK    6  A    between atoms: C12_15  and  C13_17 
REMARK    7  A    between atoms: C16_23  and  C17_24 
ROOT
HETATM    1  C3  UNL     1     -19.147   5.390  -7.632  1.00  0.00    -0.015 A 
HETATM    2  C4  UNL     1     -19.162   4.661  -8.788  1.00  0.00     0.031 A 
HETATM    3  C5  UNL     1     -19.606   5.279  -9.908  1.00  0.00     0.032 A 
HETATM    4  C6  UNL     1     -19.705   4.711 -11.196  1.00  0.00     0.084 A 
HETATM    5  N2  UNL     1     -20.174   5.464 -12.197  1.00  0.00    -0.339 N 
ATOM      6  H2  UNL     1     -20.238   5.032 -13.119  1.00  0.00     0.168 HD
HETATM    7  C16 UNL     1     -20.564   6.736 -12.089  1.00  0.00     0.096 A 
HETATM    8  N3  UNL     1     -20.472   7.285 -10.866  1.00  0.00    -0.339 N 
ATOM      9  H3  UNL     1     -20.759   8.255 -10.735  1.00  0.00     0.168 HD
HETATM   10  C18 UNL     1     -20.002   6.577  -9.790  1.00  0.00     0.088 A 
HETATM   11  S2  UNL     1     -19.749   6.907  -8.135  1.00  0.00    -0.076 SA
ENDROOT
BRANCH   4  12
HETATM   12  S1  UNL     1     -19.184   3.041 -11.542  1.00  0.00    -0.102 SA
BRANCH  12  13
HETATM   13  C7  UNL     1     -20.515   1.876 -11.732  1.00  0.00     0.183 C 
BRANCH  13  14
HETATM   14  C8  UNL     1     -20.616   0.846 -10.706  1.00  0.00     0.229 C 
HETATM   15  O1  UNL     1     -19.990  -0.221 -10.876  1.00  0.00    -0.273 OA
HETATM   16  N1  UNL     1     -21.393   0.991  -9.511  1.00  0.00    -0.351 N 
HETATM   17  C9  UNL     1     -22.069   2.248  -9.296  1.00  0.00     0.126 C 
HETATM   18  C15 UNL     1     -21.467  -0.118  -8.616  1.00  0.00     0.126 C 
HETATM   19  C10 UNL     1     -22.209   2.482  -7.794  1.00  0.00     0.032 C 
HETATM   20  C11 UNL     1     -23.019   1.308  -7.251  1.00  0.00     0.059 C 
HETATM   21  C14 UNL     1     -22.194   0.066  -7.344  1.00  0.00     0.032 C 
BRANCH  20  22
HETATM   22  C12 UNL     1     -23.458   1.581  -5.878  1.00  0.00     0.144 C 
HETATM   23  O2  UNL     1     -22.703   2.160  -5.095  1.00  0.00    -0.296 OA
BRANCH  22  24
HETATM   24  C13 UNL     1     -24.796   1.190  -5.358  1.00  0.00     0.193 C 
HETATM   25 CL1  UNL     1     -25.555  -0.031  -6.408  1.00  0.00    -0.123 Cl
ENDBRANCH  22  24
ENDBRANCH  20  22
ENDBRANCH  13  14
ENDBRANCH  12  13
ENDBRANCH   4  12
BRANCH   7  26
HETATM   26  C17 UNL     1     -21.060   7.455 -13.281  1.00  0.00     0.191 C 
HETATM   27 CL2  UNL     1     -22.332   8.587 -12.817  1.00  0.00    -0.122 Cl
ENDBRANCH   7  26
BRANCH   1  28
HETATM   28  C2  UNL     1     -18.697   4.958  -6.255  1.00  0.00     0.042 C 
HETATM   29  C1  UNL     1     -19.527   3.795  -5.836  1.00  0.00     0.010 C 
ENDBRANCH   1  28
TORSDOF 7
ENDMDL
MODEL 4
REMARK VINA RESULT: -8.919960801      2.031      2.128
REMARK  7 active torsions:
REMARK  status: ('A' for Active; 'I' for Inactive)
REMARK    1  A    between atoms: C2_2  and  C3_3 
REMARK    2  A    between atoms: C6_6  and  S1_7 
REMARK    3  A    between atoms: S1_7  and  C7_8 
REMARK    4  A    between atoms: C7_8  and  C8_9 
REMARK       I    between atoms: C8_9  and  N1_11 
REMARK    5  A    between atoms: C11_14  and  C12_15 
REMARK    6  A    between atoms: C12_15  and  C13_17 
REMARK    7  A    between atoms: C16_23  and  C17_24 
ROOT
HETATM    1  C3  UNL     1     -18.154   7.467  -5.242  1.00  0.00    -0.015 A 
HETATM    2  C4  UNL     1     -18.188   6.772  -6.419  1.00  0.00     0.031 A 
HETATM    3  C5  UNL     1     -18.586   7.443  -7.526  1.00  0.00     0.032 A 
HETATM    4  C6  UNL     1     -18.694   6.917  -8.832  1.00  0.00     0.084 A 
HETATM    5  N2  UNL     1     -19.111   7.721  -9.816  1.00  0.00    -0.339 N 
ATOM      6  H2  UNL     1     -19.183   7.319 -10.750  1.00  0.00     0.168 HD
HETATM    7  C16 UNL     1     -19.440   9.007  -9.676  1.00  0.00     0.096 A 
HETATM    8  N3  UNL     1     -19.338   9.516  -8.437  1.00  0.00    -0.339 N 
ATOM      9  H3  UNL     1     -19.579  10.494  -8.281  1.00  0.00     0.168 HD
HETATM   10  C18 UNL     1     -18.919   8.756  -7.375  1.00  0.00     0.088 A 
HETATM   11  S2  UNL     1     -18.673   9.025  -5.709  1.00  0.00    -0.076 SA
ENDROOT
BRANCH   4  12
HETATM   12  S1  UNL     1     -18.250   5.234  -9.219  1.00  0.00    -0.102 SA
BRANCH  12  13
HETATM   13  C7  UNL     1     -19.291   4.004  -8.465  1.00  0.00     0.183 C 
BRANCH  13  14
HETATM   14  C8  UNL     1     -20.021   3.135  -9.380  1.00  0.00     0.229 C 
HETATM   15  O1  UNL     1     -19.494   2.858 -10.478  1.00  0.00    -0.273 OA
HETATM   16  N1  UNL     1     -21.309   2.581  -9.089  1.00  0.00    -0.351 N 
HETATM   17  C9  UNL     1     -21.885   2.863  -7.796  1.00  0.00     0.126 C 
HETATM   18  C15 UNL     1     -21.951   1.801 -10.096  1.00  0.00     0.126 C 
HETATM   19  C10 UNL     1     -22.804   1.707  -7.403  1.00  0.00     0.032 C 
HETATM   20  C11 UNL     1     -23.873   1.622  -8.490  1.00  0.00     0.059 C 
HETATM   21  C14 UNL     1     -23.237   1.158  -9.759  1.00  0.00     0.032 C 
BRANCH  20  22
HETATM   22  C12 UNL     1     -24.966   0.741  -8.062  1.00  0.00     0.144 C 
HETATM   23  O2  UNL     1     -26.060   0.801  -8.625  1.00  0.00    -0.296 OA
BRANCH  22  24
HETATM   24  C13 UNL     1     -24.830  -0.246  -6.957  1.00  0.00     0.193 C 
HETATM   25 CL1  UNL     1     -23.885  -1.662  -7.481  1.00  0.00    -0.123 Cl
ENDBRANCH  22  24
ENDBRANCH  20  22
ENDBRANCH  13  14
ENDBRANCH  12  13
ENDBRANCH   4  12
BRANCH   7  26
HETATM   26  C17 UNL     1     -19.883   9.783 -10.853  1.00  0.00     0.191 C 
HETATM   27 CL2  UNL     1     -21.463   9.210 -11.393  1.00  0.00    -0.122 Cl
ENDBRANCH   7  26
BRANCH   1  28
HETATM   28  C2  UNL     1     -17.745   6.974  -3.873  1.00  0.00     0.042 C 
HETATM   29  C1  UNL     1     -17.798   8.123  -2.927  1.00  0.00     0.010 C 
ENDBRANCH   1  28
TORSDOF 7
ENDMDL
MODEL 5
REMARK VINA RESULT: -8.903585285      2.894      3.545
REMARK  7 active torsions:
REMARK  status: ('A' for Active; 'I' for Inactive)
REMARK    1  A    between atoms: C2_2  and  C3_3 
REMARK    2  A    between atoms: C6_6  and  S1_7 
REMARK    3  A    between atoms: S1_7  and  C7_8 
REMARK    4  A    between atoms: C7_8  and  C8_9 
REMARK       I    between atoms: C8_9  and  N1_11 
REMARK    5  A    between atoms: C11_14  and  C12_15 
REMARK    6  A    between atoms: C12_15  and  C13_17 
REMARK    7  A    between atoms: C16_23  and  C17_24 
ROOT
HETATM    1  C3  UNL     1     -19.468   4.936  -7.642  1.00  0.00    -0.015 A 
HETATM    2  C4  UNL     1     -19.447   4.245  -8.821  1.00  0.00     0.031 A 
HETATM    3  C5  UNL     1     -19.776   4.923  -9.946  1.00  0.00     0.032 A 
HETATM    4  C6  UNL     1     -19.821   4.402 -11.257  1.00  0.00     0.084 A 
HETATM    5  N2  UNL     1     -20.174   5.213 -12.260  1.00  0.00    -0.339 N 
ATOM      6  H2  UNL     1     -20.201   4.814 -13.198  1.00  0.00     0.168 HD
HETATM    7  C16 UNL     1     -20.494   6.502 -12.134  1.00  0.00     0.096 A 
HETATM    8  N3  UNL     1     -20.453   7.007 -10.890  1.00  0.00    -0.339 N 
ATOM      9  H3  UNL     1     -20.691   7.988 -10.744  1.00  0.00     0.168 HD
HETATM   10  C18 UNL     1     -20.101   6.239  -9.809  1.00  0.00     0.088 A 
HETATM   11  S2  UNL     1     -19.943   6.502  -8.132  1.00  0.00    -0.076 SA
ENDROOT
BRANCH   4  12
HETATM   12  S1  UNL     1     -19.377   2.714 -11.625  1.00  0.00    -0.102 SA
BRANCH  12  13
HETATM   13  C7  UNL     1     -20.758   1.602 -11.765  1.00  0.00     0.183 C 
BRANCH  13  14
HETATM   14  C8  UNL     1     -20.861   0.576 -10.734  1.00  0.00     0.229 C 
HETATM   15  O1  UNL     1     -20.123  -0.428 -10.824  1.00  0.00    -0.273 OA
HETATM   16  N1  UNL     1     -21.762   0.656  -9.624  1.00  0.00    -0.351 N 
HETATM   17  C9  UNL     1     -22.572   1.844  -9.498  1.00  0.00     0.126 C 
HETATM   18  C15 UNL     1     -21.817  -0.447  -8.720  1.00  0.00     0.126 C 
HETATM   19  C10 UNL     1     -22.880   2.077  -8.021  1.00  0.00     0.032 C 
HETATM   20  C11 UNL     1     -23.625   0.835  -7.537  1.00  0.00     0.059 C 
HETATM   21  C14 UNL     1     -22.680  -0.322  -7.527  1.00  0.00     0.032 C 
BRANCH  20  22
HETATM   22  C12 UNL     1     -24.220   1.077  -6.218  1.00  0.00     0.144 C 
HETATM   23  O2  UNL     1     -25.440   1.008  -6.073  1.00  0.00    -0.296 OA
BRANCH  22  24
HETATM   24  C13 UNL     1     -23.415   1.411  -5.012  1.00  0.00     0.193 C 
HETATM   25 CL1  UNL     1     -24.426   1.399  -3.548  1.00  0.00    -0.123 Cl
ENDBRANCH  22  24
ENDBRANCH  20  22
ENDBRANCH  13  14
ENDBRANCH  12  13
ENDBRANCH   4  12
BRANCH   7  26
HETATM   26  C17 UNL     1     -20.863   7.287 -13.331  1.00  0.00     0.191 C 
HETATM   27 CL2  UNL     1     -22.169   8.408 -12.938  1.00  0.00    -0.122 Cl
ENDBRANCH   7  26
BRANCH   1  28
HETATM   28  C2  UNL     1     -19.140   4.435  -6.255  1.00  0.00     0.042 C 
HETATM   29  C1  UNL     1     -20.067   3.317  -5.930  1.00  0.00     0.010 C 
ENDBRANCH   1  28
TORSDOF 7
ENDMDL
