MODEL 1
REMARK VINA RESULT: -9.744641809      0.000      0.000
REMARK  8 active torsions:
REMARK  status: ('A' for Active; 'I' for Inactive)
REMARK    1  A    between atoms: C2_2  and  O1_4 
REMARK    2  A    between atoms: O1_4  and  C4_5 
REMARK       I    between atoms: N1_9  and  C7_10 
REMARK    3  A    between atoms: C7_10  and  C8_12 
REMARK    4  A    between atoms: C12_16  and  C13_17 
REMARK    5  A    between atoms: C13_17  and  O4_19 
REMARK    6  A    between atoms: O4_19  and  C14_20 
REMARK    7  A    between atoms: C17_23  and  O5_24 
REMARK    8  A    between atoms: O5_24  and  C18_25 
ROOT
HETATM    1  C8  UNL     1     -20.418   3.518 -10.548  1.00  0.00     0.092 C 
HETATM    2  C9  UNL     1     -20.265   3.908 -12.004  1.00  0.00     0.015 C 
HETATM    3  C10 UNL     1     -18.828   4.254 -12.243  1.00  0.00     0.002 C 
HETATM    4  C11 UNL     1     -18.129   3.991 -10.952  1.00  0.00     0.015 C 
HETATM    5  C12 UNL     1     -19.186   4.063  -9.854  1.00  0.00     0.099 C 
ENDROOT
BRANCH   1   6
HETATM    6  C7  UNL     1     -20.490   2.038 -10.473  1.00  0.00     0.234 C 
HETATM    7  N1  UNL     1     -21.322   1.334  -9.560  1.00  0.00    -0.291 N 
HETATM    8  S1  UNL     1     -22.289   2.384  -8.526  1.00  0.00    -0.051 SA
HETATM    9  C21 UNL     1     -21.266  -0.108  -9.599  1.00  0.00     0.142 C 
HETATM   10  C6  UNL     1     -22.772   1.416  -7.048  1.00  0.00     0.100 C 
HETATM   11  C5  UNL     1     -21.619   0.635  -6.493  1.00  0.00     0.044 C 
HETATM   12  C4  UNL     1     -21.481  -0.699  -7.185  1.00  0.00     0.124 C 
HETATM   13  C22 UNL     1     -20.537  -0.594  -8.357  1.00  0.00     0.053 C 
HETATM   14  O2  UNL     1     -19.775   1.332 -11.259  1.00  0.00    -0.272 OA
BRANCH  12  15
HETATM   15  O1  UNL     1     -21.190  -1.741  -6.340  1.00  0.00    -0.381 OA
BRANCH  15  16
HETATM   16  C2  UNL     1     -21.352  -2.991  -6.919  1.00  0.00     0.113 C 
HETATM   17  C1  UNL     1     -22.844  -3.136  -7.236  1.00  0.00     0.039 C 
HETATM   18  C3  UNL     1     -21.020  -4.049  -5.887  1.00  0.00     0.039 C 
ENDBRANCH  15  16
ENDBRANCH  12  15
ENDBRANCH   1   6
BRANCH   5  19
HETATM   19  C13 UNL     1     -19.352   5.513  -9.543  1.00  0.00     0.269 C 
HETATM   20  O3  UNL     1     -20.438   6.062  -9.855  1.00  0.00    -0.264 OA
BRANCH  19  21
HETATM   21  O4  UNL     1     -18.386   6.272  -8.937  1.00  0.00    -0.279 OA
BRANCH  21  22
HETATM   22  C14 UNL     1     -18.284   6.507  -7.590  1.00  0.00     0.079 A 
HETATM   23  C15 UNL     1     -18.353   7.771  -7.076  1.00  0.00     0.040 A 
HETATM   24  C16 UNL     1     -18.248   8.015  -5.700  1.00  0.00     0.040 A 
HETATM   25  C17 UNL     1     -18.073   6.977  -4.835  1.00  0.00     0.075 A 
HETATM   26  C19 UNL     1     -18.002   5.668  -5.360  1.00  0.00     0.040 A 
HETATM   27  C20 UNL     1     -18.108   5.462  -6.720  1.00  0.00     0.040 A 
BRANCH  25  28
HETATM   28  O5  UNL     1     -17.965   7.163  -3.475  1.00  0.00    -0.290 OA
BRANCH  28  29
HETATM   29  C18 UNL     1     -17.849   8.364  -2.800  1.00  0.00     0.505 C 
HETATM   30  F1  UNL     1     -18.821   9.264  -3.245  1.00  0.00    -0.184 F 
HETATM   31  F2  UNL     1     -16.637   9.000  -3.091  1.00  0.00    -0.184 F 
ENDBRANCH  28  29
ENDBRANCH  25  28
ENDBRANCH  21  22
ENDBRANCH  19  21
ENDBRANCH   5  19
TORSDOF 8
ENDMDL
MODEL 2
REMARK VINA RESULT: -9.646047994      4.692      6.854
REMARK  8 active torsions:
REMARK  status: ('A' for Active; 'I' for Inactive)
REMARK    1  A    between atoms: C2_2  and  O1_4 
REMARK    2  A    between atoms: O1_4  and  C4_5 
REMARK       I    between atoms: N1_9  and  C7_10 
REMARK    3  A    between atoms: C7_10  and  C8_12 
REMARK    4  A    between atoms: C12_16  and  C13_17 
REMARK    5  A    between atoms: C13_17  and  O4_19 
REMARK    6  A    between atoms: O4_19  and  C14_20 
REMARK    7  A    between atoms: C17_23  and  O5_24 
REMARK    8  A    between atoms: O5_24  and  C18_25 
ROOT
HETATM    1  C8  UNL     1     -19.128   5.791  -8.507  1.00  0.00     0.092 C 
HETATM    2  C9  UNL     1     -17.690   5.989  -8.072  1.00  0.00     0.015 C 
HETATM    3  C10 UNL     1     -17.678   6.981  -6.952  1.00  0.00     0.002 C 
HETATM    4  C11 UNL     1     -19.109   7.302  -6.680  1.00  0.00     0.015 C 
HETATM    5  C12 UNL     1     -19.884   6.982  -7.954  1.00  0.00     0.099 C 
ENDROOT
BRANCH   1   6
HETATM    6  C7  UNL     1     -19.611   4.510  -7.935  1.00  0.00     0.234 C 
HETATM    7  N1  UNL     1     -19.972   3.380  -8.718  1.00  0.00    -0.291 N 
HETATM    8  S1  UNL     1     -19.772   3.628 -10.452  1.00  0.00    -0.051 SA
HETATM    9  C21 UNL     1     -20.440   2.213  -8.010  1.00  0.00     0.142 C 
HETATM   10  C6  UNL     1     -20.838   2.411 -11.312  1.00  0.00     0.100 C 
HETATM   11  C5  UNL     1     -22.201   2.331 -10.695  1.00  0.00     0.044 C 
HETATM   12  C4  UNL     1     -22.221   1.364  -9.538  1.00  0.00     0.124 C 
HETATM   13  C22 UNL     1     -21.936   2.080  -8.241  1.00  0.00     0.053 C 
HETATM   14  O2  UNL     1     -19.720   4.388  -6.669  1.00  0.00    -0.272 OA
BRANCH  12  15
HETATM   15  O1  UNL     1     -23.339   0.569  -9.490  1.00  0.00    -0.381 OA
BRANCH  15  16
HETATM   16  C2  UNL     1     -24.370   1.101  -8.730  1.00  0.00     0.113 C 
HETATM   17  C1  UNL     1     -24.785   0.012  -7.735  1.00  0.00     0.039 C 
HETATM   18  C3  UNL     1     -25.561   1.343  -9.633  1.00  0.00     0.039 C 
ENDBRANCH  15  16
ENDBRANCH  12  15
ENDBRANCH   1   6
BRANCH   5  19
HETATM   19  C13 UNL     1     -19.719   8.171  -8.840  1.00  0.00     0.269 C 
HETATM   20  O3  UNL     1     -20.141   9.280  -8.423  1.00  0.00    -0.264 OA
BRANCH  19  21
HETATM   21  O4  UNL     1     -19.134   8.118 -10.077  1.00  0.00    -0.279 OA
BRANCH  21  22
HETATM   22  C14 UNL     1     -19.783   8.274 -11.274  1.00  0.00     0.079 A 
HETATM   23  C15 UNL     1     -20.498   7.256 -11.841  1.00  0.00     0.040 A 
HETATM   24  C16 UNL     1     -21.162   7.412 -13.065  1.00  0.00     0.040 A 
HETATM   25  C17 UNL     1     -21.107   8.603 -13.723  1.00  0.00     0.075 A 
HETATM   26  C19 UNL     1     -20.371   9.660 -13.144  1.00  0.00     0.040 A 
HETATM   27  C20 UNL     1     -19.728   9.474 -11.938  1.00  0.00     0.040 A 
BRANCH  25  28
HETATM   28  O5  UNL     1     -21.742   8.808 -14.928  1.00  0.00    -0.290 OA
BRANCH  28  29
HETATM   29  C18 UNL     1     -21.189   8.715 -16.192  1.00  0.00     0.505 C 
HETATM   30  F1  UNL     1     -22.037   7.996 -17.039  1.00  0.00    -0.184 F 
HETATM   31  F2  UNL     1     -20.006   7.967 -16.179  1.00  0.00    -0.184 F 
ENDBRANCH  28  29
ENDBRANCH  25  28
ENDBRANCH  21  22
ENDBRANCH  19  21
ENDBRANCH   5  19
TORSDOF 8
ENDMDL
MODEL 3
REMARK VINA RESULT: -9.588551281      4.844      6.703
REMARK  8 active torsions:
REMARK  status: ('A' for Active; 'I' for Inactive)
REMARK    1  A    between atoms: C2_2  and  O1_4 
REMARK    2  A    between atoms: O1_4  and  C4_5 
REMARK       I    between atoms: N1_9  and  C7_10 
REMARK    3  A    between atoms: C7_10  and  C8_12 
REMARK    4  A    between atoms: C12_16  and  C13_17 
REMARK    5  A    between atoms: C13_17  and  O4_19 
REMARK    6  A    between atoms: O4_19  and  C14_20 
REMARK    7  A    between atoms: C17_23  and  O5_24 
REMARK    8  A    between atoms: O5_24  and  C18_25 
ROOT
HETATM    1  C8  UNL     1     -19.290   5.108  -9.038  1.00  0.00     0.092 C 
HETATM    2  C9  UNL     1     -17.901   5.516  -8.590  1.00  0.00     0.015 C 
HETATM    3  C10 UNL     1     -18.043   6.616  -7.585  1.00  0.00     0.002 C 
HETATM    4  C11 UNL     1     -19.511   6.796  -7.388  1.00  0.00     0.015 C 
HETATM    5  C12 UNL     1     -20.195   6.255  -8.639  1.00  0.00     0.099 C 
ENDROOT
BRANCH   1   6
HETATM    6  C7  UNL     1     -19.647   3.847  -8.340  1.00  0.00     0.234 C 
HETATM    7  N1  UNL     1     -20.295   2.751  -8.972  1.00  0.00    -0.291 N 
HETATM    8  S1  UNL     1     -20.620   3.012 -10.685  1.00  0.00    -0.051 SA
HETATM    9  C21 UNL     1     -20.591   1.601  -8.152  1.00  0.00     0.142 C 
HETATM   10  C6  UNL     1     -21.966   1.870 -11.174  1.00  0.00     0.100 C 
HETATM   11  C5  UNL     1     -23.078   1.857 -10.169  1.00  0.00     0.044 C 
HETATM   12  C4  UNL     1     -22.799   0.876  -9.058  1.00  0.00     0.124 C 
HETATM   13  C22 UNL     1     -22.091   1.556  -7.913  1.00  0.00     0.053 C 
HETATM   14  O2  UNL     1     -19.371   3.714  -7.101  1.00  0.00    -0.272 OA
BRANCH  12  15
HETATM   15  O1  UNL     1     -23.893   0.143  -8.668  1.00  0.00    -0.381 OA
BRANCH  15  16
HETATM   16  C2  UNL     1     -23.828  -0.301  -7.356  1.00  0.00     0.113 C 
HETATM   17  C1  UNL     1     -23.613  -1.816  -7.418  1.00  0.00     0.039 C 
HETATM   18  C3  UNL     1     -25.176  -0.077  -6.703  1.00  0.00     0.039 C 
ENDBRANCH  15  16
ENDBRANCH  12  15
ENDBRANCH   1   6
BRANCH   5  19
HETATM   19  C13 UNL     1     -20.131   7.355  -9.645  1.00  0.00     0.269 C 
HETATM   20  O3  UNL     1     -20.463   8.510  -9.278  1.00  0.00    -0.264 OA
BRANCH  19  21
HETATM   21  O4  UNL     1     -19.730   7.172 -10.942  1.00  0.00    -0.279 OA
BRANCH  21  22
HETATM   22  C14 UNL     1     -20.129   7.926 -12.015  1.00  0.00     0.079 A 
HETATM   23  C15 UNL     1     -19.482   9.080 -12.359  1.00  0.00     0.040 A 
HETATM   24  C16 UNL     1     -19.887   9.855 -13.455  1.00  0.00     0.040 A 
HETATM   25  C17 UNL     1     -20.951   9.464 -14.209  1.00  0.00     0.075 A 
HETATM   26  C19 UNL     1     -21.624   8.273 -13.859  1.00  0.00     0.040 A 
HETATM   27  C20 UNL     1     -21.201   7.533 -12.774  1.00  0.00     0.040 A 
BRANCH  25  28
HETATM   28  O5  UNL     1     -21.390  10.188 -15.296  1.00  0.00    -0.290 OA
BRANCH  28  29
HETATM   29  C18 UNL     1     -20.624  10.689 -16.332  1.00  0.00     0.505 C 
HETATM   30  F1  UNL     1     -20.093  11.933 -15.985  1.00  0.00    -0.184 F 
HETATM   31  F2  UNL     1     -21.405  10.954 -17.463  1.00  0.00    -0.184 F 
ENDBRANCH  28  29
ENDBRANCH  25  28
ENDBRANCH  21  22
ENDBRANCH  19  21
ENDBRANCH   5  19
TORSDOF 8
ENDMDL
MODEL 4
REMARK VINA RESULT: -9.561546737      4.619      6.633
REMARK  8 active torsions:
REMARK  status: ('A' for Active; 'I' for Inactive)
REMARK    1  A    between atoms: C2_2  and  O1_4 
REMARK    2  A    between atoms: O1_4  and  C4_5 
REMARK       I    between atoms: N1_9  and  C7_10 
REMARK    3  A    between atoms: C7_10  and  C8_12 
REMARK    4  A    between atoms: C12_16  and  C13_17 
REMARK    5  A    between atoms: C13_17  and  O4_19 
REMARK    6  A    between atoms: O4_19  and  C14_20 
REMARK    7  A    between atoms: C17_23  and  O5_24 
REMARK    8  A    between atoms: O5_24  and  C18_25 
ROOT
HETATM    1  C8  UNL     1     -19.173   5.658  -8.356  1.00  0.00     0.092 C 
HETATM    2  C9  UNL     1     -17.709   5.897  -8.049  1.00  0.00     0.015 C 
HETATM    3  C10 UNL     1     -17.624   6.951  -6.990  1.00  0.00     0.002 C 
HETATM    4  C11 UNL     1     -19.034   7.269  -6.622  1.00  0.00     0.015 C 
HETATM    5  C12 UNL     1     -19.902   6.868  -7.810  1.00  0.00     0.099 C 
ENDROOT
BRANCH   1   6
HETATM    6  C7  UNL     1     -19.588   4.405  -7.676  1.00  0.00     0.234 C 
HETATM    7  N1  UNL     1     -20.020   3.239  -8.364  1.00  0.00    -0.291 N 
HETATM    8  S1  UNL     1     -19.999   3.403 -10.119  1.00  0.00    -0.051 SA
HETATM    9  C21 UNL     1     -20.407   2.106  -7.557  1.00  0.00     0.142 C 
HETATM   10  C6  UNL     1     -21.140   2.145 -10.806  1.00  0.00     0.100 C 
HETATM   11  C5  UNL     1     -22.433   2.094 -10.050  1.00  0.00     0.044 C 
HETATM   12  C4  UNL     1     -22.329   1.183  -8.852  1.00  0.00     0.124 C 
HETATM   13  C22 UNL     1     -21.918   1.961  -7.627  1.00  0.00     0.053 C 
HETATM   14  O2  UNL     1     -19.566   4.345  -6.401  1.00  0.00    -0.272 OA
BRANCH  12  15
HETATM   15  O1  UNL     1     -23.432   0.390  -8.652  1.00  0.00    -0.381 OA
BRANCH  15  16
HETATM   16  C2  UNL     1     -23.520  -0.130  -7.370  1.00  0.00     0.113 C 
HETATM   17  C1  UNL     1     -23.171  -1.618  -7.477  1.00  0.00     0.039 C 
HETATM   18  C3  UNL     1     -24.963  -0.053  -6.915  1.00  0.00     0.039 C 
ENDBRANCH  15  16
ENDBRANCH  12  15
ENDBRANCH   1   6
BRANCH   5  19
HETATM   19  C13 UNL     1     -19.828   8.008  -8.771  1.00  0.00     0.269 C 
HETATM   20  O3  UNL     1     -20.347   9.101  -8.430  1.00  0.00    -0.264 OA
BRANCH  19  21
HETATM   21  O4  UNL     1     -19.225   7.925  -9.998  1.00  0.00    -0.279 OA
BRANCH  21  22
HETATM   22  C14 UNL     1     -19.835   8.159 -11.203  1.00  0.00     0.079 A 
HETATM   23  C15 UNL     1     -19.744   9.370 -11.830  1.00  0.00     0.040 A 
HETATM   24  C16 UNL     1     -20.366   9.613 -13.062  1.00  0.00     0.040 A 
HETATM   25  C17 UNL     1     -21.084   8.628 -13.668  1.00  0.00     0.075 A 
HETATM   26  C19 UNL     1     -21.183   7.374 -13.026  1.00  0.00     0.040 A 
HETATM   27  C20 UNL     1     -20.559   7.167 -11.814  1.00  0.00     0.040 A 
BRANCH  25  28
HETATM   28  O5  UNL     1     -21.715   8.814 -14.878  1.00  0.00    -0.290 OA
BRANCH  28  29
HETATM   29  C18 UNL     1     -21.274   8.407 -16.124  1.00  0.00     0.505 C 
HETATM   30  F1  UNL     1     -20.018   8.956 -16.396  1.00  0.00    -0.184 F 
HETATM   31  F2  UNL     1     -22.092   8.905 -17.144  1.00  0.00    -0.184 F 
ENDBRANCH  28  29
ENDBRANCH  25  28
ENDBRANCH  21  22
ENDBRANCH  19  21
ENDBRANCH   5  19
TORSDOF 8
ENDMDL
MODEL 5
REMARK VINA RESULT: -9.551806634      4.854      6.777
REMARK  8 active torsions:
REMARK  status: ('A' for Active; 'I' for Inactive)
REMARK    1  A    between atoms: C2_2  and  O1_4 
REMARK    2  A    between atoms: O1_4  and  C4_5 
REMARK       I    between atoms: N1_9  and  C7_10 
REMARK    3  A    between atoms: C7_10  and  C8_12 
REMARK    4  A    between atoms: C12_16  and  C13_17 
REMARK    5  A    between atoms: C13_17  and  O4_19 
REMARK    6  A    between atoms: O4_19  and  C14_20 
REMARK    7  A    between atoms: C17_23  and  O5_24 
REMARK    8  A    between atoms: O5_24  and  C18_25 
ROOT
HETATM    1  C8  UNL     1     -19.256   5.125  -9.039  1.00  0.00     0.092 C 
HETATM    2  C9  UNL     1     -17.878   5.547  -8.575  1.00  0.00     0.015 C 
HETATM    3  C10 UNL     1     -18.042   6.656  -7.584  1.00  0.00     0.002 C 
HETATM    4  C11 UNL     1     -19.513   6.827  -7.409  1.00  0.00     0.015 C 
HETATM    5  C12 UNL     1     -20.175   6.270  -8.664  1.00  0.00     0.099 C 
ENDROOT
BRANCH   1   6
HETATM    6  C7  UNL     1     -19.616   3.869  -8.335  1.00  0.00     0.234 C 
HETATM    7  N1  UNL     1     -20.263   2.770  -8.962  1.00  0.00    -0.291 N 
HETATM    8  S1  UNL     1     -20.587   3.021 -10.676  1.00  0.00    -0.051 SA
HETATM    9  C21 UNL     1     -20.561   1.625  -8.134  1.00  0.00     0.142 C 
HETATM   10  C6  UNL     1     -21.933   1.877 -11.159  1.00  0.00     0.100 C 
HETATM   11  C5  UNL     1     -23.046   1.871 -10.156  1.00  0.00     0.044 C 
HETATM   12  C4  UNL     1     -22.768   0.895  -9.039  1.00  0.00     0.124 C 
HETATM   13  C22 UNL     1     -22.062   1.581  -7.897  1.00  0.00     0.053 C 
HETATM   14  O2  UNL     1     -19.341   3.743  -7.095  1.00  0.00    -0.272 OA
BRANCH  12  15
HETATM   15  O1  UNL     1     -23.863   0.166  -8.646  1.00  0.00    -0.381 OA
BRANCH  15  16
HETATM   16  C2  UNL     1     -23.785  -0.298  -7.341  1.00  0.00     0.113 C 
HETATM   17  C1  UNL     1     -23.506  -1.802  -7.428  1.00  0.00     0.039 C 
HETATM   18  C3  UNL     1     -25.144  -0.144  -6.691  1.00  0.00     0.039 C 
ENDBRANCH  15  16
ENDBRANCH  12  15
ENDBRANCH   1   6
BRANCH   5  19
HETATM   19  C13 UNL     1     -20.104   7.360  -9.680  1.00  0.00     0.269 C 
HETATM   20  O3  UNL     1     -20.473   8.512  -9.336  1.00  0.00    -0.264 OA
BRANCH  19  21
HETATM   21  O4  UNL     1     -19.659   7.173 -10.962  1.00  0.00    -0.279 OA
BRANCH  21  22
HETATM   22  C14 UNL     1     -20.079   7.874 -12.063  1.00  0.00     0.079 A 
HETATM   23  C15 UNL     1     -21.178   7.493 -12.779  1.00  0.00     0.040 A 
HETATM   24  C16 UNL     1     -21.609   8.207 -13.906  1.00  0.00     0.040 A 
HETATM   25  C17 UNL     1     -20.928   9.314 -14.313  1.00  0.00     0.075 A 
HETATM   26  C19 UNL     1     -19.790   9.713 -13.577  1.00  0.00     0.040 A 
HETATM   27  C20 UNL     1     -19.392   8.988 -12.473  1.00  0.00     0.040 A 
BRANCH  25  28
HETATM   28  O5  UNL     1     -21.309  10.051 -15.412  1.00  0.00    -0.290 OA
BRANCH  28  29
HETATM   29  C18 UNL     1     -21.029   9.781 -16.739  1.00  0.00     0.505 C 
HETATM   30  F1  UNL     1     -22.065   9.041 -17.312  1.00  0.00    -0.184 F 
HETATM   31  F2  UNL     1     -19.908   8.954 -16.867  1.00  0.00    -0.184 F 
ENDBRANCH  28  29
ENDBRANCH  25  28
ENDBRANCH  21  22
ENDBRANCH  19  21
ENDBRANCH   5  19
TORSDOF 8
ENDMDL
