MODEL 1
REMARK VINA RESULT: -7.888815016      0.000      0.000
REMARK  8 active torsions:
REMARK  status: ('A' for Active; 'I' for Inactive)
REMARK    1  A    between atoms: S1_2  and  C1_4 
REMARK    2  A    between atoms: S1_2  and  N1_21 
REMARK    3  A    between atoms: C1_4  and  S2_5 
REMARK    4  A    between atoms: S2_5  and  C2_6 
REMARK    5  A    between atoms: C2_6  and  C3_7 
REMARK    6  A    between atoms: C2_6  and  C7_14 
REMARK    7  A    between atoms: C3_7  and  S3_8 
REMARK    8  A    between atoms: S3_8  and  C4_9 
ROOT
HETATM    1  C2  UNL     1     -18.653   7.221  -7.330  1.00  0.00     0.000 C 
ENDROOT
BRANCH   1   2
HETATM    2  S2  UNL     1     -17.874   5.857  -8.174  1.00  0.00    -0.116 SA
BRANCH   2   3
HETATM    3  C1  UNL     1     -19.136   4.796  -9.045  1.00  0.00     0.236 C 
BRANCH   3   4
HETATM    4  S1  UNL     1     -20.029   3.838  -7.897  1.00  0.00     0.220 S 
HETATM    5  O1  UNL     1     -21.347   4.426  -7.471  1.00  0.00    -0.210 OA
HETATM    6  O2  UNL     1     -19.279   3.490  -6.624  1.00  0.00    -0.210 OA
BRANCH   4   7
HETATM    7  N1  UNL     1     -20.376   2.263  -8.592  1.00  0.00    -0.204 NA
HETATM    8  C13 UNL     1     -20.209   2.222 -10.004  1.00  0.00     0.145 C 
HETATM    9  C14 UNL     1     -21.720   2.425 -10.184  1.00  0.00     0.198 C 
HETATM   10  F1  UNL     1     -22.335   1.528 -11.010  1.00  0.00    -0.247 F 
HETATM   11  C15 UNL     1     -21.807   2.066  -8.717  1.00  0.00     0.145 C 
ENDBRANCH   4   7
ENDBRANCH   3   4
ENDBRANCH   2   3
ENDBRANCH   1   2
BRANCH   1  12
HETATM   12  C3  UNL     1     -19.989   7.665  -7.725  1.00  0.00     0.121 C 
BRANCH  12  13
HETATM   13  S3  UNL     1     -20.108   8.893  -9.037  1.00  0.00    -0.148 SA
BRANCH  13  14
HETATM   14  C4  UNL     1     -20.858   8.034 -10.454  1.00  0.00     0.120 C 
HETATM   15  C5  UNL     1     -19.837   7.371 -11.287  1.00  0.00     0.037 C 
HETATM   16  C6  UNL     1     -20.583   6.572 -12.360  1.00  0.00     0.088 C 
HETATM   17  S4  UNL     1     -21.380   7.924 -13.332  1.00  0.00    -0.096 SA
HETATM   18  S5  UNL     1     -21.593   9.247 -11.630  1.00  0.00    -0.082 SA
ENDBRANCH  13  14
ENDBRANCH  12  13
ENDBRANCH   1  12
BRANCH   1  19
HETATM   19  C7  UNL     1     -18.271   7.406  -5.908  1.00  0.00    -0.001 A 
HETATM   20  C8  UNL     1     -18.239   6.312  -5.047  1.00  0.00     0.014 A 
HETATM   21  C9  UNL     1     -18.032   6.410  -3.669  1.00  0.00     0.001 A 
HETATM   22  C10 UNL     1     -17.850   7.717  -3.175  1.00  0.00     0.002 A 
HETATM   23  C11 UNL     1     -17.882   8.810  -4.029  1.00  0.00     0.024 A 
HETATM   24  C12 UNL     1     -18.087   8.669  -5.370  1.00  0.00     0.045 A 
HETATM   25 CL1  UNL     1     -18.130  10.038  -6.500  1.00  0.00    -0.083 Cl
ENDBRANCH   1  19
TORSDOF 8
ENDMDL
MODEL 2
REMARK VINA RESULT: -7.821853283      2.558      3.347
REMARK  8 active torsions:
REMARK  status: ('A' for Active; 'I' for Inactive)
REMARK    1  A    between atoms: S1_2  and  C1_4 
REMARK    2  A    between atoms: S1_2  and  N1_21 
REMARK    3  A    between atoms: C1_4  and  S2_5 
REMARK    4  A    between atoms: S2_5  and  C2_6 
REMARK    5  A    between atoms: C2_6  and  C3_7 
REMARK    6  A    between atoms: C2_6  and  C7_14 
REMARK    7  A    between atoms: C3_7  and  S3_8 
REMARK    8  A    between atoms: S3_8  and  C4_9 
ROOT
HETATM    1  C2  UNL     1     -19.228   4.740  -7.415  1.00  0.00     0.000 C 
ENDROOT
BRANCH   1   2
HETATM    2  S2  UNL     1     -20.910   4.146  -7.421  1.00  0.00    -0.116 SA
BRANCH   2   3
HETATM    3  C1  UNL     1     -20.965   2.285  -7.514  1.00  0.00     0.236 C 
BRANCH   3   4
HETATM    4  S1  UNL     1     -22.202   1.655  -6.460  1.00  0.00     0.220 S 
HETATM    5  O1  UNL     1     -22.317   2.353  -5.133  1.00  0.00    -0.210 OA
HETATM    6  O2  UNL     1     -22.101   0.171  -6.162  1.00  0.00    -0.210 OA
BRANCH   4   7
HETATM    7  N1  UNL     1     -23.767   1.792  -7.246  1.00  0.00    -0.204 NA
HETATM    8  C13 UNL     1     -24.502   0.575  -7.252  1.00  0.00     0.145 C 
HETATM    9  C14 UNL     1     -24.019   0.296  -8.682  1.00  0.00     0.198 C 
HETATM   10  F1  UNL     1     -25.001  -0.010  -9.581  1.00  0.00    -0.247 F 
HETATM   11  C15 UNL     1     -23.617   1.754  -8.687  1.00  0.00     0.145 C 
ENDBRANCH   4   7
ENDBRANCH   3   4
ENDBRANCH   2   3
ENDBRANCH   1   2
BRANCH   1  12
HETATM   12  C3  UNL     1     -18.507   4.924  -8.672  1.00  0.00     0.121 C 
BRANCH  12  13
HETATM   13  S3  UNL     1     -19.477   5.012 -10.187  1.00  0.00    -0.148 SA
BRANCH  13  14
HETATM   14  C4  UNL     1     -19.658   6.783 -10.559  1.00  0.00     0.120 C 
HETATM   15  C5  UNL     1     -20.555   7.449  -9.596  1.00  0.00     0.037 C 
HETATM   16  C6  UNL     1     -20.526   8.947  -9.917  1.00  0.00     0.088 C 
HETATM   17  S4  UNL     1     -21.301   8.975 -11.592  1.00  0.00    -0.096 SA
HETATM   18  S5  UNL     1     -20.552   7.021 -12.153  1.00  0.00    -0.082 SA
ENDBRANCH  13  14
ENDBRANCH  12  13
ENDBRANCH   1  12
BRANCH   1  19
HETATM   19  C7  UNL     1     -18.862   5.632  -6.287  1.00  0.00    -0.001 A 
HETATM   20  C8  UNL     1     -18.593   6.979  -6.522  1.00  0.00     0.014 A 
HETATM   21  C9  UNL     1     -18.103   7.857  -5.552  1.00  0.00     0.001 A 
HETATM   22  C10 UNL     1     -17.888   7.295  -4.279  1.00  0.00     0.002 A 
HETATM   23  C11 UNL     1     -18.155   5.954  -4.039  1.00  0.00     0.024 A 
HETATM   24  C12 UNL     1     -18.633   5.131  -5.016  1.00  0.00     0.045 A 
HETATM   25 CL1  UNL     1     -18.992   3.411  -4.754  1.00  0.00    -0.083 Cl
ENDBRANCH   1  19
TORSDOF 8
ENDMDL
MODEL 3
REMARK VINA RESULT: -7.773459169      2.368      2.986
REMARK  8 active torsions:
REMARK  status: ('A' for Active; 'I' for Inactive)
REMARK    1  A    between atoms: S1_2  and  C1_4 
REMARK    2  A    between atoms: S1_2  and  N1_21 
REMARK    3  A    between atoms: C1_4  and  S2_5 
REMARK    4  A    between atoms: S2_5  and  C2_6 
REMARK    5  A    between atoms: C2_6  and  C3_7 
REMARK    6  A    between atoms: C2_6  and  C7_14 
REMARK    7  A    between atoms: C3_7  and  S3_8 
REMARK    8  A    between atoms: S3_8  and  C4_9 
ROOT
HETATM    1  C2  UNL     1     -18.518   5.750  -6.681  1.00  0.00     0.000 C 
ENDROOT
BRANCH   1   2
HETATM    2  S2  UNL     1     -20.099   4.926  -6.740  1.00  0.00    -0.116 SA
BRANCH   2   3
HETATM    3  C1  UNL     1     -19.909   3.089  -6.490  1.00  0.00     0.236 C 
BRANCH   3   4
HETATM    4  S1  UNL     1     -21.466   2.306  -6.494  1.00  0.00     0.220 S 
HETATM    5  O1  UNL     1     -22.498   2.956  -7.374  1.00  0.00    -0.210 OA
HETATM    6  O2  UNL     1     -22.106   2.135  -5.129  1.00  0.00    -0.210 OA
BRANCH   4   7
HETATM    7  N1  UNL     1     -21.288   0.651  -7.055  1.00  0.00    -0.204 NA
HETATM    8  C13 UNL     1     -22.029   0.374  -8.237  1.00  0.00     0.145 C 
HETATM    9  C14 UNL     1     -23.152  -0.234  -7.384  1.00  0.00     0.198 C 
HETATM   10  F1  UNL     1     -23.565  -1.479  -7.765  1.00  0.00    -0.247 F 
HETATM   11  C15 UNL     1     -22.123  -0.242  -6.276  1.00  0.00     0.145 C 
ENDBRANCH   4   7
ENDBRANCH   3   4
ENDBRANCH   2   3
ENDBRANCH   1   2
BRANCH   1  12
HETATM   12  C3  UNL     1     -17.721   5.902  -7.896  1.00  0.00     0.121 C 
BRANCH  12  13
HETATM   13  S3  UNL     1     -18.507   5.507  -9.467  1.00  0.00    -0.148 SA
BRANCH  13  14
HETATM   14  C4  UNL     1     -19.084   7.092 -10.146  1.00  0.00     0.120 C 
HETATM   15  C5  UNL     1     -20.004   7.776  -9.217  1.00  0.00     0.037 C 
HETATM   16  C6  UNL     1     -20.316   9.148  -9.822  1.00  0.00     0.088 C 
HETATM   17  S4  UNL     1     -21.235   8.672 -11.350  1.00  0.00    -0.096 SA
HETATM   18  S5  UNL     1     -20.155   6.813 -11.619  1.00  0.00    -0.082 SA
ENDBRANCH  13  14
ENDBRANCH  12  13
ENDBRANCH   1  12
BRANCH   1  19
HETATM   19  C7  UNL     1     -18.374   6.799  -5.641  1.00  0.00    -0.001 A 
HETATM   20  C8  UNL     1     -18.470   8.144  -5.988  1.00  0.00     0.014 A 
HETATM   21  C9  UNL     1     -18.207   9.197  -5.109  1.00  0.00     0.001 A 
HETATM   22  C10 UNL     1     -17.827   8.819  -3.806  1.00  0.00     0.002 A 
HETATM   23  C11 UNL     1     -17.731   7.480  -3.455  1.00  0.00     0.024 A 
HETATM   24  C12 UNL     1     -17.997   6.483  -4.346  1.00  0.00     0.045 A 
HETATM   25 CL1  UNL     1     -17.891   4.757  -3.939  1.00  0.00    -0.083 Cl
ENDBRANCH   1  19
TORSDOF 8
ENDMDL
MODEL 4
REMARK VINA RESULT: -7.708906879      3.548      5.477
REMARK  8 active torsions:
REMARK  status: ('A' for Active; 'I' for Inactive)
REMARK    1  A    between atoms: S1_2  and  C1_4 
REMARK    2  A    between atoms: S1_2  and  N1_21 
REMARK    3  A    between atoms: C1_4  and  S2_5 
REMARK    4  A    between atoms: S2_5  and  C2_6 
REMARK    5  A    between atoms: C2_6  and  C3_7 
REMARK    6  A    between atoms: C2_6  and  C7_14 
REMARK    7  A    between atoms: C3_7  and  S3_8 
REMARK    8  A    between atoms: S3_8  and  C4_9 
ROOT
HETATM    1  C2  UNL     1     -18.952   6.826  -7.260  1.00  0.00     0.000 C 
ENDROOT
BRANCH   1   2
HETATM    2  S2  UNL     1     -20.230   7.716  -8.127  1.00  0.00    -0.116 SA
BRANCH   2   3
HETATM    3  C1  UNL     1     -19.504   8.841  -9.424  1.00  0.00     0.236 C 
BRANCH   3   4
HETATM    4  S1  UNL     1     -20.344   8.652 -10.940  1.00  0.00     0.220 S 
HETATM    5  O1  UNL     1     -21.755   9.172 -10.949  1.00  0.00    -0.210 OA
HETATM    6  O2  UNL     1     -20.400   7.232 -11.473  1.00  0.00    -0.210 OA
BRANCH   4   7
HETATM    7  N1  UNL     1     -19.476   9.512 -12.202  1.00  0.00    -0.204 NA
HETATM    8  C13 UNL     1     -20.274  10.476 -12.877  1.00  0.00     0.145 C 
HETATM    9  C14 UNL     1     -20.533   9.465 -14.004  1.00  0.00     0.198 C 
HETATM   10  F1  UNL     1     -20.288   9.924 -15.267  1.00  0.00    -0.247 F 
HETATM   11  C15 UNL     1     -19.379   8.697 -13.397  1.00  0.00     0.145 C 
ENDBRANCH   4   7
ENDBRANCH   3   4
ENDBRANCH   2   3
ENDBRANCH   1   2
BRANCH   1  12
HETATM   12  C3  UNL     1     -17.894   6.146  -8.003  1.00  0.00     0.121 C 
BRANCH  12  13
HETATM   13  S3  UNL     1     -18.371   5.192  -9.453  1.00  0.00    -0.148 SA
BRANCH  13  14
HETATM   14  C4  UNL     1     -19.922   4.354  -9.009  1.00  0.00     0.120 C 
HETATM   15  C5  UNL     1     -19.682   3.215  -8.104  1.00  0.00     0.037 C 
HETATM   16  C6  UNL     1     -21.054   2.674  -7.688  1.00  0.00     0.088 C 
HETATM   17  S4  UNL     1     -21.701   2.047  -9.299  1.00  0.00    -0.096 SA
HETATM   18  S5  UNL     1     -20.659   3.531 -10.484  1.00  0.00    -0.082 SA
ENDBRANCH  13  14
ENDBRANCH  12  13
ENDBRANCH   1  12
BRANCH   1  19
HETATM   19  C7  UNL     1     -18.610   7.338  -5.910  1.00  0.00    -0.001 A 
HETATM   20  C8  UNL     1     -18.402   8.701  -5.712  1.00  0.00     0.014 A 
HETATM   21  C9  UNL     1     -17.939   9.254  -4.516  1.00  0.00     0.001 A 
HETATM   22  C10 UNL     1     -17.683   8.333  -3.482  1.00  0.00     0.002 A 
HETATM   23  C11 UNL     1     -17.888   6.974  -3.673  1.00  0.00     0.024 A 
HETATM   24  C12 UNL     1     -18.342   6.476  -4.858  1.00  0.00     0.045 A 
HETATM   25 CL1  UNL     1     -18.623   4.746  -5.147  1.00  0.00    -0.083 Cl
ENDBRANCH   1  19
TORSDOF 8
ENDMDL
MODEL 5
REMARK VINA RESULT: -7.705210090      2.586      3.295
REMARK  8 active torsions:
REMARK  status: ('A' for Active; 'I' for Inactive)
REMARK    1  A    between atoms: S1_2  and  C1_4 
REMARK    2  A    between atoms: S1_2  and  N1_21 
REMARK    3  A    between atoms: C1_4  and  S2_5 
REMARK    4  A    between atoms: S2_5  and  C2_6 
REMARK    5  A    between atoms: C2_6  and  C3_7 
REMARK    6  A    between atoms: C2_6  and  C7_14 
REMARK    7  A    between atoms: C3_7  and  S3_8 
REMARK    8  A    between atoms: S3_8  and  C4_9 
ROOT
HETATM    1  C2  UNL     1     -18.521   5.581  -6.654  1.00  0.00     0.000 C 
ENDROOT
BRANCH   1   2
HETATM    2  S2  UNL     1     -20.068   4.695  -6.640  1.00  0.00    -0.116 SA
BRANCH   2   3
HETATM    3  C1  UNL     1     -19.792   2.864  -6.421  1.00  0.00     0.236 C 
BRANCH   3   4
HETATM    4  S1  UNL     1     -21.068   1.956  -7.185  1.00  0.00     0.220 S 
HETATM    5  O1  UNL     1     -20.864   0.466  -7.198  1.00  0.00    -0.210 OA
HETATM    6  O2  UNL     1     -21.384   2.364  -8.612  1.00  0.00    -0.210 OA
BRANCH   4   7
HETATM    7  N1  UNL     1     -22.583   2.255  -6.347  1.00  0.00    -0.204 NA
HETATM    8  C13 UNL     1     -22.921   1.234  -5.415  1.00  0.00     0.145 C 
HETATM    9  C14 UNL     1     -23.843   0.592  -6.462  1.00  0.00     0.198 C 
HETATM   10  F1  UNL     1     -25.113   0.325  -6.034  1.00  0.00    -0.247 F 
HETATM   11  C15 UNL     1     -23.708   1.910  -7.193  1.00  0.00     0.145 C 
ENDBRANCH   4   7
ENDBRANCH   3   4
ENDBRANCH   2   3
ENDBRANCH   1   2
BRANCH   1  12
HETATM   12  C3  UNL     1     -17.761   5.719  -7.895  1.00  0.00     0.121 C 
BRANCH  12  13
HETATM   13  S3  UNL     1     -18.630   5.420  -9.444  1.00  0.00    -0.148 SA
BRANCH  13  14
HETATM   14  C4  UNL     1     -19.217   7.046 -10.006  1.00  0.00     0.120 C 
HETATM   15  C5  UNL     1     -20.307   7.553  -9.150  1.00  0.00     0.037 C 
HETATM   16  C6  UNL     1     -20.628   8.974  -9.625  1.00  0.00     0.088 C 
HETATM   17  S4  UNL     1     -21.283   8.652 -11.320  1.00  0.00    -0.096 SA
HETATM   18  S5  UNL     1     -20.044   6.904 -11.646  1.00  0.00    -0.082 SA
ENDBRANCH  13  14
ENDBRANCH  12  13
ENDBRANCH   1  12
BRANCH   1  19
HETATM   19  C7  UNL     1     -18.392   6.673  -5.658  1.00  0.00    -0.001 A 
HETATM   20  C8  UNL     1     -18.518   8.002  -6.058  1.00  0.00     0.014 A 
HETATM   21  C9  UNL     1     -18.272   9.094  -5.223  1.00  0.00     0.001 A 
HETATM   22  C10 UNL     1     -17.876   8.776  -3.909  1.00  0.00     0.002 A 
HETATM   23  C11 UNL     1     -17.749   7.455  -3.505  1.00  0.00     0.024 A 
HETATM   24  C12 UNL     1     -18.000   6.417  -4.354  1.00  0.00     0.045 A 
HETATM   25 CL1  UNL     1     -17.855   4.711  -3.880  1.00  0.00    -0.083 Cl
ENDBRANCH   1  19
TORSDOF 8
ENDMDL
