MODEL 1
REMARK VINA RESULT: -8.790457407      0.000      0.000
REMARK  7 active torsions:
REMARK  status: ('A' for Active; 'I' for Inactive)
REMARK    1  A    between atoms: O1_2  and  C2_3 
REMARK    2  A    between atoms: C2_3  and  C3_4 
REMARK    3  A    between atoms: N1_7  and  C6_8 
REMARK    4  A    between atoms: C6_8  and  C7_9 
REMARK    5  A    between atoms: C7_9  and  C8_10 
REMARK    6  A    between atoms: C16_24  and  C17_25 
REMARK    7  A    between atoms: C17_25  and  C18_26 
ROOT
HETATM    1  C3  UNL     1     -21.714   1.690  -6.980  1.00  0.00    -0.001 C 
HETATM    2  C4  UNL     1     -20.773   2.660  -6.967  1.00  0.00     0.034 C 
HETATM    3  C5  UNL     1     -20.477   3.321  -5.695  1.00  0.00     0.070 C 
HETATM    4  N1  UNL     1     -20.092   3.090  -8.147  1.00  0.00    -0.287 N 
HETATM    5  N2  UNL     1     -20.425   2.470  -9.362  1.00  0.00    -0.227 N 
HETATM    6  C13 UNL     1     -21.352   1.502  -9.409  1.00  0.00     0.136 A 
HETATM    7  N3  UNL     1     -21.509   1.095 -10.705  1.00  0.00    -0.329 N 
ATOM      8  H3  UNL     1     -22.155   0.369 -11.015  1.00  0.00     0.168 HD
HETATM    9  C14 UNL     1     -20.710   1.771 -11.492  1.00  0.00     0.141 A 
HETATM   10 CL1  UNL     1     -20.468   1.694 -13.220  1.00  0.00    -0.061 Cl
HETATM   11  C15 UNL     1     -20.012   2.649 -10.653  1.00  0.00     0.143 A 
HETATM   12 BR1  UNL     1     -18.694   3.852 -11.323  1.00  0.00    -0.026 Br
HETATM   13  C16 UNL     1     -22.018   0.976  -8.187  1.00  0.00     0.001 C 
ENDROOT
BRANCH   4  14
HETATM   14  C6  UNL     1     -19.092   4.107  -8.082  1.00  0.00     0.152 C 
BRANCH  14  15
HETATM   15  C7  UNL     1     -19.545   5.494  -8.428  1.00  0.00     0.053 C 
BRANCH  15  16
HETATM   16  C8  UNL     1     -19.394   6.386  -7.188  1.00  0.00     0.123 C 
HETATM   17  C9  UNL     1     -18.163   6.027  -6.414  1.00  0.00     0.032 C 
HETATM   18  C10 UNL     1     -18.086   6.937  -5.202  1.00  0.00     0.004 C 
HETATM   19  C11 UNL     1     -18.351   8.361  -5.598  1.00  0.00     0.026 C 
HETATM   20  C12 UNL     1     -18.446   8.426  -7.128  1.00  0.00     0.168 C 
HETATM   21  O2  UNL     1     -19.584   7.705  -7.455  1.00  0.00    -0.386 OA
ENDBRANCH  15  16
ENDBRANCH  14  15
ENDBRANCH   4  14
BRANCH   1  22
HETATM   22  C2  UNL     1     -22.319   1.441  -5.661  1.00  0.00     0.208 C 
BRANCH  22  23
HETATM   23  O1  UNL     1     -23.395   2.254  -5.337  1.00  0.00    -0.391 OA
HETATM   24  C1  UNL     1     -24.495   1.444  -5.062  1.00  0.00     0.201 C 
ENDBRANCH  22  23
ENDBRANCH   1  22
BRANCH  13  25
HETATM   25  C17 UNL     1     -23.394   0.589  -8.557  1.00  0.00     0.077 C 
BRANCH  25  26
HETATM   26  C18 UNL     1     -24.410   1.624  -8.840  1.00  0.00     0.149 A 
HETATM   27  C19 UNL     1     -25.373   1.443  -9.990  1.00  0.00     0.200 A 
HETATM   28  O3  UNL     1     -25.806   1.050  -8.745  1.00  0.00    -0.381 OA
ENDBRANCH  25  26
ENDBRANCH  13  25
TORSDOF 7
ENDMDL
MODEL 2
REMARK VINA RESULT: -8.775180058      2.203      2.631
REMARK  7 active torsions:
REMARK  status: ('A' for Active; 'I' for Inactive)
REMARK    1  A    between atoms: O1_2  and  C2_3 
REMARK    2  A    between atoms: C2_3  and  C3_4 
REMARK    3  A    between atoms: N1_7  and  C6_8 
REMARK    4  A    between atoms: C6_8  and  C7_9 
REMARK    5  A    between atoms: C7_9  and  C8_10 
REMARK    6  A    between atoms: C16_24  and  C17_25 
REMARK    7  A    between atoms: C17_25  and  C18_26 
ROOT
HETATM    1  C3  UNL     1     -20.721   2.160  -7.962  1.00  0.00    -0.001 C 
HETATM    2  C4  UNL     1     -20.261   3.261  -7.327  1.00  0.00     0.034 C 
HETATM    3  C5  UNL     1     -20.070   3.195  -5.876  1.00  0.00     0.070 C 
HETATM    4  N1  UNL     1     -19.996   4.489  -8.005  1.00  0.00    -0.287 N 
HETATM    5  N2  UNL     1     -20.228   4.540  -9.389  1.00  0.00    -0.227 N 
HETATM    6  C13 UNL     1     -20.681   3.465 -10.051  1.00  0.00     0.136 A 
HETATM    7  N3  UNL     1     -20.852   3.789 -11.368  1.00  0.00    -0.329 N 
ATOM      8  H3  UNL     1     -21.189   3.149 -12.088  1.00  0.00     0.168 HD
HETATM    9  C14 UNL     1     -20.521   5.039 -11.574  1.00  0.00     0.141 A 
HETATM   10 CL1  UNL     1     -20.530   6.002 -13.030  1.00  0.00    -0.061 Cl
HETATM   11  C15 UNL     1     -20.120   5.531 -10.325  1.00  0.00     0.143 A 
HETATM   12 BR1  UNL     1     -19.515   7.324 -10.093  1.00  0.00    -0.026 Br
HETATM   13  C16 UNL     1     -20.887   2.149  -9.387  1.00  0.00     0.001 C 
ENDROOT
BRANCH   4  14
HETATM   14  C6  UNL     1     -19.494   5.622  -7.295  1.00  0.00     0.152 C 
BRANCH  14  15
HETATM   15  C7  UNL     1     -18.001   5.733  -7.211  1.00  0.00     0.053 C 
BRANCH  15  16
HETATM   16  C8  UNL     1     -17.639   6.603  -5.999  1.00  0.00     0.123 C 
HETATM   17  C9  UNL     1     -18.586   7.755  -5.862  1.00  0.00     0.032 C 
HETATM   18  C10 UNL     1     -18.162   8.573  -4.657  1.00  0.00     0.004 C 
HETATM   19  C11 UNL     1     -17.877   7.676  -3.487  1.00  0.00     0.026 C 
HETATM   20  C12 UNL     1     -18.275   6.244  -3.870  1.00  0.00     0.168 C 
HETATM   21  O2  UNL     1     -17.394   5.877  -4.876  1.00  0.00    -0.386 OA
ENDBRANCH  15  16
ENDBRANCH  14  15
ENDBRANCH   4  14
BRANCH   1  22
HETATM   22  C2  UNL     1     -20.969   1.023  -7.060  1.00  0.00     0.208 C 
BRANCH  22  23
HETATM   23  O1  UNL     1     -20.588  -0.218  -7.550  1.00  0.00    -0.391 OA
HETATM   24  C1  UNL     1     -21.557  -1.153  -7.191  1.00  0.00     0.201 C 
ENDBRANCH  22  23
ENDBRANCH   1  22
BRANCH  13  25
HETATM   25  C17 UNL     1     -22.029   1.486 -10.049  1.00  0.00     0.077 C 
BRANCH  25  26
HETATM   26  C18 UNL     1     -23.414   1.834  -9.672  1.00  0.00     0.149 A 
HETATM   27  C19 UNL     1     -24.465   2.016 -10.742  1.00  0.00     0.200 A 
HETATM   28  O3  UNL     1     -24.385   0.777 -10.151  1.00  0.00    -0.381 OA
ENDBRANCH  25  26
ENDBRANCH  13  25
TORSDOF 7
ENDMDL
MODEL 3
REMARK VINA RESULT: -8.548394049      3.237      6.765
REMARK  7 active torsions:
REMARK  status: ('A' for Active; 'I' for Inactive)
REMARK    1  A    between atoms: O1_2  and  C2_3 
REMARK    2  A    between atoms: C2_3  and  C3_4 
REMARK    3  A    between atoms: N1_7  and  C6_8 
REMARK    4  A    between atoms: C6_8  and  C7_9 
REMARK    5  A    between atoms: C7_9  and  C8_10 
REMARK    6  A    between atoms: C16_24  and  C17_25 
REMARK    7  A    between atoms: C17_25  and  C18_26 
ROOT
HETATM    1  C3  UNL     1     -19.998   2.495 -11.184  1.00  0.00    -0.001 C 
HETATM    2  C4  UNL     1     -20.462   1.903 -10.062  1.00  0.00     0.034 C 
HETATM    3  C5  UNL     1     -21.278   0.695 -10.202  1.00  0.00     0.070 C 
HETATM    4  N1  UNL     1     -20.222   2.429  -8.756  1.00  0.00    -0.287 N 
HETATM    5  N2  UNL     1     -19.473   3.611  -8.650  1.00  0.00    -0.227 N 
HETATM    6  C13 UNL     1     -18.995   4.224  -9.744  1.00  0.00     0.136 A 
HETATM    7  N3  UNL     1     -18.336   5.361  -9.368  1.00  0.00    -0.329 N 
ATOM      8  H3  UNL     1     -17.879   6.010 -10.009  1.00  0.00     0.168 HD
HETATM    9  C14 UNL     1     -18.374   5.498  -8.066  1.00  0.00     0.141 A 
HETATM   10 CL1  UNL     1     -17.717   6.736  -7.024  1.00  0.00    -0.061 Cl
HETATM   11  C15 UNL     1     -19.093   4.393  -7.594  1.00  0.00     0.143 A 
HETATM   12 BR1  UNL     1     -19.412   4.115  -5.735  1.00  0.00    -0.026 Br
HETATM   13  C16 UNL     1     -19.156   3.656 -11.109  1.00  0.00     0.001 C 
ENDROOT
BRANCH   4  14
HETATM   14  C6  UNL     1     -20.719   1.758  -7.597  1.00  0.00     0.152 C 
BRANCH  14  15
HETATM   15  C7  UNL     1     -21.891   2.402  -6.920  1.00  0.00     0.053 C 
BRANCH  15  16
HETATM   16  C8  UNL     1     -23.142   1.553  -7.188  1.00  0.00     0.123 C 
HETATM   17  C9  UNL     1     -22.865   0.099  -6.960  1.00  0.00     0.032 C 
HETATM   18  C10 UNL     1     -24.136  -0.675  -7.253  1.00  0.00     0.004 C 
HETATM   19  C11 UNL     1     -25.316  -0.012  -6.604  1.00  0.00     0.026 C 
HETATM   20  C12 UNL     1     -24.801   1.135  -5.725  1.00  0.00     0.168 C 
HETATM   21  O2  UNL     1     -24.263   2.059  -6.608  1.00  0.00    -0.386 OA
ENDBRANCH  15  16
ENDBRANCH  14  15
ENDBRANCH   4  14
BRANCH   1  22
HETATM   22  C2  UNL     1     -20.403   1.808 -12.422  1.00  0.00     0.208 C 
BRANCH  22  23
HETATM   23  O1  UNL     1     -19.364   1.284 -13.178  1.00  0.00    -0.391 OA
HETATM   24  C1  UNL     1     -19.413   1.850 -14.450  1.00  0.00     0.201 C 
ENDBRANCH  22  23
ENDBRANCH   1  22
BRANCH  13  25
HETATM   25  C17 UNL     1     -19.273   4.785 -12.054  1.00  0.00     0.077 C 
BRANCH  25  26
HETATM   26  C18 UNL     1     -20.528   5.560 -12.138  1.00  0.00     0.149 A 
HETATM   27  C19 UNL     1     -20.518   7.047 -11.870  1.00  0.00     0.200 A 
HETATM   28  O3  UNL     1     -20.421   6.649 -13.183  1.00  0.00    -0.381 OA
ENDBRANCH  25  26
ENDBRANCH  13  25
TORSDOF 7
ENDMDL
MODEL 4
REMARK VINA RESULT: -8.435526793      0.802      1.101
REMARK  7 active torsions:
REMARK  status: ('A' for Active; 'I' for Inactive)
REMARK    1  A    between atoms: O1_2  and  C2_3 
REMARK    2  A    between atoms: C2_3  and  C3_4 
REMARK    3  A    between atoms: N1_7  and  C6_8 
REMARK    4  A    between atoms: C6_8  and  C7_9 
REMARK    5  A    between atoms: C7_9  and  C8_10 
REMARK    6  A    between atoms: C16_24  and  C17_25 
REMARK    7  A    between atoms: C17_25  and  C18_26 
ROOT
HETATM    1  C3  UNL     1     -21.845   1.874  -6.800  1.00  0.00    -0.001 C 
HETATM    2  C4  UNL     1     -20.822   2.757  -6.778  1.00  0.00     0.034 C 
HETATM    3  C5  UNL     1     -20.452   3.356  -5.494  1.00  0.00     0.070 C 
HETATM    4  N1  UNL     1     -20.121   3.155  -7.956  1.00  0.00    -0.287 N 
HETATM    5  N2  UNL     1     -20.523   2.599  -9.181  1.00  0.00    -0.227 N 
HETATM    6  C13 UNL     1     -21.532   1.717  -9.238  1.00  0.00     0.136 A 
HETATM    7  N3  UNL     1     -21.740   1.360 -10.542  1.00  0.00    -0.329 N 
ATOM      8  H3  UNL     1     -22.452   0.701 -10.860  1.00  0.00     0.168 HD
HETATM    9  C14 UNL     1     -20.895   1.982 -11.324  1.00  0.00     0.141 A 
HETATM   10 CL1  UNL     1     -20.683   1.930 -13.056  1.00  0.00    -0.061 Cl
HETATM   11  C15 UNL     1     -20.112   2.775 -10.474  1.00  0.00     0.143 A 
HETATM   12 BR1  UNL     1     -18.701   3.874 -11.133  1.00  0.00    -0.026 Br
HETATM   13  C16 UNL     1     -22.226   1.220  -8.020  1.00  0.00     0.001 C 
ENDROOT
BRANCH   4  14
HETATM   14  C6  UNL     1     -19.034   4.079  -7.882  1.00  0.00     0.152 C 
BRANCH  14  15
HETATM   15  C7  UNL     1     -19.365   5.506  -8.202  1.00  0.00     0.053 C 
BRANCH  15  16
HETATM   16  C8  UNL     1     -19.236   6.342  -6.921  1.00  0.00     0.123 C 
HETATM   17  C9  UNL     1     -18.009   5.961  -6.152  1.00  0.00     0.032 C 
HETATM   18  C10 UNL     1     -17.953   6.816  -4.899  1.00  0.00     0.004 C 
HETATM   19  C11 UNL     1     -18.232   8.253  -5.232  1.00  0.00     0.026 C 
HETATM   20  C12 UNL     1     -18.312   8.388  -6.759  1.00  0.00     0.168 C 
HETATM   21  O2  UNL     1     -19.439   7.670  -7.129  1.00  0.00    -0.386 OA
ENDBRANCH  15  16
ENDBRANCH  14  15
ENDBRANCH   4  14
BRANCH   1  22
HETATM   22  C2  UNL     1     -22.453   1.644  -5.479  1.00  0.00     0.208 C 
BRANCH  22  23
HETATM   23  O1  UNL     1     -23.663   2.285  -5.262  1.00  0.00    -0.391 OA
HETATM   24  C1  UNL     1     -24.396   1.547  -4.335  1.00  0.00     0.201 C 
ENDBRANCH  22  23
ENDBRANCH   1  22
BRANCH  13  25
HETATM   25  C17 UNL     1     -23.636   0.965  -8.379  1.00  0.00     0.077 C 
BRANCH  25  26
HETATM   26  C18 UNL     1     -24.173  -0.411  -8.360  1.00  0.00     0.149 A 
HETATM   27  C19 UNL     1     -23.617  -1.426  -7.389  1.00  0.00     0.200 A 
HETATM   28  O3  UNL     1     -24.748  -0.747  -7.001  1.00  0.00    -0.381 OA
ENDBRANCH  25  26
ENDBRANCH  13  25
TORSDOF 7
ENDMDL
MODEL 5
REMARK VINA RESULT: -8.411694130      4.144      6.442
REMARK  7 active torsions:
REMARK  status: ('A' for Active; 'I' for Inactive)
REMARK    1  A    between atoms: O1_2  and  C2_3 
REMARK    2  A    between atoms: C2_3  and  C3_4 
REMARK    3  A    between atoms: N1_7  and  C6_8 
REMARK    4  A    between atoms: C6_8  and  C7_9 
REMARK    5  A    between atoms: C7_9  and  C8_10 
REMARK    6  A    between atoms: C16_24  and  C17_25 
REMARK    7  A    between atoms: C17_25  and  C18_26 
ROOT
HETATM    1  C3  UNL     1     -20.009   8.001 -11.642  1.00  0.00    -0.001 C 
HETATM    2  C4  UNL     1     -19.957   8.227 -10.311  1.00  0.00     0.034 C 
HETATM    3  C5  UNL     1     -19.788   9.606  -9.848  1.00  0.00     0.070 C 
HETATM    4  N1  UNL     1     -20.016   7.175  -9.347  1.00  0.00    -0.287 N 
HETATM    5  N2  UNL     1     -20.134   5.857  -9.816  1.00  0.00    -0.227 N 
HETATM    6  C13 UNL     1     -20.192   5.598 -11.131  1.00  0.00     0.136 A 
HETATM    7  N3  UNL     1     -20.271   4.246 -11.317  1.00  0.00    -0.329 N 
ATOM      8  H3  UNL     1     -20.325   3.784 -12.226  1.00  0.00     0.168 HD
HETATM    9  C14 UNL     1     -20.267   3.628 -10.163  1.00  0.00     0.141 A 
HETATM   10 CL1  UNL     1     -20.345   1.928  -9.773  1.00  0.00    -0.061 Cl
HETATM   11  C15 UNL     1     -20.181   4.639  -9.197  1.00  0.00     0.143 A 
HETATM   12 BR1  UNL     1     -20.163   4.253  -7.331  1.00  0.00    -0.026 Br
HETATM   13  C16 UNL     1     -20.216   6.677 -12.156  1.00  0.00     0.001 C 
ENDROOT
BRANCH   4  14
HETATM   14  C6  UNL     1     -19.974   7.464  -7.949  1.00  0.00     0.152 C 
BRANCH  14  15
HETATM   15  C7  UNL     1     -18.607   7.608  -7.350  1.00  0.00     0.053 C 
BRANCH  15  16
HETATM   16  C8  UNL     1     -18.737   7.622  -5.821  1.00  0.00     0.123 C 
HETATM   17  C9  UNL     1     -17.748   6.691  -5.189  1.00  0.00     0.032 C 
HETATM   18  C10 UNL     1     -17.941   6.749  -3.685  1.00  0.00     0.004 C 
HETATM   19  C11 UNL     1     -18.051   8.174  -3.225  1.00  0.00     0.026 C 
HETATM   20  C12 UNL     1     -17.762   9.091  -4.420  1.00  0.00     0.168 C 
HETATM   21  O2  UNL     1     -18.809   8.878  -5.305  1.00  0.00    -0.386 OA
ENDBRANCH  15  16
ENDBRANCH  14  15
ENDBRANCH   4  14
BRANCH   1  22
HETATM   22  C2  UNL     1     -19.883   9.224 -12.451  1.00  0.00     0.208 C 
BRANCH  22  23
HETATM   23  O1  UNL     1     -20.951   9.491 -13.295  1.00  0.00    -0.391 OA
HETATM   24  C1  UNL     1     -20.452   9.985 -14.499  1.00  0.00     0.201 C 
ENDBRANCH  22  23
ENDBRANCH   1  22
BRANCH  13  25
HETATM   25  C17 UNL     1     -19.520   6.171 -13.356  1.00  0.00     0.077 C 
BRANCH  25  26
HETATM   26  C18 UNL     1     -20.257   5.980 -14.622  1.00  0.00     0.149 A 
HETATM   27  C19 UNL     1     -19.763   6.633 -15.891  1.00  0.00     0.200 A 
HETATM   28  O3  UNL     1     -19.376   5.332 -15.667  1.00  0.00    -0.381 OA
ENDBRANCH  25  26
ENDBRANCH  13  25
TORSDOF 7
ENDMDL
