MODEL 1
REMARK VINA RESULT: -9.935392993      0.000      0.000
REMARK  11 active torsions:
REMARK  status: ('A' for Active; 'I' for Inactive)
REMARK    1  A    between atoms: N1_1  and  C1_5 
REMARK    2  A    between atoms: C1_5  and  C2_6 
REMARK    3  A    between atoms: C2_6  and  C3_7 
REMARK    4  A    between atoms: C2_6  and  C21_32 
REMARK    5  A    between atoms: C3_7  and  N2_8 
REMARK    6  A    between atoms: N3_10  and  C5_12 
REMARK    7  A    between atoms: C9_16  and  C10_17 
REMARK    8  A    between atoms: C21_32  and  O3_33 
REMARK    9  A    between atoms: C21_32  and  C29_45 
REMARK   10  A    between atoms: O3_33  and  N4_34 
REMARK   11  A    between atoms: C22_36  and  C23_37 
ROOT
HETATM    1  C2  UNL     1      34.931  -3.015  17.813  1.00  0.00     0.065 C 
ENDROOT
BRANCH   1   2
HETATM    2  C1  UNL     1      34.058  -3.280  16.626  1.00  0.00     0.238 C 
BRANCH   2   3
HETATM    3  N1  UNL     1      34.569  -2.743  15.389  1.00  0.00    -0.079 N 
ATOM      4  H13 UNL     1      33.958  -2.005  15.040  1.00  0.00     0.274 HD
ATOM      5  H12 UNL     1      35.416  -2.200  15.557  1.00  0.00     0.274 HD
ATOM      6  H11 UNL     1      34.732  -3.444  14.666  1.00  0.00     0.274 HD
ENDBRANCH   2   3
ENDBRANCH   1   2
BRANCH   1   7
HETATM    7  C3  UNL     1      36.361  -3.296  17.635  1.00  0.00     0.134 C 
BRANCH   7   8
HETATM    8  N2  UNL     1      36.849  -4.643  17.675  1.00  0.00    -0.354 N 
HETATM    9  C4  UNL     1      37.320  -5.300  18.849  1.00  0.00     0.143 C 
HETATM   10  N3  UNL     1      37.972  -4.866  19.869  1.00  0.00    -0.337 N 
HETATM   11  S1  UNL     1      36.789  -7.053  18.655  1.00  0.00    -0.086 SA
ATOM     12  H3  UNL     1      38.240  -3.884  19.928  1.00  0.00     0.168 HD
HETATM   13  C17 UNL     1      36.003  -6.773  17.042  1.00  0.00     0.093 C 
HETATM   14  C18 UNL     1      36.214  -7.869  16.078  1.00  0.00     0.158 C 
HETATM   15  C20 UNL     1      36.974  -5.636  16.624  1.00  0.00     0.115 C 
HETATM   16  S2  UNL     1      37.994  -7.820  15.821  1.00  0.00     0.147 S 
HETATM   17  O1  UNL     1      38.352  -7.737  14.389  1.00  0.00    -0.228 OA
HETATM   18  O2  UNL     1      38.573  -8.982  16.527  1.00  0.00    -0.228 OA
HETATM   19  C19 UNL     1      38.340  -6.274  16.672  1.00  0.00     0.166 C 
BRANCH  10  20
HETATM   20  C5  UNL     1      38.316  -5.766  20.909  1.00  0.00     0.034 A 
HETATM   21  C6  UNL     1      37.504  -5.855  22.048  1.00  0.00     0.029 A 
HETATM   22  C7  UNL     1      37.841  -6.721  23.060  1.00  0.00     0.003 A 
HETATM   23  C8  UNL     1      38.975  -7.507  22.955  1.00  0.00     0.012 A 
HETATM   24  C9  UNL     1      39.796  -7.441  21.839  1.00  0.00    -0.024 A 
HETATM   25  C16 UNL     1      39.423  -6.559  20.848  1.00  0.00     0.041 A 
BRANCH  24  26
HETATM   26  C10 UNL     1      40.993  -8.262  21.718  1.00  0.00    -0.026 A 
HETATM   27  C11 UNL     1      41.948  -8.273  22.721  1.00  0.00     0.012 A 
HETATM   28  C12 UNL     1      43.095  -9.049  22.633  1.00  0.00     0.001 A 
HETATM   29  C13 UNL     1      43.314  -9.833  21.535  1.00  0.00     0.000 A 
HETATM   30  C14 UNL     1      42.382  -9.841  20.524  1.00  0.00     0.001 A 
HETATM   31  C15 UNL     1      41.244  -9.064  20.625  1.00  0.00     0.012 A 
ENDBRANCH  24  26
ENDBRANCH  10  20
ENDBRANCH   7   8
ENDBRANCH   1   7
BRANCH   1  32
HETATM   32  C21 UNL     1      34.514  -1.826  18.645  1.00  0.00     0.192 C 
BRANCH  32  33
HETATM   33  O3  UNL     1      35.518  -0.984  19.047  1.00  0.00    -0.270 OA
BRANCH  33  34
HETATM   34  N4  UNL     1      36.055   0.143  18.874  1.00  0.00    -0.276 N 
HETATM   35  C22 UNL     1      35.971   1.364  18.856  1.00  0.00     0.125 C 
ATOM     36  H4  UNL     1      37.026  -0.059  18.636  1.00  0.00     0.193 HD
BRANCH  35  37
HETATM   37  C23 UNL     1      34.805   2.226  19.120  1.00  0.00    -0.017 A 
HETATM   38  C24 UNL     1      34.867   3.584  18.901  1.00  0.00     0.016 A 
HETATM   39  C25 UNL     1      33.787   4.401  19.147  1.00  0.00     0.045 A 
HETATM   40  C26 UNL     1      32.624   3.823  19.625  1.00  0.00     0.140 A 
HETATM   41  F1  UNL     1      31.505   4.577  19.894  1.00  0.00    -0.204 F 
HETATM   42  C27 UNL     1      32.553   2.470  19.845  1.00  0.00     0.085 A 
HETATM   43  N5  UNL     1      31.325   1.878  20.348  1.00  0.00    -0.099 NA
HETATM   44  C28 UNL     1      33.647   1.684  19.590  1.00  0.00     0.042 A 
ENDBRANCH  35  37
ENDBRANCH  33  34
ENDBRANCH  32  33
BRANCH  32  45
HETATM   45  C29 UNL     1      33.729  -2.216  19.824  1.00  0.00    -0.026 A 
HETATM   46  C30 UNL     1      34.234  -3.041  20.785  1.00  0.00     0.010 A 
HETATM   47  C31 UNL     1      33.481  -3.378  21.890  1.00  0.00     0.001 A 
HETATM   48  C32 UNL     1      32.204  -2.883  22.034  1.00  0.00     0.000 A 
HETATM   49  C33 UNL     1      31.673  -2.049  21.075  1.00  0.00     0.001 A 
HETATM   50  C34 UNL     1      32.463  -1.739  19.987  1.00  0.00     0.010 A 
ENDBRANCH  32  45
ENDBRANCH   1  32
TORSDOF 11
ENDMDL
MODEL 2
REMARK VINA RESULT: -9.694980382      1.049      1.276
REMARK  11 active torsions:
REMARK  status: ('A' for Active; 'I' for Inactive)
REMARK    1  A    between atoms: N1_1  and  C1_5 
REMARK    2  A    between atoms: C1_5  and  C2_6 
REMARK    3  A    between atoms: C2_6  and  C3_7 
REMARK    4  A    between atoms: C2_6  and  C21_32 
REMARK    5  A    between atoms: C3_7  and  N2_8 
REMARK    6  A    between atoms: N3_10  and  C5_12 
REMARK    7  A    between atoms: C9_16  and  C10_17 
REMARK    8  A    between atoms: C21_32  and  O3_33 
REMARK    9  A    between atoms: C21_32  and  C29_45 
REMARK   10  A    between atoms: O3_33  and  N4_34 
REMARK   11  A    between atoms: C22_36  and  C23_37 
ROOT
HETATM    1  C2  UNL     1      34.945  -3.579  17.331  1.00  0.00     0.065 C 
ENDROOT
BRANCH   1   2
HETATM    2  C1  UNL     1      34.194  -3.730  16.044  1.00  0.00     0.238 C 
BRANCH   2   3
HETATM    3  N1  UNL     1      34.558  -2.767  15.034  1.00  0.00    -0.079 N 
ATOM      4  H13 UNL     1      34.312  -1.824  15.335  1.00  0.00     0.274 HD
ATOM      5  H12 UNL     1      35.572  -2.672  14.980  1.00  0.00     0.274 HD
ATOM      6  H11 UNL     1      34.168  -2.962  14.113  1.00  0.00     0.274 HD
ENDBRANCH   2   3
ENDBRANCH   1   2
BRANCH   1   7
HETATM    7  C3  UNL     1      36.402  -3.746  17.247  1.00  0.00     0.134 C 
BRANCH   7   8
HETATM    8  N2  UNL     1      36.995  -5.043  17.382  1.00  0.00    -0.354 N 
HETATM    9  C4  UNL     1      37.431  -5.611  18.615  1.00  0.00     0.143 C 
HETATM   10  N3  UNL     1      37.967  -5.083  19.658  1.00  0.00    -0.337 N 
HETATM   11  S1  UNL     1      37.062  -7.410  18.464  1.00  0.00    -0.086 SA
ATOM     12  H3  UNL     1      38.148  -4.080  19.692  1.00  0.00     0.168 HD
HETATM   13  C17 UNL     1      36.378  -7.261  16.788  1.00  0.00     0.093 C 
HETATM   14  C18 UNL     1      36.750  -8.371  15.891  1.00  0.00     0.158 C 
HETATM   15  C20 UNL     1      37.279  -6.062  16.389  1.00  0.00     0.115 C 
HETATM   16  S2  UNL     1      38.533  -8.180  15.759  1.00  0.00     0.147 S 
HETATM   17  O1  UNL     1      38.988  -8.122  14.353  1.00  0.00    -0.228 OA
HETATM   18  O2  UNL     1      39.153  -9.259  16.556  1.00  0.00    -0.228 OA
HETATM   19  C19 UNL     1      38.686  -6.577  16.562  1.00  0.00     0.166 C 
BRANCH  10  20
HETATM   20  C5  UNL     1      38.306  -5.909  20.759  1.00  0.00     0.034 A 
HETATM   21  C6  UNL     1      37.458  -5.964  21.874  1.00  0.00     0.029 A 
HETATM   22  C7  UNL     1      37.790  -6.759  22.945  1.00  0.00     0.003 A 
HETATM   23  C8  UNL     1      38.955  -7.506  22.923  1.00  0.00     0.012 A 
HETATM   24  C9  UNL     1      39.812  -7.472  21.833  1.00  0.00    -0.024 A 
HETATM   25  C16 UNL     1      39.442  -6.662  20.781  1.00  0.00     0.041 A 
BRANCH  24  26
HETATM   26  C10 UNL     1      41.040  -8.253  21.799  1.00  0.00    -0.026 A 
HETATM   27  C11 UNL     1      41.998  -8.108  22.789  1.00  0.00     0.012 A 
HETATM   28  C12 UNL     1      43.176  -8.842  22.784  1.00  0.00     0.001 A 
HETATM   29  C13 UNL     1      43.423  -9.740  21.783  1.00  0.00     0.000 A 
HETATM   30  C14 UNL     1      42.489  -9.903  20.787  1.00  0.00     0.001 A 
HETATM   31  C15 UNL     1      41.321  -9.166  20.806  1.00  0.00     0.012 A 
ENDBRANCH  24  26
ENDBRANCH  10  20
ENDBRANCH   7   8
ENDBRANCH   1   7
BRANCH   1  32
HETATM   32  C21 UNL     1      34.377  -2.544  18.271  1.00  0.00     0.192 C 
BRANCH  32  33
HETATM   33  O3  UNL     1      35.274  -1.668  18.824  1.00  0.00    -0.270 OA
BRANCH  33  34
HETATM   34  N4  UNL     1      35.505  -0.897  19.794  1.00  0.00    -0.276 N 
HETATM   35  C22 UNL     1      35.290   0.153  20.386  1.00  0.00     0.125 C 
ATOM     36  H4  UNL     1      36.206  -1.379  20.356  1.00  0.00     0.193 HD
BRANCH  35  37
HETATM   37  C23 UNL     1      34.371   1.252  20.040  1.00  0.00    -0.017 A 
HETATM   38  C24 UNL     1      33.012   1.117  20.216  1.00  0.00     0.016 A 
HETATM   39  C25 UNL     1      32.142   2.134  19.894  1.00  0.00     0.045 A 
HETATM   40  C26 UNL     1      32.667   3.308  19.384  1.00  0.00     0.140 A 
HETATM   41  F1  UNL     1      31.859   4.367  19.040  1.00  0.00    -0.204 F 
HETATM   42  C27 UNL     1      34.020   3.452  19.206  1.00  0.00     0.085 A 
HETATM   43  N5  UNL     1      34.557   4.690  18.668  1.00  0.00    -0.099 NA
HETATM   44  C28 UNL     1      34.860   2.419  19.537  1.00  0.00     0.042 A 
ENDBRANCH  35  37
ENDBRANCH  33  34
ENDBRANCH  32  33
BRANCH  32  45
HETATM   45  C29 UNL     1      33.581  -3.145  19.350  1.00  0.00    -0.026 A 
HETATM   46  C30 UNL     1      33.992  -4.266  20.008  1.00  0.00     0.010 A 
HETATM   47  C31 UNL     1      33.234  -4.801  21.028  1.00  0.00     0.001 A 
HETATM   48  C32 UNL     1      32.048  -4.205  21.395  1.00  0.00     0.000 A 
HETATM   49  C33 UNL     1      31.613  -3.071  20.743  1.00  0.00     0.001 A 
HETATM   50  C34 UNL     1      32.404  -2.572  19.729  1.00  0.00     0.010 A 
ENDBRANCH  32  45
ENDBRANCH   1  32
TORSDOF 11
ENDMDL
MODEL 3
REMARK VINA RESULT: -9.534480768      4.965     10.312
REMARK  11 active torsions:
REMARK  status: ('A' for Active; 'I' for Inactive)
REMARK    1  A    between atoms: N1_1  and  C1_5 
REMARK    2  A    between atoms: C1_5  and  C2_6 
REMARK    3  A    between atoms: C2_6  and  C3_7 
REMARK    4  A    between atoms: C2_6  and  C21_32 
REMARK    5  A    between atoms: C3_7  and  N2_8 
REMARK    6  A    between atoms: N3_10  and  C5_12 
REMARK    7  A    between atoms: C9_16  and  C10_17 
REMARK    8  A    between atoms: C21_32  and  O3_33 
REMARK    9  A    between atoms: C21_32  and  C29_45 
REMARK   10  A    between atoms: O3_33  and  N4_34 
REMARK   11  A    between atoms: C22_36  and  C23_37 
ROOT
HETATM    1  C2  UNL     1      37.244  -6.026  15.172  1.00  0.00     0.065 C 
ENDROOT
BRANCH   1   2
HETATM    2  C1  UNL     1      38.313  -5.860  16.207  1.00  0.00     0.238 C 
BRANCH   2   3
HETATM    3  N1  UNL     1      38.347  -6.912  17.192  1.00  0.00    -0.079 N 
ATOM      4  H13 UNL     1      39.251  -6.932  17.663  1.00  0.00     0.274 HD
ATOM      5  H12 UNL     1      37.746  -6.681  17.984  1.00  0.00     0.274 HD
ATOM      6  H11 UNL     1      38.114  -7.834  16.825  1.00  0.00     0.274 HD
ENDBRANCH   2   3
ENDBRANCH   1   2
BRANCH   1   7
HETATM    7  C3  UNL     1      36.040  -5.207  15.355  1.00  0.00     0.134 C 
BRANCH   7   8
HETATM    8  N2  UNL     1      35.241  -5.341  16.537  1.00  0.00    -0.354 N 
HETATM    9  C4  UNL     1      35.195  -4.389  17.598  1.00  0.00     0.143 C 
HETATM   10  N3  UNL     1      36.100  -3.630  18.104  1.00  0.00    -0.337 N 
HETATM   11  S1  UNL     1      33.450  -4.421  18.186  1.00  0.00    -0.086 SA
ATOM     12  H3  UNL     1      37.052  -3.649  17.739  1.00  0.00     0.168 HD
HETATM   13  C17 UNL     1      32.934  -5.691  16.995  1.00  0.00     0.093 C 
HETATM   14  C18 UNL     1      31.996  -6.684  17.551  1.00  0.00     0.158 C 
HETATM   15  C20 UNL     1      34.321  -6.387  16.944  1.00  0.00     0.115 C 
HETATM   16  S2  UNL     1      32.995  -7.501  18.803  1.00  0.00     0.147 S 
HETATM   17  O1  UNL     1      33.002  -8.971  18.645  1.00  0.00    -0.228 OA
HETATM   18  O2  UNL     1      32.519  -7.032  20.122  1.00  0.00    -0.228 OA
HETATM   19  C19 UNL     1      34.590  -6.789  18.372  1.00  0.00     0.166 C 
BRANCH  10  20
HETATM   20  C5  UNL     1      35.762  -2.766  19.177  1.00  0.00     0.034 A 
HETATM   21  C6  UNL     1      36.128  -3.107  20.487  1.00  0.00     0.029 A 
HETATM   22  C7  UNL     1      35.793  -2.274  21.527  1.00  0.00     0.003 A 
HETATM   23  C8  UNL     1      35.100  -1.100  21.284  1.00  0.00     0.012 A 
HETATM   24  C9  UNL     1      34.727  -0.737  19.998  1.00  0.00    -0.024 A 
HETATM   25  C16 UNL     1      35.081  -1.601  18.984  1.00  0.00     0.041 A 
BRANCH  24  26
HETATM   26  C10 UNL     1      33.997   0.494  19.731  1.00  0.00    -0.026 A 
HETATM   27  C11 UNL     1      34.659   1.709  19.663  1.00  0.00     0.012 A 
HETATM   28  C12 UNL     1      33.989   2.896  19.405  1.00  0.00     0.001 A 
HETATM   29  C13 UNL     1      32.636   2.895  19.212  1.00  0.00     0.000 A 
HETATM   30  C14 UNL     1      31.953   1.704  19.276  1.00  0.00     0.001 A 
HETATM   31  C15 UNL     1      32.633   0.529  19.532  1.00  0.00     0.012 A 
ENDBRANCH  24  26
ENDBRANCH  10  20
ENDBRANCH   7   8
ENDBRANCH   1   7
BRANCH   1  32
HETATM   32  C21 UNL     1      37.759  -6.273  13.774  1.00  0.00     0.192 C 
BRANCH  32  33
HETATM   33  O3  UNL     1      37.029  -5.726  12.752  1.00  0.00    -0.270 OA
BRANCH  33  34
HETATM   34  N4  UNL     1      37.030  -5.412  11.531  1.00  0.00    -0.276 N 
HETATM   35  C22 UNL     1      36.654  -5.620  10.385  1.00  0.00     0.125 C 
ATOM     36  H4  UNL     1      37.632  -4.592  11.468  1.00  0.00     0.193 HD
BRANCH  35  37
HETATM   37  C23 UNL     1      35.766  -6.676   9.868  1.00  0.00    -0.017 A 
HETATM   38  C24 UNL     1      36.154  -7.997   9.887  1.00  0.00     0.016 A 
HETATM   39  C25 UNL     1      35.336  -8.993   9.403  1.00  0.00     0.045 A 
HETATM   40  C26 UNL     1      34.101  -8.635   8.891  1.00  0.00     0.140 A 
HETATM   41  F1  UNL     1      33.231  -9.576   8.390  1.00  0.00    -0.204 F 
HETATM   42  C27 UNL     1      33.706  -7.321   8.869  1.00  0.00     0.085 A 
HETATM   43  N5  UNL     1      32.406  -6.961   8.328  1.00  0.00    -0.099 NA
HETATM   44  C28 UNL     1      34.545  -6.353   9.359  1.00  0.00     0.042 A 
ENDBRANCH  35  37
ENDBRANCH  33  34
ENDBRANCH  32  33
BRANCH  32  45
HETATM   45  C29 UNL     1      37.957  -7.703  13.497  1.00  0.00    -0.026 A 
HETATM   46  C30 UNL     1      36.910  -8.540  13.248  1.00  0.00     0.010 A 
HETATM   47  C31 UNL     1      37.124  -9.874  12.974  1.00  0.00     0.001 A 
HETATM   48  C32 UNL     1      38.406 -10.378  12.948  1.00  0.00     0.000 A 
HETATM   49  C33 UNL     1      39.479  -9.551  13.197  1.00  0.00     0.001 A 
HETATM   50  C34 UNL     1      39.217  -8.223  13.467  1.00  0.00     0.010 A 
ENDBRANCH  32  45
ENDBRANCH   1  32
TORSDOF 11
ENDMDL
MODEL 4
REMARK VINA RESULT: -9.495831454      1.868      2.590
REMARK  11 active torsions:
REMARK  status: ('A' for Active; 'I' for Inactive)
REMARK    1  A    between atoms: N1_1  and  C1_5 
REMARK    2  A    between atoms: C1_5  and  C2_6 
REMARK    3  A    between atoms: C2_6  and  C3_7 
REMARK    4  A    between atoms: C2_6  and  C21_32 
REMARK    5  A    between atoms: C3_7  and  N2_8 
REMARK    6  A    between atoms: N3_10  and  C5_12 
REMARK    7  A    between atoms: C9_16  and  C10_17 
REMARK    8  A    between atoms: C21_32  and  O3_33 
REMARK    9  A    between atoms: C21_32  and  C29_45 
REMARK   10  A    between atoms: O3_33  and  N4_34 
REMARK   11  A    between atoms: C22_36  and  C23_37 
ROOT
HETATM    1  C2  UNL     1      34.670  -3.127  18.411  1.00  0.00     0.065 C 
ENDROOT
BRANCH   1   2
HETATM    2  C1  UNL     1      35.256  -3.112  17.033  1.00  0.00     0.238 C 
BRANCH   2   3
HETATM    3  N1  UNL     1      34.278  -3.195  15.977  1.00  0.00    -0.079 N 
ATOM      4  H13 UNL     1      33.505  -2.553  16.154  1.00  0.00     0.274 HD
ATOM      5  H12 UNL     1      34.646  -2.789  15.116  1.00  0.00     0.274 HD
ATOM      6  H11 UNL     1      33.929  -4.137  15.806  1.00  0.00     0.274 HD
ENDBRANCH   2   3
ENDBRANCH   1   2
BRANCH   1   7
HETATM    7  C3  UNL     1      35.190  -4.157  19.318  1.00  0.00     0.134 C 
BRANCH   7   8
HETATM    8  N2  UNL     1      35.276  -5.523  18.895  1.00  0.00    -0.354 N 
HETATM    9  C4  UNL     1      36.490  -6.266  18.794  1.00  0.00     0.143 C 
HETATM   10  N3  UNL     1      37.679  -5.918  18.450  1.00  0.00    -0.337 N 
HETATM   11  S1  UNL     1      36.037  -7.981  19.290  1.00  0.00    -0.086 SA
ATOM     12  H3  UNL     1      37.877  -4.953  18.186  1.00  0.00     0.168 HD
HETATM   13  C17 UNL     1      34.290  -7.577  19.576  1.00  0.00     0.093 C 
HETATM   14  C18 UNL     1      33.354  -8.624  19.125  1.00  0.00     0.158 C 
HETATM   15  C20 UNL     1      34.240  -6.460  18.499  1.00  0.00     0.115 C 
HETATM   16  S2  UNL     1      33.615  -8.635  17.346  1.00  0.00     0.147 S 
HETATM   17  O1  UNL     1      32.352  -8.486  16.592  1.00  0.00    -0.228 OA
HETATM   18  O2  UNL     1      34.378  -9.859  17.020  1.00  0.00    -0.228 OA
HETATM   19  C19 UNL     1      34.631  -7.156  17.220  1.00  0.00     0.166 C 
BRANCH  10  20
HETATM   20  C5  UNL     1      38.711  -6.890  18.439  1.00  0.00     0.034 A 
HETATM   21  C6  UNL     1      38.951  -7.637  17.277  1.00  0.00     0.029 A 
HETATM   22  C7  UNL     1      39.947  -8.584  17.269  1.00  0.00     0.003 A 
HETATM   23  C8  UNL     1      40.713  -8.799  18.402  1.00  0.00     0.012 A 
HETATM   24  C9  UNL     1      40.498  -8.074  19.565  1.00  0.00    -0.024 A 
HETATM   25  C16 UNL     1      39.489  -7.135  19.530  1.00  0.00     0.041 A 
BRANCH  24  26
HETATM   26  C10 UNL     1      41.297  -8.292  20.762  1.00  0.00    -0.026 A 
HETATM   27  C11 UNL     1      42.114  -9.405  20.876  1.00  0.00     0.012 A 
HETATM   28  C12 UNL     1      42.888  -9.636  22.004  1.00  0.00     0.001 A 
HETATM   29  C13 UNL     1      42.862  -8.755  23.049  1.00  0.00     0.000 A 
HETATM   30  C14 UNL     1      42.058  -7.642  22.964  1.00  0.00     0.001 A 
HETATM   31  C15 UNL     1      41.294  -7.425  21.834  1.00  0.00     0.012 A 
ENDBRANCH  24  26
ENDBRANCH  10  20
ENDBRANCH   7   8
ENDBRANCH   1   7
BRANCH   1  32
HETATM   32  C21 UNL     1      34.334  -1.763  18.964  1.00  0.00     0.192 C 
BRANCH  32  33
HETATM   33  O3  UNL     1      35.397  -0.956  19.277  1.00  0.00    -0.270 OA
BRANCH  33  34
HETATM   34  N4  UNL     1      35.994   0.121  19.008  1.00  0.00    -0.276 N 
HETATM   35  C22 UNL     1      35.983   1.341  18.911  1.00  0.00     0.125 C 
ATOM     36  H4  UNL     1      36.939  -0.157  18.747  1.00  0.00     0.193 HD
BRANCH  35  37
HETATM   37  C23 UNL     1      34.885   2.291  19.161  1.00  0.00    -0.017 A 
HETATM   38  C24 UNL     1      34.992   3.610  18.782  1.00  0.00     0.016 A 
HETATM   39  C25 UNL     1      33.975   4.509  19.013  1.00  0.00     0.045 A 
HETATM   40  C26 UNL     1      32.830   4.055  19.643  1.00  0.00     0.140 A 
HETATM   41  F1  UNL     1      31.773   4.895  19.907  1.00  0.00    -0.204 F 
HETATM   42  C27 UNL     1      32.714   2.741  20.024  1.00  0.00     0.085 A 
HETATM   43  N5  UNL     1      31.506   2.278  20.685  1.00  0.00    -0.099 NA
HETATM   44  C28 UNL     1      33.746   1.871  19.779  1.00  0.00     0.042 A 
ENDBRANCH  35  37
ENDBRANCH  33  34
ENDBRANCH  32  33
BRANCH  32  45
HETATM   45  C29 UNL     1      33.441  -1.836  20.128  1.00  0.00    -0.026 A 
HETATM   46  C30 UNL     1      33.846  -1.453  21.372  1.00  0.00     0.010 A 
HETATM   47  C31 UNL     1      32.983  -1.518  22.445  1.00  0.00     0.001 A 
HETATM   48  C32 UNL     1      31.694  -1.971  22.270  1.00  0.00     0.000 A 
HETATM   49  C33 UNL     1      31.263  -2.364  21.022  1.00  0.00     0.001 A 
HETATM   50  C34 UNL     1      32.162  -2.283  19.978  1.00  0.00     0.010 A 
ENDBRANCH  32  45
ENDBRANCH   1  32
TORSDOF 11
ENDMDL
MODEL 5
REMARK VINA RESULT: -9.448336801      4.796     10.340
REMARK  11 active torsions:
REMARK  status: ('A' for Active; 'I' for Inactive)
REMARK    1  A    between atoms: N1_1  and  C1_5 
REMARK    2  A    between atoms: C1_5  and  C2_6 
REMARK    3  A    between atoms: C2_6  and  C3_7 
REMARK    4  A    between atoms: C2_6  and  C21_32 
REMARK    5  A    between atoms: C3_7  and  N2_8 
REMARK    6  A    between atoms: N3_10  and  C5_12 
REMARK    7  A    between atoms: C9_16  and  C10_17 
REMARK    8  A    between atoms: C21_32  and  O3_33 
REMARK    9  A    between atoms: C21_32  and  C29_45 
REMARK   10  A    between atoms: O3_33  and  N4_34 
REMARK   11  A    between atoms: C22_36  and  C23_37 
ROOT
HETATM    1  C2  UNL     1      37.777  -6.864  14.279  1.00  0.00     0.065 C 
ENDROOT
BRANCH   1   2
HETATM    2  C1  UNL     1      38.464  -5.607  13.843  1.00  0.00     0.238 C 
BRANCH   2   3
HETATM    3  N1  UNL     1      37.599  -4.664  13.180  1.00  0.00    -0.079 N 
ATOM      4  H13 UNL     1      37.731  -4.706  12.169  1.00  0.00     0.274 HD
ATOM      5  H12 UNL     1      36.627  -4.966  13.239  1.00  0.00     0.274 HD
ATOM      6  H11 UNL     1      37.696  -3.705  13.513  1.00  0.00     0.274 HD
ENDBRANCH   2   3
ENDBRANCH   1   2
BRANCH   1   7
HETATM    7  C3  UNL     1      36.574  -6.686  15.103  1.00  0.00     0.134 C 
BRANCH   7   8
HETATM    8  N2  UNL     1      36.686  -6.346  16.490  1.00  0.00    -0.354 N 
HETATM    9  C4  UNL     1      35.864  -5.392  17.160  1.00  0.00     0.143 C 
HETATM   10  N3  UNL     1      35.347  -4.282  16.766  1.00  0.00    -0.337 N 
HETATM   11  S1  UNL     1      35.633  -6.075  18.855  1.00  0.00    -0.086 SA
ATOM     12  H3  UNL     1      35.504  -3.950  15.815  1.00  0.00     0.168 HD
HETATM   13  C17 UNL     1      36.646  -7.548  18.540  1.00  0.00     0.093 C 
HETATM   14  C18 UNL     1      37.501  -7.938  19.677  1.00  0.00     0.158 C 
HETATM   15  C20 UNL     1      37.580  -6.845  17.518  1.00  0.00     0.115 C 
HETATM   16  S2  UNL     1      38.623  -6.539  19.815  1.00  0.00     0.147 S 
HETATM   17  O1  UNL     1      40.042  -6.953  19.806  1.00  0.00    -0.228 OA
HETATM   18  O2  UNL     1      38.221  -5.767  21.010  1.00  0.00    -0.228 OA
HETATM   19  C19 UNL     1      38.179  -5.695  18.289  1.00  0.00     0.166 C 
BRANCH  10  20
HETATM   20  C5  UNL     1      34.558  -3.525  17.668  1.00  0.00     0.034 A 
HETATM   21  C6  UNL     1      33.539  -4.152  18.397  1.00  0.00     0.029 A 
HETATM   22  C7  UNL     1      32.769  -3.417  19.266  1.00  0.00     0.003 A 
HETATM   23  C8  UNL     1      33.000  -2.061  19.424  1.00  0.00     0.012 A 
HETATM   24  C9  UNL     1      34.002  -1.414  18.717  1.00  0.00    -0.024 A 
HETATM   25  C16 UNL     1      34.750  -2.189  17.856  1.00  0.00     0.041 A 
BRANCH  24  26
HETATM   26  C10 UNL     1      34.253   0.011  18.874  1.00  0.00    -0.026 A 
HETATM   27  C11 UNL     1      33.227   0.878  19.215  1.00  0.00     0.012 A 
HETATM   28  C12 UNL     1      33.440   2.240  19.375  1.00  0.00     0.001 A 
HETATM   29  C13 UNL     1      34.687   2.768  19.197  1.00  0.00     0.000 A 
HETATM   30  C14 UNL     1      35.724   1.931  18.857  1.00  0.00     0.001 A 
HETATM   31  C15 UNL     1      35.499   0.577  18.702  1.00  0.00     0.012 A 
ENDBRANCH  24  26
ENDBRANCH  10  20
ENDBRANCH   7   8
ENDBRANCH   1   7
BRANCH   1  32
HETATM   32  C21 UNL     1      37.815  -7.983  13.267  1.00  0.00     0.192 C 
BRANCH  32  33
HETATM   33  O3  UNL     1      36.605  -8.397  12.774  1.00  0.00    -0.270 OA
BRANCH  33  34
HETATM   34  N4  UNL     1      36.028  -9.080  11.885  1.00  0.00    -0.276 N 
HETATM   35  C22 UNL     1      35.485  -9.150  10.790  1.00  0.00     0.125 C 
ATOM     36  H4  UNL     1      36.000 -10.029  12.256  1.00  0.00     0.193 HD
BRANCH  35  37
HETATM   37  C23 UNL     1      35.237  -8.089   9.798  1.00  0.00    -0.017 A 
HETATM   38  C24 UNL     1      36.233  -7.208   9.442  1.00  0.00     0.016 A 
HETATM   39  C25 UNL     1      36.013  -6.210   8.519  1.00  0.00     0.045 A 
HETATM   40  C26 UNL     1      34.756  -6.108   7.951  1.00  0.00     0.140 A 
HETATM   41  F1  UNL     1      34.463  -5.136   7.023  1.00  0.00    -0.204 F 
HETATM   42  C27 UNL     1      33.757  -6.982   8.300  1.00  0.00     0.085 A 
HETATM   43  N5  UNL     1      32.441  -6.862   7.696  1.00  0.00    -0.099 NA
HETATM   44  C28 UNL     1      34.008  -7.965   9.222  1.00  0.00     0.042 A 
ENDBRANCH  35  37
ENDBRANCH  33  34
ENDBRANCH  32  33
BRANCH  32  45
HETATM   45  C29 UNL     1      38.548  -9.157  13.759  1.00  0.00    -0.026 A 
HETATM   46  C30 UNL     1      38.436  -9.589  15.047  1.00  0.00     0.010 A 
HETATM   47  C31 UNL     1      39.123 -10.703  15.479  1.00  0.00     0.001 A 
HETATM   48  C32 UNL     1      39.933 -11.398  14.608  1.00  0.00     0.000 A 
HETATM   49  C33 UNL     1      40.061 -10.980  13.301  1.00  0.00     0.001 A 
HETATM   50  C34 UNL     1      39.356  -9.859  12.914  1.00  0.00     0.010 A 
ENDBRANCH  32  45
ENDBRANCH   1  32
TORSDOF 11
ENDMDL
