MODEL 1
REMARK VINA RESULT: -7.862618679      0.000      0.000
REMARK  14 active torsions:
REMARK  status: ('A' for Active; 'I' for Inactive)
REMARK    1  A    between atoms: C2_2  and  C3_3 
REMARK    2  A    between atoms: C3_3  and  C5_5 
REMARK    3  A    between atoms: C5_5  and  C6_7 
REMARK    4  A    between atoms: C6_7  and  C7_8 
REMARK    5  A    between atoms: C7_8  and  O2_9 
REMARK    6  A    between atoms: C7_8  and  C8_11 
REMARK    7  A    between atoms: C8_11  and  C9_12 
REMARK    8  A    between atoms: C9_12  and  C10_13 
REMARK    9  A    between atoms: C10_13  and  O3_14 
REMARK   10  A    between atoms: C16_22  and  C17_24 
REMARK   11  A    between atoms: C24_34  and  O8_35 
REMARK   12  A    between atoms: O8_35  and  C25_36 
REMARK   13  A    between atoms: C25_36  and  C26_38 
REMARK   14  A    between atoms: C32_44  and  O10_46 
ROOT
HETATM    1  C10 UNL     1      31.587 -11.783  14.467  1.00  0.00     0.172 C 
HETATM    2  O4  UNL     1      31.757 -12.534  15.638  1.00  0.00    -0.340 OA
HETATM    3  C11 UNL     1      30.481 -12.319  16.080  1.00  0.00     0.106 C 
HETATM    4  C12 UNL     1      30.600 -11.445  17.326  1.00  0.00     0.042 C 
HETATM    5  C13 UNL     1      29.456 -10.549  17.590  1.00  0.00     0.010 C 
HETATM    6  C14 UNL     1      29.081 -10.703  19.078  1.00  0.00     0.023 C 
HETATM    7  C15 UNL     1      28.803  -9.357  19.706  1.00  0.00     0.013 C 
HETATM    8  C16 UNL     1      28.004 -11.711  19.263  1.00  0.00     0.187 C 
HETATM    9 CL1  UNL     1      26.468 -10.766  19.436  1.00  0.00    -0.099 Cl
HETATM   10  C19 UNL     1      27.758 -12.633  18.170  1.00  0.00     0.291 C 
HETATM   11  O6  UNL     1      26.575 -13.109  18.246  1.00  0.00    -0.263 OA
HETATM   12  O7  UNL     1      28.471 -13.089  17.124  1.00  0.00    -0.307 OA
HETATM   13  C20 UNL     1      29.678 -13.474  16.589  1.00  0.00     0.190 C 
HETATM   14  C21 UNL     1      29.440 -14.554  15.637  1.00  0.00     0.013 C 
HETATM   15  C22 UNL     1      29.142 -14.652  14.368  1.00  0.00    -0.053 C 
HETATM   16  C23 UNL     1      29.000 -16.030  13.847  1.00  0.00     0.046 C 
HETATM   17  C24 UNL     1      28.935 -13.566  13.409  1.00  0.00     0.195 C 
HETATM   18  C32 UNL     1      29.091 -12.202  13.926  1.00  0.00     0.096 C 
HETATM   19  C33 UNL     1      29.012 -11.171  12.756  1.00  0.00     0.049 C 
HETATM   20  C34 UNL     1      30.145 -11.743  14.796  1.00  0.00     0.122 C 
ENDROOT
BRANCH   1  21
HETATM   21  C9  UNL     1      32.154 -12.436  13.285  1.00  0.00     0.071 C 
BRANCH  21  22
HETATM   22  C8  UNL     1      33.169 -13.519  13.452  1.00  0.00     0.037 C 
BRANCH  22  23
HETATM   23  C7  UNL     1      32.654 -14.922  13.496  1.00  0.00     0.125 C 
BRANCH  23  24
HETATM   24  C6  UNL     1      33.668 -15.809  12.741  1.00  0.00     0.110 C 
BRANCH  24  25
HETATM   25  C5  UNL     1      33.902 -15.238  11.390  1.00  0.00     0.133 C 
HETATM   26  O1  UNL     1      34.999 -14.756  11.164  1.00  0.00    -0.297 OA
BRANCH  25  27
HETATM   27  C3  UNL     1      32.892 -15.226  10.324  1.00  0.00     0.051 C 
HETATM   28  C4  UNL     1      31.806 -16.257  10.491  1.00  0.00     0.018 C 
BRANCH  27  29
HETATM   29  C2  UNL     1      33.496 -15.420   8.949  1.00  0.00     0.007 C 
HETATM   30  C1  UNL     1      33.490 -16.903   8.654  1.00  0.00     0.006 C 
ENDBRANCH  27  29
ENDBRANCH  25  27
ENDBRANCH  24  25
ENDBRANCH  23  24
BRANCH  23  31
HETATM   31  O2  UNL     1      32.552 -15.440  14.779  1.00  0.00    -0.395 OA
ATOM     32  H2  UNL     1      33.087 -14.889  15.338  1.00  0.00     0.210 HD
ENDBRANCH  23  31
ENDBRANCH  22  23
ENDBRANCH  21  22
ENDBRANCH   1  21
BRANCH   1  33
HETATM   33  O3  UNL     1      32.153 -10.486  14.499  1.00  0.00    -0.365 OA
ATOM     34  H3  UNL     1      32.082 -10.151  13.613  1.00  0.00     0.213 HD
ENDBRANCH   1  33
BRANCH  18  35
HETATM   35  O10 UNL     1      27.843 -11.929  14.572  1.00  0.00    -0.387 OA
ATOM     36  H10 UNL     1      27.898 -11.008  14.801  1.00  0.00     0.210 HD
ENDBRANCH  18  35
BRANCH  17  37
HETATM   37  O8  UNL     1      27.606 -13.690  12.805  1.00  0.00    -0.304 OA
BRANCH  37  38
HETATM   38  C25 UNL     1      27.391 -13.971  11.493  1.00  0.00     0.294 C 
HETATM   39  O9  UNL     1      27.830 -15.043  11.021  1.00  0.00    -0.259 OA
BRANCH  38  40
HETATM   40  C26 UNL     1      26.649 -13.012  10.654  1.00  0.00     0.039 A 
HETATM   41  C27 UNL     1      25.929 -11.981  11.214  1.00  0.00     0.017 A 
HETATM   42  C28 UNL     1      25.217 -11.055  10.487  1.00  0.00     0.001 A 
HETATM   43  C29 UNL     1      25.238 -11.186   9.112  1.00  0.00     0.000 A 
HETATM   44  C30 UNL     1      25.948 -12.208   8.507  1.00  0.00     0.001 A 
HETATM   45  C31 UNL     1      26.654 -13.123   9.282  1.00  0.00     0.017 A 
ENDBRANCH  38  40
ENDBRANCH  37  38
ENDBRANCH  17  37
BRANCH   8  46
HETATM   46  C17 UNL     1      28.129 -12.420  20.592  1.00  0.00     0.157 C 
HETATM   47  C18 UNL     1      29.253 -13.349  20.884  1.00  0.00     0.093 C 
HETATM   48  O5  UNL     1      27.301 -12.231  21.444  1.00  0.00    -0.296 OA
ENDBRANCH   8  46
TORSDOF 14
ENDMDL
MODEL 2
REMARK VINA RESULT: -7.823917962      3.976      5.485
REMARK  14 active torsions:
REMARK  status: ('A' for Active; 'I' for Inactive)
REMARK    1  A    between atoms: C2_2  and  C3_3 
REMARK    2  A    between atoms: C3_3  and  C5_5 
REMARK    3  A    between atoms: C5_5  and  C6_7 
REMARK    4  A    between atoms: C6_7  and  C7_8 
REMARK    5  A    between atoms: C7_8  and  O2_9 
REMARK    6  A    between atoms: C7_8  and  C8_11 
REMARK    7  A    between atoms: C8_11  and  C9_12 
REMARK    8  A    between atoms: C9_12  and  C10_13 
REMARK    9  A    between atoms: C10_13  and  O3_14 
REMARK   10  A    between atoms: C16_22  and  C17_24 
REMARK   11  A    between atoms: C24_34  and  O8_35 
REMARK   12  A    between atoms: O8_35  and  C25_36 
REMARK   13  A    between atoms: C25_36  and  C26_38 
REMARK   14  A    between atoms: C32_44  and  O10_46 
ROOT
HETATM    1  C10 UNL     1      32.314 -10.927  11.426  1.00  0.00     0.172 C 
HETATM    2  O4  UNL     1      33.378 -11.715  11.886  1.00  0.00    -0.340 OA
HETATM    3  C11 UNL     1      32.746 -12.067  13.046  1.00  0.00     0.106 C 
HETATM    4  C12 UNL     1      33.524 -11.401  14.178  1.00  0.00     0.042 C 
HETATM    5  C13 UNL     1      32.737 -11.055  15.379  1.00  0.00     0.010 C 
HETATM    6  C14 UNL     1      33.526 -11.550  16.608  1.00  0.00     0.023 C 
HETATM    7  C15 UNL     1      33.513 -10.515  17.709  1.00  0.00     0.013 C 
HETATM    8  C16 UNL     1      33.083 -12.907  17.024  1.00  0.00     0.187 C 
HETATM    9 CL1  UNL     1      31.949 -12.652  18.413  1.00  0.00    -0.099 Cl
HETATM   10  C19 UNL     1      32.331 -13.688  16.061  1.00  0.00     0.291 C 
HETATM   11  O6  UNL     1      31.640 -14.584  16.655  1.00  0.00    -0.263 OA
HETATM   12  O7  UNL     1      32.195 -13.684  14.722  1.00  0.00    -0.307 OA
HETATM   13  C20 UNL     1      32.747 -13.500  13.475  1.00  0.00     0.190 C 
HETATM   14  C21 UNL     1      32.126 -14.443  12.550  1.00  0.00     0.013 C 
HETATM   15  C22 UNL     1      31.061 -14.465  11.790  1.00  0.00    -0.053 C 
HETATM   16  C23 UNL     1      30.859 -15.704  11.006  1.00  0.00     0.046 C 
HETATM   17  C24 UNL     1      30.055 -13.415  11.625  1.00  0.00     0.195 C 
HETATM   18  C32 UNL     1      30.268 -12.183  12.392  1.00  0.00     0.096 C 
HETATM   19  C33 UNL     1      29.216 -11.105  11.980  1.00  0.00     0.049 C 
HETATM   20  C34 UNL     1      31.520 -11.486  12.543  1.00  0.00     0.122 C 
ENDROOT
BRANCH   1  21
HETATM   21  C9  UNL     1      32.020 -11.140  10.008  1.00  0.00     0.071 C 
BRANCH  21  22
HETATM   22  C8  UNL     1      31.685  -9.974   9.137  1.00  0.00     0.037 C 
BRANCH  22  23
HETATM   23  C7  UNL     1      32.789  -9.430   8.287  1.00  0.00     0.125 C 
BRANCH  23  24
HETATM   24  C6  UNL     1      32.391  -7.995   7.878  1.00  0.00     0.110 C 
BRANCH  24  25
HETATM   25  C5  UNL     1      32.970  -7.034   8.852  1.00  0.00     0.133 C 
HETATM   26  O1  UNL     1      32.740  -7.223  10.034  1.00  0.00    -0.297 OA
BRANCH  25  27
HETATM   27  C3  UNL     1      33.795  -5.881   8.468  1.00  0.00     0.051 C 
HETATM   28  C4  UNL     1      34.170  -5.849   7.009  1.00  0.00     0.018 C 
BRANCH  27  29
HETATM   29  C2  UNL     1      35.076  -5.791   9.270  1.00  0.00     0.007 C 
HETATM   30  C1  UNL     1      36.145  -6.541   8.506  1.00  0.00     0.006 C 
ENDBRANCH  27  29
ENDBRANCH  25  27
ENDBRANCH  24  25
ENDBRANCH  23  24
BRANCH  23  31
HETATM   31  O2  UNL     1      34.006  -9.333   8.945  1.00  0.00    -0.395 OA
ATOM     32  H2  UNL     1      33.808  -9.211   9.866  1.00  0.00     0.210 HD
ENDBRANCH  23  31
ENDBRANCH  22  23
ENDBRANCH  21  22
ENDBRANCH   1  21
BRANCH   1  33
HETATM   33  O3  UNL     1      32.493  -9.531  11.577  1.00  0.00    -0.365 OA
ATOM     34  H3  UNL     1      33.260  -9.427  12.128  1.00  0.00     0.213 HD
ENDBRANCH   1  33
BRANCH  18  35
HETATM   35  O10 UNL     1      29.785 -12.501  13.703  1.00  0.00    -0.387 OA
ATOM     36  H10 UNL     1      29.254 -11.750  13.941  1.00  0.00     0.210 HD
ENDBRANCH  18  35
BRANCH  17  37
HETATM   37  O8  UNL     1      28.730 -13.949  11.950  1.00  0.00    -0.304 OA
BRANCH  37  38
HETATM   38  C25 UNL     1      27.799 -14.290  11.021  1.00  0.00     0.294 C 
HETATM   39  O9  UNL     1      27.718 -15.483  10.651  1.00  0.00    -0.259 OA
BRANCH  38  40
HETATM   40  C26 UNL     1      26.907 -13.255  10.468  1.00  0.00     0.039 A 
HETATM   41  C27 UNL     1      26.125 -12.473  11.287  1.00  0.00     0.017 A 
HETATM   42  C28 UNL     1      25.273 -11.493  10.833  1.00  0.00     0.001 A 
HETATM   43  C29 UNL     1      25.215 -11.295   9.467  1.00  0.00     0.000 A 
HETATM   44  C30 UNL     1      25.984 -12.058   8.606  1.00  0.00     0.001 A 
HETATM   45  C31 UNL     1      26.832 -13.040   9.110  1.00  0.00     0.017 A 
ENDBRANCH  38  40
ENDBRANCH  37  38
ENDBRANCH  17  37
BRANCH   8  46
HETATM   46  C17 UNL     1      34.217 -13.696  17.638  1.00  0.00     0.157 C 
HETATM   47  C18 UNL     1      35.284 -14.316  16.808  1.00  0.00     0.093 C 
HETATM   48  O5  UNL     1      34.266 -13.830  18.833  1.00  0.00    -0.296 OA
ENDBRANCH   8  46
TORSDOF 14
ENDMDL
MODEL 3
REMARK VINA RESULT: -7.695947461      2.432      3.252
REMARK  14 active torsions:
REMARK  status: ('A' for Active; 'I' for Inactive)
REMARK    1  A    between atoms: C2_2  and  C3_3 
REMARK    2  A    between atoms: C3_3  and  C5_5 
REMARK    3  A    between atoms: C5_5  and  C6_7 
REMARK    4  A    between atoms: C6_7  and  C7_8 
REMARK    5  A    between atoms: C7_8  and  O2_9 
REMARK    6  A    between atoms: C7_8  and  C8_11 
REMARK    7  A    between atoms: C8_11  and  C9_12 
REMARK    8  A    between atoms: C9_12  and  C10_13 
REMARK    9  A    between atoms: C10_13  and  O3_14 
REMARK   10  A    between atoms: C16_22  and  C17_24 
REMARK   11  A    between atoms: C24_34  and  O8_35 
REMARK   12  A    between atoms: O8_35  and  C25_36 
REMARK   13  A    between atoms: C25_36  and  C26_38 
REMARK   14  A    between atoms: C32_44  and  O10_46 
ROOT
HETATM    1  C10 UNL     1      31.501 -11.622  14.890  1.00  0.00     0.172 C 
HETATM    2  O4  UNL     1      31.610 -12.374  16.068  1.00  0.00    -0.340 OA
HETATM    3  C11 UNL     1      30.297 -12.209  16.412  1.00  0.00     0.106 C 
HETATM    4  C12 UNL     1      30.289 -11.339  17.667  1.00  0.00     0.042 C 
HETATM    5  C13 UNL     1      29.095 -10.488  17.847  1.00  0.00     0.010 C 
HETATM    6  C14 UNL     1      28.615 -10.665  19.301  1.00  0.00     0.023 C 
HETATM    7  C15 UNL     1      28.240  -9.334  19.911  1.00  0.00     0.013 C 
HETATM    8  C16 UNL     1      27.565 -11.713  19.400  1.00  0.00     0.187 C 
HETATM    9 CL1  UNL     1      25.987 -10.826  19.460  1.00  0.00    -0.099 Cl
HETATM   10  C19 UNL     1      27.437 -12.637  18.289  1.00  0.00     0.291 C 
HETATM   11  O6  UNL     1      26.271 -13.157  18.273  1.00  0.00    -0.263 OA
HETATM   12  O7  UNL     1      28.244 -13.059  17.298  1.00  0.00    -0.307 OA
HETATM   13  C20 UNL     1      29.502 -13.396  16.855  1.00  0.00     0.190 C 
HETATM   14  C21 UNL     1      29.377 -14.478  15.884  1.00  0.00     0.013 C 
HETATM   15  C22 UNL     1      29.180 -14.579  14.595  1.00  0.00    -0.053 C 
HETATM   16  C23 UNL     1      29.129 -15.958  14.060  1.00  0.00     0.046 C 
HETATM   17  C24 UNL     1      29.005 -13.495  13.628  1.00  0.00     0.195 C 
HETATM   18  C32 UNL     1      29.071 -12.130  14.160  1.00  0.00     0.096 C 
HETATM   19  C33 UNL     1      29.041 -11.095  12.991  1.00  0.00     0.049 C 
HETATM   20  C34 UNL     1      30.038 -11.638  15.108  1.00  0.00     0.122 C 
ENDROOT
BRANCH   1  21
HETATM   21  C9  UNL     1      32.180 -12.246  13.752  1.00  0.00     0.071 C 
BRANCH  21  22
HETATM   22  C8  UNL     1      32.935 -11.397  12.783  1.00  0.00     0.037 C 
BRANCH  22  23
HETATM   23  C7  UNL     1      32.451 -11.400  11.368  1.00  0.00     0.125 C 
BRANCH  23  24
HETATM   24  C6  UNL     1      32.312  -9.926  10.926  1.00  0.00     0.110 C 
BRANCH  24  25
HETATM   25  C5  UNL     1      32.152  -9.874   9.450  1.00  0.00     0.133 C 
HETATM   26  O1  UNL     1      31.246 -10.524   8.958  1.00  0.00    -0.297 OA
BRANCH  25  27
HETATM   27  C3  UNL     1      33.020  -9.088   8.564  1.00  0.00     0.051 C 
HETATM   28  C4  UNL     1      34.190  -8.440   9.259  1.00  0.00     0.018 C 
BRANCH  27  29
HETATM   29  C2  UNL     1      32.267  -7.997   7.831  1.00  0.00     0.007 C 
HETATM   30  C1  UNL     1      32.976  -6.690   8.106  1.00  0.00     0.006 C 
ENDBRANCH  27  29
ENDBRANCH  25  27
ENDBRANCH  24  25
ENDBRANCH  23  24
BRANCH  23  31
HETATM   31  O2  UNL     1      33.330 -11.999  10.477  1.00  0.00    -0.395 OA
ATOM     32  H2  UNL     1      32.802 -12.509   9.876  1.00  0.00     0.210 HD
ENDBRANCH  23  31
ENDBRANCH  22  23
ENDBRANCH  21  22
ENDBRANCH   1  21
BRANCH   1  33
HETATM   33  O3  UNL     1      32.014 -10.305  14.969  1.00  0.00    -0.365 OA
ATOM     34  H3  UNL     1      31.391  -9.757  14.507  1.00  0.00     0.213 HD
ENDBRANCH   1  33
BRANCH  18  35
HETATM   35  O10 UNL     1      27.767 -11.907  14.710  1.00  0.00    -0.387 OA
ATOM     36  H10 UNL     1      27.921 -11.831  15.645  1.00  0.00     0.210 HD
ENDBRANCH  18  35
BRANCH  17  37
HETATM   37  O8  UNL     1      27.731 -13.665  12.924  1.00  0.00    -0.304 OA
BRANCH  37  38
HETATM   38  C25 UNL     1      27.625 -13.919  11.593  1.00  0.00     0.294 C 
HETATM   39  O9  UNL     1      28.247 -14.892  11.110  1.00  0.00    -0.259 OA
BRANCH  38  40
HETATM   40  C26 UNL     1      26.787 -13.049  10.749  1.00  0.00     0.039 A 
HETATM   41  C27 UNL     1      26.759 -13.193   9.380  1.00  0.00     0.017 A 
HETATM   42  C28 UNL     1      25.999 -12.413   8.540  1.00  0.00     0.001 A 
HETATM   43  C29 UNL     1      25.223 -11.430   9.124  1.00  0.00     0.000 A 
HETATM   44  C30 UNL     1      25.221 -11.250  10.496  1.00  0.00     0.001 A 
HETATM   45  C31 UNL     1      26.007 -12.063  11.309  1.00  0.00     0.017 A 
ENDBRANCH  38  40
ENDBRANCH  37  38
ENDBRANCH  17  37
BRANCH   8  46
HETATM   46  C17 UNL     1      27.616 -12.425  20.732  1.00  0.00     0.157 C 
HETATM   47  C18 UNL     1      26.528 -12.294  21.738  1.00  0.00     0.093 C 
HETATM   48  O5  UNL     1      28.561 -13.123  20.995  1.00  0.00    -0.296 OA
ENDBRANCH   8  46
TORSDOF 14
ENDMDL
MODEL 4
REMARK VINA RESULT: -7.620872394      8.557     12.207
REMARK  14 active torsions:
REMARK  status: ('A' for Active; 'I' for Inactive)
REMARK    1  A    between atoms: C2_2  and  C3_3 
REMARK    2  A    between atoms: C3_3  and  C5_5 
REMARK    3  A    between atoms: C5_5  and  C6_7 
REMARK    4  A    between atoms: C6_7  and  C7_8 
REMARK    5  A    between atoms: C7_8  and  O2_9 
REMARK    6  A    between atoms: C7_8  and  C8_11 
REMARK    7  A    between atoms: C8_11  and  C9_12 
REMARK    8  A    between atoms: C9_12  and  C10_13 
REMARK    9  A    between atoms: C10_13  and  O3_14 
REMARK   10  A    between atoms: C16_22  and  C17_24 
REMARK   11  A    between atoms: C24_34  and  O8_35 
REMARK   12  A    between atoms: O8_35  and  C25_36 
REMARK   13  A    between atoms: C25_36  and  C26_38 
REMARK   14  A    between atoms: C32_44  and  O10_46 
ROOT
HETATM    1  C10 UNL     1      35.483  -9.014  16.485  1.00  0.00     0.172 C 
HETATM    2  O4  UNL     1      35.622  -7.826  15.754  1.00  0.00    -0.340 OA
HETATM    3  C11 UNL     1      35.643  -7.029  16.865  1.00  0.00     0.106 C 
HETATM    4  C12 UNL     1      34.357  -6.208  16.828  1.00  0.00     0.042 C 
HETATM    5  C13 UNL     1      33.817  -5.806  18.143  1.00  0.00     0.010 C 
HETATM    6  C14 UNL     1      33.476  -4.304  18.064  1.00  0.00     0.023 C 
HETATM    7  C15 UNL     1      32.142  -4.019  18.715  1.00  0.00     0.013 C 
HETATM    8  C16 UNL     1      34.601  -3.468  18.558  1.00  0.00     0.187 C 
HETATM    9 CL1  UNL     1      34.172  -3.018  20.259  1.00  0.00    -0.099 Cl
HETATM   10  C19 UNL     1      35.907  -4.092  18.651  1.00  0.00     0.291 C 
HETATM   11  O6  UNL     1      36.645  -3.462  19.482  1.00  0.00    -0.263 OA
HETATM   12  O7  UNL     1      36.502  -5.155  18.080  1.00  0.00    -0.307 OA
HETATM   13  C20 UNL     1      36.686  -5.963  16.981  1.00  0.00     0.190 C 
HETATM   14  C21 UNL     1      38.071  -6.421  16.970  1.00  0.00     0.013 C 
HETATM   15  C22 UNL     1      38.747  -7.414  17.488  1.00  0.00    -0.053 C 
HETATM   16  C23 UNL     1      40.191  -7.442  17.170  1.00  0.00     0.046 C 
HETATM   17  C24 UNL     1      38.243  -8.493  18.339  1.00  0.00     0.195 C 
HETATM   18  C32 UNL     1      36.808  -8.470  18.640  1.00  0.00     0.096 C 
HETATM   19  C33 UNL     1      36.398  -9.768  19.405  1.00  0.00     0.049 C 
HETATM   20  C34 UNL     1      35.750  -8.209  17.697  1.00  0.00     0.122 C 
ENDROOT
BRANCH   1  21
HETATM   21  C9  UNL     1      36.346 -10.089  15.992  1.00  0.00     0.071 C 
BRANCH  21  22
HETATM   22  C8  UNL     1      37.472  -9.770  15.064  1.00  0.00     0.037 C 
BRANCH  22  23
HETATM   23  C7  UNL     1      37.124  -9.595  13.620  1.00  0.00     0.125 C 
BRANCH  23  24
HETATM   24  C6  UNL     1      37.767  -8.272  13.149  1.00  0.00     0.110 C 
BRANCH  24  25
HETATM   25  C5  UNL     1      36.848  -7.596  12.197  1.00  0.00     0.133 C 
HETATM   26  O1  UNL     1      35.912  -8.245  11.762  1.00  0.00    -0.297 OA
BRANCH  25  27
HETATM   27  C3  UNL     1      37.007  -6.204  11.759  1.00  0.00     0.051 C 
HETATM   28  C4  UNL     1      36.963  -5.195  12.878  1.00  0.00     0.018 C 
BRANCH  27  29
HETATM   29  C2  UNL     1      35.968  -5.794  10.737  1.00  0.00     0.007 C 
HETATM   30  C1  UNL     1      36.643  -5.774   9.384  1.00  0.00     0.006 C 
ENDBRANCH  27  29
ENDBRANCH  25  27
ENDBRANCH  24  25
ENDBRANCH  23  24
BRANCH  23  31
HETATM   31  O2  UNL     1      37.626 -10.595  12.799  1.00  0.00    -0.395 OA
ATOM     32  H2  UNL     1      37.345 -11.420  13.175  1.00  0.00     0.210 HD
ENDBRANCH  23  31
ENDBRANCH  22  23
ENDBRANCH  21  22
ENDBRANCH   1  21
BRANCH   1  33
HETATM   33  O3  UNL     1      34.174  -9.553  16.510  1.00  0.00    -0.365 OA
ATOM     34  H3  UNL     1      33.865  -9.441  17.401  1.00  0.00     0.213 HD
ENDBRANCH   1  33
BRANCH  18  35
HETATM   35  O10 UNL     1      36.690  -7.517  19.703  1.00  0.00    -0.387 OA
ATOM     36  H10 UNL     1      37.587  -7.359  19.972  1.00  0.00     0.210 HD
ENDBRANCH  18  35
BRANCH  17  37
HETATM   37  O8  UNL     1      38.988  -8.512  19.601  1.00  0.00    -0.304 OA
BRANCH  37  38
HETATM   38  C25 UNL     1      40.026  -9.350  19.859  1.00  0.00     0.294 C 
HETATM   39  O9  UNL     1      40.127 -10.411  19.204  1.00  0.00    -0.259 OA
BRANCH  38  40
HETATM   40  C26 UNL     1      41.007  -8.996  20.900  1.00  0.00     0.039 A 
HETATM   41  C27 UNL     1      42.083  -9.810  21.175  1.00  0.00     0.017 A 
HETATM   42  C28 UNL     1      43.031  -9.535  22.134  1.00  0.00     0.001 A 
HETATM   43  C29 UNL     1      42.877  -8.367  22.853  1.00  0.00     0.000 A 
HETATM   44  C30 UNL     1      41.810  -7.519  22.611  1.00  0.00     0.001 A 
HETATM   45  C31 UNL     1      40.873  -7.837  21.631  1.00  0.00     0.017 A 
ENDBRANCH  38  40
ENDBRANCH  37  38
ENDBRANCH  17  37
BRANCH   8  46
HETATM   46  C17 UNL     1      34.655  -2.135  17.847  1.00  0.00     0.157 C 
HETATM   47  C18 UNL     1      34.676  -0.847  18.591  1.00  0.00     0.093 C 
HETATM   48  O5  UNL     1      34.683  -2.106  16.645  1.00  0.00    -0.296 OA
ENDBRANCH   8  46
TORSDOF 14
ENDMDL
MODEL 5
REMARK VINA RESULT: -7.620794025      4.071      7.287
REMARK  14 active torsions:
REMARK  status: ('A' for Active; 'I' for Inactive)
REMARK    1  A    between atoms: C2_2  and  C3_3 
REMARK    2  A    between atoms: C3_3  and  C5_5 
REMARK    3  A    between atoms: C5_5  and  C6_7 
REMARK    4  A    between atoms: C6_7  and  C7_8 
REMARK    5  A    between atoms: C7_8  and  O2_9 
REMARK    6  A    between atoms: C7_8  and  C8_11 
REMARK    7  A    between atoms: C8_11  and  C9_12 
REMARK    8  A    between atoms: C9_12  and  C10_13 
REMARK    9  A    between atoms: C10_13  and  O3_14 
REMARK   10  A    between atoms: C16_22  and  C17_24 
REMARK   11  A    between atoms: C24_34  and  O8_35 
REMARK   12  A    between atoms: O8_35  and  C25_36 
REMARK   13  A    between atoms: C25_36  and  C26_38 
REMARK   14  A    between atoms: C32_44  and  O10_46 
ROOT
HETATM    1  C10 UNL     1      31.906 -15.233  12.796  1.00  0.00     0.172 C 
HETATM    2  O4  UNL     1      31.915 -14.804  14.130  1.00  0.00    -0.340 OA
HETATM    3  C11 UNL     1      33.121 -14.170  14.022  1.00  0.00     0.106 C 
HETATM    4  C12 UNL     1      34.102 -14.960  14.886  1.00  0.00     0.042 C 
HETATM    5  C13 UNL     1      35.511 -14.926  14.447  1.00  0.00     0.010 C 
HETATM    6  C14 UNL     1      36.375 -14.619  15.686  1.00  0.00     0.023 C 
HETATM    7  C15 UNL     1      37.605 -15.497  15.718  1.00  0.00     0.013 C 
HETATM    8  C16 UNL     1      36.647 -13.163  15.809  1.00  0.00     0.187 C 
HETATM    9 CL1  UNL     1      38.312 -12.914  15.141  1.00  0.00    -0.099 Cl
HETATM   10  C19 UNL     1      35.799 -12.260  15.054  1.00  0.00     0.291 C 
HETATM   11  O6  UNL     1      36.388 -11.140  14.874  1.00  0.00    -0.263 OA
HETATM   12  O7  UNL     1      34.569 -12.329  14.514  1.00  0.00    -0.307 OA
HETATM   13  C20 UNL     1      33.273 -12.786  14.572  1.00  0.00     0.190 C 
HETATM   14  C21 UNL     1      32.397 -11.772  13.994  1.00  0.00     0.013 C 
HETATM   15  C22 UNL     1      31.960 -11.462  12.801  1.00  0.00    -0.053 C 
HETATM   16  C23 UNL     1      31.053 -10.295  12.733  1.00  0.00     0.046 C 
HETATM   17  C24 UNL     1      32.260 -12.132  11.535  1.00  0.00     0.195 C 
HETATM   18  C32 UNL     1      33.148 -13.297  11.609  1.00  0.00     0.096 C 
HETATM   19  C33 UNL     1      33.231 -13.999  10.217  1.00  0.00     0.049 C 
HETATM   20  C34 UNL     1      33.077 -14.353  12.587  1.00  0.00     0.122 C 
ENDROOT
BRANCH   1  21
HETATM   21  C9  UNL     1      30.604 -15.053  12.150  1.00  0.00     0.071 C 
BRANCH  21  22
HETATM   22  C8  UNL     1      29.527 -16.066  12.358  1.00  0.00     0.037 C 
BRANCH  22  23
HETATM   23  C7  UNL     1      28.117 -15.590  12.207  1.00  0.00     0.125 C 
BRANCH  23  24
HETATM   24  C6  UNL     1      28.147 -14.348  11.290  1.00  0.00     0.110 C 
BRANCH  24  25
HETATM   25  C5  UNL     1      27.050 -13.427  11.683  1.00  0.00     0.133 C 
HETATM   26  O1  UNL     1      25.906 -13.793  11.476  1.00  0.00    -0.297 OA
BRANCH  25  27
HETATM   27  C3  UNL     1      27.271 -12.113  12.300  1.00  0.00     0.051 C 
HETATM   28  C4  UNL     1      27.732 -11.048  11.339  1.00  0.00     0.018 C 
BRANCH  27  29
HETATM   29  C2  UNL     1      28.272 -12.166  13.435  1.00  0.00     0.007 C 
HETATM   30  C1  UNL     1      27.541 -12.656  14.665  1.00  0.00     0.006 C 
ENDBRANCH  27  29
ENDBRANCH  25  27
ENDBRANCH  24  25
ENDBRANCH  23  24
BRANCH  23  31
HETATM   31  O2  UNL     1      27.278 -16.513  11.599  1.00  0.00    -0.395 OA
ATOM     32  H2  UNL     1      27.231 -17.262  12.181  1.00  0.00     0.210 HD
ENDBRANCH  23  31
ENDBRANCH  22  23
ENDBRANCH  21  22
ENDBRANCH   1  21
BRANCH   1  33
HETATM   33  O3  UNL     1      32.248 -16.593  12.600  1.00  0.00    -0.365 OA
ATOM     34  H3  UNL     1      32.669 -16.872  13.404  1.00  0.00     0.213 HD
ENDBRANCH   1  33
BRANCH  18  35
HETATM   35  O10 UNL     1      34.462 -12.732  11.672  1.00  0.00    -0.387 OA
ATOM     36  H10 UNL     1      34.869 -13.173  12.408  1.00  0.00     0.210 HD
ENDBRANCH  18  35
BRANCH  17  37
HETATM   37  O8  UNL     1      32.830 -11.166  10.592  1.00  0.00    -0.304 OA
BRANCH  37  38
HETATM   38  C25 UNL     1      32.106 -10.507   9.649  1.00  0.00     0.294 C 
HETATM   39  O9  UNL     1      31.092 -11.059   9.166  1.00  0.00    -0.259 OA
BRANCH  38  40
HETATM   40  C26 UNL     1      32.528  -9.164   9.214  1.00  0.00     0.039 A 
HETATM   41  C27 UNL     1      33.332  -8.376  10.006  1.00  0.00     0.017 A 
HETATM   42  C28 UNL     1      33.759  -7.115   9.657  1.00  0.00     0.001 A 
HETATM   43  C29 UNL     1      33.344  -6.628   8.433  1.00  0.00     0.000 A 
HETATM   44  C30 UNL     1      32.535  -7.385   7.605  1.00  0.00     0.001 A 
HETATM   45  C31 UNL     1      32.126  -8.657   7.999  1.00  0.00     0.017 A 
ENDBRANCH  38  40
ENDBRANCH  37  38
ENDBRANCH  17  37
BRANCH   8  46
HETATM   46  C17 UNL     1      36.784 -12.744  17.255  1.00  0.00     0.157 C 
HETATM   47  C18 UNL     1      35.625 -12.742  18.187  1.00  0.00     0.093 C 
HETATM   48  O5  UNL     1      37.859 -12.402  17.673  1.00  0.00    -0.296 OA
ENDBRANCH   8  46
TORSDOF 14
ENDMDL
