MODEL 1
REMARK VINA RESULT: -6.776960053      0.000      0.000
REMARK  14 active torsions:
REMARK  status: ('A' for Active; 'I' for Inactive)
REMARK    1  A    between atoms: C2_2  and  C3_3 
REMARK    2  A    between atoms: C7_7  and  C8_8 
REMARK    3  A    between atoms: C8_8  and  C9_9 
REMARK    4  A    between atoms: C9_9  and  O1_10 
REMARK    5  A    between atoms: C9_9  and  C11_12 
REMARK    6  A    between atoms: C11_12  and  C12_13 
REMARK    7  A    between atoms: C12_13  and  O2_14 
REMARK    8  A    between atoms: O2_14  and  C13_15 
REMARK    9  A    between atoms: C13_15  and  O4_17 
REMARK   10  A    between atoms: O4_17  and  C14_18 
REMARK   11  A    between atoms: C14_18  and  C16_20 
REMARK   12  A    between atoms: C24_30  and  O6_31 
REMARK   13  A    between atoms: C31_40  and  O8_42 
REMARK   14  A    between atoms: C34_45  and  O9_46 
ROOT
HETATM    1  C11 UNL     1      30.778 -13.590  12.551  1.00  0.00     0.036 C 
HETATM    2  C18 UNL     1      31.957 -14.474  12.072  1.00  0.00     0.128 C 
HETATM    3 CL1  UNL     1      31.478 -16.082  11.493  1.00  0.00    -0.119 Cl
HETATM    4  C19 UNL     1      32.925 -13.828  11.186  1.00  0.00    -0.025 C 
HETATM    5  C20 UNL     1      32.922 -14.221   9.925  1.00  0.00     0.019 C 
HETATM    6  C21 UNL     1      33.970 -12.826  11.497  1.00  0.00     0.176 A 
HETATM    7  O5  UNL     1      34.329 -12.888  12.803  1.00  0.00    -0.355 OA
HETATM    8  C22 UNL     1      33.509 -11.879  12.626  1.00  0.00     0.178 A 
HETATM    9  C23 UNL     1      32.215 -11.439  12.182  1.00  0.00     0.060 C 
HETATM   10  C24 UNL     1      32.484 -10.560  10.954  1.00  0.00     0.161 C 
HETATM   11  C25 UNL     1      33.933 -10.600  10.518  1.00  0.00     0.011 C 
HETATM   12  C26 UNL     1      34.597  -9.523  10.166  1.00  0.00     0.025 C 
HETATM   13  C27 UNL     1      34.531 -11.930  10.506  1.00  0.00     0.199 C 
HETATM   14  O7  UNL     1      35.424 -12.239   9.724  1.00  0.00    -0.289 OA
HETATM   15  C28 UNL     1      30.936 -12.168  12.194  1.00  0.00    -0.025 C 
HETATM   16  C29 UNL     1      30.191 -11.821  10.879  1.00  0.00     0.016 C 
HETATM   17  C30 UNL     1      29.975 -11.365  13.148  1.00  0.00     0.016 C 
ENDROOT
BRANCH   1  18
HETATM   18  C9  UNL     1      30.629 -13.922  14.012  1.00  0.00     0.137 C 
BRANCH  18  19
HETATM   19  C8  UNL     1      31.690 -13.955  15.023  1.00  0.00     0.060 C 
BRANCH  19  20
HETATM   20  C7  UNL     1      32.098 -12.747  15.750  1.00  0.00    -0.018 C 
HETATM   21  C6  UNL     1      31.426 -12.186  16.760  1.00  0.00    -0.049 C 
HETATM   22  C5  UNL     1      32.040 -10.937  17.355  1.00  0.00     0.052 C 
HETATM   23  C31 UNL     1      30.183 -12.639  17.374  1.00  0.00     0.080 C 
HETATM   24  C3  UNL     1      31.010  -9.841  17.478  1.00  0.00     0.003 C 
HETATM   25  C4  UNL     1      30.660  -9.258  16.117  1.00  0.00     0.022 C 
HETATM   26  C34 UNL     1      29.744 -10.340  18.131  1.00  0.00     0.133 C 
HETATM   27  C33 UNL     1      29.969 -11.752  18.618  1.00  0.00     0.075 C 
HETATM   28  C32 UNL     1      28.941 -12.503  16.563  1.00  0.00     0.051 C 
BRANCH  24  29
HETATM   29  C2  UNL     1      31.590  -8.749  18.297  1.00  0.00    -0.025 C 
HETATM   30  C1  UNL     1      32.234  -7.747  17.770  1.00  0.00     0.008 C 
ENDBRANCH  24  29
BRANCH  26  31
HETATM   31  O9  UNL     1      29.404  -9.487  19.190  1.00  0.00    -0.394 OA
ATOM     32  H9  UNL     1      28.470  -9.316  19.166  1.00  0.00     0.210 HD
ENDBRANCH  26  31
BRANCH  23  33
HETATM   33  O8  UNL     1      30.292 -13.949  17.916  1.00  0.00    -0.386 OA
ATOM     34  H8  UNL     1      30.735 -13.957  18.756  1.00  0.00     0.211 HD
ENDBRANCH  23  33
ENDBRANCH  19  20
ENDBRANCH  18  19
BRANCH  18  35
HETATM   35  O1  UNL     1      30.096 -15.265  14.124  1.00  0.00    -0.389 OA
HETATM   36  C10 UNL     1      30.697 -15.902  15.150  1.00  0.00     0.202 C 
ENDBRANCH  18  35
ENDBRANCH   1  18
BRANCH   1  37
HETATM   37  C12 UNL     1      29.637 -14.271  11.814  1.00  0.00     0.196 C 
BRANCH  37  38
HETATM   38  O2  UNL     1      28.435 -14.427  12.537  1.00  0.00    -0.297 OA
BRANCH  38  39
HETATM   39  C13 UNL     1      27.257 -14.638  11.897  1.00  0.00     0.406 C 
HETATM   40  O3  UNL     1      26.317 -15.322  12.349  1.00  0.00    -0.229 OA
BRANCH  39  41
HETATM   41  O4  UNL     1      27.098 -14.044  10.650  1.00  0.00    -0.293 OA
BRANCH  41  42
HETATM   42  C14 UNL     1      26.343 -12.911  10.371  1.00  0.00     0.129 C 
HETATM   43  C15 UNL     1      26.539 -11.806  11.392  1.00  0.00     0.040 C 
BRANCH  42  44
HETATM   44  C16 UNL     1      26.597 -12.352   8.974  1.00  0.00     0.028 C 
HETATM   45  C17 UNL     1      25.389 -11.507   8.599  1.00  0.00     0.007 C 
ENDBRANCH  42  44
ENDBRANCH  41  42
ENDBRANCH  39  41
ENDBRANCH  38  39
ENDBRANCH  37  38
ENDBRANCH   1  37
BRANCH  10  46
HETATM   46  O6  UNL     1      32.277  -9.181  11.224  1.00  0.00    -0.390 OA
ATOM     47  H6  UNL     1      33.010  -8.646  10.943  1.00  0.00     0.210 HD
ENDBRANCH  10  46
TORSDOF 14
ENDMDL
MODEL 2
REMARK VINA RESULT: -6.752945793      6.694     12.066
REMARK  14 active torsions:
REMARK  status: ('A' for Active; 'I' for Inactive)
REMARK    1  A    between atoms: C2_2  and  C3_3 
REMARK    2  A    between atoms: C7_7  and  C8_8 
REMARK    3  A    between atoms: C8_8  and  C9_9 
REMARK    4  A    between atoms: C9_9  and  O1_10 
REMARK    5  A    between atoms: C9_9  and  C11_12 
REMARK    6  A    between atoms: C11_12  and  C12_13 
REMARK    7  A    between atoms: C12_13  and  O2_14 
REMARK    8  A    between atoms: O2_14  and  C13_15 
REMARK    9  A    between atoms: C13_15  and  O4_17 
REMARK   10  A    between atoms: O4_17  and  C14_18 
REMARK   11  A    between atoms: C14_18  and  C16_20 
REMARK   12  A    between atoms: C24_30  and  O6_31 
REMARK   13  A    between atoms: C31_40  and  O8_42 
REMARK   14  A    between atoms: C34_45  and  O9_46 
ROOT
HETATM    1  C11 UNL     1      34.558  -4.479  19.202  1.00  0.00     0.036 C 
HETATM    2  C18 UNL     1      34.661  -5.654  20.207  1.00  0.00     0.128 C 
HETATM    3 CL1  UNL     1      34.955  -5.158  21.885  1.00  0.00    -0.119 Cl
HETATM    4  C19 UNL     1      33.624  -6.681  20.102  1.00  0.00    -0.025 C 
HETATM    5  C20 UNL     1      32.741  -6.727  21.083  1.00  0.00     0.019 C 
HETATM    6  C21 UNL     1      33.440  -7.737  19.081  1.00  0.00     0.176 A 
HETATM    7  O5  UNL     1      34.613  -8.032  18.469  1.00  0.00    -0.355 OA
HETATM    8  C22 UNL     1      33.902  -7.250  17.692  1.00  0.00     0.178 A 
HETATM    9  C23 UNL     1      33.226  -5.991  17.539  1.00  0.00     0.060 C 
HETATM   10  C24 UNL     1      31.738  -6.342  17.408  1.00  0.00     0.161 C 
HETATM   11  C25 UNL     1      31.464  -7.809  17.664  1.00  0.00     0.011 C 
HETATM   12  C26 UNL     1      30.650  -8.519  16.917  1.00  0.00     0.025 C 
HETATM   13  C27 UNL     1      32.163  -8.369  18.814  1.00  0.00     0.199 C 
HETATM   14  O7  UNL     1      31.698  -9.290  19.479  1.00  0.00    -0.289 OA
HETATM   15  C28 UNL     1      33.537  -4.693  18.160  1.00  0.00    -0.025 C 
HETATM   16  C29 UNL     1      32.190  -4.022  18.532  1.00  0.00     0.016 C 
HETATM   17  C30 UNL     1      33.895  -3.711  16.983  1.00  0.00     0.016 C 
ENDROOT
BRANCH   1  18
HETATM   18  C9  UNL     1      35.974  -4.252  18.743  1.00  0.00     0.137 C 
BRANCH  18  19
HETATM   19  C8  UNL     1      36.910  -5.258  18.236  1.00  0.00     0.060 C 
BRANCH  19  20
HETATM   20  C7  UNL     1      36.771  -5.830  16.891  1.00  0.00    -0.018 C 
HETATM   21  C6  UNL     1      37.310  -6.981  16.479  1.00  0.00    -0.049 C 
HETATM   22  C5  UNL     1      37.032  -7.369  15.042  1.00  0.00     0.052 C 
HETATM   23  C31 UNL     1      38.117  -7.922  17.247  1.00  0.00     0.080 C 
HETATM   24  C3  UNL     1      38.308  -7.763  14.338  1.00  0.00     0.003 C 
HETATM   25  C4  UNL     1      39.175  -6.547  14.049  1.00  0.00     0.022 C 
HETATM   26  C34 UNL     1      39.110  -8.748  15.154  1.00  0.00     0.133 C 
HETATM   27  C33 UNL     1      38.294  -9.167  16.354  1.00  0.00     0.075 C 
HETATM   28  C32 UNL     1      39.494  -7.487  17.613  1.00  0.00     0.051 C 
BRANCH  24  29
HETATM   29  C2  UNL     1      37.949  -8.376  13.037  1.00  0.00    -0.025 C 
HETATM   30  C1  UNL     1      36.930  -7.974  12.331  1.00  0.00     0.008 C 
ENDBRANCH  24  29
BRANCH  26  31
HETATM   31  O9  UNL     1      39.437  -9.850  14.353  1.00  0.00    -0.394 OA
ATOM     32  H9  UNL     1      38.804 -10.543  14.503  1.00  0.00     0.210 HD
ENDBRANCH  26  31
BRANCH  23  33
HETATM   33  O8  UNL     1      37.427  -8.426  18.384  1.00  0.00    -0.386 OA
ATOM     34  H8  UNL     1      37.895  -8.260  19.194  1.00  0.00     0.211 HD
ENDBRANCH  23  33
ENDBRANCH  19  20
ENDBRANCH  18  19
BRANCH  18  35
HETATM   35  O1  UNL     1      36.731  -3.701  19.850  1.00  0.00    -0.389 OA
HETATM   36  C10 UNL     1      37.908  -4.350  19.955  1.00  0.00     0.202 C 
ENDBRANCH  18  35
ENDBRANCH   1  18
BRANCH   1  37
HETATM   37  C12 UNL     1      34.208  -3.355  20.164  1.00  0.00     0.196 C 
BRANCH  37  38
HETATM   38  O2  UNL     1      34.633  -2.063  19.790  1.00  0.00    -0.297 OA
BRANCH  38  39
HETATM   39  C13 UNL     1      33.763  -1.022  19.763  1.00  0.00     0.406 C 
HETATM   40  O3  UNL     1      32.684  -0.983  20.388  1.00  0.00    -0.229 OA
BRANCH  39  41
HETATM   41  O4  UNL     1      34.109   0.073  18.979  1.00  0.00    -0.293 OA
BRANCH  41  42
HETATM   42  C14 UNL     1      34.682   1.256  19.430  1.00  0.00     0.129 C 
HETATM   43  C15 UNL     1      35.946   1.623  18.676  1.00  0.00     0.040 C 
BRANCH  42  44
HETATM   44  C16 UNL     1      33.717   2.438  19.395  1.00  0.00     0.028 C 
HETATM   45  C17 UNL     1      34.529   3.672  19.029  1.00  0.00     0.007 C 
ENDBRANCH  42  44
ENDBRANCH  41  42
ENDBRANCH  39  41
ENDBRANCH  38  39
ENDBRANCH  37  38
ENDBRANCH   1  37
BRANCH  10  46
HETATM   46  O6  UNL     1      31.258  -6.162  16.084  1.00  0.00    -0.390 OA
ATOM     47  H6  UNL     1      30.330  -5.956  16.063  1.00  0.00     0.210 HD
ENDBRANCH  10  46
TORSDOF 14
ENDMDL
MODEL 3
REMARK VINA RESULT: -6.684257762      1.134      1.849
REMARK  14 active torsions:
REMARK  status: ('A' for Active; 'I' for Inactive)
REMARK    1  A    between atoms: C2_2  and  C3_3 
REMARK    2  A    between atoms: C7_7  and  C8_8 
REMARK    3  A    between atoms: C8_8  and  C9_9 
REMARK    4  A    between atoms: C9_9  and  O1_10 
REMARK    5  A    between atoms: C9_9  and  C11_12 
REMARK    6  A    between atoms: C11_12  and  C12_13 
REMARK    7  A    between atoms: C12_13  and  O2_14 
REMARK    8  A    between atoms: O2_14  and  C13_15 
REMARK    9  A    between atoms: C13_15  and  O4_17 
REMARK   10  A    between atoms: O4_17  and  C14_18 
REMARK   11  A    between atoms: C14_18  and  C16_20 
REMARK   12  A    between atoms: C24_30  and  O6_31 
REMARK   13  A    between atoms: C31_40  and  O8_42 
REMARK   14  A    between atoms: C34_45  and  O9_46 
ROOT
HETATM    1  C11 UNL     1      30.644 -12.963  12.457  1.00  0.00     0.036 C 
HETATM    2  C18 UNL     1      31.814 -13.925  12.134  1.00  0.00     0.128 C 
HETATM    3 CL1  UNL     1      31.309 -15.552  11.636  1.00  0.00    -0.119 Cl
HETATM    4  C19 UNL     1      32.874 -13.385  11.282  1.00  0.00    -0.025 C 
HETATM    5  C20 UNL     1      32.947 -13.870  10.056  1.00  0.00     0.019 C 
HETATM    6  C21 UNL     1      33.935 -12.404  11.601  1.00  0.00     0.176 A 
HETATM    7  O5  UNL     1      34.193 -12.382  12.931  1.00  0.00    -0.355 OA
HETATM    8  C22 UNL     1      33.434 -11.358  12.620  1.00  0.00     0.178 A 
HETATM    9  C23 UNL     1      32.197 -10.902  12.048  1.00  0.00     0.060 C 
HETATM   10  C24 UNL     1      32.595 -10.128  10.785  1.00  0.00     0.161 C 
HETATM   11  C25 UNL     1      34.069 -10.256  10.467  1.00  0.00     0.011 C 
HETATM   12  C26 UNL     1      34.805  -9.234  10.091  1.00  0.00     0.025 C 
HETATM   13  C27 UNL     1      34.607 -11.605  10.595  1.00  0.00     0.199 C 
HETATM   14  O7  UNL     1      35.542 -12.006   9.908  1.00  0.00    -0.289 OA
HETATM   15  C28 UNL     1      30.890 -11.579  12.013  1.00  0.00    -0.025 C 
HETATM   16  C29 UNL     1      30.261 -11.302  10.623  1.00  0.00     0.016 C 
HETATM   17  C30 UNL     1      29.897 -10.671  12.830  1.00  0.00     0.016 C 
ENDROOT
BRANCH   1  18
HETATM   18  C9  UNL     1      30.373 -13.180  13.922  1.00  0.00     0.137 C 
BRANCH  18  19
HETATM   19  C8  UNL     1      31.363 -13.362  14.987  1.00  0.00     0.060 C 
BRANCH  19  20
HETATM   20  C7  UNL     1      31.918 -12.221  15.724  1.00  0.00    -0.018 C 
HETATM   21  C6  UNL     1      31.455 -11.749  16.885  1.00  0.00    -0.049 C 
HETATM   22  C5  UNL     1      32.189 -10.556  17.459  1.00  0.00     0.052 C 
HETATM   23  C31 UNL     1      30.340 -12.252  17.679  1.00  0.00     0.080 C 
HETATM   24  C3  UNL     1      31.219  -9.473  17.863  1.00  0.00     0.003 C 
HETATM   25  C4  UNL     1      30.632  -8.776  16.645  1.00  0.00     0.022 C 
HETATM   26  C34 UNL     1      30.087 -10.027  18.696  1.00  0.00     0.133 C 
HETATM   27  C33 UNL     1      30.375 -11.475  19.012  1.00  0.00     0.075 C 
HETATM   28  C32 UNL     1      28.972 -12.046  17.127  1.00  0.00     0.051 C 
BRANCH  24  29
HETATM   29  C2  UNL     1      31.958  -8.457  18.649  1.00  0.00    -0.025 C 
HETATM   30  C1  UNL     1      32.425  -7.364  18.114  1.00  0.00     0.008 C 
ENDBRANCH  24  29
BRANCH  26  31
HETATM   31  O9  UNL     1      29.964  -9.268  19.868  1.00  0.00    -0.394 OA
ATOM     32  H9  UNL     1      29.162  -8.759  19.827  1.00  0.00     0.210 HD
ENDBRANCH  26  31
BRANCH  23  33
HETATM   33  O8  UNL     1      30.526 -13.604  18.079  1.00  0.00    -0.386 OA
ATOM     34  H8  UNL     1      29.937 -14.198  17.630  1.00  0.00     0.211 HD
ENDBRANCH  23  33
ENDBRANCH  19  20
ENDBRANCH  18  19
BRANCH  18  35
HETATM   35  O1  UNL     1      29.582 -14.386  14.068  1.00  0.00    -0.389 OA
HETATM   36  C10 UNL     1      30.071 -15.122  15.087  1.00  0.00     0.202 C 
ENDBRANCH  18  35
ENDBRANCH   1  18
BRANCH   1  37
HETATM   37  C12 UNL     1      29.531 -13.653  11.684  1.00  0.00     0.196 C 
BRANCH  37  38
HETATM   38  O2  UNL     1      28.214 -13.362  12.099  1.00  0.00    -0.297 OA
BRANCH  38  39
HETATM   39  C13 UNL     1      27.155 -14.035  11.581  1.00  0.00     0.406 C 
HETATM   40  O3  UNL     1      26.023 -13.542  11.398  1.00  0.00    -0.229 OA
BRANCH  39  41
HETATM   41  O4  UNL     1      27.357 -15.365  11.232  1.00  0.00    -0.293 OA
BRANCH  41  42
HETATM   42  C14 UNL     1      27.667 -16.404  12.102  1.00  0.00     0.129 C 
HETATM   43  C15 UNL     1      26.435 -17.085  12.667  1.00  0.00     0.040 C 
BRANCH  42  44
HETATM   44  C16 UNL     1      28.578 -17.455  11.476  1.00  0.00     0.028 C 
HETATM   45  C17 UNL     1      28.230 -17.531   9.996  1.00  0.00     0.007 C 
ENDBRANCH  42  44
ENDBRANCH  41  42
ENDBRANCH  39  41
ENDBRANCH  38  39
ENDBRANCH  37  38
ENDBRANCH   1  37
BRANCH  10  46
HETATM   46  O6  UNL     1      32.430  -8.726  10.940  1.00  0.00    -0.390 OA
ATOM     47  H6  UNL     1      32.305  -8.285  10.107  1.00  0.00     0.210 HD
ENDBRANCH  10  46
TORSDOF 14
ENDMDL
MODEL 4
REMARK VINA RESULT: -6.669461063      8.785     12.784
REMARK  14 active torsions:
REMARK  status: ('A' for Active; 'I' for Inactive)
REMARK    1  A    between atoms: C2_2  and  C3_3 
REMARK    2  A    between atoms: C7_7  and  C8_8 
REMARK    3  A    between atoms: C8_8  and  C9_9 
REMARK    4  A    between atoms: C9_9  and  O1_10 
REMARK    5  A    between atoms: C9_9  and  C11_12 
REMARK    6  A    between atoms: C11_12  and  C12_13 
REMARK    7  A    between atoms: C12_13  and  O2_14 
REMARK    8  A    between atoms: O2_14  and  C13_15 
REMARK    9  A    between atoms: C13_15  and  O4_17 
REMARK   10  A    between atoms: O4_17  and  C14_18 
REMARK   11  A    between atoms: C14_18  and  C16_20 
REMARK   12  A    between atoms: C24_30  and  O6_31 
REMARK   13  A    between atoms: C31_40  and  O8_42 
REMARK   14  A    between atoms: C34_45  and  O9_46 
ROOT
HETATM    1  C11 UNL     1      38.931  -9.453  19.295  1.00  0.00     0.036 C 
HETATM    2  C18 UNL     1      37.580  -9.912  18.690  1.00  0.00     0.128 C 
HETATM    3 CL1  UNL     1      36.273 -10.102  19.874  1.00  0.00    -0.119 Cl
HETATM    4  C19 UNL     1      37.144  -9.204  17.486  1.00  0.00    -0.025 C 
HETATM    5  C20 UNL     1      36.107  -8.398  17.622  1.00  0.00     0.019 C 
HETATM    6  C21 UNL     1      37.652  -9.296  16.098  1.00  0.00     0.176 A 
HETATM    7  O5  UNL     1      38.263 -10.486  15.882  1.00  0.00    -0.355 OA
HETATM    8  C22 UNL     1      39.173  -9.562  16.084  1.00  0.00     0.178 A 
HETATM    9  C23 UNL     1      39.696  -8.555  16.965  1.00  0.00     0.060 C 
HETATM   10  C24 UNL     1      39.476  -7.223  16.235  1.00  0.00     0.161 C 
HETATM   11  C25 UNL     1      38.649  -7.381  14.977  1.00  0.00     0.011 C 
HETATM   12  C26 UNL     1      38.951  -6.779  13.849  1.00  0.00     0.025 C 
HETATM   13  C27 UNL     1      37.480  -8.242  15.118  1.00  0.00     0.199 C 
HETATM   14  O7  UNL     1      36.460  -8.074  14.459  1.00  0.00    -0.289 OA
HETATM   15  C28 UNL     1      39.662  -8.505  18.435  1.00  0.00    -0.025 C 
HETATM   16  C29 UNL     1      39.389  -7.034  18.844  1.00  0.00     0.016 C 
HETATM   17  C30 UNL     1      41.160  -8.537  18.917  1.00  0.00     0.016 C 
ENDROOT
BRANCH   1  18
HETATM   18  C9  UNL     1      39.632 -10.734  19.661  1.00  0.00     0.137 C 
BRANCH  18  19
HETATM   19  C8  UNL     1      39.676 -11.972  18.878  1.00  0.00     0.060 C 
BRANCH  19  20
HETATM   20  C7  UNL     1      40.925 -12.460  18.280  1.00  0.00    -0.018 C 
HETATM   21  C6  UNL     1      41.020 -13.441  17.378  1.00  0.00    -0.049 C 
HETATM   22  C5  UNL     1      42.418 -13.776  16.904  1.00  0.00     0.052 C 
HETATM   23  C31 UNL     1      39.941 -14.219  16.778  1.00  0.00     0.080 C 
HETATM   24  C3  UNL     1      42.662 -15.264  16.963  1.00  0.00     0.003 C 
HETATM   25  C4  UNL     1      42.822 -15.739  18.399  1.00  0.00     0.022 C 
HETATM   26  C34 UNL     1      41.534 -16.036  16.321  1.00  0.00     0.133 C 
HETATM   27  C33 UNL     1      40.588 -15.062  15.660  1.00  0.00     0.075 C 
HETATM   28  C32 UNL     1      39.239 -15.191  17.662  1.00  0.00     0.051 C 
BRANCH  24  29
HETATM   29  C2  UNL     1      43.929 -15.556  16.251  1.00  0.00    -0.025 C 
HETATM   30  C1  UNL     1      44.524 -14.678  15.494  1.00  0.00     0.008 C 
ENDBRANCH  24  29
BRANCH  26  31
HETATM   31  O9  UNL     1      42.066 -16.937  15.388  1.00  0.00    -0.394 OA
ATOM     32  H9  UNL     1      41.730 -16.728  14.525  1.00  0.00     0.210 HD
ENDBRANCH  26  31
BRANCH  23  33
HETATM   33  O8  UNL     1      39.009 -13.403  16.081  1.00  0.00    -0.386 OA
ATOM     34  H8  UNL     1      38.148 -13.802  16.029  1.00  0.00     0.211 HD
ENDBRANCH  23  33
ENDBRANCH  19  20
ENDBRANCH  18  19
BRANCH  18  35
HETATM   35  O1  UNL     1      39.083 -11.216  20.913  1.00  0.00    -0.389 OA
HETATM   36  C10 UNL     1      40.024 -11.920  21.574  1.00  0.00     0.202 C 
ENDBRANCH  18  35
ENDBRANCH   1  18
BRANCH   1  37
HETATM   37  C12 UNL     1      38.428  -8.829  20.587  1.00  0.00     0.196 C 
BRANCH  37  38
HETATM   38  O2  UNL     1      39.392  -8.165  21.373  1.00  0.00    -0.297 OA
BRANCH  38  39
HETATM   39  C13 UNL     1      39.522  -8.436  22.697  1.00  0.00     0.406 C 
HETATM   40  O3  UNL     1      38.597  -8.358  23.531  1.00  0.00    -0.229 OA
BRANCH  39  41
HETATM   41  O4  UNL     1      40.779  -8.829  23.143  1.00  0.00    -0.293 OA
BRANCH  41  42
HETATM   42  C14 UNL     1      41.991  -8.242  22.801  1.00  0.00     0.129 C 
HETATM   43  C15 UNL     1      42.328  -7.040  23.663  1.00  0.00     0.040 C 
BRANCH  42  44
HETATM   44  C16 UNL     1      43.159  -9.224  22.833  1.00  0.00     0.028 C 
HETATM   45  C17 UNL     1      43.201  -9.918  21.479  1.00  0.00     0.007 C 
ENDBRANCH  42  44
ENDBRANCH  41  42
ENDBRANCH  39  41
ENDBRANCH  38  39
ENDBRANCH  37  38
ENDBRANCH   1  37
BRANCH  10  46
HETATM   46  O6  UNL     1      40.690  -6.674  15.742  1.00  0.00    -0.390 OA
ATOM     47  H6  UNL     1      41.082  -6.062  16.355  1.00  0.00     0.210 HD
ENDBRANCH  10  46
TORSDOF 14
ENDMDL
MODEL 5
REMARK VINA RESULT: -6.656524045      1.263      2.330
REMARK  14 active torsions:
REMARK  status: ('A' for Active; 'I' for Inactive)
REMARK    1  A    between atoms: C2_2  and  C3_3 
REMARK    2  A    between atoms: C7_7  and  C8_8 
REMARK    3  A    between atoms: C8_8  and  C9_9 
REMARK    4  A    between atoms: C9_9  and  O1_10 
REMARK    5  A    between atoms: C9_9  and  C11_12 
REMARK    6  A    between atoms: C11_12  and  C12_13 
REMARK    7  A    between atoms: C12_13  and  O2_14 
REMARK    8  A    between atoms: O2_14  and  C13_15 
REMARK    9  A    between atoms: C13_15  and  O4_17 
REMARK   10  A    between atoms: O4_17  and  C14_18 
REMARK   11  A    between atoms: C14_18  and  C16_20 
REMARK   12  A    between atoms: C24_30  and  O6_31 
REMARK   13  A    between atoms: C31_40  and  O8_42 
REMARK   14  A    between atoms: C34_45  and  O9_46 
ROOT
HETATM    1  C11 UNL     1      30.822 -13.518  12.472  1.00  0.00     0.036 C 
HETATM    2  C18 UNL     1      32.013 -14.399  12.019  1.00  0.00     0.128 C 
HETATM    3 CL1  UNL     1      31.551 -16.007  11.428  1.00  0.00    -0.119 Cl
HETATM    4  C19 UNL     1      33.000 -13.750  11.157  1.00  0.00    -0.025 C 
HETATM    5  C20 UNL     1      33.026 -14.141   9.896  1.00  0.00     0.019 C 
HETATM    6  C21 UNL     1      34.035 -12.746  11.493  1.00  0.00     0.176 A 
HETATM    7  O5  UNL     1      34.364 -12.808  12.806  1.00  0.00    -0.355 OA
HETATM    8  C22 UNL     1      33.546 -11.801  12.611  1.00  0.00     0.178 A 
HETATM    9  C23 UNL     1      32.261 -11.363  12.139  1.00  0.00     0.060 C 
HETATM   10  C24 UNL     1      32.556 -10.482  10.918  1.00  0.00     0.161 C 
HETATM   11  C25 UNL     1      34.015 -10.518  10.516  1.00  0.00     0.011 C 
HETATM   12  C26 UNL     1      34.684  -9.439  10.180  1.00  0.00     0.025 C 
HETATM   13  C27 UNL     1      34.616 -11.846  10.516  1.00  0.00     0.199 C 
HETATM   14  O7  UNL     1      35.527 -12.153   9.754  1.00  0.00    -0.289 OA
HETATM   15  C28 UNL     1      30.984 -12.095  12.121  1.00  0.00    -0.025 C 
HETATM   16  C29 UNL     1      30.269 -11.749  10.790  1.00  0.00     0.016 C 
HETATM   17  C30 UNL     1      29.999 -11.295  13.053  1.00  0.00     0.016 C 
ENDROOT
BRANCH   1  18
HETATM   18  C9  UNL     1      30.640 -13.852  13.930  1.00  0.00     0.137 C 
BRANCH  18  19
HETATM   19  C8  UNL     1      30.482 -12.908  15.039  1.00  0.00     0.060 C 
BRANCH  19  20
HETATM   20  C7  UNL     1      29.295 -12.928  15.902  1.00  0.00    -0.018 C 
HETATM   21  C6  UNL     1      29.045 -12.071  16.896  1.00  0.00    -0.049 C 
HETATM   22  C5  UNL     1      27.753 -12.289  17.655  1.00  0.00     0.052 C 
HETATM   23  C31 UNL     1      29.854 -10.938  17.331  1.00  0.00     0.080 C 
HETATM   24  C3  UNL     1      27.998 -12.277  19.144  1.00  0.00     0.003 C 
HETATM   25  C4  UNL     1      28.708 -13.544  19.596  1.00  0.00     0.022 C 
HETATM   26  C34 UNL     1      28.824 -11.083  19.560  1.00  0.00     0.133 C 
HETATM   27  C33 UNL     1      29.004 -10.174  18.368  1.00  0.00     0.075 C 
HETATM   28  C32 UNL     1      31.141 -11.249  18.014  1.00  0.00     0.051 C 
BRANCH  24  29
HETATM   29  C2  UNL     1      26.685 -12.231  19.830  1.00  0.00    -0.025 C 
HETATM   30  C1  UNL     1      25.557 -12.188  19.179  1.00  0.00     0.008 C 
ENDBRANCH  24  29
BRANCH  26  31
HETATM   31  O9  UNL     1      28.177 -10.419  20.611  1.00  0.00    -0.394 OA
ATOM     32  H9  UNL     1      28.748 -10.408  21.371  1.00  0.00     0.210 HD
ENDBRANCH  26  31
BRANCH  23  33
HETATM   33  O8  UNL     1      30.049  -9.983  16.295  1.00  0.00    -0.386 OA
ATOM     34  H8  UNL     1      30.968  -9.854  16.091  1.00  0.00     0.211 HD
ENDBRANCH  23  33
ENDBRANCH  19  20
ENDBRANCH  18  19
BRANCH  18  35
HETATM   35  O1  UNL     1      31.794 -14.610  14.373  1.00  0.00    -0.389 OA
HETATM   36  C10 UNL     1      31.384 -15.642  15.139  1.00  0.00     0.202 C 
ENDBRANCH  18  35
ENDBRANCH   1  18
BRANCH   1  37
HETATM   37  C12 UNL     1      29.699 -14.201  11.709  1.00  0.00     0.196 C 
BRANCH  37  38
HETATM   38  O2  UNL     1      28.574 -14.584  12.469  1.00  0.00    -0.297 OA
BRANCH  38  39
HETATM   39  C13 UNL     1      27.341 -14.654  11.906  1.00  0.00     0.406 C 
HETATM   40  O3  UNL     1      26.359 -15.229  12.417  1.00  0.00    -0.229 OA
BRANCH  39  41
HETATM   41  O4  UNL     1      27.172 -14.037  10.672  1.00  0.00    -0.293 OA
BRANCH  41  42
HETATM   42  C14 UNL     1      26.413 -12.901  10.419  1.00  0.00     0.129 C 
HETATM   43  C15 UNL     1      26.639 -11.802  11.440  1.00  0.00     0.040 C 
BRANCH  42  44
HETATM   44  C16 UNL     1      26.631 -12.336   9.018  1.00  0.00     0.028 C 
HETATM   45  C17 UNL     1      25.345 -11.633   8.610  1.00  0.00     0.007 C 
ENDBRANCH  42  44
ENDBRANCH  41  42
ENDBRANCH  39  41
ENDBRANCH  38  39
ENDBRANCH  37  38
ENDBRANCH   1  37
BRANCH  10  46
HETATM   46  O6  UNL     1      32.340  -9.104  11.185  1.00  0.00    -0.390 OA
ATOM     47  H6  UNL     1      32.110  -8.618  10.402  1.00  0.00     0.210 HD
ENDBRANCH  10  46
TORSDOF 14
ENDMDL
