MODEL 1
REMARK VINA RESULT: -6.603987065      0.000      0.000
REMARK  6 active torsions:
REMARK  status: ('A' for Active; 'I' for Inactive)
REMARK       I    between atoms: C3_3  and  N1_5 
REMARK    1  A    between atoms: C13_16  and  C14_17 
REMARK    2  A    between atoms: C18_23  and  C19_24 
REMARK    3  A    between atoms: C19_24  and  O6_26 
REMARK    4  A    between atoms: O6_26  and  C20_27 
REMARK    5  A    between atoms: C20_27  and  C21_28 
REMARK    6  A    between atoms: C21_28  and  C22_29 
ROOT
HETATM    1  C1  UNL     1      23.658   2.896   3.814  1.00  0.00     0.108 C 
HETATM    2  C2  UNL     1      23.931   2.305   4.856  1.00  0.00    -0.088 C 
HETATM    3  C3  UNL     1      24.225   1.640   6.076  1.00  0.00     0.286 C 
HETATM    4  O1  UNL     1      23.720   2.174   7.113  1.00  0.00    -0.259 OA
HETATM    5  N1  UNL     1      25.031   0.455   6.128  1.00  0.00    -0.331 N 
HETATM    6  C4  UNL     1      25.488   0.055   4.847  1.00  0.00     0.132 C 
HETATM    7  C5  UNL     1      26.868  -0.445   4.667  1.00  0.00     0.008 C 
HETATM    8  C6  UNL     1      27.210  -0.391   3.186  1.00  0.00     0.012 C 
HETATM    9  C7  UNL     1      27.112  -1.852   5.094  1.00  0.00     0.044 C 
HETATM   10  C8  UNL     1      26.184  -2.877   4.540  1.00  0.00     0.175 C 
HETATM   11  O2  UNL     1      25.374  -2.645   5.669  1.00  0.00    -0.384 OA
HETATM   12  C9  UNL     1      26.417  -2.205   6.386  1.00  0.00     0.134 C 
HETATM   13  C10 UNL     1      26.420  -1.099   7.333  1.00  0.00     0.044 C 
HETATM   14  C11 UNL     1      26.831  -1.586   8.722  1.00  0.00     0.010 C 
HETATM   15  C12 UNL     1      25.721  -1.667   9.684  1.00  0.00     0.006 C 
HETATM   16  C13 UNL     1      24.396  -1.887   8.992  1.00  0.00     0.010 C 
HETATM   17  C18 UNL     1      24.111  -0.643   8.187  1.00  0.00     0.118 C 
HETATM   18  C25 UNL     1      25.264  -0.143   7.407  1.00  0.00     0.051 C 
HETATM   19  C26 UNL     1      25.874   1.058   8.217  1.00  0.00     0.040 C 
ENDROOT
BRANCH  17  20
HETATM   20  C19 UNL     1      22.805  -0.760   7.575  1.00  0.00     0.265 C 
HETATM   21  O5  UNL     1      22.622  -1.397   6.510  1.00  0.00    -0.265 OA
BRANCH  20  22
HETATM   22  O6  UNL     1      21.625  -0.207   8.066  1.00  0.00    -0.321 OA
BRANCH  22  23
HETATM   23  C20 UNL     1      20.350  -0.562   7.642  1.00  0.00     0.186 C 
BRANCH  23  24
HETATM   24  C21 UNL     1      19.351   0.103   8.568  1.00  0.00     0.111 C 
BRANCH  24  25
HETATM   25  C22 UNL     1      19.063  -0.744   9.754  1.00  0.00     0.125 A 
HETATM   26  N2  UNL     1      19.983  -1.393  10.469  1.00  0.00    -0.348 N 
HETATM   27  C23 UNL     1      19.338  -2.051  11.464  1.00  0.00     0.114 A 
ATOM     28  H2  UNL     1      20.989  -1.395  10.297  1.00  0.00     0.167 HD
HETATM   29  C24 UNL     1      18.008  -1.768  11.313  1.00  0.00     0.161 A 
HETATM   30  O7  UNL     1      17.904  -0.982  10.275  1.00  0.00    -0.308 OA
ENDBRANCH  24  25
ENDBRANCH  23  24
ENDBRANCH  22  23
ENDBRANCH  20  22
ENDBRANCH  17  20
BRANCH  16  31
HETATM   31  C14 UNL     1      23.406  -2.162  10.083  1.00  0.00     0.038 C 
HETATM   32  C15 UNL     1      23.628  -1.393  11.358  1.00  0.00     0.177 C 
HETATM   33  O3  UNL     1      22.693  -1.936  12.278  1.00  0.00    -0.367 OA
HETATM   34  C16 UNL     1      23.245  -3.134  12.727  1.00  0.00     0.337 C 
HETATM   35  O4  UNL     1      24.033  -3.740  11.744  1.00  0.00    -0.367 OA
HETATM   36  C17 UNL     1      23.481  -3.633  10.487  1.00  0.00     0.177 C 
ENDBRANCH  16  31
TORSDOF 6
ENDMDL
MODEL 2
REMARK VINA RESULT: -6.243958211      2.059      2.904
REMARK  6 active torsions:
REMARK  status: ('A' for Active; 'I' for Inactive)
REMARK       I    between atoms: C3_3  and  N1_5 
REMARK    1  A    between atoms: C13_16  and  C14_17 
REMARK    2  A    between atoms: C18_23  and  C19_24 
REMARK    3  A    between atoms: C19_24  and  O6_26 
REMARK    4  A    between atoms: O6_26  and  C20_27 
REMARK    5  A    between atoms: C20_27  and  C21_28 
REMARK    6  A    between atoms: C21_28  and  C22_29 
ROOT
HETATM    1  C1  UNL     1      21.045  -1.918   5.010  1.00  0.00     0.108 C 
HETATM    2  C2  UNL     1      21.763  -1.346   5.827  1.00  0.00    -0.088 C 
HETATM    3  C3  UNL     1      22.568  -0.675   6.786  1.00  0.00     0.286 C 
HETATM    4  O1  UNL     1      21.930   0.070   7.594  1.00  0.00    -0.259 OA
HETATM    5  N1  UNL     1      23.993  -0.832   6.835  1.00  0.00    -0.331 N 
HETATM    6  C4  UNL     1      24.476  -1.706   5.829  1.00  0.00     0.132 C 
HETATM    7  C5  UNL     1      25.726  -1.393   5.103  1.00  0.00     0.008 C 
HETATM    8  C6  UNL     1      25.772  -2.236   3.838  1.00  0.00     0.012 C 
HETATM    9  C7  UNL     1      26.993  -1.680   5.833  1.00  0.00     0.044 C 
HETATM   10  C8  UNL     1      27.130  -3.050   6.398  1.00  0.00     0.175 C 
HETATM   11  O2  UNL     1      26.535  -2.545   7.570  1.00  0.00    -0.384 OA
HETATM   12  C9  UNL     1      26.932  -1.297   7.292  1.00  0.00     0.134 C 
HETATM   13  C10 UNL     1      26.176  -0.071   7.509  1.00  0.00     0.044 C 
HETATM   14  C11 UNL     1      26.935   0.866   8.447  1.00  0.00     0.010 C 
HETATM   15  C12 UNL     1      26.371   0.945   9.804  1.00  0.00     0.006 C 
HETATM   16  C13 UNL     1      25.628  -0.316  10.175  1.00  0.00     0.010 C 
HETATM   17  C18 UNL     1      24.425  -0.399   9.268  1.00  0.00     0.118 C 
HETATM   18  C25 UNL     1      24.713  -0.117   7.844  1.00  0.00     0.051 C 
HETATM   19  C26 UNL     1      24.261   1.363   7.573  1.00  0.00     0.040 C 
ENDROOT
BRANCH  17  20
HETATM   20  C19 UNL     1      23.622  -1.542   9.643  1.00  0.00     0.265 C 
HETATM   21  O5  UNL     1      24.028  -2.720   9.493  1.00  0.00    -0.265 OA
BRANCH  20  22
HETATM   22  O6  UNL     1      22.347  -1.493  10.200  1.00  0.00    -0.321 OA
BRANCH  22  23
HETATM   23  C20 UNL     1      21.621  -2.604  10.615  1.00  0.00     0.186 C 
BRANCH  23  24
HETATM   24  C21 UNL     1      20.460  -2.114  11.455  1.00  0.00     0.111 C 
BRANCH  24  25
HETATM   25  C22 UNL     1      19.528  -1.274  10.659  1.00  0.00     0.125 A 
HETATM   26  N2  UNL     1      19.745  -0.875   9.405  1.00  0.00    -0.348 N 
HETATM   27  C23 UNL     1      18.676  -0.132   9.023  1.00  0.00     0.114 A 
ATOM     28  H2  UNL     1      20.565  -1.089   8.837  1.00  0.00     0.167 HD
HETATM   29  C24 UNL     1      17.823  -0.107  10.091  1.00  0.00     0.161 A 
HETATM   30  O7  UNL     1      18.385  -0.807  11.041  1.00  0.00    -0.308 OA
ENDBRANCH  24  25
ENDBRANCH  23  24
ENDBRANCH  22  23
ENDBRANCH  20  22
ENDBRANCH  17  20
BRANCH  16  31
HETATM   31  C14 UNL     1      25.300  -0.184  11.631  1.00  0.00     0.038 C 
HETATM   32  C15 UNL     1      25.562   1.175  12.226  1.00  0.00     0.177 C 
HETATM   33  O3  UNL     1      25.344   1.010  13.619  1.00  0.00    -0.367 OA
HETATM   34  C16 UNL     1      26.494   0.403  14.120  1.00  0.00     0.337 C 
HETATM   35  O4  UNL     1      27.090  -0.436  13.172  1.00  0.00    -0.367 OA
HETATM   36  C17 UNL     1      26.164  -1.147  12.443  1.00  0.00     0.177 C 
ENDBRANCH  16  31
TORSDOF 6
ENDMDL
MODEL 3
REMARK VINA RESULT: -6.215038068      2.405      4.505
REMARK  6 active torsions:
REMARK  status: ('A' for Active; 'I' for Inactive)
REMARK       I    between atoms: C3_3  and  N1_5 
REMARK    1  A    between atoms: C13_16  and  C14_17 
REMARK    2  A    between atoms: C18_23  and  C19_24 
REMARK    3  A    between atoms: C19_24  and  O6_26 
REMARK    4  A    between atoms: O6_26  and  C20_27 
REMARK    5  A    between atoms: C20_27  and  C21_28 
REMARK    6  A    between atoms: C21_28  and  C22_29 
ROOT
HETATM    1  C1  UNL     1      22.934  -2.696   3.116  1.00  0.00     0.108 C 
HETATM    2  C2  UNL     1      23.459  -1.709   3.626  1.00  0.00    -0.088 C 
HETATM    3  C3  UNL     1      24.044  -0.551   4.204  1.00  0.00     0.286 C 
HETATM    4  O1  UNL     1      23.568   0.552   3.791  1.00  0.00    -0.259 OA
HETATM    5  N1  UNL     1      25.093  -0.627   5.180  1.00  0.00    -0.331 N 
HETATM    6  C4  UNL     1      25.462  -1.963   5.474  1.00  0.00     0.132 C 
HETATM    7  C5  UNL     1      26.885  -2.324   5.654  1.00  0.00     0.008 C 
HETATM    8  C6  UNL     1      27.018  -3.834   5.532  1.00  0.00     0.012 C 
HETATM    9  C7  UNL     1      27.486  -1.964   6.970  1.00  0.00     0.044 C 
HETATM   10  C8  UNL     1      26.747  -2.423   8.178  1.00  0.00     0.175 C 
HETATM   11  O2  UNL     1      26.054  -1.198   8.127  1.00  0.00    -0.384 OA
HETATM   12  C9  UNL     1      27.054  -0.605   7.463  1.00  0.00     0.134 C 
HETATM   13  C10 UNL     1      26.931   0.361   6.380  1.00  0.00     0.044 C 
HETATM   14  C11 UNL     1      27.611   1.676   6.757  1.00  0.00     0.010 C 
HETATM   15  C12 UNL     1      26.676   2.766   7.080  1.00  0.00     0.006 C 
HETATM   16  C13 UNL     1      25.357   2.237   7.592  1.00  0.00     0.010 C 
HETATM   17  C18 UNL     1      24.704   1.503   6.446  1.00  0.00     0.118 C 
HETATM   18  C25 UNL     1      25.611   0.599   5.705  1.00  0.00     0.051 C 
HETATM   19  C26 UNL     1      26.036   1.356   4.395  1.00  0.00     0.040 C 
ENDROOT
BRANCH  17  20
HETATM   20  C19 UNL     1      23.390   1.054   6.854  1.00  0.00     0.265 C 
HETATM   21  O5  UNL     1      22.341   1.594   6.428  1.00  0.00    -0.265 OA
BRANCH  20  22
HETATM   22  O6  UNL     1      23.125   0.008   7.732  1.00  0.00    -0.321 OA
BRANCH  22  23
HETATM   23  C20 UNL     1      22.284  -1.064   7.454  1.00  0.00     0.186 C 
BRANCH  23  24
HETATM   24  C21 UNL     1      21.451  -1.335   8.691  1.00  0.00     0.111 C 
BRANCH  24  25
HETATM   25  C22 UNL     1      20.220  -0.503   8.711  1.00  0.00     0.125 A 
HETATM   26  N2  UNL     1      19.917   0.430   7.808  1.00  0.00    -0.348 N 
HETATM   27  C23 UNL     1      18.722   0.968   8.162  1.00  0.00     0.114 A 
ATOM     28  H2  UNL     1      20.480   0.692   6.998  1.00  0.00     0.167 HD
HETATM   29  C24 UNL     1      18.333   0.321   9.303  1.00  0.00     0.161 A 
HETATM   30  O7  UNL     1      19.268  -0.548   9.583  1.00  0.00    -0.308 OA
ENDBRANCH  24  25
ENDBRANCH  23  24
ENDBRANCH  22  23
ENDBRANCH  20  22
ENDBRANCH  17  20
BRANCH  16  31
HETATM   31  C14 UNL     1      24.597   3.435   8.076  1.00  0.00     0.038 C 
HETATM   32  C15 UNL     1      24.754   4.675   7.237  1.00  0.00     0.177 C 
HETATM   33  O3  UNL     1      24.097   5.697   7.971  1.00  0.00    -0.367 OA
HETATM   34  C16 UNL     1      24.983   6.082   8.974  1.00  0.00     0.337 C 
HETATM   35  O4  UNL     1      25.787   5.015   9.391  1.00  0.00    -0.367 OA
HETATM   36  C17 UNL     1      25.090   3.830   9.466  1.00  0.00     0.177 C 
ENDBRANCH  16  31
TORSDOF 6
ENDMDL
MODEL 4
REMARK VINA RESULT: -6.126140499      2.433      6.953
REMARK  6 active torsions:
REMARK  status: ('A' for Active; 'I' for Inactive)
REMARK       I    between atoms: C3_3  and  N1_5 
REMARK    1  A    between atoms: C13_16  and  C14_17 
REMARK    2  A    between atoms: C18_23  and  C19_24 
REMARK    3  A    between atoms: C19_24  and  O6_26 
REMARK    4  A    between atoms: O6_26  and  C20_27 
REMARK    5  A    between atoms: C20_27  and  C21_28 
REMARK    6  A    between atoms: C21_28  and  C22_29 
ROOT
HETATM    1  C1  UNL     1      24.116  -3.810  10.992  1.00  0.00     0.108 C 
HETATM    2  C2  UNL     1      24.398  -2.875  10.246  1.00  0.00    -0.088 C 
HETATM    3  C3  UNL     1      24.754  -1.801   9.389  1.00  0.00     0.286 C 
HETATM    4  O1  UNL     1      25.993  -1.518   9.371  1.00  0.00    -0.259 OA
HETATM    5  N1  UNL     1      23.785  -1.092   8.604  1.00  0.00    -0.331 N 
HETATM    6  C4  UNL     1      22.470  -1.582   8.798  1.00  0.00     0.132 C 
HETATM    7  C5  UNL     1      21.329  -0.646   8.891  1.00  0.00     0.008 C 
HETATM    8  C6  UNL     1      20.150  -1.383   9.509  1.00  0.00     0.012 C 
HETATM    9  C7  UNL     1      20.834  -0.091   7.600  1.00  0.00     0.044 C 
HETATM   10  C8  UNL     1      20.518  -1.083   6.536  1.00  0.00     0.175 C 
HETATM   11  O2  UNL     1      21.855  -0.946   6.116  1.00  0.00    -0.384 OA
HETATM   12  C9  UNL     1      21.949   0.278   6.651  1.00  0.00     0.134 C 
HETATM   13  C10 UNL     1      23.098   0.842   7.345  1.00  0.00     0.044 C 
HETATM   14  C11 UNL     1      23.584   2.104   6.634  1.00  0.00     0.010 C 
HETATM   15  C12 UNL     1      24.836   1.927   5.882  1.00  0.00     0.006 C 
HETATM   16  C13 UNL     1      25.022   0.496   5.435  1.00  0.00     0.010 C 
HETATM   17  C18 UNL     1      25.208  -0.332   6.683  1.00  0.00     0.118 C 
HETATM   18  C25 UNL     1      24.248  -0.028   7.766  1.00  0.00     0.051 C 
HETATM   19  C26 UNL     1      25.000   0.888   8.797  1.00  0.00     0.040 C 
ENDROOT
BRANCH  17  20
HETATM   20  C19 UNL     1      25.486  -1.702   6.309  1.00  0.00     0.265 C 
HETATM   21  O5  UNL     1      26.508  -2.308   6.711  1.00  0.00    -0.265 OA
BRANCH  20  22
HETATM   22  O6  UNL     1      24.690  -2.499   5.491  1.00  0.00    -0.321 OA
BRANCH  22  23
HETATM   23  C20 UNL     1      25.131  -3.134   4.336  1.00  0.00     0.186 C 
BRANCH  23  24
HETATM   24  C21 UNL     1      23.915  -3.474   3.498  1.00  0.00     0.111 C 
BRANCH  24  25
HETATM   25  C22 UNL     1      23.115  -2.261   3.184  1.00  0.00     0.125 A 
HETATM   26  N2  UNL     1      21.806  -2.134   3.403  1.00  0.00    -0.348 N 
HETATM   27  C23 UNL     1      21.441  -0.895   2.989  1.00  0.00     0.114 A 
ATOM     28  H2  UNL     1      21.191  -2.841   3.807  1.00  0.00     0.167 HD
HETATM   29  C24 UNL     1      22.578  -0.296   2.519  1.00  0.00     0.161 A 
HETATM   30  O7  UNL     1      23.547  -1.161   2.662  1.00  0.00    -0.308 OA
ENDBRANCH  24  25
ENDBRANCH  23  24
ENDBRANCH  22  23
ENDBRANCH  20  22
ENDBRANCH  17  20
BRANCH  16  31
HETATM   31  C14 UNL     1      26.204   0.506   4.514  1.00  0.00     0.038 C 
HETATM   32  C15 UNL     1      27.447   1.148   5.072  1.00  0.00     0.177 C 
HETATM   33  O3  UNL     1      28.355   1.191   3.983  1.00  0.00    -0.367 OA
HETATM   34  C16 UNL     1      27.966   2.275   3.198  1.00  0.00     0.337 C 
HETATM   35  O4  UNL     1      26.584   2.486   3.258  1.00  0.00    -0.367 OA
HETATM   36  C17 UNL     1      25.872   1.308   3.258  1.00  0.00     0.177 C 
ENDBRANCH  16  31
TORSDOF 6
ENDMDL
MODEL 5
REMARK VINA RESULT: -6.094499638      4.439      7.897
REMARK  6 active torsions:
REMARK  status: ('A' for Active; 'I' for Inactive)
REMARK       I    between atoms: C3_3  and  N1_5 
REMARK    1  A    between atoms: C13_16  and  C14_17 
REMARK    2  A    between atoms: C18_23  and  C19_24 
REMARK    3  A    between atoms: C19_24  and  O6_26 
REMARK    4  A    between atoms: O6_26  and  C20_27 
REMARK    5  A    between atoms: C20_27  and  C21_28 
REMARK    6  A    between atoms: C21_28  and  C22_29 
ROOT
HETATM    1  C1  UNL     1      25.688  -2.518  10.497  1.00  0.00     0.108 C 
HETATM    2  C2  UNL     1      25.259  -2.050  11.550  1.00  0.00    -0.088 C 
HETATM    3  C3  UNL     1      24.745  -1.492  12.750  1.00  0.00     0.286 C 
HETATM    4  O1  UNL     1      23.984  -0.486  12.589  1.00  0.00    -0.259 OA
HETATM    5  N1  UNL     1      25.061  -2.027  14.042  1.00  0.00    -0.331 N 
HETATM    6  C4  UNL     1      25.933  -3.141  13.967  1.00  0.00     0.132 C 
HETATM    7  C5  UNL     1      27.032  -3.299  14.945  1.00  0.00     0.008 C 
HETATM    8  C6  UNL     1      28.030  -4.303  14.390  1.00  0.00     0.012 C 
HETATM    9  C7  UNL     1      26.639  -3.811  16.288  1.00  0.00     0.044 C 
HETATM   10  C8  UNL     1      25.836  -5.064  16.306  1.00  0.00     0.175 C 
HETATM   11  O2  UNL     1      24.693  -4.244  16.253  1.00  0.00    -0.384 OA
HETATM   12  C9  UNL     1      25.350  -3.210  16.795  1.00  0.00     0.134 C 
HETATM   13  C10 UNL     1      25.219  -1.805  16.435  1.00  0.00     0.044 C 
HETATM   14  C11 UNL     1      24.772  -0.984  17.642  1.00  0.00     0.010 C 
HETATM   15  C12 UNL     1      23.367  -0.548  17.588  1.00  0.00     0.006 C 
HETATM   16  C13 UNL     1      22.524  -1.484  16.755  1.00  0.00     0.010 C 
HETATM   17  C18 UNL     1      23.014  -1.367  15.333  1.00  0.00     0.118 C 
HETATM   18  C25 UNL     1      24.486  -1.394  15.190  1.00  0.00     0.051 C 
HETATM   19  C26 UNL     1      24.952   0.095  15.004  1.00  0.00     0.040 C 
ENDROOT
BRANCH  17  20
HETATM   20  C19 UNL     1      22.176  -2.174  14.472  1.00  0.00     0.265 C 
HETATM   21  O5  UNL     1      22.210  -3.428  14.495  1.00  0.00    -0.265 OA
BRANCH  20  22
HETATM   22  O6  UNL     1      21.259  -1.689  13.543  1.00  0.00    -0.321 OA
BRANCH  22  23
HETATM   23  C20 UNL     1      21.046  -2.236  12.283  1.00  0.00     0.186 C 
BRANCH  23  24
HETATM   24  C21 UNL     1      19.551  -2.283  12.044  1.00  0.00     0.111 C 
BRANCH  24  25
HETATM   25  C22 UNL     1      19.145  -1.355  10.956  1.00  0.00     0.125 A 
HETATM   26  N2  UNL     1      19.823  -1.165   9.824  1.00  0.00    -0.348 N 
HETATM   27  C23 UNL     1      19.141  -0.251   9.088  1.00  0.00     0.114 A 
ATOM     28  H2  UNL     1      20.695  -1.623   9.559  1.00  0.00     0.167 HD
HETATM   29  C24 UNL     1      18.040   0.091   9.824  1.00  0.00     0.161 A 
HETATM   30  O7  UNL     1      18.095  -0.601  10.931  1.00  0.00    -0.308 OA
ENDBRANCH  24  25
ENDBRANCH  23  24
ENDBRANCH  22  23
ENDBRANCH  20  22
ENDBRANCH  17  20
BRANCH  16  31
HETATM   31  C14 UNL     1      21.105  -1.048  16.961  1.00  0.00     0.038 C 
HETATM   32  C15 UNL     1      20.934   0.366  17.451  1.00  0.00     0.177 C 
HETATM   33  O3  UNL     1      19.547   0.489  17.730  1.00  0.00    -0.367 OA
HETATM   34  C16 UNL     1      19.347  -0.123  18.966  1.00  0.00     0.337 C 
HETATM   35  O4  UNL     1      20.241  -1.180  19.170  1.00  0.00    -0.367 OA
HETATM   36  C17 UNL     1      20.448  -1.921  18.029  1.00  0.00     0.177 C 
ENDBRANCH  16  31
TORSDOF 6
ENDMDL
