MODEL 1
REMARK VINA RESULT: -7.234565195      0.000      0.000
REMARK  8 active torsions:
REMARK  status: ('A' for Active; 'I' for Inactive)
REMARK    1  A    between atoms: C2_2  and  N1_3 
REMARK       I    between atoms: N1_3  and  C3_4 
REMARK    2  A    between atoms: N1_3  and  C18_31 
REMARK    3  A    between atoms: C3_4  and  O2_6 
REMARK    4  A    between atoms: O2_6  and  C4_7 
REMARK    5  A    between atoms: C4_7  and  C5_8 
REMARK    6  A    between atoms: N2_13  and  C9_14 
REMARK    7  A    between atoms: C10_17  and  N4_18 
REMARK    8  A    between atoms: N4_18  and  C11_20 
ROOT
HETATM    1  C5  UNL     1      26.411  -2.173   9.503  1.00  0.00     0.030 C 
HETATM    2  C6  UNL     1      27.660  -1.427   9.298  1.00  0.00     0.017 C 
HETATM    3  C7  UNL     1      27.476   0.078   9.299  1.00  0.00     0.104 C 
HETATM    4  C8  UNL     1      26.055   0.434   9.034  1.00  0.00     0.238 C 
HETATM    5  O3  UNL     1      25.598   1.544   9.432  1.00  0.00    -0.273 OA
HETATM    6  N2  UNL     1      25.183  -0.437   8.342  1.00  0.00    -0.150 N 
HETATM    7  C17 UNL     1      25.400  -1.857   8.385  1.00  0.00     0.157 C 
ENDROOT
BRANCH   1   8
HETATM    8  C4  UNL     1      25.722  -2.179  10.811  1.00  0.00     0.186 C 
BRANCH   8   9
HETATM    9  O2  UNL     1      24.577  -2.855  10.982  1.00  0.00    -0.303 OA
BRANCH   9  10
HETATM   10  C3  UNL     1      23.257  -2.642  11.057  1.00  0.00     0.363 C 
HETATM   11  N1  UNL     1      22.585  -2.274  12.292  1.00  0.00    -0.321 N 
HETATM   12  O1  UNL     1      22.576  -2.765  10.012  1.00  0.00    -0.238 OA
BRANCH  11  13
HETATM   13  C2  UNL     1      21.169  -2.074  12.229  1.00  0.00     0.124 C 
HETATM   14  C1  UNL     1      20.372  -3.364  12.328  1.00  0.00     0.026 C 
ENDBRANCH  11  13
BRANCH  11  15
HETATM   15  C18 UNL     1      23.371  -2.130  13.503  1.00  0.00     0.120 C 
HETATM   16  C19 UNL     1      23.704  -3.415  14.180  1.00  0.00     0.054 C 
HETATM   17  C20 UNL     1      22.795  -3.794  15.299  1.00  0.00     0.173 C 
HETATM   18  O4  UNL     1      23.203  -3.163  16.464  1.00  0.00    -0.361 OA
HETATM   19  C21 UNL     1      22.813  -1.844  16.465  1.00  0.00     0.260 C 
HETATM   20  C22 UNL     1      23.964  -0.882  16.315  1.00  0.00     0.063 C 
HETATM   21  O5  UNL     1      21.959  -1.630  15.406  1.00  0.00    -0.354 OA
HETATM   22  C23 UNL     1      23.632  -0.161  15.025  1.00  0.00     0.039 C 
HETATM   23  C24 UNL     1      22.669  -1.125  14.363  1.00  0.00     0.147 C 
ENDBRANCH  11  15
ENDBRANCH   9  10
ENDBRANCH   8   9
ENDBRANCH   1   8
BRANCH   6  24
HETATM   24  C9  UNL     1      24.070   0.034   7.580  1.00  0.00     0.702 A 
HETATM   25  N3  UNL     1      22.825  -0.427   7.797  1.00  0.00    -0.022 N 
HETATM   26  C10 UNL     1      21.773   0.022   7.074  1.00  0.00     0.693 A 
ATOM     27  H3  UNL     1      22.671  -1.128   8.521  1.00  0.00     0.203 HD
HETATM   28  N5  UNL     1      22.034   0.948   6.129  1.00  0.00    -0.187 N 
HETATM   29  C16 UNL     1      23.267   1.427   5.889  1.00  0.00     0.215 A 
ATOM     30  H5  UNL     1      21.259   1.303   5.569  1.00  0.00     0.185 HD
HETATM   31  N6  UNL     1      24.295   0.955   6.632  1.00  0.00    -0.186 N 
ATOM     32  H6  UNL     1      25.241   1.300   6.471  1.00  0.00     0.185 HD
BRANCH  26  33
HETATM   33  N4  UNL     1      20.574  -0.415   7.279  1.00  0.00    -0.221 N 
ATOM     34  H4  UNL     1      20.144  -1.074   6.629  1.00  0.00     0.178 HD
BRANCH  33  35
HETATM   35  C11 UNL     1      19.860   0.040   8.433  1.00  0.00     0.099 C 
HETATM   36  C12 UNL     1      19.436  -1.104   9.350  1.00  0.00     0.026 C 
HETATM   37  C13 UNL     1      18.462  -0.367  10.276  1.00  0.00     0.002 C 
HETATM   38  C14 UNL     1      17.766   0.648   9.378  1.00  0.00     0.002 C 
HETATM   39  C15 UNL     1      18.504   0.630   8.068  1.00  0.00     0.026 C 
ENDBRANCH  33  35
ENDBRANCH  26  33
ENDBRANCH   6  24
TORSDOF 8
ENDMDL
MODEL 2
REMARK VINA RESULT: -7.108893408      2.169      3.536
REMARK  8 active torsions:
REMARK  status: ('A' for Active; 'I' for Inactive)
REMARK    1  A    between atoms: C2_2  and  N1_3 
REMARK       I    between atoms: N1_3  and  C3_4 
REMARK    2  A    between atoms: N1_3  and  C18_31 
REMARK    3  A    between atoms: C3_4  and  O2_6 
REMARK    4  A    between atoms: O2_6  and  C4_7 
REMARK    5  A    between atoms: C4_7  and  C5_8 
REMARK    6  A    between atoms: N2_13  and  C9_14 
REMARK    7  A    between atoms: C10_17  and  N4_18 
REMARK    8  A    between atoms: N4_18  and  C11_20 
ROOT
HETATM    1  C5  UNL     1      26.837  -1.871   8.070  1.00  0.00     0.030 C 
HETATM    2  C6  UNL     1      27.681  -2.172   6.905  1.00  0.00     0.017 C 
HETATM    3  C7  UNL     1      27.386  -1.302   5.700  1.00  0.00     0.104 C 
HETATM    4  C8  UNL     1      26.032  -0.692   5.810  1.00  0.00     0.238 C 
HETATM    5  O3  UNL     1      25.771   0.380   5.193  1.00  0.00    -0.273 OA
HETATM    6  N2  UNL     1      25.010  -1.277   6.593  1.00  0.00    -0.150 N 
HETATM    7  C17 UNL     1      25.350  -2.085   7.731  1.00  0.00     0.157 C 
ENDROOT
BRANCH   1   8
HETATM    8  C4  UNL     1      26.998  -0.618   8.837  1.00  0.00     0.186 C 
BRANCH   8   9
HETATM    9  O2  UNL     1      27.229  -0.643  10.156  1.00  0.00    -0.303 OA
BRANCH   9  10
HETATM   10  C3  UNL     1      27.528  -1.510  11.133  1.00  0.00     0.363 C 
HETATM   11  N1  UNL     1      26.515  -2.220  11.895  1.00  0.00    -0.321 N 
HETATM   12  O1  UNL     1      28.736  -1.714  11.395  1.00  0.00    -0.238 OA
BRANCH  11  13
HETATM   13  C2  UNL     1      26.975  -3.120  12.909  1.00  0.00     0.124 C 
HETATM   14  C1  UNL     1      27.133  -2.465  14.271  1.00  0.00     0.026 C 
ENDBRANCH  11  13
BRANCH  11  15
HETATM   15  C18 UNL     1      25.116  -1.986  11.593  1.00  0.00     0.120 C 
HETATM   16  C19 UNL     1      24.503  -0.854  12.344  1.00  0.00     0.054 C 
HETATM   17  C20 UNL     1      23.754  -1.243  13.573  1.00  0.00     0.173 C 
HETATM   18  O4  UNL     1      22.462  -1.616  13.232  1.00  0.00    -0.361 OA
HETATM   19  C21 UNL     1      22.446  -2.886  12.703  1.00  0.00     0.260 C 
HETATM   20  C22 UNL     1      22.146  -2.913  11.227  1.00  0.00     0.063 C 
HETATM   21  O5  UNL     1      23.686  -3.458  12.880  1.00  0.00    -0.354 OA
HETATM   22  C23 UNL     1      23.396  -3.535  10.641  1.00  0.00     0.039 C 
HETATM   23  C24 UNL     1      24.411  -3.299  11.741  1.00  0.00     0.147 C 
ENDBRANCH  11  15
ENDBRANCH   9  10
ENDBRANCH   8   9
ENDBRANCH   1   8
BRANCH   6  24
HETATM   24  C9  UNL     1      23.623  -1.105   6.300  1.00  0.00     0.702 A 
HETATM   25  N3  UNL     1      22.830  -0.346   7.078  1.00  0.00    -0.022 N 
HETATM   26  C10 UNL     1      21.516  -0.184   6.797  1.00  0.00     0.693 A 
ATOM     27  H3  UNL     1      23.227   0.118   7.895  1.00  0.00     0.203 HD
HETATM   28  N5  UNL     1      21.043  -0.819   5.706  1.00  0.00    -0.187 N 
HETATM   29  C16 UNL     1      21.811  -1.585   4.910  1.00  0.00     0.215 A 
ATOM     30  H5  UNL     1      20.056  -0.714   5.472  1.00  0.00     0.185 HD
HETATM   31  N6  UNL     1      23.121  -1.723   5.222  1.00  0.00    -0.186 N 
ATOM     32  H6  UNL     1      23.726  -2.298   4.637  1.00  0.00     0.185 HD
BRANCH  26  33
HETATM   33  N4  UNL     1      20.750   0.546   7.540  1.00  0.00    -0.221 N 
ATOM     34  H4  UNL     1      21.005   1.508   7.761  1.00  0.00     0.178 HD
BRANCH  33  35
HETATM   35  C11 UNL     1      19.536  -0.020   8.046  1.00  0.00     0.099 C 
HETATM   36  C12 UNL     1      18.482   1.037   8.362  1.00  0.00     0.026 C 
HETATM   37  C13 UNL     1      17.474   0.193   9.151  1.00  0.00     0.002 C 
HETATM   38  C14 UNL     1      18.328  -0.790   9.942  1.00  0.00     0.002 C 
HETATM   39  C15 UNL     1      19.731  -0.648   9.421  1.00  0.00     0.026 C 
ENDBRANCH  33  35
ENDBRANCH  26  33
ENDBRANCH   6  24
TORSDOF 8
ENDMDL
MODEL 3
REMARK VINA RESULT: -7.065051038      2.782      4.645
REMARK  8 active torsions:
REMARK  status: ('A' for Active; 'I' for Inactive)
REMARK    1  A    between atoms: C2_2  and  N1_3 
REMARK       I    between atoms: N1_3  and  C3_4 
REMARK    2  A    between atoms: N1_3  and  C18_31 
REMARK    3  A    between atoms: C3_4  and  O2_6 
REMARK    4  A    between atoms: O2_6  and  C4_7 
REMARK    5  A    between atoms: C4_7  and  C5_8 
REMARK    6  A    between atoms: N2_13  and  C9_14 
REMARK    7  A    between atoms: C10_17  and  N4_18 
REMARK    8  A    between atoms: N4_18  and  C11_20 
ROOT
HETATM    1  C5  UNL     1      22.566  -2.697  12.437  1.00  0.00     0.030 C 
HETATM    2  C6  UNL     1      23.642  -3.565  11.939  1.00  0.00     0.017 C 
HETATM    3  C7  UNL     1      24.347  -3.018  10.714  1.00  0.00     0.104 C 
HETATM    4  C8  UNL     1      23.502  -1.998  10.033  1.00  0.00     0.238 C 
HETATM    5  O3  UNL     1      24.042  -1.116   9.306  1.00  0.00    -0.273 OA
HETATM    6  N2  UNL     1      22.096  -1.980  10.170  1.00  0.00    -0.150 N 
HETATM    7  C17 UNL     1      21.482  -2.505  11.359  1.00  0.00     0.157 C 
ENDROOT
BRANCH   1   8
HETATM    8  C4  UNL     1      22.858  -1.402  13.087  1.00  0.00     0.186 C 
BRANCH   8   9
HETATM    9  O2  UNL     1      21.994  -0.857  13.954  1.00  0.00    -0.303 OA
BRANCH   9  10
HETATM   10  C3  UNL     1      21.887  -0.571  15.258  1.00  0.00     0.363 C 
HETATM   11  N1  UNL     1      22.261   0.717  15.817  1.00  0.00    -0.321 N 
HETATM   12  O1  UNL     1      21.444  -1.457  16.025  1.00  0.00    -0.238 OA
BRANCH  11  13
HETATM   13  C2  UNL     1      22.093   0.888  17.229  1.00  0.00     0.124 C 
HETATM   14  C1  UNL     1      23.327   0.512  18.033  1.00  0.00     0.026 C 
ENDBRANCH  11  13
BRANCH  11  15
HETATM   15  C18 UNL     1      22.774   1.745  14.932  1.00  0.00     0.120 C 
HETATM   16  C19 UNL     1      24.237   1.656  14.664  1.00  0.00     0.054 C 
HETATM   17  C20 UNL     1      25.091   2.533  15.514  1.00  0.00     0.173 C 
HETATM   18  O4  UNL     1      25.145   3.805  14.964  1.00  0.00    -0.361 OA
HETATM   19  C21 UNL     1      23.990   4.501  15.234  1.00  0.00     0.260 C 
HETATM   20  C22 UNL     1      23.128   4.720  14.017  1.00  0.00     0.063 C 
HETATM   21  O5  UNL     1      23.241   3.789  16.144  1.00  0.00    -0.354 OA
HETATM   22  C23 UNL     1      21.845   4.002  14.381  1.00  0.00     0.039 C 
HETATM   23  C24 UNL     1      22.309   3.061  15.474  1.00  0.00     0.147 C 
ENDBRANCH  11  15
ENDBRANCH   9  10
ENDBRANCH   8   9
ENDBRANCH   1   8
BRANCH   6  24
HETATM   24  C9  UNL     1      21.231  -1.459   9.161  1.00  0.00     0.702 A 
HETATM   25  N3  UNL     1      20.216  -0.630   9.466  1.00  0.00    -0.022 N 
HETATM   26  C10 UNL     1      19.399  -0.136   8.507  1.00  0.00     0.693 A 
ATOM     27  H3  UNL     1      20.060  -0.367  10.439  1.00  0.00     0.203 HD
HETATM   28  N5  UNL     1      19.650  -0.515   7.238  1.00  0.00    -0.187 N 
HETATM   29  C16 UNL     1      20.655  -1.343   6.902  1.00  0.00     0.215 A 
ATOM     30  H5  UNL     1      19.048  -0.158   6.496  1.00  0.00     0.185 HD
HETATM   31  N6  UNL     1      21.452  -1.816   7.888  1.00  0.00    -0.186 N 
ATOM     32  H6  UNL     1      22.222  -2.445   7.663  1.00  0.00     0.185 HD
BRANCH  26  33
HETATM   33  N4  UNL     1      18.423   0.663   8.793  1.00  0.00    -0.221 N 
ATOM     34  H4  UNL     1      18.496   1.661   8.599  1.00  0.00     0.178 HD
BRANCH  33  35
HETATM   35  C11 UNL     1      17.239   0.121   9.388  1.00  0.00     0.099 C 
HETATM   36  C12 UNL     1      17.534  -1.041  10.332  1.00  0.00     0.026 C 
HETATM   37  C13 UNL     1      16.117  -1.588  10.545  1.00  0.00     0.002 C 
HETATM   38  C14 UNL     1      15.424  -1.402   9.202  1.00  0.00     0.002 C 
HETATM   39  C15 UNL     1      16.348  -0.565   8.360  1.00  0.00     0.026 C 
ENDBRANCH  33  35
ENDBRANCH  26  33
ENDBRANCH   6  24
TORSDOF 8
ENDMDL
MODEL 4
REMARK VINA RESULT: -7.001802094      2.723      7.133
REMARK  8 active torsions:
REMARK  status: ('A' for Active; 'I' for Inactive)
REMARK    1  A    between atoms: C2_2  and  N1_3 
REMARK       I    between atoms: N1_3  and  C3_4 
REMARK    2  A    between atoms: N1_3  and  C18_31 
REMARK    3  A    between atoms: C3_4  and  O2_6 
REMARK    4  A    between atoms: O2_6  and  C4_7 
REMARK    5  A    between atoms: C4_7  and  C5_8 
REMARK    6  A    between atoms: N2_13  and  C9_14 
REMARK    7  A    between atoms: C10_17  and  N4_18 
REMARK    8  A    between atoms: N4_18  and  C11_20 
ROOT
HETATM    1  C5  UNL     1      25.959  -1.385   9.988  1.00  0.00     0.030 C 
HETATM    2  C6  UNL     1      26.944  -1.579  11.060  1.00  0.00     0.017 C 
HETATM    3  C7  UNL     1      26.546  -2.638  12.068  1.00  0.00     0.104 C 
HETATM    4  C8  UNL     1      25.079  -2.890  12.014  1.00  0.00     0.238 C 
HETATM    5  O3  UNL     1      24.615  -3.999  12.405  1.00  0.00    -0.273 OA
HETATM    6  N2  UNL     1      24.171  -1.919  11.534  1.00  0.00    -0.150 N 
HETATM    7  C17 UNL     1      24.603  -0.944  10.571  1.00  0.00     0.157 C 
ENDROOT
BRANCH   1   8
HETATM    8  C4  UNL     1      25.743  -2.409   8.944  1.00  0.00     0.186 C 
BRANCH   8   9
HETATM    9  O2  UNL     1      26.058  -2.165   7.664  1.00  0.00    -0.303 OA
BRANCH   9  10
HETATM   10  C3  UNL     1      26.284  -1.135   6.839  1.00  0.00     0.363 C 
HETATM   11  N1  UNL     1      25.368  -0.762   5.774  1.00  0.00    -0.321 N 
HETATM   12  O1  UNL     1      27.332  -0.467   6.996  1.00  0.00    -0.238 OA
BRANCH  11  13
HETATM   13  C2  UNL     1      25.731   0.362   4.965  1.00  0.00     0.124 C 
HETATM   14  C1  UNL     1      26.633   0.000   3.797  1.00  0.00     0.026 C 
ENDBRANCH  11  13
BRANCH  11  15
HETATM   15  C18 UNL     1      24.154  -1.534   5.589  1.00  0.00     0.120 C 
HETATM   16  C19 UNL     1      24.202  -2.501   4.455  1.00  0.00     0.054 C 
HETATM   17  C20 UNL     1      23.603  -2.012   3.181  1.00  0.00     0.173 C 
HETATM   18  O4  UNL     1      22.232  -2.222   3.201  1.00  0.00    -0.361 OA
HETATM   19  C21 UNL     1      21.606  -1.271   3.974  1.00  0.00     0.260 C 
HETATM   20  C22 UNL     1      21.051  -1.822   5.262  1.00  0.00     0.063 C 
HETATM   21  O5  UNL     1      22.517  -0.294   4.304  1.00  0.00    -0.354 OA
HETATM   22  C23 UNL     1      21.810  -1.041   6.315  1.00  0.00     0.039 C 
HETATM   23  C24 UNL     1      23.019  -0.558   5.540  1.00  0.00     0.147 C 
ENDBRANCH  11  15
ENDBRANCH   9  10
ENDBRANCH   8   9
ENDBRANCH   1   8
BRANCH   6  24
HETATM   24  C9  UNL     1      22.814  -1.852  11.972  1.00  0.00     0.702 A 
HETATM   25  N3  UNL     1      21.792  -1.876  11.098  1.00  0.00    -0.022 N 
HETATM   26  C10 UNL     1      20.506  -1.814  11.516  1.00  0.00     0.693 A 
ATOM     27  H3  UNL     1      21.989  -1.943  10.099  1.00  0.00     0.203 HD
HETATM   28  N5  UNL     1      20.302  -1.726  12.846  1.00  0.00    -0.187 N 
HETATM   29  C16 UNL     1      21.302  -1.699  13.744  1.00  0.00     0.215 A 
ATOM     30  H5  UNL     1      19.342  -1.676  13.188  1.00  0.00     0.185 HD
HETATM   31  N6  UNL     1      22.575  -1.763  13.288  1.00  0.00    -0.186 N 
ATOM     32  H6  UNL     1      23.353  -1.744  13.947  1.00  0.00     0.185 HD
BRANCH  26  33
HETATM   33  N4  UNL     1      19.520  -1.839  10.681  1.00  0.00    -0.221 N 
ATOM     34  H4  UNL     1      19.127  -2.727  10.368  1.00  0.00     0.178 HD
BRANCH  33  35
HETATM   35  C11 UNL     1      18.988  -0.599  10.203  1.00  0.00     0.099 C 
HETATM   36  C12 UNL     1      17.487  -0.667   9.938  1.00  0.00     0.026 C 
HETATM   37  C13 UNL     1      17.284   0.643   9.166  1.00  0.00     0.002 C 
HETATM   38  C14 UNL     1      18.549   0.800   8.332  1.00  0.00     0.002 C 
HETATM   39  C15 UNL     1      19.507  -0.256   8.812  1.00  0.00     0.026 C 
ENDBRANCH  33  35
ENDBRANCH  26  33
ENDBRANCH   6  24
TORSDOF 8
ENDMDL
MODEL 5
REMARK VINA RESULT: -6.971031382      2.497      7.196
REMARK  8 active torsions:
REMARK  status: ('A' for Active; 'I' for Inactive)
REMARK    1  A    between atoms: C2_2  and  N1_3 
REMARK       I    between atoms: N1_3  and  C3_4 
REMARK    2  A    between atoms: N1_3  and  C18_31 
REMARK    3  A    between atoms: C3_4  and  O2_6 
REMARK    4  A    between atoms: O2_6  and  C4_7 
REMARK    5  A    between atoms: C4_7  and  C5_8 
REMARK    6  A    between atoms: N2_13  and  C9_14 
REMARK    7  A    between atoms: C10_17  and  N4_18 
REMARK    8  A    between atoms: N4_18  and  C11_20 
ROOT
HETATM    1  C5  UNL     1      26.180  -1.167  10.562  1.00  0.00     0.030 C 
HETATM    2  C6  UNL     1      27.194  -1.752  11.451  1.00  0.00     0.017 C 
HETATM    3  C7  UNL     1      26.698  -2.954  12.230  1.00  0.00     0.104 C 
HETATM    4  C8  UNL     1      25.210  -2.972  12.278  1.00  0.00     0.238 C 
HETATM    5  O3  UNL     1      24.598  -4.064  12.454  1.00  0.00    -0.273 OA
HETATM    6  N2  UNL     1      24.443  -1.794  12.131  1.00  0.00    -0.150 N 
HETATM    7  C17 UNL     1      24.960  -0.689  11.372  1.00  0.00     0.157 C 
ENDROOT
BRANCH   1   8
HETATM    8  C4  UNL     1      25.725  -1.868   9.343  1.00  0.00     0.186 C 
BRANCH   8   9
HETATM    9  O2  UNL     1      24.856  -1.291   8.502  1.00  0.00    -0.303 OA
BRANCH   9  10
HETATM   10  C3  UNL     1      23.539  -1.229   8.266  1.00  0.00     0.363 C 
HETATM   11  N1  UNL     1      22.985  -0.939   6.954  1.00  0.00    -0.321 N 
HETATM   12  O1  UNL     1      22.755  -1.431   9.222  1.00  0.00    -0.238 OA
BRANCH  11  13
HETATM   13  C2  UNL     1      21.558  -0.905   6.842  1.00  0.00     0.124 C 
HETATM   14  C1  UNL     1      20.954   0.436   7.226  1.00  0.00     0.026 C 
ENDBRANCH  11  13
BRANCH  11  15
HETATM   15  C18 UNL     1      23.890  -0.705   5.845  1.00  0.00     0.120 C 
HETATM   16  C19 UNL     1      24.225   0.729   5.613  1.00  0.00     0.054 C 
HETATM   17  C20 UNL     1      23.412   1.407   4.564  1.00  0.00     0.173 C 
HETATM   18  O4  UNL     1      23.961   1.156   3.315  1.00  0.00    -0.361 OA
HETATM   19  C21 UNL     1      23.637  -0.110   2.887  1.00  0.00     0.260 C 
HETATM   20  C22 UNL     1      24.812  -1.053   2.872  1.00  0.00     0.063 C 
HETATM   21  O5  UNL     1      22.695  -0.643   3.739  1.00  0.00    -0.354 OA
HETATM   22  C23 UNL     1      24.392  -2.130   3.851  1.00  0.00     0.039 C 
HETATM   23  C24 UNL     1      23.324  -1.422   4.659  1.00  0.00     0.147 C 
ENDBRANCH  11  15
ENDBRANCH   9  10
ENDBRANCH   8   9
ENDBRANCH   1   8
BRANCH   6  24
HETATM   24  C9  UNL     1      23.149  -1.640  12.716  1.00  0.00     0.702 A 
HETATM   25  N3  UNL     1      22.041  -2.084  12.096  1.00  0.00    -0.022 N 
HETATM   26  C10 UNL     1      20.816  -1.937  12.653  1.00  0.00     0.693 A 
ATOM     27  H3  UNL     1      22.125  -2.540  11.188  1.00  0.00     0.203 HD
HETATM   28  N5  UNL     1      20.763  -1.326  13.854  1.00  0.00    -0.187 N 
HETATM   29  C16 UNL     1      21.852  -0.872  14.498  1.00  0.00     0.215 A 
ATOM     30  H5  UNL     1      19.852  -1.202  14.296  1.00  0.00     0.185 HD
HETATM   31  N6  UNL     1      23.060  -1.037  13.909  1.00  0.00    -0.186 N 
ATOM     32  H6  UNL     1      23.903  -0.701  14.374  1.00  0.00     0.185 HD
BRANCH  26  33
HETATM   33  N4  UNL     1      19.748  -2.363  12.063  1.00  0.00    -0.221 N 
ATOM     34  H4  UNL     1      19.542  -3.361  12.020  1.00  0.00     0.178 HD
BRANCH  33  35
HETATM   35  C11 UNL     1      18.859  -1.410  11.472  1.00  0.00     0.099 C 
HETATM   36  C12 UNL     1      17.505  -2.015  11.111  1.00  0.00     0.026 C 
HETATM   37  C13 UNL     1      16.924  -0.890  10.245  1.00  0.00     0.002 C 
HETATM   38  C14 UNL     1      18.120  -0.325   9.490  1.00  0.00     0.002 C 
HETATM   39  C15 UNL     1      19.342  -0.955  10.100  1.00  0.00     0.026 C 
ENDBRANCH  33  35
ENDBRANCH  26  33
ENDBRANCH   6  24
TORSDOF 8
ENDMDL
