MODEL 1
REMARK VINA RESULT: -7.768683685      0.000      0.000
REMARK  6 active torsions:
REMARK  status: ('A' for Active; 'I' for Inactive)
REMARK    1  A    between atoms: C2_2  and  C3_3 
REMARK    2  A    between atoms: C8_17  and  N2_18 
REMARK    3  A    between atoms: N2_18  and  C9_20 
REMARK    4  A    between atoms: C9_20  and  C10_21 
REMARK    5  A    between atoms: C10_21  and  N3_22 
REMARK    6  A    between atoms: C14_28  and  C15_29 
ROOT
HETATM    1  C3  UNL     1      24.252  -0.457   3.572  1.00  0.00     0.147 C 
HETATM    2  O1  UNL     1      25.355   0.379   3.596  1.00  0.00    -0.356 OA
HETATM    3  C4  UNL     1      25.344   1.594   3.083  1.00  0.00     0.311 A 
HETATM    4  C5  UNL     1      24.644   2.636   3.895  1.00  0.00     0.056 A 
HETATM    5  N1  UNL     1      23.865   3.122   3.013  1.00  0.00    -0.285 N 
ATOM      6  H1  UNL     1      23.169   3.868   3.052  1.00  0.00     0.178 HD
HETATM    7  S1  UNL     1      24.380   2.102   1.742  1.00  0.00     0.263 S 
HETATM    8  O2  UNL     1      25.131   2.839   0.656  1.00  0.00    -0.203 OA
HETATM    9  O3  UNL     1      23.371   1.195   1.162  1.00  0.00    -0.203 OA
HETATM   10  C6  UNL     1      24.870   2.944   5.336  1.00  0.00     0.197 C 
HETATM   11  S2  UNL     1      24.200   1.557   6.232  1.00  0.00     0.151 S 
HETATM   12  O4  UNL     1      24.374   1.894   7.708  1.00  0.00    -0.227 OA
HETATM   13  O5  UNL     1      22.723   1.584   5.983  1.00  0.00    -0.227 OA
HETATM   14  C7  UNL     1      24.974   0.035   5.858  1.00  0.00     0.168 C 
HETATM   15  C8  UNL     1      24.068  -0.902   5.012  1.00  0.00     0.123 C 
ENDROOT
BRANCH  15  16
HETATM   16  N2  UNL     1      22.813  -0.807   5.581  1.00  0.00    -0.393 N 
ATOM     17  H2  UNL     1      22.758  -0.271   6.447  1.00  0.00     0.159 HD
BRANCH  16  18
HETATM   18  C9  UNL     1      21.625  -1.343   5.131  1.00  0.00     0.077 C 
BRANCH  18  19
HETATM   19  C10 UNL     1      20.607  -1.817   6.122  1.00  0.00     0.186 C 
BRANCH  19  20
HETATM   20  N3  UNL     1      20.445  -1.013   7.293  1.00  0.00    -0.318 N 
HETATM   21  N4  UNL     1      19.338  -0.113   7.391  1.00  0.00    -0.311 N 
HETATM   22  C11 UNL     1      18.942   0.019   8.601  1.00  0.00     0.002 C 
ATOM     23  H4  UNL     1      18.916   0.364   6.594  1.00  0.00     0.186 HD
HETATM   24  C12 UNL     1      17.806   0.890   9.011  1.00  0.00     0.065 C 
HETATM   25  C13 UNL     1      19.833  -0.830   9.460  1.00  0.00     0.081 C 
HETATM   26  C14 UNL     1      21.088  -0.833   8.554  1.00  0.00     0.112 C 
BRANCH  26  27
HETATM   27  C15 UNL     1      22.022  -1.854   9.044  1.00  0.00     0.010 C 
HETATM   28  C16 UNL     1      23.472  -1.414   9.034  1.00  0.00     0.007 C 
HETATM   29  C17 UNL     1      24.174  -1.642  10.347  1.00  0.00     0.000 C 
HETATM   30  C18 UNL     1      23.984  -3.014  10.906  1.00  0.00     0.000 C 
HETATM   31  C19 UNL     1      22.511  -3.276  11.045  1.00  0.00     0.000 C 
HETATM   32  C20 UNL     1      21.673  -2.122  10.515  1.00  0.00     0.007 C 
ENDBRANCH  26  27
ENDBRANCH  19  20
ENDBRANCH  18  19
ENDBRANCH  16  18
ENDBRANCH  15  16
BRANCH   1  33
HETATM   33  C2  UNL     1      24.710  -1.594   2.654  1.00  0.00     0.029 C 
HETATM   34  C1  UNL     1      24.007  -2.889   2.851  1.00  0.00     0.007 C 
ENDBRANCH   1  33
TORSDOF 6
ENDMDL
MODEL 2
REMARK VINA RESULT: -7.475641687      2.571      4.039
REMARK  6 active torsions:
REMARK  status: ('A' for Active; 'I' for Inactive)
REMARK    1  A    between atoms: C2_2  and  C3_3 
REMARK    2  A    between atoms: C8_17  and  N2_18 
REMARK    3  A    between atoms: N2_18  and  C9_20 
REMARK    4  A    between atoms: C9_20  and  C10_21 
REMARK    5  A    between atoms: C10_21  and  N3_22 
REMARK    6  A    between atoms: C14_28  and  C15_29 
ROOT
HETATM    1  C3  UNL     1      23.875  -0.248   6.487  1.00  0.00     0.147 C 
HETATM    2  O1  UNL     1      24.601   0.069   5.352  1.00  0.00    -0.356 OA
HETATM    3  C4  UNL     1      25.326  -0.816   4.695  1.00  0.00     0.311 A 
HETATM    4  C5  UNL     1      24.562  -1.773   3.836  1.00  0.00     0.056 A 
HETATM    5  N1  UNL     1      25.040  -2.878   4.251  1.00  0.00    -0.285 N 
ATOM      6  H1  UNL     1      24.852  -3.845   3.987  1.00  0.00     0.178 HD
HETATM    7  S1  UNL     1      26.103  -2.189   5.399  1.00  0.00     0.263 S 
HETATM    8  O2  UNL     1      27.561  -2.358   5.035  1.00  0.00    -0.203 OA
HETATM    9  O3  UNL     1      25.870  -2.534   6.815  1.00  0.00    -0.203 OA
HETATM   10  C6  UNL     1      23.543  -1.426   2.804  1.00  0.00     0.197 C 
HETATM   11  S2  UNL     1      22.123  -0.847   3.711  1.00  0.00     0.151 S 
HETATM   12  O4  UNL     1      21.057  -0.548   2.664  1.00  0.00    -0.227 OA
HETATM   13  O5  UNL     1      21.616  -2.030   4.477  1.00  0.00    -0.227 OA
HETATM   14  C7  UNL     1      22.437   0.571   4.684  1.00  0.00     0.168 C 
HETATM   15  C8  UNL     1      22.470   0.254   6.205  1.00  0.00     0.123 C 
ENDROOT
BRANCH  15  16
HETATM   16  N2  UNL     1      21.405  -0.596   6.423  1.00  0.00    -0.393 N 
ATOM     17  H2  UNL     1      21.224  -1.279   5.688  1.00  0.00     0.159 HD
BRANCH  16  18
HETATM   18  C9  UNL     1      20.553  -0.642   7.507  1.00  0.00     0.077 C 
BRANCH  18  19
HETATM   19  C10 UNL     1      20.989  -1.339   8.759  1.00  0.00     0.186 C 
BRANCH  19  20
HETATM   20  N3  UNL     1      20.080  -1.286   9.860  1.00  0.00    -0.318 N 
HETATM   21  N4  UNL     1      18.752  -0.794   9.663  1.00  0.00    -0.311 N 
HETATM   22  C11 UNL     1      17.914  -1.371  10.441  1.00  0.00     0.002 C 
ATOM     23  H4  UNL     1      18.503  -0.074   8.985  1.00  0.00     0.186 HD
HETATM   24  C12 UNL     1      16.456  -1.067  10.461  1.00  0.00     0.065 C 
HETATM   25  C13 UNL     1      18.683  -2.344  11.286  1.00  0.00     0.081 C 
HETATM   26  C14 UNL     1      20.063  -1.644  11.241  1.00  0.00     0.112 C 
BRANCH  26  27
HETATM   27  C15 UNL     1      21.078  -2.568  11.763  1.00  0.00     0.010 C 
HETATM   28  C16 UNL     1      22.362  -2.587  10.957  1.00  0.00     0.007 C 
HETATM   29  C17 UNL     1      23.598  -2.411  11.799  1.00  0.00     0.000 C 
HETATM   30  C18 UNL     1      23.647  -3.303  12.997  1.00  0.00     0.000 C 
HETATM   31  C19 UNL     1      22.413  -3.068  13.820  1.00  0.00     0.000 C 
HETATM   32  C20 UNL     1      21.467  -2.074  13.164  1.00  0.00     0.007 C 
ENDBRANCH  26  27
ENDBRANCH  19  20
ENDBRANCH  18  19
ENDBRANCH  16  18
ENDBRANCH  15  16
BRANCH   1  33
HETATM   33  C2  UNL     1      24.585   0.559   7.577  1.00  0.00     0.029 C 
HETATM   34  C1  UNL     1      24.640  -0.092   8.913  1.00  0.00     0.007 C 
ENDBRANCH   1  33
TORSDOF 6
ENDMDL
MODEL 3
REMARK VINA RESULT: -7.303182274      2.491      4.280
REMARK  6 active torsions:
REMARK  status: ('A' for Active; 'I' for Inactive)
REMARK    1  A    between atoms: C2_2  and  C3_3 
REMARK    2  A    between atoms: C8_17  and  N2_18 
REMARK    3  A    between atoms: N2_18  and  C9_20 
REMARK    4  A    between atoms: C9_20  and  C10_21 
REMARK    5  A    between atoms: C10_21  and  N3_22 
REMARK    6  A    between atoms: C14_28  and  C15_29 
ROOT
HETATM    1  C3  UNL     1      24.380  -0.475   6.307  1.00  0.00     0.147 C 
HETATM    2  O1  UNL     1      25.666  -0.264   5.839  1.00  0.00    -0.356 OA
HETATM    3  C4  UNL     1      26.679  -1.050   6.150  1.00  0.00     0.311 A 
HETATM    4  C5  UNL     1      26.726  -2.363   5.435  1.00  0.00     0.056 A 
HETATM    5  N1  UNL     1      26.847  -3.154   6.426  1.00  0.00    -0.285 N 
ATOM      6  H1  UNL     1      26.923  -4.169   6.483  1.00  0.00     0.178 HD
HETATM    7  S1  UNL     1      26.839  -1.935   7.625  1.00  0.00     0.263 S 
HETATM    8  O2  UNL     1      28.171  -1.781   8.324  1.00  0.00    -0.203 OA
HETATM    9  O3  UNL     1      25.733  -1.966   8.601  1.00  0.00    -0.203 OA
HETATM   10  C6  UNL     1      26.646  -2.580   3.962  1.00  0.00     0.197 C 
HETATM   11  S2  UNL     1      24.962  -2.206   3.515  1.00  0.00     0.151 S 
HETATM   12  O4  UNL     1      24.859  -2.484   2.019  1.00  0.00    -0.227 OA
HETATM   13  O5  UNL     1      24.121  -3.252   4.178  1.00  0.00    -0.227 OA
HETATM   14  C7  UNL     1      24.487  -0.560   3.864  1.00  0.00     0.168 C 
HETATM   15  C8  UNL     1      23.507  -0.466   5.066  1.00  0.00     0.123 C 
ENDROOT
BRANCH  15  16
HETATM   16  N2  UNL     1      22.604  -1.495   4.882  1.00  0.00    -0.393 N 
ATOM     17  H2  UNL     1      22.948  -2.299   4.357  1.00  0.00     0.159 HD
BRANCH  16  18
HETATM   18  C9  UNL     1      21.297  -1.575   5.314  1.00  0.00     0.077 C 
BRANCH  18  19
HETATM   19  C10 UNL     1      21.005  -2.096   6.687  1.00  0.00     0.186 C 
BRANCH  19  20
HETATM   20  N3  UNL     1      20.673  -1.118   7.676  1.00  0.00    -0.318 N 
HETATM   21  N4  UNL     1      19.830  -0.016   7.330  1.00  0.00    -0.311 N 
HETATM   22  C11 UNL     1      19.114   0.362   8.322  1.00  0.00     0.002 C 
ATOM     23  H4  UNL     1      19.803   0.416   6.406  1.00  0.00     0.186 HD
HETATM   24  C12 UNL     1      18.140   1.486   8.261  1.00  0.00     0.065 C 
HETATM   25  C13 UNL     1      19.468  -0.513   9.488  1.00  0.00     0.081 C 
HETATM   26  C14 UNL     1      20.908  -0.889   9.064  1.00  0.00     0.112 C 
BRANCH  26  27
HETATM   27  C15 UNL     1      21.377  -1.993   9.911  1.00  0.00     0.010 C 
HETATM   28  C16 UNL     1      22.833  -1.878  10.317  1.00  0.00     0.007 C 
HETATM   29  C17 UNL     1      23.054  -2.034  11.799  1.00  0.00     0.000 C 
HETATM   30  C18 UNL     1      22.375  -3.227  12.390  1.00  0.00     0.000 C 
HETATM   31  C19 UNL     1      20.907  -3.144  12.083  1.00  0.00     0.000 C 
HETATM   32  C20 UNL     1      20.570  -1.940  11.216  1.00  0.00     0.007 C 
ENDBRANCH  26  27
ENDBRANCH  19  20
ENDBRANCH  18  19
ENDBRANCH  16  18
ENDBRANCH  15  16
BRANCH   1  33
HETATM   33  C2  UNL     1      24.145   0.742   7.206  1.00  0.00     0.029 C 
HETATM   34  C1  UNL     1      23.001   1.607   6.816  1.00  0.00     0.007 C 
ENDBRANCH   1  33
TORSDOF 6
ENDMDL
MODEL 4
REMARK VINA RESULT: -7.257124894      1.833      3.447
REMARK  6 active torsions:
REMARK  status: ('A' for Active; 'I' for Inactive)
REMARK    1  A    between atoms: C2_2  and  C3_3 
REMARK    2  A    between atoms: C8_17  and  N2_18 
REMARK    3  A    between atoms: N2_18  and  C9_20 
REMARK    4  A    between atoms: C9_20  and  C10_21 
REMARK    5  A    between atoms: C10_21  and  N3_22 
REMARK    6  A    between atoms: C14_28  and  C15_29 
ROOT
HETATM    1  C3  UNL     1      24.173   0.742   6.033  1.00  0.00     0.147 C 
HETATM    2  O1  UNL     1      25.148   1.510   5.420  1.00  0.00    -0.356 OA
HETATM    3  C4  UNL     1      26.313   1.020   5.041  1.00  0.00     0.311 A 
HETATM    4  C5  UNL     1      26.296   0.198   3.792  1.00  0.00     0.056 A 
HETATM    5  N1  UNL     1      26.892  -0.850   4.204  1.00  0.00    -0.285 N 
ATOM      6  H1  UNL     1      27.140  -1.723   3.738  1.00  0.00     0.178 HD
HETATM    7  S1  UNL     1      27.137  -0.294   5.803  1.00  0.00     0.263 S 
HETATM    8  O2  UNL     1      28.592  -0.037   6.126  1.00  0.00    -0.203 OA
HETATM    9  O3  UNL     1      26.485  -1.060   6.883  1.00  0.00    -0.203 OA
HETATM   10  C6  UNL     1      25.716   0.588   2.475  1.00  0.00     0.197 C 
HETATM   11  S2  UNL     1      23.949   0.573   2.708  1.00  0.00     0.151 S 
HETATM   12  O4  UNL     1      23.350   0.913   1.348  1.00  0.00    -0.227 OA
HETATM   13  O5  UNL     1      23.582  -0.856   2.965  1.00  0.00    -0.227 OA
HETATM   14  C7  UNL     1      23.387   1.699   3.922  1.00  0.00     0.168 C 
HETATM   15  C8  UNL     1      22.915   0.988   5.219  1.00  0.00     0.123 C 
ENDROOT
BRANCH  15  16
HETATM   16  N2  UNL     1      22.177  -0.099   4.792  1.00  0.00    -0.393 N 
ATOM     17  H2  UNL     1      21.692   0.016   3.902  1.00  0.00     0.159 HD
BRANCH  16  18
HETATM   18  C9  UNL     1      22.011  -1.319   5.413  1.00  0.00     0.077 C 
BRANCH  18  19
HETATM   19  C10 UNL     1      20.731  -1.610   6.135  1.00  0.00     0.186 C 
BRANCH  19  20
HETATM   20  N3  UNL     1      20.521  -0.900   7.357  1.00  0.00    -0.318 N 
HETATM   21  N4  UNL     1      19.444   0.037   7.459  1.00  0.00    -0.311 N 
HETATM   22  C11 UNL     1      18.972   0.086   8.648  1.00  0.00     0.002 C 
ATOM     23  H4  UNL     1      19.096   0.596   6.681  1.00  0.00     0.186 HD
HETATM   24  C12 UNL     1      17.845   0.969   9.056  1.00  0.00     0.065 C 
HETATM   25  C13 UNL     1      19.770  -0.869   9.488  1.00  0.00     0.081 C 
HETATM   26  C14 UNL     1      21.083  -0.852   8.668  1.00  0.00     0.112 C 
BRANCH  26  27
HETATM   27  C15 UNL     1      21.941  -1.950   9.129  1.00  0.00     0.010 C 
HETATM   28  C16 UNL     1      23.422  -1.695   8.929  1.00  0.00     0.007 C 
HETATM   29  C17 UNL     1      24.241  -1.928  10.172  1.00  0.00     0.000 C 
HETATM   30  C18 UNL     1      23.958  -3.230  10.849  1.00  0.00     0.000 C 
HETATM   31  C19 UNL     1      22.491  -3.296  11.166  1.00  0.00     0.000 C 
HETATM   32  C20 UNL     1      21.737  -2.082  10.645  1.00  0.00     0.007 C 
ENDBRANCH  26  27
ENDBRANCH  19  20
ENDBRANCH  18  19
ENDBRANCH  16  18
ENDBRANCH  15  16
BRANCH   1  33
HETATM   33  C2  UNL     1      24.099   1.348   7.437  1.00  0.00     0.029 C 
HETATM   34  C1  UNL     1      24.290   2.821   7.501  1.00  0.00     0.007 C 
ENDBRANCH   1  33
TORSDOF 6
ENDMDL
MODEL 5
REMARK VINA RESULT: -7.122462163      5.454      9.409
REMARK  6 active torsions:
REMARK  status: ('A' for Active; 'I' for Inactive)
REMARK    1  A    between atoms: C2_2  and  C3_3 
REMARK    2  A    between atoms: C8_17  and  N2_18 
REMARK    3  A    between atoms: N2_18  and  C9_20 
REMARK    4  A    between atoms: C9_20  and  C10_21 
REMARK    5  A    between atoms: C10_21  and  N3_22 
REMARK    6  A    between atoms: C14_28  and  C15_29 
ROOT
HETATM    1  C3  UNL     1      22.725  -2.235  14.624  1.00  0.00     0.147 C 
HETATM    2  O1  UNL     1      23.966  -1.858  15.109  1.00  0.00    -0.356 OA
HETATM    3  C4  UNL     1      24.784  -2.698  15.714  1.00  0.00     0.311 A 
HETATM    4  C5  UNL     1      25.516  -3.649  14.822  1.00  0.00     0.056 A 
HETATM    5  N1  UNL     1      25.244  -4.752  15.397  1.00  0.00    -0.285 N 
ATOM      6  H1  UNL     1      25.504  -5.715  15.184  1.00  0.00     0.178 HD
HETATM    7  S1  UNL     1      24.296  -4.070  16.645  1.00  0.00     0.263 S 
HETATM    8  O2  UNL     1      24.940  -4.180  18.009  1.00  0.00    -0.203 OA
HETATM    9  O3  UNL     1      22.876  -4.469  16.700  1.00  0.00    -0.203 OA
HETATM   10  C6  UNL     1      26.318  -3.300  13.614  1.00  0.00     0.197 C 
HETATM   11  S2  UNL     1      25.133  -2.795  12.383  1.00  0.00     0.151 S 
HETATM   12  O4  UNL     1      25.943  -2.495  11.127  1.00  0.00    -0.227 OA
HETATM   13  O5  UNL     1      24.330  -4.018  12.063  1.00  0.00    -0.227 OA
HETATM   14  C7  UNL     1      24.184  -1.401  12.845  1.00  0.00     0.168 C 
HETATM   15  C8  UNL     1      22.712  -1.768  13.180  1.00  0.00     0.123 C 
ENDROOT
BRANCH  15  16
HETATM   16  N2  UNL     1      22.325  -2.658  12.197  1.00  0.00    -0.393 N 
ATOM     17  H2  UNL     1      22.778  -3.572  12.223  1.00  0.00     0.159 HD
BRANCH  16  18
HETATM   18  C9  UNL     1      21.408  -2.471  11.186  1.00  0.00     0.077 C 
BRANCH  18  19
HETATM   19  C10 UNL     1      21.863  -1.917   9.870  1.00  0.00     0.186 C 
BRANCH  19  20
HETATM   20  N3  UNL     1      20.845  -1.366   9.032  1.00  0.00    -0.318 N 
HETATM   21  N4  UNL     1      19.557  -1.069   9.578  1.00  0.00    -0.311 N 
HETATM   22  C11 UNL     1      19.020  -0.061   9.000  1.00  0.00     0.002 C 
ATOM     23  H4  UNL     1      19.121  -1.596  10.334  1.00  0.00     0.186 HD
HETATM   24  C12 UNL     1      17.680   0.482   9.357  1.00  0.00     0.065 C 
HETATM   25  C13 UNL     1      19.972   0.408   7.939  1.00  0.00     0.081 C 
HETATM   26  C14 UNL     1      20.703  -0.932   7.680  1.00  0.00     0.112 C 
BRANCH  26  27
HETATM   27  C15 UNL     1      21.902  -0.667   6.874  1.00  0.00     0.010 C 
HETATM   28  C16 UNL     1      21.789  -1.134   5.436  1.00  0.00     0.007 C 
HETATM   29  C17 UNL     1      22.158  -0.073   4.433  1.00  0.00     0.000 C 
HETATM   30  C18 UNL     1      23.453   0.612   4.725  1.00  0.00     0.000 C 
HETATM   31  C19 UNL     1      23.385   1.197   6.107  1.00  0.00     0.000 C 
HETATM   32  C20 UNL     1      22.080   0.857   6.809  1.00  0.00     0.007 C 
ENDBRANCH  26  27
ENDBRANCH  19  20
ENDBRANCH  18  19
ENDBRANCH  16  18
ENDBRANCH  15  16
BRANCH   1  33
HETATM   33  C2  UNL     1      21.762  -1.444  15.513  1.00  0.00     0.029 C 
HETATM   34  C1  UNL     1      21.951   0.030  15.497  1.00  0.00     0.007 C 
ENDBRANCH   1  33
TORSDOF 6
ENDMDL
