MODEL 1
REMARK VINA RESULT: -6.571484669      0.000      0.000
REMARK  9 active torsions:
REMARK  status: ('A' for Active; 'I' for Inactive)
REMARK    1  A    between atoms: C2_2  and  O2_4 
REMARK    2  A    between atoms: O2_4  and  C3_5 
REMARK    3  A    between atoms: C3_5  and  C4_6 
REMARK    4  A    between atoms: C4_6  and  O4_8 
REMARK    5  A    between atoms: O4_8  and  C5_9 
REMARK    6  A    between atoms: C5_9  and  C6_10 
REMARK    7  A    between atoms: C6_10  and  O5_11 
REMARK    8  A    between atoms: O5_11  and  C7_12 
REMARK    9  A    between atoms: C7_12  and  C8_14 
ROOT
HETATM    1  C3  UNL     1      23.548  -2.041  12.192  1.00  0.00     0.255 C 
HETATM    2  C18 UNL     1      23.930  -3.461  11.607  1.00  0.00     0.271 C 
HETATM    3  O7  UNL     1      23.634  -3.775  10.447  1.00  0.00    -0.269 OA
HETATM    4  N1  UNL     1      24.584  -4.089  12.655  1.00  0.00    -0.294 N 
ATOM      5  H1  UNL     1      25.341  -4.764  12.545  1.00  0.00     0.171 HD
HETATM    6  C19 UNL     1      24.059  -3.665  13.897  1.00  0.00     0.238 C 
HETATM    7  O8  UNL     1      24.004  -4.382  14.908  1.00  0.00    -0.272 OA
HETATM    8  C20 UNL     1      23.625  -2.222  13.649  1.00  0.00     0.107 A 
HETATM    9  C21 UNL     1      22.835  -1.690  14.744  1.00  0.00    -0.018 A 
HETATM   10  C22 UNL     1      21.790  -0.610  14.681  1.00  0.00     0.017 C 
HETATM   11  C23 UNL     1      22.619  -2.559  16.013  1.00  0.00     0.017 C 
HETATM   12  C24 UNL     1      24.306  -1.249  14.541  1.00  0.00    -0.018 A 
HETATM   13  C25 UNL     1      25.288  -1.694  15.606  1.00  0.00     0.017 C 
HETATM   14  C26 UNL     1      24.413   0.216  14.281  1.00  0.00     0.017 C 
ENDROOT
BRANCH   1  15
HETATM   15  O2  UNL     1      22.335  -1.897  11.636  1.00  0.00    -0.288 OA
BRANCH  15  16
HETATM   16  C2  UNL     1      21.143  -2.432  11.850  1.00  0.00     0.256 C 
HETATM   17  C1  UNL     1      19.892  -1.820  11.296  1.00  0.00     0.126 C 
HETATM   18  O1  UNL     1      21.022  -3.464  12.520  1.00  0.00    -0.266 OA
ENDBRANCH  15  16
ENDBRANCH   1  15
BRANCH   1  19
HETATM   19  C4  UNL     1      24.687  -1.305  11.559  1.00  0.00     0.305 C 
HETATM   20  O3  UNL     1      24.455  -0.178  11.111  1.00  0.00    -0.261 OA
BRANCH  19  21
HETATM   21  O4  UNL     1      25.928  -1.823  11.467  1.00  0.00    -0.317 OA
BRANCH  21  22
HETATM   22  C5  UNL     1      26.890  -1.522  10.478  1.00  0.00     0.205 C 
BRANCH  22  23
HETATM   23  C6  UNL     1      26.743  -2.289   9.209  1.00  0.00     0.205 C 
BRANCH  23  24
HETATM   24  O5  UNL     1      25.569  -1.944   8.536  1.00  0.00    -0.319 OA
BRANCH  24  25
HETATM   25  C7  UNL     1      25.392  -0.823   7.776  1.00  0.00     0.267 C 
HETATM   26  O6  UNL     1      26.310   0.008   7.613  1.00  0.00    -0.264 OA
BRANCH  25  27
HETATM   27  C8  UNL     1      24.063  -0.606   7.135  1.00  0.00     0.049 C 
HETATM   28  C9  UNL     1      23.828   0.872   6.995  1.00  0.00     0.024 C 
HETATM   29  C10 UNL     1      22.478   1.131   6.365  1.00  0.00    -0.013 C 
HETATM   30  C11 UNL     1      22.441   0.428   5.021  1.00  0.00     0.009 C 
HETATM   31  C15 UNL     1      21.396   0.574   7.265  1.00  0.00     0.009 C 
HETATM   32  C12 UNL     1      22.617  -1.050   5.215  1.00  0.00    -0.013 C 
HETATM   33  C13 UNL     1      21.507  -1.572   6.094  1.00  0.00     0.009 C 
HETATM   34  C17 UNL     1      23.960  -1.358   5.846  1.00  0.00     0.024 C 
HETATM   35  C14 UNL     1      21.625  -0.896   7.434  1.00  0.00    -0.013 C 
HETATM   36  C16 UNL     1      22.971  -1.137   8.066  1.00  0.00     0.024 C 
ENDBRANCH  25  27
ENDBRANCH  24  25
ENDBRANCH  23  24
ENDBRANCH  22  23
ENDBRANCH  21  22
ENDBRANCH  19  21
ENDBRANCH   1  19
TORSDOF 9
ENDMDL
MODEL 2
REMARK VINA RESULT: -6.357299937      3.136      8.010
REMARK  9 active torsions:
REMARK  status: ('A' for Active; 'I' for Inactive)
REMARK    1  A    between atoms: C2_2  and  O2_4 
REMARK    2  A    between atoms: O2_4  and  C3_5 
REMARK    3  A    between atoms: C3_5  and  C4_6 
REMARK    4  A    between atoms: C4_6  and  O4_8 
REMARK    5  A    between atoms: O4_8  and  C5_9 
REMARK    6  A    between atoms: C5_9  and  C6_10 
REMARK    7  A    between atoms: C6_10  and  O5_11 
REMARK    8  A    between atoms: O5_11  and  C7_12 
REMARK    9  A    between atoms: C7_12  and  C8_14 
ROOT
HETATM    1  C3  UNL     1      24.245  -0.246   4.934  1.00  0.00     0.255 C 
HETATM    2  C18 UNL     1      23.117  -0.185   3.826  1.00  0.00     0.271 C 
HETATM    3  O7  UNL     1      22.809  -1.189   3.171  1.00  0.00    -0.269 OA
HETATM    4  N1  UNL     1      22.689   1.133   3.858  1.00  0.00    -0.294 N 
ATOM      5  H1  UNL     1      21.736   1.438   3.662  1.00  0.00     0.171 HD
HETATM    6  C19 UNL     1      23.755   1.996   4.200  1.00  0.00     0.238 C 
HETATM    7  O8  UNL     1      23.865   3.160   3.786  1.00  0.00    -0.272 OA
HETATM    8  C20 UNL     1      24.634   1.158   5.127  1.00  0.00     0.107 A 
HETATM    9  C21 UNL     1      25.912   1.793   5.391  1.00  0.00    -0.018 A 
HETATM   10  C22 UNL     1      27.213   1.123   5.741  1.00  0.00     0.017 C 
HETATM   11  C23 UNL     1      26.186   3.212   4.823  1.00  0.00     0.017 C 
HETATM   12  C24 UNL     1      24.802   1.765   6.472  1.00  0.00    -0.018 A 
HETATM   13  C25 UNL     1      24.185   3.102   6.827  1.00  0.00     0.017 C 
HETATM   14  C26 UNL     1      25.236   1.025   7.692  1.00  0.00     0.017 C 
ENDROOT
BRANCH   1  15
HETATM   15  O2  UNL     1      25.113  -1.062   4.315  1.00  0.00    -0.288 OA
BRANCH  15  16
HETATM   16  C2  UNL     1      25.640  -2.244   4.595  1.00  0.00     0.256 C 
HETATM   17  C1  UNL     1      26.887  -2.377   5.417  1.00  0.00     0.126 C 
HETATM   18  O1  UNL     1      25.117  -3.286   4.185  1.00  0.00    -0.266 OA
ENDBRANCH  15  16
ENDBRANCH   1  15
BRANCH   1  19
HETATM   19  C4  UNL     1      23.380  -0.841   5.999  1.00  0.00     0.305 C 
HETATM   20  O3  UNL     1      23.909  -1.637   6.782  1.00  0.00    -0.261 OA
BRANCH  19  21
HETATM   21  O4  UNL     1      22.072  -0.541   6.128  1.00  0.00    -0.317 OA
BRANCH  21  22
HETATM   22  C5  UNL     1      21.464   0.101   7.229  1.00  0.00     0.205 C 
BRANCH  22  23
HETATM   23  C6  UNL     1      20.482  -0.734   7.976  1.00  0.00     0.205 C 
BRANCH  23  24
HETATM   24  O5  UNL     1      21.116  -1.750   8.695  1.00  0.00    -0.319 OA
BRANCH  24  25
HETATM   25  C7  UNL     1      21.123  -1.871  10.055  1.00  0.00     0.267 C 
HETATM   26  O6  UNL     1      20.069  -1.804  10.723  1.00  0.00    -0.264 OA
BRANCH  25  27
HETATM   27  C8  UNL     1      22.430  -2.087  10.740  1.00  0.00     0.049 C 
HETATM   28  C9  UNL     1      23.442  -1.136  10.165  1.00  0.00     0.024 C 
HETATM   29  C10 UNL     1      24.787  -1.341  10.824  1.00  0.00    -0.013 C 
HETATM   30  C11 UNL     1      24.617  -1.142  12.319  1.00  0.00     0.009 C 
HETATM   31  C15 UNL     1      25.266  -2.749  10.546  1.00  0.00     0.009 C 
HETATM   32  C12 UNL     1      23.647  -2.152  12.859  1.00  0.00    -0.013 C 
HETATM   33  C13 UNL     1      24.170  -3.541  12.586  1.00  0.00     0.009 C 
HETATM   34  C17 UNL     1      22.281  -1.984  12.225  1.00  0.00     0.024 C 
HETATM   35  C14 UNL     1      24.259  -3.714  11.093  1.00  0.00    -0.013 C 
HETATM   36  C16 UNL     1      22.927  -3.499  10.424  1.00  0.00     0.024 C 
ENDBRANCH  25  27
ENDBRANCH  24  25
ENDBRANCH  23  24
ENDBRANCH  22  23
ENDBRANCH  21  22
ENDBRANCH  19  21
ENDBRANCH   1  19
TORSDOF 9
ENDMDL
MODEL 3
REMARK VINA RESULT: -6.314295375      1.366      2.324
REMARK  9 active torsions:
REMARK  status: ('A' for Active; 'I' for Inactive)
REMARK    1  A    between atoms: C2_2  and  O2_4 
REMARK    2  A    between atoms: O2_4  and  C3_5 
REMARK    3  A    between atoms: C3_5  and  C4_6 
REMARK    4  A    between atoms: C4_6  and  O4_8 
REMARK    5  A    between atoms: O4_8  and  C5_9 
REMARK    6  A    between atoms: C5_9  and  C6_10 
REMARK    7  A    between atoms: C6_10  and  O5_11 
REMARK    8  A    between atoms: O5_11  and  C7_12 
REMARK    9  A    between atoms: C7_12  and  C8_14 
ROOT
HETATM    1  C3  UNL     1      23.513  -2.099  12.498  1.00  0.00     0.255 C 
HETATM    2  C18 UNL     1      23.979  -3.536  12.026  1.00  0.00     0.271 C 
HETATM    3  O7  UNL     1      23.805  -3.914  10.861  1.00  0.00    -0.269 OA
HETATM    4  N1  UNL     1      24.539  -4.095  13.164  1.00  0.00    -0.294 N 
ATOM      5  H1  UNL     1      25.316  -4.755  13.164  1.00  0.00     0.171 HD
HETATM    6  C19 UNL     1      23.886  -3.623  14.326  1.00  0.00     0.238 C 
HETATM    7  O8  UNL     1      23.746  -4.291  15.362  1.00  0.00    -0.272 OA
HETATM    8  C20 UNL     1      23.450  -2.206  13.962  1.00  0.00     0.107 A 
HETATM    9  C21 UNL     1      22.545  -1.641  14.946  1.00  0.00    -0.018 A 
HETATM   10  C22 UNL     1      21.490  -0.592  14.727  1.00  0.00     0.017 C 
HETATM   11  C23 UNL     1      22.223  -2.451  16.232  1.00  0.00     0.017 C 
HETATM   12  C24 UNL     1      24.019  -1.174  14.865  1.00  0.00    -0.018 A 
HETATM   13  C25 UNL     1      24.900  -1.541  16.042  1.00  0.00     0.017 C 
HETATM   14  C26 UNL     1      24.123   0.279  14.542  1.00  0.00     0.017 C 
ENDROOT
BRANCH   1  15
HETATM   15  O2  UNL     1      22.358  -2.013  11.820  1.00  0.00    -0.288 OA
BRANCH  15  16
HETATM   16  C2  UNL     1      21.131  -2.473  12.009  1.00  0.00     0.256 C 
HETATM   17  C1  UNL     1      19.923  -1.705  11.564  1.00  0.00     0.126 C 
HETATM   18  O1  UNL     1      20.939  -3.561  12.562  1.00  0.00    -0.266 OA
ENDBRANCH  15  16
ENDBRANCH   1  15
BRANCH   1  19
HETATM   19  C4  UNL     1      24.693  -1.367  11.942  1.00  0.00     0.305 C 
HETATM   20  O3  UNL     1      25.815  -1.757  12.281  1.00  0.00    -0.261 OA
BRANCH  19  21
HETATM   21  O4  UNL     1      24.571  -0.321  11.101  1.00  0.00    -0.317 OA
BRANCH  21  22
HETATM   22  C5  UNL     1      24.883  -0.312   9.723  1.00  0.00     0.205 C 
BRANCH  22  23
HETATM   23  C6  UNL     1      24.038  -1.209   8.885  1.00  0.00     0.205 C 
BRANCH  23  24
HETATM   24  O5  UNL     1      23.327  -0.490   7.922  1.00  0.00    -0.319 OA
BRANCH  24  25
HETATM   25  C7  UNL     1      22.335  -0.995   7.131  1.00  0.00     0.267 C 
HETATM   26  O6  UNL     1      21.264  -1.420   7.616  1.00  0.00    -0.264 OA
BRANCH  25  27
HETATM   27  C8  UNL     1      22.554  -1.031   5.656  1.00  0.00     0.049 C 
HETATM   28  C9  UNL     1      23.928  -1.576   5.383  1.00  0.00     0.024 C 
HETATM   29  C10 UNL     1      24.192  -1.608   3.895  1.00  0.00    -0.013 C 
HETATM   30  C11 UNL     1      23.114  -2.452   3.241  1.00  0.00     0.009 C 
HETATM   31  C15 UNL     1      24.139  -0.197   3.351  1.00  0.00     0.009 C 
HETATM   32  C12 UNL     1      21.767  -1.837   3.487  1.00  0.00    -0.013 C 
HETATM   33  C13 UNL     1      21.744  -0.443   2.909  1.00  0.00     0.009 C 
HETATM   34  C17 UNL     1      21.459  -1.783   4.969  1.00  0.00     0.024 C 
HETATM   35  C14 UNL     1      22.783   0.373   3.633  1.00  0.00    -0.013 C 
HETATM   36  C16 UNL     1      22.536   0.402   5.118  1.00  0.00     0.024 C 
ENDBRANCH  25  27
ENDBRANCH  24  25
ENDBRANCH  23  24
ENDBRANCH  22  23
ENDBRANCH  21  22
ENDBRANCH  19  21
ENDBRANCH   1  19
TORSDOF 9
ENDMDL
MODEL 4
REMARK VINA RESULT: -6.299303063      2.503      8.244
REMARK  9 active torsions:
REMARK  status: ('A' for Active; 'I' for Inactive)
REMARK    1  A    between atoms: C2_2  and  O2_4 
REMARK    2  A    between atoms: O2_4  and  C3_5 
REMARK    3  A    between atoms: C3_5  and  C4_6 
REMARK    4  A    between atoms: C4_6  and  O4_8 
REMARK    5  A    between atoms: O4_8  and  C5_9 
REMARK    6  A    between atoms: C5_9  and  C6_10 
REMARK    7  A    between atoms: C6_10  and  O5_11 
REMARK    8  A    between atoms: O5_11  and  C7_12 
REMARK    9  A    between atoms: C7_12  and  C8_14 
ROOT
HETATM    1  C3  UNL     1      24.109  -0.019   5.648  1.00  0.00     0.255 C 
HETATM    2  C18 UNL     1      24.981  -0.611   6.829  1.00  0.00     0.271 C 
HETATM    3  O7  UNL     1      25.340   0.098   7.777  1.00  0.00    -0.269 OA
HETATM    4  N1  UNL     1      25.152  -1.942   6.481  1.00  0.00    -0.294 N 
ATOM      5  H1  UNL     1      25.232  -2.710   7.147  1.00  0.00     0.171 HD
HETATM    6  C19 UNL     1      25.201  -2.089   5.076  1.00  0.00     0.238 C 
HETATM    7  O8  UNL     1      25.867  -2.958   4.492  1.00  0.00    -0.272 OA
HETATM    8  C20 UNL     1      24.293  -0.978   4.550  1.00  0.00     0.107 A 
HETATM    9  C21 UNL     1      24.407  -0.812   3.113  1.00  0.00    -0.018 A 
HETATM   10  C22 UNL     1      24.166   0.439   2.313  1.00  0.00     0.017 C 
HETATM   11  C23 UNL     1      25.304  -1.788   2.306  1.00  0.00     0.017 C 
HETATM   12  C24 UNL     1      23.162  -1.490   3.737  1.00  0.00    -0.018 A 
HETATM   13  C25 UNL     1      22.992  -2.968   3.445  1.00  0.00     0.017 C 
HETATM   14  C26 UNL     1      21.912  -0.731   3.442  1.00  0.00     0.017 C 
ENDROOT
BRANCH   1  15
HETATM   15  O2  UNL     1      24.688   1.188   5.537  1.00  0.00    -0.288 OA
BRANCH  15  16
HETATM   16  C2  UNL     1      24.239   2.431   5.460  1.00  0.00     0.256 C 
HETATM   17  C1  UNL     1      24.414   3.403   6.588  1.00  0.00     0.126 C 
HETATM   18  O1  UNL     1      23.658   2.835   4.447  1.00  0.00    -0.266 OA
ENDBRANCH  15  16
ENDBRANCH   1  15
BRANCH   1  19
HETATM   19  C4  UNL     1      22.802  -0.091   6.373  1.00  0.00     0.305 C 
HETATM   20  O3  UNL     1      22.129   0.942   6.432  1.00  0.00    -0.261 OA
BRANCH  19  21
HETATM   21  O4  UNL     1      22.349  -1.223   6.948  1.00  0.00    -0.317 OA
BRANCH  21  22
HETATM   22  C5  UNL     1      21.108  -1.393   7.599  1.00  0.00     0.205 C 
BRANCH  22  23
HETATM   23  C6  UNL     1      21.166  -1.319   9.086  1.00  0.00     0.205 C 
BRANCH  23  24
HETATM   24  O5  UNL     1      21.790  -2.444   9.630  1.00  0.00    -0.319 OA
BRANCH  24  25
HETATM   25  C7  UNL     1      23.047  -2.471  10.163  1.00  0.00     0.267 C 
HETATM   26  O6  UNL     1      24.064  -2.518   9.439  1.00  0.00    -0.264 OA
BRANCH  25  27
HETATM   27  C8  UNL     1      23.187  -2.443  11.648  1.00  0.00     0.049 C 
HETATM   28  C9  UNL     1      23.950  -1.209  12.041  1.00  0.00     0.024 C 
HETATM   29  C10 UNL     1      24.128  -1.158  13.541  1.00  0.00    -0.013 C 
HETATM   30  C11 UNL     1      22.753  -1.194  14.182  1.00  0.00     0.009 C 
HETATM   31  C15 UNL     1      24.933  -2.360  13.986  1.00  0.00     0.009 C 
HETATM   32  C12 UNL     1      22.053  -2.470  13.813  1.00  0.00    -0.013 C 
HETATM   33  C13 UNL     1      22.872  -3.643  14.295  1.00  0.00     0.009 C 
HETATM   34  C17 UNL     1      21.853  -2.565  12.314  1.00  0.00     0.024 C 
HETATM   35  C14 UNL     1      24.199  -3.602  13.584  1.00  0.00    -0.013 C 
HETATM   36  C16 UNL     1      24.033  -3.639  12.088  1.00  0.00     0.024 C 
ENDBRANCH  25  27
ENDBRANCH  24  25
ENDBRANCH  23  24
ENDBRANCH  22  23
ENDBRANCH  21  22
ENDBRANCH  19  21
ENDBRANCH   1  19
TORSDOF 9
ENDMDL
MODEL 5
REMARK VINA RESULT: -6.285523280      3.108      7.229
REMARK  9 active torsions:
REMARK  status: ('A' for Active; 'I' for Inactive)
REMARK    1  A    between atoms: C2_2  and  O2_4 
REMARK    2  A    between atoms: O2_4  and  C3_5 
REMARK    3  A    between atoms: C3_5  and  C4_6 
REMARK    4  A    between atoms: C4_6  and  O4_8 
REMARK    5  A    between atoms: O4_8  and  C5_9 
REMARK    6  A    between atoms: C5_9  and  C6_10 
REMARK    7  A    between atoms: C6_10  and  O5_11 
REMARK    8  A    between atoms: O5_11  and  C7_12 
REMARK    9  A    between atoms: C7_12  and  C8_14 
ROOT
HETATM    1  C3  UNL     1      23.105  -0.875   4.828  1.00  0.00     0.255 C 
HETATM    2  C18 UNL     1      22.332  -1.811   3.813  1.00  0.00     0.271 C 
HETATM    3  O7  UNL     1      22.655  -1.866   2.621  1.00  0.00    -0.269 OA
HETATM    4  N1  UNL     1      21.363  -2.421   4.595  1.00  0.00    -0.294 N 
ATOM      5  H1  UNL     1      21.007  -3.365   4.445  1.00  0.00     0.171 HD
HETATM    6  C19 UNL     1      20.938  -1.556   5.628  1.00  0.00     0.238 C 
HETATM    7  O8  UNL     1      19.789  -1.548   6.097  1.00  0.00    -0.272 OA
HETATM    8  C20 UNL     1      22.176  -0.725   5.957  1.00  0.00     0.107 A 
HETATM    9  C21 UNL     1      21.871   0.393   6.831  1.00  0.00    -0.018 A 
HETATM   10  C22 UNL     1      22.601   1.703   6.933  1.00  0.00     0.017 C 
HETATM   11  C23 UNL     1      20.428   0.549   7.385  1.00  0.00     0.017 C 
HETATM   12  C24 UNL     1      22.607  -0.859   7.371  1.00  0.00    -0.018 A 
HETATM   13  C25 UNL     1      21.838  -1.708   8.363  1.00  0.00     0.017 C 
HETATM   14  C26 UNL     1      23.967  -0.522   7.884  1.00  0.00     0.017 C 
ENDROOT
BRANCH   1  15
HETATM   15  O2  UNL     1      23.309   0.187   4.032  1.00  0.00    -0.288 OA
BRANCH  15  16
HETATM   16  C2  UNL     1      24.380   0.830   3.594  1.00  0.00     0.256 C 
HETATM   17  C1  UNL     1      25.079   1.859   4.431  1.00  0.00     0.126 C 
HETATM   18  O1  UNL     1      24.844   0.600   2.472  1.00  0.00    -0.266 OA
ENDBRANCH  15  16
ENDBRANCH   1  15
BRANCH   1  19
HETATM   19  C4  UNL     1      24.258  -1.804   5.044  1.00  0.00     0.305 C 
HETATM   20  O3  UNL     1      24.130  -2.967   4.650  1.00  0.00    -0.261 OA
BRANCH  19  21
HETATM   21  O4  UNL     1      25.404  -1.418   5.639  1.00  0.00    -0.317 OA
BRANCH  21  22
HETATM   22  C5  UNL     1      26.508  -2.243   5.946  1.00  0.00     0.205 C 
BRANCH  22  23
HETATM   23  C6  UNL     1      27.277  -1.834   7.155  1.00  0.00     0.205 C 
BRANCH  23  24
HETATM   24  O5  UNL     1      26.739  -2.391   8.317  1.00  0.00    -0.319 OA
BRANCH  24  25
HETATM   25  C7  UNL     1      27.055  -2.019   9.592  1.00  0.00     0.267 C 
HETATM   26  O6  UNL     1      28.190  -1.588   9.886  1.00  0.00    -0.264 OA
BRANCH  25  27
HETATM   27  C8  UNL     1      26.006  -2.139  10.645  1.00  0.00     0.049 C 
HETATM   28  C9  UNL     1      25.569  -0.760  11.055  1.00  0.00     0.024 C 
HETATM   29  C10 UNL     1      24.517  -0.844  12.138  1.00  0.00    -0.013 C 
HETATM   30  C11 UNL     1      23.356  -1.664  11.607  1.00  0.00     0.009 C 
HETATM   31  C15 UNL     1      25.110  -1.521  13.354  1.00  0.00     0.009 C 
HETATM   32  C12 UNL     1      23.825  -3.050  11.270  1.00  0.00    -0.013 C 
HETATM   33  C13 UNL     1      24.384  -3.701  12.511  1.00  0.00     0.009 C 
HETATM   34  C17 UNL     1      24.883  -3.015  10.186  1.00  0.00     0.024 C 
HETATM   35  C14 UNL     1      25.571  -2.891  12.961  1.00  0.00    -0.013 C 
HETATM   36  C16 UNL     1      26.620  -2.791  11.886  1.00  0.00     0.024 C 
ENDBRANCH  25  27
ENDBRANCH  24  25
ENDBRANCH  23  24
ENDBRANCH  22  23
ENDBRANCH  21  22
ENDBRANCH  19  21
ENDBRANCH   1  19
TORSDOF 9
ENDMDL
