MODEL 1
REMARK VINA RESULT: -6.338210630      0.000      0.000
REMARK  8 active torsions:
REMARK  status: ('A' for Active; 'I' for Inactive)
REMARK    1  A    between atoms: C2_2  and  C3_4 
REMARK    2  A    between atoms: C3_4  and  N1_6 
REMARK    3  A    between atoms: N1_6  and  C4_8 
REMARK    4  A    between atoms: C6_11  and  C7_12 
REMARK    5  A    between atoms: C7_12  and  N2_13 
REMARK    6  A    between atoms: N2_13  and  C8_15 
REMARK    7  A    between atoms: C8_15  and  N3_17 
REMARK    8  A    between atoms: N3_17  and  N4_19 
ROOT
HETATM    1  C7  UNL     1       7.305  17.749  15.564  1.00  0.00     0.179 C 
ENDROOT
BRANCH   1   2
HETATM    2  C6  UNL     1       7.249  18.290  16.993  1.00  0.00     0.037 A 
HETATM    3  C5  UNL     1       6.023  18.530  17.550  1.00  0.00     0.080 A 
HETATM    4  S2  UNL     1       6.430  19.114  19.096  1.00  0.00    -0.064 SA
HETATM    5  C4  UNL     1       8.123  19.024  18.960  1.00  0.00     0.151 A 
HETATM    6  N6  UNL     1       8.311  18.550  17.730  1.00  0.00    -0.333 N 
HETATM    7  C14 UNL     1       9.699  18.319  17.207  1.00  0.00     0.158 C 
BRANCH   5   8
HETATM    8  N1  UNL     1       9.060  19.341  19.840  1.00  0.00    -0.330 N 
ATOM      9  H1  UNL     1       9.798  20.013  19.634  1.00  0.00     0.168 HD
BRANCH   8  10
HETATM   10  C3  UNL     1       8.962  18.676  21.094  1.00  0.00     0.097 C 
HETATM   11  S1  UNL     1       8.729  17.078  21.124  1.00  0.00    -0.064 SA
BRANCH  10  12
HETATM   12  C2  UNL     1       9.072  19.435  22.347  1.00  0.00     0.139 C 
HETATM   13  C1  UNL     1       8.209  20.695  22.247  1.00  0.00     0.034 C 
HETATM   14 CL1  UNL     1      10.760  19.890  22.638  1.00  0.00    -0.118 Cl
ENDBRANCH  10  12
ENDBRANCH   8  10
ENDBRANCH   5   8
ENDBRANCH   1   2
BRANCH   1  15
HETATM   15  N2  UNL     1       7.129  16.327  15.557  1.00  0.00    -0.361 N 
ATOM     16  H2  UNL     1       6.518  15.897  16.251  1.00  0.00     0.162 HD
BRANCH  15  17
HETATM   17  C8  UNL     1       7.785  15.506  14.605  1.00  0.00     0.182 C 
HETATM   18  S3  UNL     1       8.132  16.099  13.122  1.00  0.00    -0.040 SA
BRANCH  17  19
HETATM   19  N3  UNL     1       8.162  14.166  14.902  1.00  0.00    -0.295 N 
ATOM     20  H3  UNL     1       8.239  13.487  14.145  1.00  0.00     0.183 HD
BRANCH  19  21
HETATM   21  N4  UNL     1       8.427  13.766  16.209  1.00  0.00    -0.226 NA
HETATM   22  C9  UNL     1       9.552  12.887  16.304  1.00  0.00     0.144 C 
HETATM   23  C10 UNL     1      10.881  13.596  16.169  1.00  0.00     0.288 C 
HETATM   24  N5  UNL     1      10.771  14.920  16.749  1.00  0.00     0.086 N 
HETATM   25  C11 UNL     1      12.035  15.461  17.162  1.00  0.00     0.310 C 
HETATM   26  C12 UNL     1       9.785  14.917  17.815  1.00  0.00     0.288 C 
HETATM   27  C13 UNL     1       8.422  14.831  17.159  1.00  0.00     0.144 C 
ENDBRANCH  19  21
ENDBRANCH  17  19
ENDBRANCH  15  17
ENDBRANCH   1  15
TORSDOF 8
ENDMDL
MODEL 2
REMARK VINA RESULT: -6.248989277      0.833      1.012
REMARK  8 active torsions:
REMARK  status: ('A' for Active; 'I' for Inactive)
REMARK    1  A    between atoms: C2_2  and  C3_4 
REMARK    2  A    between atoms: C3_4  and  N1_6 
REMARK    3  A    between atoms: N1_6  and  C4_8 
REMARK    4  A    between atoms: C6_11  and  C7_12 
REMARK    5  A    between atoms: C7_12  and  N2_13 
REMARK    6  A    between atoms: N2_13  and  C8_15 
REMARK    7  A    between atoms: C8_15  and  N3_17 
REMARK    8  A    between atoms: N3_17  and  N4_19 
ROOT
HETATM    1  C7  UNL     1       7.190  18.340  15.461  1.00  0.00     0.179 C 
ENDROOT
BRANCH   1   2
HETATM    2  C6  UNL     1       7.222  18.596  16.968  1.00  0.00     0.037 A 
HETATM    3  C5  UNL     1       6.033  18.692  17.636  1.00  0.00     0.080 A 
HETATM    4  S2  UNL     1       6.533  18.979  19.238  1.00  0.00    -0.064 SA
HETATM    5  C4  UNL     1       8.215  18.962  18.981  1.00  0.00     0.151 A 
HETATM    6  N6  UNL     1       8.327  18.738  17.673  1.00  0.00    -0.333 N 
HETATM    7  C14 UNL     1       9.681  18.648  17.030  1.00  0.00     0.158 C 
BRANCH   5   8
HETATM    8  N1  UNL     1       9.203  19.129  19.846  1.00  0.00    -0.330 N 
ATOM      9  H1  UNL     1      10.049  19.650  19.615  1.00  0.00     0.168 HD
BRANCH   8  10
HETATM   10  C3  UNL     1       9.002  18.529  21.119  1.00  0.00     0.097 C 
HETATM   11  S1  UNL     1       8.661  16.952  21.205  1.00  0.00    -0.064 SA
BRANCH  10  12
HETATM   12  C2  UNL     1       9.100  19.335  22.344  1.00  0.00     0.139 C 
HETATM   13  C1  UNL     1       8.209  20.571  22.204  1.00  0.00     0.034 C 
HETATM   14 CL1  UNL     1      10.780  19.839  22.608  1.00  0.00    -0.118 Cl
ENDBRANCH  10  12
ENDBRANCH   8  10
ENDBRANCH   5   8
ENDBRANCH   1   2
BRANCH   1  15
HETATM   15  N2  UNL     1       7.035  16.943  15.190  1.00  0.00    -0.361 N 
ATOM     16  H2  UNL     1       6.255  16.436  15.612  1.00  0.00     0.162 HD
BRANCH  15  17
HETATM   17  C8  UNL     1       7.940  16.247  14.349  1.00  0.00     0.182 C 
HETATM   18  S3  UNL     1       7.958  16.555  12.745  1.00  0.00    -0.040 SA
BRANCH  17  19
HETATM   19  N3  UNL     1       8.850  15.280  14.862  1.00  0.00    -0.295 N 
ATOM     20  H3  UNL     1       9.364  14.682  14.215  1.00  0.00     0.183 HD
BRANCH  19  21
HETATM   21  N4  UNL     1       9.051  15.135  16.232  1.00  0.00    -0.226 NA
HETATM   22  C9  UNL     1       8.885  13.787  16.680  1.00  0.00     0.144 C 
HETATM   23  C10 UNL     1      10.055  12.892  16.335  1.00  0.00     0.288 C 
HETATM   24  N5  UNL     1      11.275  13.671  16.383  1.00  0.00     0.086 N 
HETATM   25  C11 UNL     1      12.446  12.871  16.608  1.00  0.00     0.310 C 
HETATM   26  C12 UNL     1      11.140  14.751  17.344  1.00  0.00     0.288 C 
HETATM   27  C13 UNL     1      10.224  15.785  16.723  1.00  0.00     0.144 C 
ENDBRANCH  19  21
ENDBRANCH  17  19
ENDBRANCH  15  17
ENDBRANCH   1  15
TORSDOF 8
ENDMDL
MODEL 3
REMARK VINA RESULT: -6.187218423      1.055      1.467
REMARK  8 active torsions:
REMARK  status: ('A' for Active; 'I' for Inactive)
REMARK    1  A    between atoms: C2_2  and  C3_4 
REMARK    2  A    between atoms: C3_4  and  N1_6 
REMARK    3  A    between atoms: N1_6  and  C4_8 
REMARK    4  A    between atoms: C6_11  and  C7_12 
REMARK    5  A    between atoms: C7_12  and  N2_13 
REMARK    6  A    between atoms: N2_13  and  C8_15 
REMARK    7  A    between atoms: C8_15  and  N3_17 
REMARK    8  A    between atoms: N3_17  and  N4_19 
ROOT
HETATM    1  C7  UNL     1       6.940  17.752  15.626  1.00  0.00     0.179 C 
ENDROOT
BRANCH   1   2
HETATM    2  C6  UNL     1       7.872  18.235  16.738  1.00  0.00     0.037 A 
HETATM    3  C5  UNL     1       9.209  18.332  16.469  1.00  0.00     0.080 A 
HETATM    4  S2  UNL     1       9.843  18.883  17.950  1.00  0.00    -0.064 SA
HETATM    5  C4  UNL     1       8.390  18.963  18.829  1.00  0.00     0.151 A 
HETATM    6  N6  UNL     1       7.472  18.561  17.951  1.00  0.00    -0.333 N 
HETATM    7  C14 UNL     1       6.025  18.489  18.343  1.00  0.00     0.158 C 
BRANCH   5   8
HETATM    8  N1  UNL     1       8.181  19.329  20.084  1.00  0.00    -0.330 N 
ATOM      9  H1  UNL     1       7.535  20.078  20.334  1.00  0.00     0.168 HD
BRANCH   8  10
HETATM   10  C3  UNL     1       8.921  18.604  21.058  1.00  0.00     0.097 C 
HETATM   11  S1  UNL     1       8.614  17.033  21.274  1.00  0.00    -0.064 SA
BRANCH  10  12
HETATM   12  C2  UNL     1       9.952  19.276  21.860  1.00  0.00     0.139 C 
HETATM   13  C1  UNL     1       9.583  19.170  23.342  1.00  0.00     0.034 C 
HETATM   14 CL1  UNL     1      10.068  20.984  21.396  1.00  0.00    -0.118 Cl
ENDBRANCH  10  12
ENDBRANCH   8  10
ENDBRANCH   5   8
ENDBRANCH   1   2
BRANCH   1  15
HETATM   15  N2  UNL     1       6.865  16.322  15.617  1.00  0.00    -0.361 N 
ATOM     16  H2  UNL     1       6.230  15.851  16.262  1.00  0.00     0.162 HD
BRANCH  15  17
HETATM   17  C8  UNL     1       7.654  15.545  14.731  1.00  0.00     0.182 C 
HETATM   18  S3  UNL     1       8.188  16.200  13.332  1.00  0.00    -0.040 SA
BRANCH  17  19
HETATM   19  N3  UNL     1       8.007  14.197  15.024  1.00  0.00    -0.295 N 
ATOM     20  H3  UNL     1       8.009  13.506  14.275  1.00  0.00     0.183 HD
BRANCH  19  21
HETATM   21  N4  UNL     1       8.350  13.807  16.315  1.00  0.00    -0.226 NA
HETATM   22  C9  UNL     1       9.532  13.002  16.359  1.00  0.00     0.144 C 
HETATM   23  C10 UNL     1      10.806  13.797  16.177  1.00  0.00     0.288 C 
HETATM   24  N5  UNL     1      10.634  15.107  16.772  1.00  0.00     0.086 N 
HETATM   25  C11 UNL     1      11.876  15.727  17.140  1.00  0.00     0.310 C 
HETATM   26  C12 UNL     1       9.694  15.035  17.876  1.00  0.00     0.288 C 
HETATM   27  C13 UNL     1       8.314  14.865  17.275  1.00  0.00     0.144 C 
ENDBRANCH  19  21
ENDBRANCH  17  19
ENDBRANCH  15  17
ENDBRANCH   1  15
TORSDOF 8
ENDMDL
MODEL 4
REMARK VINA RESULT: -6.158354607      1.192      1.699
REMARK  8 active torsions:
REMARK  status: ('A' for Active; 'I' for Inactive)
REMARK    1  A    between atoms: C2_2  and  C3_4 
REMARK    2  A    between atoms: C3_4  and  N1_6 
REMARK    3  A    between atoms: N1_6  and  C4_8 
REMARK    4  A    between atoms: C6_11  and  C7_12 
REMARK    5  A    between atoms: C7_12  and  N2_13 
REMARK    6  A    between atoms: N2_13  and  C8_15 
REMARK    7  A    between atoms: C8_15  and  N3_17 
REMARK    8  A    between atoms: N3_17  and  N4_19 
ROOT
HETATM    1  C7  UNL     1       7.292  18.411  15.428  1.00  0.00     0.179 C 
ENDROOT
BRANCH   1   2
HETATM    2  C6  UNL     1       7.991  18.674  16.762  1.00  0.00     0.037 A 
HETATM    3  C5  UNL     1       9.354  18.784  16.771  1.00  0.00     0.080 A 
HETATM    4  S2  UNL     1       9.690  19.058  18.418  1.00  0.00    -0.064 SA
HETATM    5  C4  UNL     1       8.095  19.021  19.007  1.00  0.00     0.151 A 
HETATM    6  N6  UNL     1       7.365  18.798  17.916  1.00  0.00    -0.333 N 
HETATM    7  C14 UNL     1       5.870  18.694  18.009  1.00  0.00     0.158 C 
BRANCH   5   8
HETATM    8  N1  UNL     1       7.648  19.172  20.244  1.00  0.00    -0.330 N 
ATOM      9  H1  UNL     1       6.802  19.701  20.459  1.00  0.00     0.168 HD
BRANCH   8  10
HETATM   10  C3  UNL     1       8.431  18.545  21.252  1.00  0.00     0.097 C 
HETATM   11  S1  UNL     1       8.642  16.944  21.207  1.00  0.00    -0.064 SA
BRANCH  10  12
HETATM   12  C2  UNL     1       9.040  19.344  22.324  1.00  0.00     0.139 C 
HETATM   13  C1  UNL     1       8.402  20.735  22.337  1.00  0.00     0.034 C 
HETATM   14 CL1  UNL     1      10.787  19.492  22.055  1.00  0.00    -0.118 Cl
ENDBRANCH  10  12
ENDBRANCH   8  10
ENDBRANCH   5   8
ENDBRANCH   1   2
BRANCH   1  15
HETATM   15  N2  UNL     1       7.140  17.005  15.208  1.00  0.00    -0.361 N 
ATOM     16  H2  UNL     1       6.377  16.507  15.667  1.00  0.00     0.162 HD
BRANCH  15  17
HETATM   17  C8  UNL     1       8.027  16.288  14.364  1.00  0.00     0.182 C 
HETATM   18  S3  UNL     1       7.945  16.486  12.745  1.00  0.00    -0.040 SA
BRANCH  17  19
HETATM   19  N3  UNL     1       9.003  15.394  14.888  1.00  0.00    -0.295 N 
ATOM     20  H3  UNL     1       9.606  14.879  14.247  1.00  0.00     0.183 HD
BRANCH  19  21
HETATM   21  N4  UNL     1       9.148  15.209  16.260  1.00  0.00    -0.226 NA
HETATM   22  C9  UNL     1       8.898  13.862  16.670  1.00  0.00     0.144 C 
HETATM   23  C10 UNL     1      10.032  12.915  16.344  1.00  0.00     0.288 C 
HETATM   24  N5  UNL     1      11.288  13.628  16.451  1.00  0.00     0.086 N 
HETATM   25  C11 UNL     1      12.408  12.764  16.697  1.00  0.00     0.310 C 
HETATM   26  C12 UNL     1      11.176  14.693  17.432  1.00  0.00     0.288 C 
HETATM   27  C13 UNL     1      10.335  15.787  16.805  1.00  0.00     0.144 C 
ENDBRANCH  19  21
ENDBRANCH  17  19
ENDBRANCH  15  17
ENDBRANCH   1  15
TORSDOF 8
ENDMDL
MODEL 5
REMARK VINA RESULT: -6.132377836      1.600      2.010
REMARK  8 active torsions:
REMARK  status: ('A' for Active; 'I' for Inactive)
REMARK    1  A    between atoms: C2_2  and  C3_4 
REMARK    2  A    between atoms: C3_4  and  N1_6 
REMARK    3  A    between atoms: N1_6  and  C4_8 
REMARK    4  A    between atoms: C6_11  and  C7_12 
REMARK    5  A    between atoms: C7_12  and  N2_13 
REMARK    6  A    between atoms: N2_13  and  C8_15 
REMARK    7  A    between atoms: C8_15  and  N3_17 
REMARK    8  A    between atoms: N3_17  and  N4_19 
ROOT
HETATM    1  C7  UNL     1       6.376  17.772  16.568  1.00  0.00     0.179 C 
ENDROOT
BRANCH   1   2
HETATM    2  C6  UNL     1       7.074  17.798  17.927  1.00  0.00     0.037 A 
HETATM    3  C5  UNL     1       7.479  16.610  18.473  1.00  0.00     0.080 A 
HETATM    4  S2  UNL     1       8.178  17.102  19.945  1.00  0.00    -0.064 SA
HETATM    5  C4  UNL     1       7.925  18.777  19.795  1.00  0.00     0.151 A 
HETATM    6  N6  UNL     1       7.311  18.895  18.619  1.00  0.00    -0.333 N 
HETATM    7  C14 UNL     1       6.905  20.245  18.105  1.00  0.00     0.158 C 
BRANCH   5   8
HETATM    8  N1  UNL     1       8.244  19.757  20.625  1.00  0.00    -0.330 N 
ATOM      9  H1  UNL     1       7.541  20.297  21.130  1.00  0.00     0.168 HD
BRANCH   8  10
HETATM   10  C3  UNL     1       9.638  20.005  20.763  1.00  0.00     0.097 C 
HETATM   11  S1  UNL     1      10.526  20.276  19.441  1.00  0.00    -0.064 SA
BRANCH  10  12
HETATM   12  C2  UNL     1      10.264  20.011  22.092  1.00  0.00     0.139 C 
HETATM   13  C1  UNL     1       9.443  19.131  23.037  1.00  0.00     0.034 C 
HETATM   14 CL1  UNL     1      10.330  21.666  22.726  1.00  0.00    -0.118 Cl
ENDBRANCH  10  12
ENDBRANCH   8  10
ENDBRANCH   5   8
ENDBRANCH   1   2
BRANCH   1  15
HETATM   15  N2  UNL     1       6.768  16.614  15.822  1.00  0.00    -0.361 N 
ATOM     16  H2  UNL     1       6.212  15.761  15.895  1.00  0.00     0.162 HD
BRANCH  15  17
HETATM   17  C8  UNL     1       7.911  16.627  14.983  1.00  0.00     0.182 C 
HETATM   18  S3  UNL     1       7.955  17.619  13.685  1.00  0.00    -0.040 SA
BRANCH  17  19
HETATM   19  N3  UNL     1       9.040  15.798  15.238  1.00  0.00    -0.295 N 
ATOM     20  H3  UNL     1       9.566  15.412  14.455  1.00  0.00     0.183 HD
BRANCH  19  21
HETATM   21  N4  UNL     1       9.438  15.504  16.540  1.00  0.00    -0.226 NA
HETATM   22  C9  UNL     1       9.233  14.132  16.888  1.00  0.00     0.144 C 
HETATM   23  C10 UNL     1      10.257  13.199  16.281  1.00  0.00     0.288 C 
HETATM   24  N5  UNL     1      11.531  13.885  16.199  1.00  0.00     0.086 N 
HETATM   25  C11 UNL     1      12.652  12.990  16.161  1.00  0.00     0.310 C 
HETATM   26  C12 UNL     1      11.636  14.872  17.260  1.00  0.00     0.288 C 
HETATM   27  C13 UNL     1      10.722  16.022  16.889  1.00  0.00     0.144 C 
ENDBRANCH  19  21
ENDBRANCH  17  19
ENDBRANCH  15  17
ENDBRANCH   1  15
TORSDOF 8
ENDMDL
