MODEL 1
REMARK VINA RESULT: -2.934758863      0.000      0.000
REMARK  5 active torsions:
REMARK  status: ('A' for Active; 'I' for Inactive)
REMARK    1  A    between atoms: N1_2  and  C3_4 
REMARK    2  A    between atoms: N2_7  and  C6_8 
REMARK    3  A    between atoms: N3_12  and  C10_13 
REMARK    4  A    between atoms: C12_15  and  N4_16 
REMARK    5  A    between atoms: N4_16  and  C13_18 
ROOT
HETATM    1  C6  UNL     1       7.637  17.287  21.292  1.00  0.00     0.255 C 
HETATM    2  C7  UNL     1       8.624  16.101  21.016  1.00  0.00     0.072 C 
HETATM    3  C8  UNL     1       9.147  16.364  19.597  1.00  0.00     0.206 C 
HETATM    4  C9  UNL     1       8.444  15.703  18.469  1.00  0.00     0.157 C 
HETATM    5  N3  UNL     1       7.707  16.616  17.578  1.00  0.00    -0.365 N 
HETATM    6  C18 UNL     1       6.954  17.820  17.674  1.00  0.00     0.126 C 
HETATM    7  C19 UNL     1       6.573  18.319  19.073  1.00  0.00     0.055 C 
HETATM    8  C20 UNL     1       7.326  17.502  19.937  1.00  0.00     0.221 C 
HETATM    9  N7  UNL     1       8.716  17.740  19.465  1.00  0.00    -0.063 N 
ATOM     10  H71 UNL     1       8.837  18.188  18.557  1.00  0.00     0.278 HD
ATOM     11  H72 UNL     1       9.263  18.454  19.944  1.00  0.00     0.278 HD
ENDROOT
BRANCH   5  12
HETATM   12  C10 UNL     1       7.747  16.193  16.214  1.00  0.00     0.110 A 
HETATM   13  C11 UNL     1       7.702  17.020  15.141  1.00  0.00     0.096 A 
HETATM   14  C12 UNL     1       7.743  16.495  13.839  1.00  0.00     0.108 A 
HETATM   15  N5  UNL     1       7.826  15.179  13.678  1.00  0.00    -0.304 N 
HETATM   16  C17 UNL     1       7.871  14.349  14.746  1.00  0.00     0.268 A 
ATOM     17  H5  UNL     1       7.857  14.788  12.736  1.00  0.00     0.171 HD
HETATM   18  F1  UNL     1       7.956  13.012  14.558  1.00  0.00    -0.165 F 
HETATM   19  N6  UNL     1       7.831  14.876  15.977  1.00  0.00    -0.304 N 
ATOM     20  H6  UNL     1       7.865  14.242  16.776  1.00  0.00     0.171 HD
BRANCH  14  21
HETATM   21  N4  UNL     1       7.696  17.360  12.896  1.00  0.00    -0.368 N 
ATOM     22  H4  UNL     1       7.182  17.081  12.060  1.00  0.00     0.161 HD
BRANCH  21  23
HETATM   23  C13 UNL     1       8.271  18.660  12.867  1.00  0.00     0.021 C 
HETATM   24  C14 UNL     1       9.270  18.886  13.959  1.00  0.00     0.037 C 
HETATM   25  C15 UNL     1       8.906  18.926  11.524  1.00  0.00     0.037 C 
HETATM   26  C16 UNL     1       7.166  19.703  13.053  1.00  0.00     0.037 C 
ENDBRANCH  21  23
ENDBRANCH  14  21
ENDBRANCH   5  12
BRANCH   1  27
HETATM   27  N2  UNL     1       8.364  18.231  22.045  1.00  0.00     0.097 N 
HETATM   28  C5  UNL     1       9.777  17.940  22.182  1.00  0.00     0.275 C 
HETATM   29  C4  UNL     1      10.139  19.073  23.156  1.00  0.00     0.068 C 
HETATM   30  C3  UNL     1       9.417  20.229  22.474  1.00  0.00     0.252 C 
HETATM   31  C21 UNL     1       8.409  19.562  21.525  1.00  0.00     0.308 C 
BRANCH  30  32
HETATM   32  N1  UNL     1      10.383  20.951  21.680  1.00  0.00     0.086 N 
HETATM   33  C1  UNL     1      10.088  20.764  20.286  1.00  0.00     0.310 C 
HETATM   34  C2  UNL     1      10.474  22.337  22.043  1.00  0.00     0.310 C 
ENDBRANCH  30  32
ENDBRANCH   1  27
TORSDOF 5
ENDMDL
MODEL 2
REMARK VINA RESULT: -1.385716452      3.201      7.665
REMARK  5 active torsions:
REMARK  status: ('A' for Active; 'I' for Inactive)
REMARK    1  A    between atoms: N1_2  and  C3_4 
REMARK    2  A    between atoms: N2_7  and  C6_8 
REMARK    3  A    between atoms: N3_12  and  C10_13 
REMARK    4  A    between atoms: C12_15  and  N4_16 
REMARK    5  A    between atoms: N4_16  and  C13_18 
ROOT
HETATM    1  C6  UNL     1       8.760  15.212  16.243  1.00  0.00     0.255 C 
HETATM    2  C7  UNL     1       8.842  16.636  15.592  1.00  0.00     0.072 C 
HETATM    3  C8  UNL     1       9.218  17.564  16.755  1.00  0.00     0.206 C 
HETATM    4  C9  UNL     1       8.114  18.243  17.480  1.00  0.00     0.157 C 
HETATM    5  N3  UNL     1       7.915  17.791  18.868  1.00  0.00    -0.365 N 
HETATM    6  C18 UNL     1       8.006  16.584  19.618  1.00  0.00     0.126 C 
HETATM    7  C19 UNL     1       8.177  15.269  18.847  1.00  0.00     0.055 C 
HETATM    8  C20 UNL     1       8.442  15.687  17.529  1.00  0.00     0.221 C 
HETATM    9  N7  UNL     1       9.636  16.555  17.705  1.00  0.00    -0.063 N 
ATOM     10  H71 UNL     1       9.863  16.861  18.651  1.00  0.00     0.278 HD
ATOM     11  H72 UNL     1      10.553  16.131  17.571  1.00  0.00     0.278 HD
ENDROOT
BRANCH   5  12
HETATM   12  C10 UNL     1       7.515  18.854  19.733  1.00  0.00     0.110 A 
HETATM   13  C11 UNL     1       8.281  19.389  20.716  1.00  0.00     0.096 A 
HETATM   14  C12 UNL     1       7.784  20.432  21.514  1.00  0.00     0.108 A 
HETATM   15  N5  UNL     1       6.556  20.885  21.290  1.00  0.00    -0.304 N 
HETATM   16  C17 UNL     1       5.787  20.354  20.312  1.00  0.00     0.268 A 
ATOM     17  H5  UNL     1       6.187  21.643  21.864  1.00  0.00     0.171 HD
HETATM   18  F1  UNL     1       4.538  20.831  20.102  1.00  0.00    -0.165 F 
HETATM   19  N6  UNL     1       6.284  19.360  19.564  1.00  0.00    -0.304 N 
ATOM     20  H6  UNL     1       5.697  18.967  18.829  1.00  0.00     0.171 HD
BRANCH  14  21
HETATM   21  N4  UNL     1       8.587  20.867  22.411  1.00  0.00    -0.368 N 
ATOM     22  H4  UNL     1       8.161  21.142  23.296  1.00  0.00     0.161 HD
BRANCH  21  23
HETATM   23  C13 UNL     1      10.000  21.014  22.331  1.00  0.00     0.021 C 
HETATM   24  C14 UNL     1      10.501  22.256  23.001  1.00  0.00     0.037 C 
HETATM   25  C15 UNL     1      10.690  19.802  22.908  1.00  0.00     0.037 C 
HETATM   26  C16 UNL     1      10.413  21.105  20.860  1.00  0.00     0.037 C 
ENDBRANCH  21  23
ENDBRANCH  14  21
ENDBRANCH   5  12
BRANCH   1  27
HETATM   27  N2  UNL     1       9.991  14.586  15.968  1.00  0.00     0.097 N 
HETATM   28  C5  UNL     1      11.119  15.110  16.712  1.00  0.00     0.275 C 
HETATM   29  C4  UNL     1      12.229  14.297  16.027  1.00  0.00     0.068 C 
HETATM   30  C3  UNL     1      11.575  12.920  16.040  1.00  0.00     0.252 C 
HETATM   31  C21 UNL     1      10.082  13.193  16.282  1.00  0.00     0.308 C 
BRANCH  30  32
HETATM   32  N1  UNL     1      12.095  12.191  17.172  1.00  0.00     0.086 N 
HETATM   33  C1  UNL     1      12.565  13.121  18.162  1.00  0.00     0.310 C 
HETATM   34  C2  UNL     1      11.151  11.250  17.706  1.00  0.00     0.310 C 
ENDBRANCH  30  32
ENDBRANCH   1  27
TORSDOF 5
ENDMDL
MODEL 3
REMARK VINA RESULT: -1.375763989      2.146      7.699
REMARK  5 active torsions:
REMARK  status: ('A' for Active; 'I' for Inactive)
REMARK    1  A    between atoms: N1_2  and  C3_4 
REMARK    2  A    between atoms: N2_7  and  C6_8 
REMARK    3  A    between atoms: N3_12  and  C10_13 
REMARK    4  A    between atoms: C12_15  and  N4_16 
REMARK    5  A    between atoms: N4_16  and  C13_18 
ROOT
HETATM    1  C6  UNL     1       8.190  14.864  14.984  1.00  0.00     0.255 C 
HETATM    2  C7  UNL     1       6.824  15.255  15.644  1.00  0.00     0.072 C 
HETATM    3  C8  UNL     1       7.192  16.345  16.661  1.00  0.00     0.206 C 
HETATM    4  C9  UNL     1       7.453  15.922  18.060  1.00  0.00     0.157 C 
HETATM    5  N3  UNL     1       8.851  16.067  18.500  1.00  0.00    -0.365 N 
HETATM    6  C18 UNL     1      10.159  15.943  17.950  1.00  0.00     0.126 C 
HETATM    7  C19 UNL     1      10.297  15.308  16.561  1.00  0.00     0.055 C 
HETATM    8  C20 UNL     1       8.971  15.230  16.096  1.00  0.00     0.221 C 
HETATM    9  N7  UNL     1       8.522  16.646  16.176  1.00  0.00    -0.063 N 
ATOM     10  H71 UNL     1       9.090  17.291  16.725  1.00  0.00     0.278 HD
ATOM     11  H72 UNL     1       8.601  17.216  15.335  1.00  0.00     0.278 HD
ENDROOT
BRANCH   5  12
HETATM   12  C10 UNL     1       8.952  16.444  19.874  1.00  0.00     0.110 A 
HETATM   13  C11 UNL     1       8.813  17.706  20.348  1.00  0.00     0.096 A 
HETATM   14  C12 UNL     1       8.937  17.965  21.723  1.00  0.00     0.108 A 
HETATM   15  N5  UNL     1       9.193  16.955  22.548  1.00  0.00    -0.304 N 
HETATM   16  C17 UNL     1       9.333  15.694  22.079  1.00  0.00     0.268 A 
ATOM     17  H5  UNL     1       9.284  17.133  23.548  1.00  0.00     0.171 HD
HETATM   18  F1  UNL     1       9.592  14.681  22.938  1.00  0.00    -0.165 F 
HETATM   19  N6  UNL     1       9.209  15.474  20.764  1.00  0.00    -0.304 N 
ATOM     20  H6  UNL     1       9.317  14.519  20.421  1.00  0.00     0.171 HD
BRANCH  14  21
HETATM   21  N4  UNL     1       8.787  19.189  22.068  1.00  0.00    -0.368 N 
ATOM     22  H4  UNL     1       7.885  19.429  22.479  1.00  0.00     0.161 HD
BRANCH  21  23
HETATM   23  C13 UNL     1       9.719  20.256  21.949  1.00  0.00     0.021 C 
HETATM   24  C14 UNL     1      10.190  20.472  20.543  1.00  0.00     0.037 C 
HETATM   25  C15 UNL     1       9.131  21.534  22.496  1.00  0.00     0.037 C 
HETATM   26  C16 UNL     1      10.958  19.939  22.789  1.00  0.00     0.037 C 
ENDBRANCH  21  23
ENDBRANCH  14  21
ENDBRANCH   5  12
BRANCH   1  27
HETATM   27  N2  UNL     1       8.253  15.573  13.768  1.00  0.00     0.097 N 
HETATM   28  C5  UNL     1       6.966  15.903  13.190  1.00  0.00     0.275 C 
HETATM   29  C4  UNL     1       7.468  16.500  11.866  1.00  0.00     0.068 C 
HETATM   30  C3  UNL     1       8.582  17.392  12.400  1.00  0.00     0.252 C 
HETATM   31  C21 UNL     1       8.869  16.863  13.814  1.00  0.00     0.308 C 
BRANCH  30  32
HETATM   32  N1  UNL     1       8.063  18.734  12.511  1.00  0.00     0.086 N 
HETATM   33  C1  UNL     1       7.063  18.774  13.542  1.00  0.00     0.310 C 
HETATM   34  C2  UNL     1       9.095  19.713  12.707  1.00  0.00     0.310 C 
ENDBRANCH  30  32
ENDBRANCH   1  27
TORSDOF 5
ENDMDL
MODEL 4
REMARK VINA RESULT: -1.033281169      2.145      2.858
REMARK  5 active torsions:
REMARK  status: ('A' for Active; 'I' for Inactive)
REMARK    1  A    between atoms: N1_2  and  C3_4 
REMARK    2  A    between atoms: N2_7  and  C6_8 
REMARK    3  A    between atoms: N3_12  and  C10_13 
REMARK    4  A    between atoms: C12_15  and  N4_16 
REMARK    5  A    between atoms: N4_16  and  C13_18 
ROOT
HETATM    1  C6  UNL     1       7.790  17.610  20.549  1.00  0.00     0.255 C 
HETATM    2  C7  UNL     1       8.996  16.845  19.905  1.00  0.00     0.072 C 
HETATM    3  C8  UNL     1       9.422  17.731  18.726  1.00  0.00     0.206 C 
HETATM    4  C9  UNL     1       8.848  17.425  17.391  1.00  0.00     0.157 C 
HETATM    5  N3  UNL     1       7.918  18.441  16.869  1.00  0.00    -0.365 N 
HETATM    6  C18 UNL     1       6.932  19.338  17.368  1.00  0.00     0.126 C 
HETATM    7  C19 UNL     1       6.485  19.176  18.826  1.00  0.00     0.055 C 
HETATM    8  C20 UNL     1       7.411  18.260  19.360  1.00  0.00     0.221 C 
HETATM    9  N7  UNL     1       8.710  18.935  19.098  1.00  0.00    -0.063 N 
ATOM     10  H71 UNL     1       8.715  19.711  18.436  1.00  0.00     0.278 HD
ATOM     11  H72 UNL     1       9.106  19.506  19.845  1.00  0.00     0.278 HD
ENDROOT
BRANCH   5  12
HETATM   12  C10 UNL     1       8.016  18.590  15.452  1.00  0.00     0.110 A 
HETATM   13  C11 UNL     1       7.394  17.802  14.541  1.00  0.00     0.096 A 
HETATM   14  C12 UNL     1       7.564  18.036  13.167  1.00  0.00     0.108 A 
HETATM   15  N5  UNL     1       8.342  19.040  12.776  1.00  0.00    -0.304 N 
HETATM   16  C17 UNL     1       8.965  19.829  13.681  1.00  0.00     0.268 A 
ATOM     17  H5  UNL     1       8.470  19.218  11.780  1.00  0.00     0.171 HD
HETATM   18  F1  UNL     1       9.752  20.845  13.260  1.00  0.00    -0.165 F 
HETATM   19  N6  UNL     1       8.786  19.584  14.986  1.00  0.00    -0.304 N 
ATOM     20  H6  UNL     1       9.260  20.185  15.661  1.00  0.00     0.171 HD
BRANCH  14  21
HETATM   21  N4  UNL     1       6.932  17.237  12.391  1.00  0.00    -0.368 N 
ATOM     22  H4  UNL     1       5.986  17.518  12.136  1.00  0.00     0.161 HD
BRANCH  21  23
HETATM   23  C13 UNL     1       7.385  16.007  11.840  1.00  0.00     0.021 C 
HETATM   24  C14 UNL     1       7.658  14.962  12.878  1.00  0.00     0.037 C 
HETATM   25  C15 UNL     1       6.391  15.483  10.831  1.00  0.00     0.037 C 
HETATM   26  C16 UNL     1       8.698  16.243  11.091  1.00  0.00     0.037 C 
ENDBRANCH  21  23
ENDBRANCH  14  21
ENDBRANCH   5  12
BRANCH   1  27
HETATM   27  N2  UNL     1       8.319  18.319  21.646  1.00  0.00     0.097 N 
HETATM   28  C5  UNL     1       9.660  17.929  22.031  1.00  0.00     0.275 C 
HETATM   29  C4  UNL     1       9.783  18.792  23.297  1.00  0.00     0.068 C 
HETATM   30  C3  UNL     1       9.241  20.109  22.756  1.00  0.00     0.252 C 
HETATM   31  C21 UNL     1       8.484  19.729  21.473  1.00  0.00     0.308 C 
BRANCH  30  32
HETATM   32  N1  UNL     1      10.366  20.938  22.393  1.00  0.00     0.086 N 
HETATM   33  C1  UNL     1      10.384  21.119  20.968  1.00  0.00     0.310 C 
HETATM   34  C2  UNL     1      10.390  22.184  23.106  1.00  0.00     0.310 C 
ENDBRANCH  30  32
ENDBRANCH   1  27
TORSDOF 5
ENDMDL
MODEL 5
REMARK VINA RESULT: -0.820573857      2.232      3.765
REMARK  5 active torsions:
REMARK  status: ('A' for Active; 'I' for Inactive)
REMARK    1  A    between atoms: N1_2  and  C3_4 
REMARK    2  A    between atoms: N2_7  and  C6_8 
REMARK    3  A    between atoms: N3_12  and  C10_13 
REMARK    4  A    between atoms: C12_15  and  N4_16 
REMARK    5  A    between atoms: N4_16  and  C13_18 
ROOT
HETATM    1  C6  UNL     1       7.323  19.249  20.335  1.00  0.00     0.255 C 
HETATM    2  C7  UNL     1       7.837  17.892  20.927  1.00  0.00     0.072 C 
HETATM    3  C8  UNL     1       8.799  17.352  19.860  1.00  0.00     0.206 C 
HETATM    4  C9  UNL     1       8.252  16.408  18.853  1.00  0.00     0.157 C 
HETATM    5  N3  UNL     1       8.188  16.937  17.479  1.00  0.00    -0.365 N 
HETATM    6  C18 UNL     1       7.937  18.177  16.826  1.00  0.00     0.126 C 
HETATM    7  C19 UNL     1       7.388  19.334  17.668  1.00  0.00     0.055 C 
HETATM    8  C20 UNL     1       7.510  18.872  18.993  1.00  0.00     0.221 C 
HETATM    9  N7  UNL     1       8.962  18.566  19.088  1.00  0.00    -0.063 N 
ATOM     10  H71 UNL     1       9.491  18.506  18.218  1.00  0.00     0.278 HD
ATOM     11  H72 UNL     1       9.574  19.288  19.467  1.00  0.00     0.278 HD
ENDROOT
BRANCH   5  12
HETATM   12  C10 UNL     1       8.453  15.933  16.499  1.00  0.00     0.110 A 
HETATM   13  C11 UNL     1       9.299  14.886  16.663  1.00  0.00     0.096 A 
HETATM   14  C12 UNL     1       9.489  13.958  15.626  1.00  0.00     0.108 A 
HETATM   15  N5  UNL     1       8.828  14.122  14.486  1.00  0.00    -0.304 N 
HETATM   16  C17 UNL     1       7.983  15.166  14.316  1.00  0.00     0.268 A 
ATOM     17  H5  UNL     1       8.959  13.453  13.728  1.00  0.00     0.171 HD
HETATM   18  F1  UNL     1       7.320  15.313  13.146  1.00  0.00    -0.165 F 
HETATM   19  N6  UNL     1       7.819  16.037  15.320  1.00  0.00    -0.304 N 
ATOM     20  H6  UNL     1       7.180  16.820  15.183  1.00  0.00     0.171 HD
BRANCH  14  21
HETATM   21  N4  UNL     1      10.306  13.007  15.884  1.00  0.00    -0.368 N 
ATOM     22  H4  UNL     1      10.032  12.081  15.554  1.00  0.00     0.161 HD
BRANCH  21  23
HETATM   23  C13 UNL     1      11.549  13.078  16.571  1.00  0.00     0.021 C 
HETATM   24  C14 UNL     1      11.749  14.376  17.292  1.00  0.00     0.037 C 
HETATM   25  C15 UNL     1      11.685  11.926  17.537  1.00  0.00     0.037 C 
HETATM   26  C16 UNL     1      12.691  12.951  15.560  1.00  0.00     0.037 C 
ENDBRANCH  21  23
ENDBRANCH  14  21
ENDBRANCH   5  12
BRANCH   1  27
HETATM   27  N2  UNL     1       8.101  20.257  20.938  1.00  0.00     0.097 N 
HETATM   28  C5  UNL     1       7.950  20.364  22.375  1.00  0.00     0.275 C 
HETATM   29  C4  UNL     1       8.805  21.622  22.591  1.00  0.00     0.068 C 
HETATM   30  C3  UNL     1      10.012  21.254  21.738  1.00  0.00     0.252 C 
HETATM   31  C21 UNL     1       9.520  20.121  20.823  1.00  0.00     0.308 C 
BRANCH  30  32
HETATM   32  N1  UNL     1      11.031  20.724  22.612  1.00  0.00     0.086 N 
HETATM   33  C1  UNL     1      11.264  21.649  23.687  1.00  0.00     0.310 C 
HETATM   34  C2  UNL     1      10.727  19.402  23.081  1.00  0.00     0.310 C 
ENDBRANCH  30  32
ENDBRANCH   1  27
TORSDOF 5
ENDMDL
