MODEL 1
REMARK VINA RESULT: -7.553862236      0.000      0.000
REMARK  5 active torsions:
REMARK  status: ('A' for Active; 'I' for Inactive)
REMARK    1  A    between atoms: C3_3  and  C4_4 
REMARK    2  A    between atoms: C4_4  and  N1_5 
REMARK    3  A    between atoms: C7_8  and  N2_9 
REMARK    4  A    between atoms: C8_12  and  C9_13 
REMARK    5  A    between atoms: C9_13  and  O1_14 
ROOT
HETATM    1  C1  UNL     1      10.391  19.787  22.774  1.00  0.00     0.112 C 
HETATM    2  C2  UNL     1       9.521  19.005  21.903  1.00  0.00    -0.109 C 
HETATM    3  C3  UNL     1       8.802  18.431  21.150  1.00  0.00    -0.077 C 
ENDROOT
BRANCH   3   4
HETATM    4  C4  UNL     1       7.893  17.825  20.147  1.00  0.00     0.365 C 
BRANCH   4   5
HETATM    5  N1  UNL     1       7.507  18.830  19.146  1.00  0.00     0.099 N 
HETATM    6  C5  UNL     1       8.674  19.510  18.613  1.00  0.00     0.275 C 
HETATM    7  C6  UNL     1       9.146  18.836  17.361  1.00  0.00     0.057 C 
HETATM    8  C7  UNL     1       8.175  19.233  16.232  1.00  0.00     0.111 C 
HETATM    9  C19 UNL     1       6.818  19.114  16.831  1.00  0.00     0.057 C 
HETATM   10  C20 UNL     1       6.782  18.199  18.041  1.00  0.00     0.275 C 
BRANCH   8  11
HETATM   11  N2  UNL     1       8.294  18.159  15.213  1.00  0.00    -0.290 N 
HETATM   12  N3  UNL     1       7.932  18.267  13.998  1.00  0.00    -0.295 N 
HETATM   13  C8  UNL     1       7.813  17.169  13.312  1.00  0.00     0.087 A 
ATOM     14  H3  UNL     1       7.742  19.177  13.580  1.00  0.00     0.187 HD
HETATM   15  C10 UNL     1       8.164  16.188  14.320  1.00  0.00     0.086 A 
HETATM   16  C11 UNL     1       8.507  16.840  15.483  1.00  0.00     0.051 A 
HETATM   17  C18 UNL     1       7.893  14.787  14.172  1.00  0.00     0.256 C 
HETATM   18  C12 UNL     1       9.071  16.361  16.737  1.00  0.00     0.045 C 
HETATM   19  C13 UNL     1      10.577  16.477  16.781  1.00  0.00     0.031 C 
HETATM   20  C16 UNL     1       8.844  14.944  17.048  1.00  0.00     0.015 C 
HETATM   21  C14 UNL     1      10.942  15.602  17.966  1.00  0.00     0.083 C 
HETATM   22 CL1  UNL     1      12.344  14.595  17.524  1.00  0.00    -0.125 Cl
HETATM   23  C15 UNL     1       9.737  14.761  18.284  1.00  0.00     0.027 C 
HETATM   24  C17 UNL     1       9.357  13.924  16.047  1.00  0.00     0.128 C 
HETATM   25  N4  UNL     1       8.328  13.700  15.040  1.00  0.00    -0.356 N 
ATOM     26  H4  UNL     1       7.909  12.775  14.942  1.00  0.00     0.162 HD
HETATM   27  O2  UNL     1       7.170  14.448  13.203  1.00  0.00    -0.268 OA
BRANCH  13  28
HETATM   28  C9  UNL     1       7.669  16.668  11.960  1.00  0.00     0.163 C 
BRANCH  28  29
HETATM   29  O1  UNL     1       6.393  16.413  11.521  1.00  0.00    -0.370 OA
ATOM     30  H1  UNL     1       6.178  16.683  10.636  1.00  0.00     0.216 HD
ENDBRANCH  28  29
ENDBRANCH  13  28
ENDBRANCH   8  11
ENDBRANCH   4   5
ENDBRANCH   3   4
TORSDOF 5
ENDMDL
MODEL 2
REMARK VINA RESULT: -7.443410613      1.737      2.470
REMARK  5 active torsions:
REMARK  status: ('A' for Active; 'I' for Inactive)
REMARK    1  A    between atoms: C3_3  and  C4_4 
REMARK    2  A    between atoms: C4_4  and  N1_5 
REMARK    3  A    between atoms: C7_8  and  N2_9 
REMARK    4  A    between atoms: C8_12  and  C9_13 
REMARK    5  A    between atoms: C9_13  and  O1_14 
ROOT
HETATM    1  C1  UNL     1       9.910  22.344  22.758  1.00  0.00     0.112 C 
HETATM    2  C2  UNL     1       9.976  21.016  22.158  1.00  0.00    -0.109 C 
HETATM    3  C3  UNL     1      10.101  19.953  21.641  1.00  0.00    -0.077 C 
ENDROOT
BRANCH   3   4
HETATM    4  C4  UNL     1      10.369  18.666  20.954  1.00  0.00     0.365 C 
BRANCH   4   5
HETATM    5  N1  UNL     1       9.102  17.999  20.623  1.00  0.00     0.099 N 
HETATM    6  C5  UNL     1       8.059  18.971  20.347  1.00  0.00     0.275 C 
HETATM    7  C6  UNL     1       7.983  19.254  18.877  1.00  0.00     0.057 C 
HETATM    8  C7  UNL     1       7.289  18.050  18.212  1.00  0.00     0.111 C 
HETATM    9  C19 UNL     1       7.908  16.852  18.841  1.00  0.00     0.057 C 
HETATM   10  C20 UNL     1       9.269  17.139  19.449  1.00  0.00     0.275 C 
BRANCH   8  11
HETATM   11  N2  UNL     1       7.731  18.073  16.795  1.00  0.00    -0.290 N 
HETATM   12  N3  UNL     1       7.816  19.121  16.077  1.00  0.00    -0.295 N 
HETATM   13  C8  UNL     1       7.918  18.955  14.792  1.00  0.00     0.087 A 
ATOM     14  H3  UNL     1       7.804  20.052  16.493  1.00  0.00     0.187 HD
HETATM   15  C10 UNL     1       7.874  17.509  14.707  1.00  0.00     0.086 A 
HETATM   16  C11 UNL     1       7.807  16.984  15.978  1.00  0.00     0.051 A 
HETATM   17  C18 UNL     1       7.640  16.807  13.477  1.00  0.00     0.256 C 
HETATM   18  C12 UNL     1       7.888  15.618  16.472  1.00  0.00     0.045 C 
HETATM   19  C13 UNL     1       9.287  15.233  16.895  1.00  0.00     0.031 C 
HETATM   20  C16 UNL     1       7.535  14.562  15.515  1.00  0.00     0.015 C 
HETATM   21  C14 UNL     1       9.198  13.722  17.000  1.00  0.00     0.083 C 
HETATM   22 CL1  UNL     1      10.643  13.008  16.241  1.00  0.00    -0.125 Cl
HETATM   23  C15 UNL     1       7.939  13.302  16.295  1.00  0.00     0.027 C 
HETATM   24  C17 UNL     1       8.341  14.495  14.229  1.00  0.00     0.128 C 
HETATM   25  N4  UNL     1       7.721  15.371  13.244  1.00  0.00    -0.356 N 
ATOM     26  H4  UNL     1       7.341  14.975  12.384  1.00  0.00     0.162 HD
HETATM   27  O2  UNL     1       7.291  17.495  12.488  1.00  0.00    -0.268 OA
BRANCH  13  28
HETATM   28  C9  UNL     1       8.241  19.655  13.565  1.00  0.00     0.163 C 
BRANCH  28  29
HETATM   29  O1  UNL     1       7.192  20.173  12.845  1.00  0.00    -0.370 OA
ATOM     30  H1  UNL     1       6.954  21.077  13.017  1.00  0.00     0.216 HD
ENDBRANCH  28  29
ENDBRANCH  13  28
ENDBRANCH   8  11
ENDBRANCH   4   5
ENDBRANCH   3   4
TORSDOF 5
ENDMDL
MODEL 3
REMARK VINA RESULT: -6.739047556      2.805      5.090
REMARK  5 active torsions:
REMARK  status: ('A' for Active; 'I' for Inactive)
REMARK    1  A    between atoms: C3_3  and  C4_4 
REMARK    2  A    between atoms: C4_4  and  N1_5 
REMARK    3  A    between atoms: C7_8  and  N2_9 
REMARK    4  A    between atoms: C8_12  and  C9_13 
REMARK    5  A    between atoms: C9_13  and  O1_14 
ROOT
HETATM    1  C1  UNL     1      13.747  16.866  17.620  1.00  0.00     0.112 C 
HETATM    2  C2  UNL     1      13.142  15.611  17.188  1.00  0.00    -0.109 C 
HETATM    3  C3  UNL     1      12.718  14.566  16.810  1.00  0.00    -0.077 C 
ENDROOT
BRANCH   3   4
HETATM    4  C4  UNL     1      12.308  13.237  16.296  1.00  0.00     0.365 C 
BRANCH   4   5
HETATM    5  N1  UNL     1      10.910  12.967  16.661  1.00  0.00     0.099 N 
HETATM    6  C5  UNL     1      10.414  13.960  17.597  1.00  0.00     0.275 C 
HETATM    7  C6  UNL     1       9.726  15.072  16.864  1.00  0.00     0.057 C 
HETATM    8  C7  UNL     1       8.350  14.544  16.416  1.00  0.00     0.111 C 
HETATM    9  C19 UNL     1       8.615  13.179  15.885  1.00  0.00     0.057 C 
HETATM   10  C20 UNL     1      10.059  12.975  15.468  1.00  0.00     0.275 C 
BRANCH   8  11
HETATM   11  N2  UNL     1       7.960  15.390  15.260  1.00  0.00    -0.290 N 
HETATM   12  N3  UNL     1       7.799  14.967  14.070  1.00  0.00    -0.295 N 
HETATM   13  C8  UNL     1       7.760  15.855  13.122  1.00  0.00     0.087 A 
ATOM     14  H3  UNL     1       7.704  13.972  13.869  1.00  0.00     0.187 HD
HETATM   15  C10 UNL     1       7.948  17.071  13.890  1.00  0.00     0.086 A 
HETATM   16  C11 UNL     1       8.021  16.752  15.227  1.00  0.00     0.051 A 
HETATM   17  C18 UNL     1       8.294  18.327  13.289  1.00  0.00     0.256 C 
HETATM   18  C12 UNL     1       8.056  17.579  16.424  1.00  0.00     0.045 C 
HETATM   19  C13 UNL     1       6.686  17.787  17.030  1.00  0.00     0.031 C 
HETATM   20  C16 UNL     1       8.545  18.953  16.247  1.00  0.00     0.015 C 
HETATM   21  C14 UNL     1       6.919  18.939  17.989  1.00  0.00     0.083 C 
HETATM   22 CL1  UNL     1       5.580  20.103  17.824  1.00  0.00    -0.125 Cl
HETATM   23  C15 UNL     1       8.238  19.560  17.623  1.00  0.00     0.027 C 
HETATM   24  C17 UNL     1       7.797  19.832  15.261  1.00  0.00     0.128 C 
HETATM   25  N4  UNL     1       8.363  19.632  13.934  1.00  0.00    -0.356 N 
ATOM     26  H4  UNL     1       8.810  20.412  13.452  1.00  0.00     0.162 HD
HETATM   27  O2  UNL     1       8.610  18.308  12.074  1.00  0.00    -0.268 OA
BRANCH  13  28
HETATM   28  C9  UNL     1       7.414  16.033  11.726  1.00  0.00     0.163 C 
BRANCH  28  29
HETATM   29  O1  UNL     1       6.092  16.260  11.432  1.00  0.00    -0.370 OA
ATOM     30  H1  UNL     1       5.834  16.191  10.520  1.00  0.00     0.216 HD
ENDBRANCH  28  29
ENDBRANCH  13  28
ENDBRANCH   8  11
ENDBRANCH   4   5
ENDBRANCH   3   4
TORSDOF 5
ENDMDL
MODEL 4
REMARK VINA RESULT: -6.469693590      1.996      3.114
REMARK  5 active torsions:
REMARK  status: ('A' for Active; 'I' for Inactive)
REMARK    1  A    between atoms: C3_3  and  C4_4 
REMARK    2  A    between atoms: C4_4  and  N1_5 
REMARK    3  A    between atoms: C7_8  and  N2_9 
REMARK    4  A    between atoms: C8_12  and  C9_13 
REMARK    5  A    between atoms: C9_13  and  O1_14 
ROOT
HETATM    1  C1  UNL     1       5.694  19.787  18.268  1.00  0.00     0.112 C 
HETATM    2  C2  UNL     1       6.404  19.921  19.535  1.00  0.00    -0.109 C 
HETATM    3  C3  UNL     1       7.048  20.016  20.529  1.00  0.00    -0.077 C 
ENDROOT
BRANCH   3   4
HETATM    4  C4  UNL     1       7.955  20.104  21.700  1.00  0.00     0.365 C 
BRANCH   4   5
HETATM    5  N1  UNL     1       9.267  19.532  21.364  1.00  0.00     0.099 N 
HETATM    6  C5  UNL     1       9.233  18.081  21.426  1.00  0.00     0.275 C 
HETATM    7  C6  UNL     1       8.937  17.507  20.073  1.00  0.00     0.057 C 
HETATM    8  C7  UNL     1      10.224  17.623  19.234  1.00  0.00     0.111 C 
HETATM    9  C19 UNL     1      10.742  18.989  19.509  1.00  0.00     0.057 C 
HETATM   10  C20 UNL     1       9.672  19.938  20.017  1.00  0.00     0.275 C 
BRANCH   8  11
HETATM   11  N2  UNL     1       9.775  17.606  17.819  1.00  0.00    -0.290 N 
HETATM   12  N3  UNL     1       9.238  18.589  17.215  1.00  0.00    -0.295 N 
HETATM   13  C8  UNL     1       8.627  18.338  16.095  1.00  0.00     0.087 A 
ATOM     14  H3  UNL     1       9.286  19.535  17.593  1.00  0.00     0.187 HD
HETATM   15  C10 UNL     1       8.820  16.905  16.003  1.00  0.00     0.086 A 
HETATM   16  C11 UNL     1       9.583  16.483  17.069  1.00  0.00     0.051 A 
HETATM   17  C18 UNL     1       8.072  16.073  15.104  1.00  0.00     0.256 C 
HETATM   18  C12 UNL     1      10.188  15.198  17.385  1.00  0.00     0.045 C 
HETATM   19  C13 UNL     1      11.624  15.100  16.923  1.00  0.00     0.031 C 
HETATM   20  C16 UNL     1       9.565  14.020  16.765  1.00  0.00     0.015 C 
HETATM   21  C14 UNL     1      11.900  13.611  17.012  1.00  0.00     0.083 C 
HETATM   22 CL1  UNL     1      12.769  13.100  15.542  1.00  0.00    -0.125 Cl
HETATM   23  C15 UNL     1      10.570  12.920  17.135  1.00  0.00     0.027 C 
HETATM   24  C17 UNL     1       9.500  13.990  15.248  1.00  0.00     0.128 C 
HETATM   25  N4  UNL     1       8.280  14.659  14.820  1.00  0.00    -0.356 N 
ATOM     26  H4  UNL     1       7.565  14.134  14.316  1.00  0.00     0.162 HD
HETATM   27  O2  UNL     1       7.102  16.606  14.512  1.00  0.00    -0.268 OA
BRANCH  13  28
HETATM   28  C9  UNL     1       8.061  18.980  14.926  1.00  0.00     0.163 C 
BRANCH  28  29
HETATM   29  O1  UNL     1       8.900  19.190  13.859  1.00  0.00    -0.370 OA
ATOM     30  H1  UNL     1       9.310  18.425  13.474  1.00  0.00     0.216 HD
ENDBRANCH  28  29
ENDBRANCH  13  28
ENDBRANCH   8  11
ENDBRANCH   4   5
ENDBRANCH   3   4
TORSDOF 5
ENDMDL
MODEL 5
REMARK VINA RESULT: -5.854849420      3.421      6.614
REMARK  5 active torsions:
REMARK  status: ('A' for Active; 'I' for Inactive)
REMARK    1  A    between atoms: C3_3  and  C4_4 
REMARK    2  A    between atoms: C4_4  and  N1_5 
REMARK    3  A    between atoms: C7_8  and  N2_9 
REMARK    4  A    between atoms: C8_12  and  C9_13 
REMARK    5  A    between atoms: C9_13  and  O1_14 
ROOT
HETATM    1  C1  UNL     1       7.917  16.071  12.199  1.00  0.00     0.112 C 
HETATM    2  C2  UNL     1       7.914  15.309  13.443  1.00  0.00    -0.109 C 
HETATM    3  C3  UNL     1       7.834  14.700  14.461  1.00  0.00    -0.077 C 
ENDROOT
BRANCH   3   4
HETATM    4  C4  UNL     1       7.611  13.968  15.732  1.00  0.00     0.365 C 
BRANCH   4   5
HETATM    5  N1  UNL     1       8.835  13.990  16.547  1.00  0.00     0.099 N 
HETATM    6  C5  UNL     1       9.908  14.683  15.856  1.00  0.00     0.275 C 
HETATM    7  C6  UNL     1       9.939  16.128  16.254  1.00  0.00     0.057 C 
HETATM    8  C7  UNL     1      10.554  16.202  17.665  1.00  0.00     0.111 C 
HETATM    9  C19 UNL     1       9.907  15.100  18.426  1.00  0.00     0.057 C 
HETATM   10  C20 UNL     1       8.585  14.660  17.825  1.00  0.00     0.275 C 
BRANCH   8  11
HETATM   11  N2  UNL     1      10.059  17.477  18.244  1.00  0.00    -0.290 N 
HETATM   12  N3  UNL     1      10.502  18.012  19.310  1.00  0.00    -0.295 N 
HETATM   13  C8  UNL     1       9.781  18.947  19.852  1.00  0.00     0.087 A 
ATOM     14  H3  UNL     1      11.388  17.718  19.722  1.00  0.00     0.187 HD
HETATM   15  C10 UNL     1       8.660  18.982  18.934  1.00  0.00     0.086 A 
HETATM   16  C11 UNL     1       8.886  18.087  17.912  1.00  0.00     0.051 A 
HETATM   17  C18 UNL     1       7.419  19.634  19.243  1.00  0.00     0.256 C 
HETATM   18  C12 UNL     1       8.173  17.829  16.670  1.00  0.00     0.045 C 
HETATM   19  C13 UNL     1       8.747  18.592  15.498  1.00  0.00     0.031 C 
HETATM   20  C16 UNL     1       6.755  18.213  16.646  1.00  0.00     0.015 C 
HETATM   21  C14 UNL     1       7.653  18.466  14.454  1.00  0.00     0.083 C 
HETATM   22 CL1  UNL     1       7.412  20.055  13.683  1.00  0.00    -0.125 Cl
HETATM   23  C15 UNL     1       6.413  18.003  15.164  1.00  0.00     0.027 C 
HETATM   24  C17 UNL     1       6.428  19.671  16.915  1.00  0.00     0.128 C 
HETATM   25  N4  UNL     1       6.288  19.861  18.352  1.00  0.00    -0.356 N 
ATOM     26  H4  UNL     1       5.391  20.155  18.739  1.00  0.00     0.162 HD
HETATM   27  O2  UNL     1       7.264  20.029  20.424  1.00  0.00    -0.268 OA
BRANCH  13  28
HETATM   28  C9  UNL     1       9.823  20.001  20.846  1.00  0.00     0.163 C 
BRANCH  28  29
HETATM   29  O1  UNL     1      10.138  21.263  20.407  1.00  0.00    -0.370 OA
ATOM     30  H1  UNL     1      10.034  21.976  21.026  1.00  0.00     0.216 HD
ENDBRANCH  28  29
ENDBRANCH  13  28
ENDBRANCH   8  11
ENDBRANCH   4   5
ENDBRANCH   3   4
TORSDOF 5
ENDMDL
