MODEL 1
REMARK VINA RESULT: -2.698921335      0.000      0.000
REMARK  2 active torsions:
REMARK  status: ('A' for Active; 'I' for Inactive)
REMARK    1  A    between atoms: N3_23  and  O3_24 
REMARK    2  A    between atoms: C18_26  and  C19_27 
ROOT
HETATM    1  C1  UNL     1       7.275  20.019  16.620  1.00  0.00     0.156 C 
HETATM    2  N1  UNL     1       7.593  19.038  17.580  1.00  0.00    -0.349 N 
HETATM    3  C2  UNL     1       7.452  19.374  18.982  1.00  0.00     0.056 A 
HETATM    4  C3  UNL     1       6.251  20.008  19.135  1.00  0.00     0.031 A 
HETATM    5  C4  UNL     1       5.887  20.415  20.392  1.00  0.00     0.002 A 
HETATM    6  C5  UNL     1       6.722  20.187  21.492  1.00  0.00     0.002 A 
HETATM    7  C6  UNL     1       7.924  19.550  21.304  1.00  0.00     0.026 A 
HETATM    8  C7  UNL     1       8.288  19.144  20.038  1.00  0.00     0.090 A 
HETATM    9  S1  UNL     1       9.895  18.479  19.947  1.00  0.00     0.200 S 
HETATM   10  O1  UNL     1      10.322  17.969  21.318  1.00  0.00    -0.218 OA
HETATM   11  O2  UNL     1      10.892  19.565  19.554  1.00  0.00    -0.218 OA
HETATM   12  C8  UNL     1       9.983  17.214  18.810  1.00  0.00     0.130 C 
HETATM   13  C9  UNL     1       9.272  17.129  17.576  1.00  0.00     0.033 A 
HETATM   14  C10 UNL     1       8.130  17.788  17.103  1.00  0.00     0.060 A 
HETATM   15  C11 UNL     1       7.489  17.454  15.935  1.00  0.00     0.022 A 
HETATM   16  C12 UNL     1       6.339  18.091  15.601  1.00  0.00     0.038 A 
HETATM   17  C13 UNL     1       5.690  17.692  14.437  1.00  0.00     0.045 A 
HETATM   18  C14 UNL     1       4.481  18.325  14.024  1.00  0.00     0.099 C 
HETATM   19  N2  UNL     1       3.479  18.826  13.684  1.00  0.00    -0.191 NA
HETATM   20  C15 UNL     1       6.194  16.678  13.650  1.00  0.00     0.025 A 
HETATM   21  C16 UNL     1       7.359  16.052  14.031  1.00  0.00     0.034 A 
HETATM   22  C17 UNL     1       8.030  16.414  15.168  1.00  0.00     0.075 A 
HETATM   23  N3  UNL     1       9.122  15.788  15.603  1.00  0.00    -0.222 N 
HETATM   24  C18 UNL     1       9.741  16.098  16.749  1.00  0.00     0.087 A 
ENDROOT
BRANCH  23  25
HETATM   25  O3  UNL     1       9.645  14.764  14.837  1.00  0.00    -0.282 OA
ATOM     26  H3  UNL     1       9.648  14.860  13.892  1.00  0.00     0.245 HD
ENDBRANCH  23  25
BRANCH  24  27
HETATM   27  C19 UNL     1      10.944  15.376  17.151  1.00  0.00     0.009 A 
HETATM   28  C20 UNL     1      12.190  16.007  17.063  1.00  0.00     0.016 A 
HETATM   29  C21 UNL     1      13.294  15.279  17.438  1.00  0.00     0.018 A 
HETATM   30  C22 UNL     1      13.229  13.976  17.891  1.00  0.00     0.087 A 
HETATM   31  N4  UNL     1      12.011  13.408  17.961  1.00  0.00    -0.374 N 
HETATM   32  C23 UNL     1      10.902  14.080  17.605  1.00  0.00     0.101 A 
ATOM     33  H4  UNL     1      11.928  12.446  18.290  1.00  0.00     0.164 HD
ENDBRANCH  24  27
TORSDOF 2
ENDMDL
MODEL 2
REMARK VINA RESULT: -0.909811209      2.013      5.810
REMARK  2 active torsions:
REMARK  status: ('A' for Active; 'I' for Inactive)
REMARK    1  A    between atoms: N3_23  and  O3_24 
REMARK    2  A    between atoms: C18_26  and  C19_27 
ROOT
HETATM    1  C1  UNL     1       9.284  15.655  20.103  1.00  0.00     0.156 C 
HETATM    2  N1  UNL     1       9.049  16.892  19.471  1.00  0.00    -0.349 N 
HETATM    3  C2  UNL     1       8.957  18.081  20.294  1.00  0.00     0.056 A 
HETATM    4  C3  UNL     1       9.988  18.042  21.189  1.00  0.00     0.031 A 
HETATM    5  C4  UNL     1      10.118  19.079  22.076  1.00  0.00     0.002 A 
HETATM    6  C5  UNL     1       9.218  20.151  22.065  1.00  0.00     0.002 A 
HETATM    7  C6  UNL     1       8.191  20.159  21.154  1.00  0.00     0.026 A 
HETATM    8  C7  UNL     1       8.062  19.113  20.265  1.00  0.00     0.090 A 
HETATM    9  S1  UNL     1       6.634  19.204  19.274  1.00  0.00     0.200 S 
HETATM   10  O1  UNL     1       6.154  20.648  19.189  1.00  0.00    -0.218 OA
HETATM   11  O2  UNL     1       5.501  18.402  19.908  1.00  0.00    -0.218 OA
HETATM   12  C8  UNL     1       6.923  18.602  17.707  1.00  0.00     0.130 C 
HETATM   13  C9  UNL     1       7.777  17.513  17.358  1.00  0.00     0.033 A 
HETATM   14  C10 UNL     1       8.820  16.881  18.047  1.00  0.00     0.060 A 
HETATM   15  C11 UNL     1       9.646  15.941  17.479  1.00  0.00     0.022 A 
HETATM   16  C12 UNL     1      10.684  15.446  18.198  1.00  0.00     0.038 A 
HETATM   17  C13 UNL     1      11.530  14.534  17.574  1.00  0.00     0.045 A 
HETATM   18  C14 UNL     1      12.636  13.970  18.274  1.00  0.00     0.099 C 
HETATM   19  N2  UNL     1      13.556  13.511  18.834  1.00  0.00    -0.191 NA
HETATM   20  C15 UNL     1      11.324  14.150  16.265  1.00  0.00     0.025 A 
HETATM   21  C16 UNL     1      10.263  14.684  15.570  1.00  0.00     0.034 A 
HETATM   22  C17 UNL     1       9.406  15.582  16.146  1.00  0.00     0.075 A 
HETATM   23  N3  UNL     1       8.411  16.171  15.485  1.00  0.00    -0.222 N 
HETATM   24  C18 UNL     1       7.614  17.099  16.029  1.00  0.00     0.087 A 
ENDROOT
BRANCH  23  25
HETATM   25  O3  UNL     1       8.187  15.809  14.171  1.00  0.00    -0.282 OA
ATOM     26  H3  UNL     1       7.518  16.272  13.681  1.00  0.00     0.245 HD
ENDBRANCH  23  25
BRANCH  24  27
HETATM   27  C19 UNL     1       6.532  17.687  15.245  1.00  0.00     0.009 A 
HETATM   28  C20 UNL     1       5.210  17.558  15.686  1.00  0.00     0.016 A 
HETATM   29  C21 UNL     1       4.227  18.114  14.904  1.00  0.00     0.018 A 
HETATM   30  C22 UNL     1       4.481  18.784  13.723  1.00  0.00     0.087 A 
HETATM   31  N4  UNL     1       5.765  18.884  13.335  1.00  0.00    -0.374 N 
HETATM   32  C23 UNL     1       6.762  18.356  14.067  1.00  0.00     0.101 A 
ATOM     33  H4  UNL     1       5.987  19.371  12.467  1.00  0.00     0.164 HD
ENDBRANCH  24  27
TORSDOF 2
ENDMDL
