MODEL 1
REMARK VINA RESULT: 1.955332768      0.000      0.000
REMARK  3 active torsions:
REMARK  status: ('A' for Active; 'I' for Inactive)
REMARK    1  A    between atoms: N2_5  and  C4_6 
REMARK    2  A    between atoms: C6_13  and  C7_14 
REMARK    3  A    between atoms: C8_15  and  C9_16 
ROOT
HETATM    1  C4  UNL     1       8.030  17.430  15.360  1.00  0.00     0.130 A 
HETATM    2  N3  UNL     1       8.702  16.822  14.373  1.00  0.00    -0.277 N 
ATOM      3  H3  UNL     1       9.692  16.623  14.519  1.00  0.00     0.189 HD
HETATM    4  N4  UNL     1       8.161  16.467  13.225  1.00  0.00    -0.247 N 
HETATM    5  C5  UNL     1       8.677  15.854  12.133  1.00  0.00     0.208 A 
HETATM    6  N5  UNL     1       7.735  15.705  11.216  1.00  0.00    -0.342 N 
ATOM      7  H5  UNL     1       7.860  15.274  10.301  1.00  0.00     0.167 HD
HETATM    8  C6  UNL     1       6.553  16.232  11.703  1.00  0.00     0.118 A 
HETATM    9  C18 UNL     1       6.839  16.693  12.937  1.00  0.00     0.104 A 
HETATM   10  C19 UNL     1       6.082  17.316  13.905  1.00  0.00     0.010 A 
HETATM   11  C20 UNL     1       4.758  17.595  13.713  1.00  0.00     0.015 A 
HETATM   12  C21 UNL     1       4.068  18.235  14.739  1.00  0.00     0.001 A 
HETATM   13  C22 UNL     1       4.663  18.590  15.914  1.00  0.00     0.001 A 
HETATM   14  C23 UNL     1       5.991  18.319  16.127  1.00  0.00     0.016 A 
HETATM   15  C24 UNL     1       6.686  17.674  15.095  1.00  0.00     0.022 A 
ENDROOT
BRANCH   8  16
HETATM   16  C7  UNL     1       5.339  16.232  10.963  1.00  0.00    -0.041 C 
HETATM   17  C8  UNL     1       4.300  16.181  10.310  1.00  0.00    -0.059 C 
BRANCH  17  18
HETATM   18  C9  UNL     1       3.082  16.140   9.547  1.00  0.00     0.032 A 
HETATM   19  C10 UNL     1       1.930  15.513  10.036  1.00  0.00     0.038 A 
HETATM   20  C11 UNL     1       0.771  15.481   9.293  1.00  0.00     0.090 A 
HETATM   21  N6  UNL     1       0.709  16.049   8.080  1.00  0.00    -0.365 N 
HETATM   22  C12 UNL     1       1.803  16.674   7.553  1.00  0.00     0.043 A 
ATOM     23  H6  UNL     1      -0.160  16.013   7.547  1.00  0.00     0.165 HD
HETATM   24  C13 UNL     1       1.717  17.251   6.304  1.00  0.00     0.030 A 
HETATM   25  C17 UNL     1       2.969  16.710   8.291  1.00  0.00     0.009 A 
HETATM   26  C14 UNL     1       2.855  17.873   5.815  1.00  0.00     0.002 A 
HETATM   27  C15 UNL     1       4.025  17.912   6.549  1.00  0.00     0.001 A 
HETATM   28  C16 UNL     1       4.099  17.336   7.790  1.00  0.00     0.015 A 
ENDBRANCH  17  18
ENDBRANCH   8  16
BRANCH   1  29
HETATM   29  N2  UNL     1       8.696  17.744  16.569  1.00  0.00    -0.362 N 
HETATM   30  C3  UNL     1       9.165  19.085  16.851  1.00  0.00     0.154 C 
HETATM   31  C2  UNL     1       8.562  19.491  18.186  1.00  0.00     0.291 C 
HETATM   32  N1  UNL     1       9.137  18.656  19.201  1.00  0.00     0.087 N 
HETATM   33  C1  UNL     1      10.094  19.484  19.934  1.00  0.00     0.310 C 
HETATM   34  C26 UNL     1       9.736  17.461  18.699  1.00  0.00     0.291 C 
HETATM   35  C25 UNL     1       8.954  16.768  17.610  1.00  0.00     0.154 C 
ENDBRANCH   1  29
TORSDOF 3
ENDMDL
MODEL 2
REMARK VINA RESULT: 4.326640802      1.776      3.313
REMARK  3 active torsions:
REMARK  status: ('A' for Active; 'I' for Inactive)
REMARK    1  A    between atoms: N2_5  and  C4_6 
REMARK    2  A    between atoms: C6_13  and  C7_14 
REMARK    3  A    between atoms: C8_15  and  C9_16 
ROOT
HETATM    1  C4  UNL     1       6.844  17.783  15.649  1.00  0.00     0.130 A 
HETATM    2  N3  UNL     1       5.638  18.343  15.822  1.00  0.00    -0.277 N 
ATOM      3  H3  UNL     1       5.441  18.788  16.717  1.00  0.00     0.189 HD
HETATM    4  N4  UNL     1       4.693  18.352  14.903  1.00  0.00    -0.247 N 
HETATM    5  C5  UNL     1       3.438  18.861  14.901  1.00  0.00     0.208 A 
HETATM    6  N5  UNL     1       2.859  18.621  13.737  1.00  0.00    -0.342 N 
ATOM      7  H5  UNL     1       1.914  18.898  13.475  1.00  0.00     0.167 HD
HETATM    8  C6  UNL     1       3.748  17.932  12.932  1.00  0.00     0.118 A 
HETATM    9  C18 UNL     1       4.866  17.778  13.669  1.00  0.00     0.104 A 
HETATM   10  C19 UNL     1       6.082  17.181  13.418  1.00  0.00     0.010 A 
HETATM   11  C20 UNL     1       6.351  16.574  12.223  1.00  0.00     0.015 A 
HETATM   12  C21 UNL     1       7.602  15.987  12.054  1.00  0.00     0.001 A 
HETATM   13  C22 UNL     1       8.555  15.996  13.029  1.00  0.00     0.001 A 
HETATM   14  C23 UNL     1       8.305  16.600  14.235  1.00  0.00     0.016 A 
HETATM   15  C24 UNL     1       7.047  17.192  14.406  1.00  0.00     0.022 A 
ENDROOT
BRANCH   8  16
HETATM   16  C7  UNL     1       3.437  17.518  11.608  1.00  0.00    -0.041 C 
HETATM   17  C8  UNL     1       3.128  17.133  10.483  1.00  0.00    -0.059 C 
BRANCH  17  18
HETATM   18  C9  UNL     1       2.780  16.688   9.161  1.00  0.00     0.032 A 
HETATM   19  C10 UNL     1       3.464  17.146   8.028  1.00  0.00     0.038 A 
HETATM   20  C11 UNL     1       3.119  16.711   6.768  1.00  0.00     0.090 A 
HETATM   21  N6  UNL     1       2.119  15.836   6.585  1.00  0.00    -0.365 N 
HETATM   22  C12 UNL     1       1.418  15.356   7.654  1.00  0.00     0.043 A 
ATOM     23  H6  UNL     1       1.881  15.528   5.643  1.00  0.00     0.165 HD
HETATM   24  C13 UNL     1       0.394  14.458   7.444  1.00  0.00     0.030 A 
HETATM   25  C17 UNL     1       1.756  15.787   8.921  1.00  0.00     0.009 A 
HETATM   26  C14 UNL     1      -0.287  14.001   8.562  1.00  0.00     0.002 A 
HETATM   27  C15 UNL     1       0.048  14.429   9.832  1.00  0.00     0.001 A 
HETATM   28  C16 UNL     1       1.068  15.322  10.030  1.00  0.00     0.015 A 
ENDBRANCH  17  18
ENDBRANCH   8  16
BRANCH   1  29
HETATM   29  N2  UNL     1       7.803  17.854  16.688  1.00  0.00    -0.362 N 
HETATM   30  C3  UNL     1       8.695  18.988  16.821  1.00  0.00     0.154 C 
HETATM   31  C2  UNL     1       8.521  19.522  18.233  1.00  0.00     0.291 C 
HETATM   32  N1  UNL     1       9.015  18.528  19.143  1.00  0.00     0.087 N 
HETATM   33  C1  UNL     1      10.301  19.016  19.639  1.00  0.00     0.310 C 
HETATM   34  C26 UNL     1       9.119  17.222  18.577  1.00  0.00     0.291 C 
HETATM   35  C25 UNL     1       7.963  16.820  17.692  1.00  0.00     0.154 C 
ENDBRANCH   1  29
TORSDOF 3
ENDMDL
MODEL 3
REMARK VINA RESULT: 4.657626753      1.810      2.822
REMARK  3 active torsions:
REMARK  status: ('A' for Active; 'I' for Inactive)
REMARK    1  A    between atoms: N2_5  and  C4_6 
REMARK    2  A    between atoms: C6_13  and  C7_14 
REMARK    3  A    between atoms: C8_15  and  C9_16 
ROOT
HETATM    1  C4  UNL     1       6.652  17.966  14.995  1.00  0.00     0.130 A 
HETATM    2  N3  UNL     1       5.453  18.521  15.220  1.00  0.00    -0.277 N 
ATOM      3  H3  UNL     1       5.323  19.050  16.082  1.00  0.00     0.189 HD
HETATM    4  N4  UNL     1       4.430  18.424  14.393  1.00  0.00    -0.247 N 
HETATM    5  C5  UNL     1       3.168  18.911  14.454  1.00  0.00     0.208 A 
HETATM    6  N5  UNL     1       2.496  18.547  13.375  1.00  0.00    -0.342 N 
ATOM      7  H5  UNL     1       1.524  18.782  13.174  1.00  0.00     0.167 HD
HETATM    8  C6  UNL     1       3.327  17.796  12.565  1.00  0.00     0.118 A 
HETATM    9  C18 UNL     1       4.509  17.734  13.210  1.00  0.00     0.104 A 
HETATM   10  C19 UNL     1       5.712  17.134  12.910  1.00  0.00     0.010 A 
HETATM   11  C20 UNL     1       5.890  16.417  11.761  1.00  0.00     0.015 A 
HETATM   12  C21 UNL     1       7.135  15.835  11.538  1.00  0.00     0.001 A 
HETATM   13  C22 UNL     1       8.170  15.956  12.419  1.00  0.00     0.001 A 
HETATM   14  C23 UNL     1       8.012  16.672  13.578  1.00  0.00     0.016 A 
HETATM   15  C24 UNL     1       6.760  17.258  13.802  1.00  0.00     0.022 A 
ENDROOT
BRANCH   8  16
HETATM   16  C7  UNL     1       2.912  17.249  11.320  1.00  0.00    -0.041 C 
HETATM   17  C8  UNL     1       2.508  16.759  10.269  1.00  0.00    -0.059 C 
BRANCH  17  18
HETATM   18  C9  UNL     1       2.051  16.189   9.030  1.00  0.00     0.032 A 
HETATM   19  C10 UNL     1       1.091  15.171   9.000  1.00  0.00     0.038 A 
HETATM   20  C11 UNL     1       0.664  14.634   7.806  1.00  0.00     0.090 A 
HETATM   21  N6  UNL     1       1.154  15.069   6.635  1.00  0.00    -0.365 N 
HETATM   22  C12 UNL     1       2.093  16.060   6.605  1.00  0.00     0.043 A 
ATOM     23  H6  UNL     1       0.823  14.657   5.763  1.00  0.00     0.165 HD
HETATM   24  C13 UNL     1       2.582  16.492   5.391  1.00  0.00     0.030 A 
HETATM   25  C17 UNL     1       2.527  16.603   7.797  1.00  0.00     0.009 A 
HETATM   26  C14 UNL     1       3.534  17.499   5.415  1.00  0.00     0.002 A 
HETATM   27  C15 UNL     1       3.972  18.047   6.606  1.00  0.00     0.001 A 
HETATM   28  C16 UNL     1       3.478  17.611   7.807  1.00  0.00     0.015 A 
ENDBRANCH  17  18
ENDBRANCH   8  16
BRANCH   1  29
HETATM   29  N2  UNL     1       7.696  18.155  15.932  1.00  0.00    -0.362 N 
HETATM   30  C3  UNL     1       7.977  19.457  16.501  1.00  0.00     0.154 C 
HETATM   31  C2  UNL     1       7.934  19.296  18.012  1.00  0.00     0.291 C 
HETATM   32  N1  UNL     1       9.031  18.456  18.397  1.00  0.00     0.087 N 
HETATM   33  C1  UNL     1      10.033  19.329  19.008  1.00  0.00     0.310 C 
HETATM   34  C26 UNL     1       9.574  17.682  17.328  1.00  0.00     0.291 C 
HETATM   35  C25 UNL     1       8.549  17.079  16.397  1.00  0.00     0.154 C 
ENDBRANCH   1  29
TORSDOF 3
ENDMDL
MODEL 4
REMARK VINA RESULT: 4.866392468      1.054      2.129
REMARK  3 active torsions:
REMARK  status: ('A' for Active; 'I' for Inactive)
REMARK    1  A    between atoms: N2_5  and  C4_6 
REMARK    2  A    between atoms: C6_13  and  C7_14 
REMARK    3  A    between atoms: C8_15  and  C9_16 
ROOT
HETATM    1  C4  UNL     1       7.139  17.359  15.532  1.00  0.00     0.130 A 
HETATM    2  N3  UNL     1       7.947  16.653  14.730  1.00  0.00    -0.277 N 
ATOM      3  H3  UNL     1       8.848  16.353  15.101  1.00  0.00     0.189 HD
HETATM    4  N4  UNL     1       7.647  16.323  13.489  1.00  0.00    -0.247 N 
HETATM    5  C5  UNL     1       8.328  15.626  12.548  1.00  0.00     0.208 A 
HETATM    6  N5  UNL     1       7.610  15.552  11.440  1.00  0.00    -0.342 N 
ATOM      7  H5  UNL     1       7.893  15.082  10.580  1.00  0.00     0.167 HD
HETATM    8  C6  UNL     1       6.415  16.217  11.639  1.00  0.00     0.118 A 
HETATM    9  C18 UNL     1       6.460  16.681  12.903  1.00  0.00     0.104 A 
HETATM   10  C19 UNL     1       5.576  17.412  13.667  1.00  0.00     0.010 A 
HETATM   11  C20 UNL     1       4.371  17.825  13.174  1.00  0.00     0.015 A 
HETATM   12  C21 UNL     1       3.540  18.567  14.009  1.00  0.00     0.001 A 
HETATM   13  C22 UNL     1       3.886  18.891  15.288  1.00  0.00     0.001 A 
HETATM   14  C23 UNL     1       5.092  18.485  15.803  1.00  0.00     0.016 A 
HETATM   15  C24 UNL     1       5.927  17.738  14.963  1.00  0.00     0.022 A 
ENDROOT
BRANCH   8  16
HETATM   16  C7  UNL     1       5.410  16.325  10.638  1.00  0.00    -0.041 C 
HETATM   17  C8  UNL     1       4.579  16.405   9.738  1.00  0.00    -0.059 C 
BRANCH  17  18
HETATM   18  C9  UNL     1       3.595  16.506   8.694  1.00  0.00     0.032 A 
HETATM   19  C10 UNL     1       3.869  17.156   7.485  1.00  0.00     0.038 A 
HETATM   20  C11 UNL     1       2.915  17.245   6.496  1.00  0.00     0.090 A 
HETATM   21  N6  UNL     1       1.695  16.712   6.659  1.00  0.00    -0.365 N 
HETATM   22  C12 UNL     1       1.373  16.066   7.818  1.00  0.00     0.043 A 
ATOM     23  H6  UNL     1       1.004  16.790   5.912  1.00  0.00     0.165 HD
HETATM   24  C13 UNL     1       0.113  15.526   7.964  1.00  0.00     0.030 A 
HETATM   25  C17 UNL     1       2.322  15.973   8.815  1.00  0.00     0.009 A 
HETATM   26  C14 UNL     1      -0.165  14.881   9.159  1.00  0.00     0.002 A 
HETATM   27  C15 UNL     1       0.783  14.785  10.161  1.00  0.00     0.001 A 
HETATM   28  C16 UNL     1       2.032  15.325  10.005  1.00  0.00     0.015 A 
ENDBRANCH  17  18
ENDBRANCH   8  16
BRANCH   1  29
HETATM   29  N2  UNL     1       7.542  17.636  16.861  1.00  0.00    -0.362 N 
HETATM   30  C3  UNL     1       7.730  18.993  17.329  1.00  0.00     0.154 C 
HETATM   31  C2  UNL     1       6.863  19.157  18.566  1.00  0.00     0.291 C 
HETATM   32  N1  UNL     1       7.398  18.312  19.595  1.00  0.00     0.087 N 
HETATM   33  C1  UNL     1       8.074  19.189  20.549  1.00  0.00     0.310 C 
HETATM   34  C26 UNL     1       8.259  17.282  19.110  1.00  0.00     0.291 C 
HETATM   35  C25 UNL     1       7.787  16.602  17.847  1.00  0.00     0.154 C 
ENDBRANCH   1  29
TORSDOF 3
ENDMDL
