MODEL 1
REMARK VINA RESULT: -2.255165399      0.000      0.000
REMARK  5 active torsions:
REMARK  status: ('A' for Active; 'I' for Inactive)
REMARK    1  A    between atoms: C5_8  and  C6_9 
REMARK    2  A    between atoms: C7_10  and  C8_11 
REMARK    3  A    between atoms: N3_20  and  C16_21 
REMARK    4  A    between atoms: C16_21  and  C17_22 
REMARK    5  A    between atoms: C18_23  and  C19_24 
ROOT
HETATM    1  C8  UNL     1       7.558  16.506  15.983  1.00  0.00     0.018 A 
HETATM    2  C9  UNL     1       7.070  17.523  15.189  1.00  0.00     0.022 A 
HETATM    3  C10 UNL     1       6.879  17.342  13.828  1.00  0.00     0.024 A 
HETATM    4  C11 UNL     1       7.171  16.140  13.220  1.00  0.00     0.044 A 
HETATM    5  C12 UNL     1       6.961  15.986  11.808  1.00  0.00     0.099 C 
HETATM    6  N2  UNL     1       6.812  15.870  10.674  1.00  0.00    -0.191 NA
HETATM    7  C13 UNL     1       7.659  15.120  14.012  1.00  0.00     0.024 A 
HETATM    8  C14 UNL     1       7.850  15.294  15.366  1.00  0.00     0.022 A 
ENDROOT
BRANCH   1   9
HETATM    9  C7  UNL     1       7.742  16.716  17.367  1.00  0.00    -0.061 C 
HETATM   10  C6  UNL     1       7.891  16.921  18.572  1.00  0.00    -0.059 C 
BRANCH  10  11
HETATM   11  C5  UNL     1       8.080  17.234  20.005  1.00  0.00     0.053 A 
HETATM   12  C4  UNL     1       7.464  16.369  20.912  1.00  0.00     0.073 A 
HETATM   13  S1  UNL     1       7.893  16.992  22.416  1.00  0.00    -0.093 SA
HETATM   14  C3  UNL     1       8.833  18.319  21.907  1.00  0.00     0.101 A 
HETATM   15  C2  UNL     1       9.523  19.295  22.641  1.00  0.00     0.270 A 
HETATM   16  C15 UNL     1       8.795  18.252  20.531  1.00  0.00     0.081 A 
HETATM   17  N1  UNL     1      10.207  20.250  22.003  1.00  0.00    -0.269 N 
HETATM   18  O1  UNL     1       9.473  19.237  23.896  1.00  0.00    -0.266 OA
HETATM   19  C1  UNL     1      10.917  21.253  22.750  1.00  0.00     0.164 C 
HETATM   20  C25 UNL     1      10.170  20.187  20.675  1.00  0.00     0.332 A 
HETATM   21  N3  UNL     1       9.517  19.264  19.927  1.00  0.00    -0.285 N 
HETATM   22  O2  UNL     1      10.814  21.085  20.073  1.00  0.00    -0.246 OA
BRANCH  21  23
HETATM   23  C16 UNL     1       9.624  19.435  18.496  1.00  0.00     0.228 C 
BRANCH  23  24
HETATM   24  C17 UNL     1      10.319  18.262  17.961  1.00  0.00    -0.081 C 
HETATM   25  C18 UNL     1      10.884  17.283  17.535  1.00  0.00    -0.065 C 
BRANCH  25  26
HETATM   26  C19 UNL     1      11.560  16.112  17.051  1.00  0.00     0.017 A 
HETATM   27  C20 UNL     1      12.932  15.974  17.042  1.00  0.00     0.020 A 
HETATM   28  C21 UNL     1      13.572  14.851  16.579  1.00  0.00     0.001 A 
HETATM   29  C22 UNL     1      12.830  13.805  16.097  1.00  0.00     0.000 A 
HETATM   30  C23 UNL     1      11.466  13.893  16.085  1.00  0.00     0.001 A 
HETATM   31  C24 UNL     1      10.855  15.027  16.554  1.00  0.00     0.020 A 
ENDBRANCH  25  26
ENDBRANCH  23  24
ENDBRANCH  21  23
ENDBRANCH  10  11
ENDBRANCH   1   9
TORSDOF 5
ENDMDL
MODEL 2
REMARK VINA RESULT: -1.693272115      3.300      7.321
REMARK  5 active torsions:
REMARK  status: ('A' for Active; 'I' for Inactive)
REMARK    1  A    between atoms: C5_8  and  C6_9 
REMARK    2  A    between atoms: C7_10  and  C8_11 
REMARK    3  A    between atoms: N3_20  and  C16_21 
REMARK    4  A    between atoms: C16_21  and  C17_22 
REMARK    5  A    between atoms: C18_23  and  C19_24 
ROOT
HETATM    1  C8  UNL     1       8.569  19.480  19.899  1.00  0.00     0.018 A 
HETATM    2  C9  UNL     1       9.822  20.021  19.694  1.00  0.00     0.022 A 
HETATM    3  C10 UNL     1      10.534  20.594  20.736  1.00  0.00     0.024 A 
HETATM    4  C11 UNL     1      10.015  20.644  22.012  1.00  0.00     0.044 A 
HETATM    5  C12 UNL     1      10.780  21.246  23.069  1.00  0.00     0.099 C 
HETATM    6  N2  UNL     1      11.384  21.745  23.910  1.00  0.00    -0.191 NA
HETATM    7  C13 UNL     1       8.763  20.103  22.220  1.00  0.00     0.024 A 
HETATM    8  C14 UNL     1       8.050  19.531  21.188  1.00  0.00     0.022 A 
ENDROOT
BRANCH   1   9
HETATM    9  C7  UNL     1       7.866  18.901  18.820  1.00  0.00    -0.061 C 
HETATM   10  C6  UNL     1       7.270  18.400  17.865  1.00  0.00    -0.059 C 
BRANCH  10  11
HETATM   11  C5  UNL     1       6.587  17.844  16.678  1.00  0.00     0.053 A 
HETATM   12  C4  UNL     1       5.325  17.285  16.896  1.00  0.00     0.073 A 
HETATM   13  S1  UNL     1       4.839  16.782  15.366  1.00  0.00    -0.093 SA
HETATM   14  C3  UNL     1       6.203  17.268  14.468  1.00  0.00     0.101 A 
HETATM   15  C2  UNL     1       6.489  17.167  13.098  1.00  0.00     0.270 A 
HETATM   16  C15 UNL     1       7.040  17.832  15.405  1.00  0.00     0.081 A 
HETATM   17  N1  UNL     1       7.647  17.635  12.622  1.00  0.00    -0.269 N 
HETATM   18  O1  UNL     1       5.632  16.627  12.353  1.00  0.00    -0.266 OA
HETATM   19  C1  UNL     1       7.946  17.534  11.219  1.00  0.00     0.164 C 
HETATM   20  C25 UNL     1       8.457  18.179  13.526  1.00  0.00     0.332 A 
HETATM   21  N3  UNL     1       8.221  18.298  14.856  1.00  0.00    -0.285 N 
HETATM   22  O2  UNL     1       9.547  18.621  13.080  1.00  0.00    -0.246 OA
BRANCH  21  23
HETATM   23  C16 UNL     1       9.279  18.914  15.623  1.00  0.00     0.228 C 
BRANCH  23  24
HETATM   24  C17 UNL     1      10.107  17.840  16.176  1.00  0.00    -0.081 C 
HETATM   25  C18 UNL     1      10.792  16.946  16.613  1.00  0.00    -0.065 C 
BRANCH  25  26
HETATM   26  C19 UNL     1      11.594  15.867  17.118  1.00  0.00     0.017 A 
HETATM   27  C20 UNL     1      12.950  15.969  17.351  1.00  0.00     0.020 A 
HETATM   28  C21 UNL     1      13.710  14.934  17.835  1.00  0.00     0.001 A 
HETATM   29  C22 UNL     1      13.112  13.731  18.107  1.00  0.00     0.000 A 
HETATM   30  C23 UNL     1      11.771  13.580  17.894  1.00  0.00     0.001 A 
HETATM   31  C24 UNL     1      11.038  14.631  17.410  1.00  0.00     0.020 A 
ENDBRANCH  25  26
ENDBRANCH  23  24
ENDBRANCH  21  23
ENDBRANCH  10  11
ENDBRANCH   1   9
TORSDOF 5
ENDMDL
MODEL 3
REMARK VINA RESULT: -0.891837234      1.749      2.707
REMARK  5 active torsions:
REMARK  status: ('A' for Active; 'I' for Inactive)
REMARK    1  A    between atoms: C5_8  and  C6_9 
REMARK    2  A    between atoms: C7_10  and  C8_11 
REMARK    3  A    between atoms: N3_20  and  C16_21 
REMARK    4  A    between atoms: C16_21  and  C17_22 
REMARK    5  A    between atoms: C18_23  and  C19_24 
ROOT
HETATM    1  C8  UNL     1       8.134  17.957  14.957  1.00  0.00     0.018 A 
HETATM    2  C9  UNL     1       7.648  16.666  14.987  1.00  0.00     0.022 A 
HETATM    3  C10 UNL     1       7.189  16.046  13.835  1.00  0.00     0.024 A 
HETATM    4  C11 UNL     1       7.200  16.698  12.621  1.00  0.00     0.044 A 
HETATM    5  C12 UNL     1       6.716  16.026  11.447  1.00  0.00     0.099 C 
HETATM    6  N2  UNL     1       6.310  15.495  10.512  1.00  0.00    -0.191 NA
HETATM    7  C13 UNL     1       7.685  17.989  12.588  1.00  0.00     0.024 A 
HETATM    8  C14 UNL     1       8.144  18.611  13.729  1.00  0.00     0.022 A 
ENDROOT
BRANCH   1   9
HETATM    9  C7  UNL     1       8.597  18.565  16.144  1.00  0.00    -0.061 C 
HETATM   10  C6  UNL     1       9.018  19.079  17.181  1.00  0.00    -0.059 C 
BRANCH  10  11
HETATM   11  C5  UNL     1       9.542  19.634  18.448  1.00  0.00     0.053 A 
HETATM   12  C4  UNL     1      10.283  20.814  18.346  1.00  0.00     0.073 A 
HETATM   13  S1  UNL     1      10.696  21.167  19.938  1.00  0.00    -0.093 SA
HETATM   14  C3  UNL     1       9.947  19.850  20.717  1.00  0.00     0.101 A 
HETATM   15  C2  UNL     1       9.877  19.499  22.074  1.00  0.00     0.270 A 
HETATM   16  C15 UNL     1       9.370  19.134  19.691  1.00  0.00     0.081 A 
HETATM   17  N1  UNL     1       9.214  18.400  22.446  1.00  0.00    -0.269 N 
HETATM   18  O1  UNL     1      10.451  20.246  22.908  1.00  0.00    -0.266 OA
HETATM   19  C1  UNL     1       9.138  18.036  23.835  1.00  0.00     0.164 C 
HETATM   20  C25 UNL     1       8.658  17.708  21.456  1.00  0.00     0.332 A 
HETATM   21  N3  UNL     1       8.701  18.009  20.134  1.00  0.00    -0.285 N 
HETATM   22  O2  UNL     1       8.033  16.673  21.804  1.00  0.00    -0.246 OA
BRANCH  21  23
HETATM   23  C16 UNL     1       8.026  17.076  19.261  1.00  0.00     0.228 C 
BRANCH  23  24
HETATM   24  C17 UNL     1       9.048  16.219  18.655  1.00  0.00    -0.081 C 
HETATM   25  C18 UNL     1       9.890  15.526  18.137  1.00  0.00    -0.065 C 
BRANCH  25  26
HETATM   26  C19 UNL     1      10.879  14.701  17.501  1.00  0.00     0.017 A 
HETATM   27  C20 UNL     1      11.790  13.931  18.194  1.00  0.00     0.020 A 
HETATM   28  C21 UNL     1      12.732  13.144  17.580  1.00  0.00     0.001 A 
HETATM   29  C22 UNL     1      12.788  13.107  16.211  1.00  0.00     0.000 A 
HETATM   30  C23 UNL     1      11.907  13.852  15.479  1.00  0.00     0.001 A 
HETATM   31  C24 UNL     1      10.977  14.629  16.120  1.00  0.00     0.020 A 
ENDBRANCH  25  26
ENDBRANCH  23  24
ENDBRANCH  21  23
ENDBRANCH  10  11
ENDBRANCH   1   9
TORSDOF 5
ENDMDL
MODEL 4
REMARK VINA RESULT: -0.628730712      1.223      1.493
REMARK  5 active torsions:
REMARK  status: ('A' for Active; 'I' for Inactive)
REMARK    1  A    between atoms: C5_8  and  C6_9 
REMARK    2  A    between atoms: C7_10  and  C8_11 
REMARK    3  A    between atoms: N3_20  and  C16_21 
REMARK    4  A    between atoms: C16_21  and  C17_22 
REMARK    5  A    between atoms: C18_23  and  C19_24 
ROOT
HETATM    1  C8  UNL     1       6.863  17.270  15.379  1.00  0.00     0.018 A 
HETATM    2  C9  UNL     1       6.175  17.967  14.408  1.00  0.00     0.022 A 
HETATM    3  C10 UNL     1       6.161  17.536  13.090  1.00  0.00     0.024 A 
HETATM    4  C11 UNL     1       6.835  16.397  12.705  1.00  0.00     0.044 A 
HETATM    5  C12 UNL     1       6.800  15.979  11.332  1.00  0.00     0.099 C 
HETATM    6  N2  UNL     1       6.789  15.655  10.228  1.00  0.00    -0.191 NA
HETATM    7  C13 UNL     1       7.524  15.697  13.675  1.00  0.00     0.024 A 
HETATM    8  C14 UNL     1       7.541  16.120  14.987  1.00  0.00     0.022 A 
ENDROOT
BRANCH   1   9
HETATM    9  C7  UNL     1       6.859  17.730  16.714  1.00  0.00    -0.061 C 
HETATM   10  C6  UNL     1       6.879  18.136  17.877  1.00  0.00    -0.059 C 
BRANCH  10  11
HETATM   11  C5  UNL     1       6.966  18.597  19.279  1.00  0.00     0.053 A 
HETATM   12  C4  UNL     1       5.889  18.269  20.105  1.00  0.00     0.073 A 
HETATM   13  S1  UNL     1       6.318  18.913  21.600  1.00  0.00    -0.093 SA
HETATM   14  C3  UNL     1       7.829  19.583  21.188  1.00  0.00     0.101 A 
HETATM   15  C2  UNL     1       8.769  20.282  21.960  1.00  0.00     0.270 A 
HETATM   16  C15 UNL     1       7.979  19.285  19.852  1.00  0.00     0.081 A 
HETATM   17  N1  UNL     1       9.905  20.711  21.402  1.00  0.00    -0.269 N 
HETATM   18  O1  UNL     1       8.505  20.486  23.173  1.00  0.00    -0.266 OA
HETATM   19  C1  UNL     1      10.873  21.428  22.189  1.00  0.00     0.164 C 
HETATM   20  C25 UNL     1      10.050  20.425  20.111  1.00  0.00     0.332 A 
HETATM   21  N3  UNL     1       9.170  19.753  19.329  1.00  0.00    -0.285 N 
HETATM   22  O2  UNL     1      11.119  20.827  19.584  1.00  0.00    -0.246 OA
BRANCH  21  23
HETATM   23  C16 UNL     1       9.563  19.592  17.947  1.00  0.00     0.228 C 
BRANCH  23  24
HETATM   24  C17 UNL     1      10.138  18.253  17.805  1.00  0.00    -0.081 C 
HETATM   25  C18 UNL     1      10.624  17.155  17.670  1.00  0.00    -0.065 C 
BRANCH  25  26
HETATM   26  C19 UNL     1      11.196  15.851  17.485  1.00  0.00     0.017 A 
HETATM   27  C20 UNL     1      10.461  14.684  17.519  1.00  0.00     0.020 A 
HETATM   28  C21 UNL     1      11.014  13.441  17.341  1.00  0.00     0.001 A 
HETATM   29  C22 UNL     1      12.361  13.330  17.118  1.00  0.00     0.000 A 
HETATM   30  C23 UNL     1      13.133  14.457  17.075  1.00  0.00     0.001 A 
HETATM   31  C24 UNL     1      12.553  15.685  17.256  1.00  0.00     0.020 A 
ENDBRANCH  25  26
ENDBRANCH  23  24
ENDBRANCH  21  23
ENDBRANCH  10  11
ENDBRANCH   1   9
TORSDOF 5
ENDMDL
MODEL 5
REMARK VINA RESULT: 0.711848633      3.563      8.328
REMARK  5 active torsions:
REMARK  status: ('A' for Active; 'I' for Inactive)
REMARK    1  A    between atoms: C5_8  and  C6_9 
REMARK    2  A    between atoms: C7_10  and  C8_11 
REMARK    3  A    between atoms: N3_20  and  C16_21 
REMARK    4  A    between atoms: C16_21  and  C17_22 
REMARK    5  A    between atoms: C18_23  and  C19_24 
ROOT
HETATM    1  C8  UNL     1       9.874  18.655  20.058  1.00  0.00     0.018 A 
HETATM    2  C9  UNL     1      10.295  19.926  19.726  1.00  0.00     0.022 A 
HETATM    3  C10 UNL     1      10.645  20.844  20.704  1.00  0.00     0.024 A 
HETATM    4  C11 UNL     1      10.583  20.519  22.042  1.00  0.00     0.044 A 
HETATM    5  C12 UNL     1      10.952  21.494  23.030  1.00  0.00     0.099 C 
HETATM    6  N2  UNL     1      11.229  22.282  23.821  1.00  0.00    -0.191 NA
HETATM    7  C13 UNL     1      10.162  19.248  22.377  1.00  0.00     0.024 A 
HETATM    8  C14 UNL     1       9.813  18.330  21.409  1.00  0.00     0.022 A 
ENDROOT
BRANCH   1   9
HETATM    9  C7  UNL     1       9.525  17.739  19.041  1.00  0.00    -0.061 C 
HETATM   10  C6  UNL     1       9.202  16.953  18.150  1.00  0.00    -0.059 C 
BRANCH  10  11
HETATM   11  C5  UNL     1       8.748  16.023  17.094  1.00  0.00     0.053 A 
HETATM   12  C4  UNL     1       8.477  14.714  17.498  1.00  0.00     0.073 A 
HETATM   13  S1  UNL     1       7.975  13.952  16.084  1.00  0.00    -0.093 SA
HETATM   14  C3  UNL     1       8.106  15.263  15.003  1.00  0.00     0.101 A 
HETATM   15  C2  UNL     1       7.838  15.355  13.629  1.00  0.00     0.270 A 
HETATM   16  C15 UNL     1       8.552  16.304  15.787  1.00  0.00     0.081 A 
HETATM   17  N1  UNL     1       8.015  16.516  12.991  1.00  0.00    -0.269 N 
HETATM   18  O1  UNL     1       7.433  14.323  13.034  1.00  0.00    -0.266 OA
HETATM   19  C1  UNL     1       7.742  16.616  11.582  1.00  0.00     0.164 C 
HETATM   20  C25 UNL     1       8.447  17.521  13.746  1.00  0.00     0.332 A 
HETATM   21  N3  UNL     1       8.718  17.477  15.074  1.00  0.00    -0.285 N 
HETATM   22  O2  UNL     1       8.614  18.615  13.147  1.00  0.00    -0.246 OA
BRANCH  21  23
HETATM   23  C16 UNL     1       9.195  18.712  15.653  1.00  0.00     0.228 C 
BRANCH  23  24
HETATM   24  C17 UNL     1       8.256  19.097  16.709  1.00  0.00    -0.081 C 
HETATM   25  C18 UNL     1       7.494  19.431  17.585  1.00  0.00    -0.065 C 
BRANCH  25  26
HETATM   26  C19 UNL     1       6.607  19.831  18.641  1.00  0.00     0.017 A 
HETATM   27  C20 UNL     1       5.624  20.787  18.490  1.00  0.00     0.020 A 
HETATM   28  C21 UNL     1       4.780  21.164  19.504  1.00  0.00     0.001 A 
HETATM   29  C22 UNL     1       4.901  20.574  20.735  1.00  0.00     0.000 A 
HETATM   30  C23 UNL     1       5.860  19.621  20.935  1.00  0.00     0.001 A 
HETATM   31  C24 UNL     1       6.689  19.265  19.904  1.00  0.00     0.020 A 
ENDBRANCH  25  26
ENDBRANCH  23  24
ENDBRANCH  21  23
ENDBRANCH  10  11
ENDBRANCH   1   9
TORSDOF 5
ENDMDL
