MODEL 1
REMARK VINA RESULT: -5.742714965      0.000      0.000
REMARK  1 active torsions:
REMARK  status: ('A' for Active; 'I' for Inactive)
REMARK    1  A    between atoms: C5_12  and  C6_13 
ROOT
HETATM    1  N1  UNL     1      -3.768  14.556  -7.231  1.00  0.00    -0.233 N 
ATOM      2  H11 UNL     1      -3.787  13.863  -7.978  1.00  0.00     0.174 HD
ATOM      3  H12 UNL     1      -3.620  14.280  -6.260  1.00  0.00     0.174 HD
HETATM    4  C1  UNL     1      -3.940  15.787  -7.569  1.00  0.00     0.699 A 
HETATM    5  N2  UNL     1      -3.917  16.702  -6.582  1.00  0.00    -0.186 N 
ATOM      6  H2  UNL     1      -3.766  16.396  -5.620  1.00  0.00     0.185 HD
HETATM    7  C2  UNL     1      -4.088  18.013  -6.838  1.00  0.00     0.199 A 
HETATM    8  N3  UNL     1      -4.286  18.397  -8.121  1.00  0.00    -0.336 N 
ATOM      9  H3  UNL     1      -4.417  19.383  -8.346  1.00  0.00     0.168 HD
HETATM   10  C3  UNL     1      -4.308  17.469  -9.103  1.00  0.00     0.148 A 
HETATM   11  C4  UNL     1      -4.486  17.545 -10.490  1.00  0.00     0.087 A 
HETATM   12  C5  UNL     1      -4.414  16.269 -11.012  1.00  0.00     0.117 A 
HETATM   13  N5  UNL     1      -4.201  15.461  -9.973  1.00  0.00    -0.273 N 
ATOM     14  H5  UNL     1      -4.100  14.448 -10.033  1.00  0.00     0.188 HD
HETATM   15  N6  UNL     1      -4.138  16.155  -8.865  1.00  0.00    -0.069 N 
ENDROOT
BRANCH  12  16
HETATM   16  C6  UNL     1      -4.543  15.877 -12.401  1.00  0.00     0.282 C 
HETATM   17  N4  UNL     1      -5.210  16.752 -13.323  1.00  0.00    -0.056 NA
HETATM   18  O1  UNL     1      -4.064  14.776 -12.771  1.00  0.00    -0.269 OA
ENDBRANCH  12  16
TORSDOF 1
ENDMDL
MODEL 2
REMARK VINA RESULT: -5.690526823      2.591      4.888
REMARK  1 active torsions:
REMARK  status: ('A' for Active; 'I' for Inactive)
REMARK    1  A    between atoms: C5_12  and  C6_13 
ROOT
HETATM    1  N1  UNL     1      -5.092  17.625 -11.974  1.00  0.00    -0.233 N 
ATOM      2  H11 UNL     1      -5.154  18.539 -11.526  1.00  0.00     0.174 HD
ATOM      3  H12 UNL     1      -5.297  17.509 -12.966  1.00  0.00     0.174 HD
HETATM    4  C1  UNL     1      -4.746  16.631 -11.231  1.00  0.00     0.699 A 
HETATM    5  N2  UNL     1      -4.665  15.424 -11.823  1.00  0.00    -0.186 N 
ATOM      6  H2  UNL     1      -4.875  15.339 -12.817  1.00  0.00     0.185 HD
HETATM    7  C2  UNL     1      -4.311  14.326 -11.127  1.00  0.00     0.199 A 
HETATM    8  N3  UNL     1      -4.035  14.461  -9.808  1.00  0.00    -0.336 N 
ATOM      9  H3  UNL     1      -3.764  13.648  -9.257  1.00  0.00     0.168 HD
HETATM   10  C3  UNL     1      -4.120  15.678  -9.226  1.00  0.00     0.148 A 
HETATM   11  C4  UNL     1      -3.905  16.133  -7.920  1.00  0.00     0.087 A 
HETATM   12  C5  UNL     1      -4.139  17.493  -7.884  1.00  0.00     0.117 A 
HETATM   13  N5  UNL     1      -4.483  17.837  -9.126  1.00  0.00    -0.273 N 
ATOM     14  H5  UNL     1      -4.719  18.782  -9.426  1.00  0.00     0.188 HD
HETATM   15  N6  UNL     1      -4.472  16.786  -9.906  1.00  0.00    -0.069 N 
ENDROOT
BRANCH  12  16
HETATM   16  C6  UNL     1      -4.036  18.375  -6.739  1.00  0.00     0.282 C 
HETATM   17  N4  UNL     1      -4.754  19.618  -6.740  1.00  0.00    -0.056 NA
HETATM   18  O1  UNL     1      -3.320  18.031  -5.766  1.00  0.00    -0.269 OA
ENDBRANCH  12  16
TORSDOF 1
ENDMDL
MODEL 3
REMARK VINA RESULT: -5.365310916      2.459      4.513
REMARK  1 active torsions:
REMARK  status: ('A' for Active; 'I' for Inactive)
REMARK    1  A    between atoms: C5_12  and  C6_13 
ROOT
HETATM    1  N1  UNL     1      -3.978  18.350  -6.952  1.00  0.00    -0.233 N 
ATOM      2  H11 UNL     1      -3.777  17.878  -6.071  1.00  0.00     0.174 HD
ATOM      3  H12 UNL     1      -4.087  19.363  -6.994  1.00  0.00     0.174 HD
HETATM    4  C1  UNL     1      -4.087  17.611  -8.002  1.00  0.00     0.699 A 
HETATM    5  N2  UNL     1      -4.353  18.235  -9.165  1.00  0.00    -0.186 N 
ATOM      6  H2  UNL     1      -4.456  19.250  -9.176  1.00  0.00     0.185 HD
HETATM    7  C2  UNL     1      -4.485  17.546 -10.314  1.00  0.00     0.199 A 
HETATM    8  N3  UNL     1      -4.343  16.200 -10.278  1.00  0.00    -0.336 N 
ATOM      9  H3  UNL     1      -4.436  15.652 -11.133  1.00  0.00     0.168 HD
HETATM   10  C3  UNL     1      -4.076  15.585  -9.104  1.00  0.00     0.148 A 
HETATM   11  C4  UNL     1      -3.879  14.246  -8.747  1.00  0.00     0.087 A 
HETATM   12  C5  UNL     1      -3.636  14.186  -7.389  1.00  0.00     0.117 A 
HETATM   13  N5  UNL     1      -3.686  15.445  -6.953  1.00  0.00    -0.273 N 
ATOM     14  H5  UNL     1      -3.546  15.733  -5.984  1.00  0.00     0.188 HD
HETATM   15  N6  UNL     1      -3.941  16.258  -7.946  1.00  0.00    -0.069 N 
ENDROOT
BRANCH  12  16
HETATM   16  C6  UNL     1      -3.378  13.003  -6.592  1.00  0.00     0.282 C 
HETATM   17  N4  UNL     1      -2.085  12.823  -5.995  1.00  0.00    -0.056 NA
HETATM   18  O1  UNL     1      -4.295  12.159  -6.439  1.00  0.00    -0.269 OA
ENDBRANCH  12  16
TORSDOF 1
ENDMDL
MODEL 4
REMARK VINA RESULT: -5.362961313      2.198      3.459
REMARK  1 active torsions:
REMARK  status: ('A' for Active; 'I' for Inactive)
REMARK    1  A    between atoms: C5_12  and  C6_13 
ROOT
HETATM    1  N1  UNL     1      -4.491  17.712 -10.444  1.00  0.00    -0.233 N 
ATOM      2  H11 UNL     1      -4.521  16.974 -11.147  1.00  0.00     0.174 HD
ATOM      3  H12 UNL     1      -4.586  18.693 -10.706  1.00  0.00     0.174 HD
HETATM    4  C1  UNL     1      -4.328  17.348  -9.219  1.00  0.00     0.699 A 
HETATM    5  N2  UNL     1      -4.288  18.322  -8.291  1.00  0.00    -0.186 N 
ATOM      6  H2  UNL     1      -4.387  19.295  -8.583  1.00  0.00     0.185 HD
HETATM    7  C2  UNL     1      -4.121  18.039  -6.985  1.00  0.00     0.199 A 
HETATM    8  N3  UNL     1      -3.993  16.741  -6.619  1.00  0.00    -0.336 N 
ATOM      9  H3  UNL     1      -3.867  16.496  -5.638  1.00  0.00     0.168 HD
HETATM   10  C3  UNL     1      -4.035  15.772  -7.560  1.00  0.00     0.148 A 
HETATM   11  C4  UNL     1      -3.935  14.377  -7.504  1.00  0.00     0.087 A 
HETATM   12  C5  UNL     1      -4.047  13.877  -8.786  1.00  0.00     0.117 A 
HETATM   13  N5  UNL     1      -4.207  14.938  -9.579  1.00  0.00    -0.273 N 
ATOM     14  H5  UNL     1      -4.319  14.897 -10.592  1.00  0.00     0.188 HD
HETATM   15  N6  UNL     1      -4.201  16.037  -8.870  1.00  0.00    -0.069 N 
ENDROOT
BRANCH  12  16
HETATM   16  C6  UNL     1      -4.000  12.488  -9.198  1.00  0.00     0.282 C 
HETATM   17  N4  UNL     1      -5.220  11.812  -9.538  1.00  0.00    -0.056 NA
HETATM   18  O1  UNL     1      -2.889  11.904  -9.250  1.00  0.00    -0.269 OA
ENDBRANCH  12  16
TORSDOF 1
ENDMDL
MODEL 5
REMARK VINA RESULT: -5.333539986      2.485      4.892
REMARK  1 active torsions:
REMARK  status: ('A' for Active; 'I' for Inactive)
REMARK    1  A    between atoms: C5_12  and  C6_13 
ROOT
HETATM    1  N1  UNL     1      -4.557  16.891 -11.935  1.00  0.00    -0.233 N 
ATOM      2  H11 UNL     1      -4.572  17.872 -11.660  1.00  0.00     0.174 HD
ATOM      3  H12 UNL     1      -4.648  16.616 -12.913  1.00  0.00     0.174 HD
HETATM    4  C1  UNL     1      -4.419  16.021 -10.995  1.00  0.00     0.699 A 
HETATM    5  N2  UNL     1      -4.399  14.725 -11.358  1.00  0.00    -0.186 N 
ATOM      6  H2  UNL     1      -4.492  14.480 -12.344  1.00  0.00     0.185 HD
HETATM    7  C2  UNL     1      -4.260  13.744 -10.445  1.00  0.00     0.199 A 
HETATM    8  N3  UNL     1      -4.138  14.090  -9.142  1.00  0.00    -0.336 N 
ATOM      9  H3  UNL     1      -4.030  13.370  -8.429  1.00  0.00     0.168 HD
HETATM   10  C3  UNL     1      -4.159  15.395  -8.790  1.00  0.00     0.148 A 
HETATM   11  C4  UNL     1      -4.059  16.058  -7.561  1.00  0.00     0.087 A 
HETATM   12  C5  UNL     1      -4.143  17.417  -7.787  1.00  0.00     0.117 A 
HETATM   13  N5  UNL     1      -4.288  17.560  -9.106  1.00  0.00    -0.273 N 
ATOM     14  H5  UNL     1      -4.379  18.453  -9.590  1.00  0.00     0.188 HD
HETATM   15  N6  UNL     1      -4.298  16.388  -9.689  1.00  0.00    -0.069 N 
ENDROOT
BRANCH  12  16
HETATM   16  C6  UNL     1      -4.087  18.480  -6.804  1.00  0.00     0.282 C 
HETATM   17  N4  UNL     1      -3.258  18.322  -5.642  1.00  0.00    -0.056 NA
HETATM   18  O1  UNL     1      -4.766  19.520  -6.990  1.00  0.00    -0.269 OA
ENDBRANCH  12  16
TORSDOF 1
ENDMDL
