MODEL 1
REMARK VINA RESULT: -4.794379904      0.000      0.000
REMARK  3 active torsions:
REMARK  status: ('A' for Active; 'I' for Inactive)
REMARK    1  A    between atoms: N1_1  and  C1_4 
REMARK    2  A    between atoms: C2_7  and  S1_8 
REMARK    3  A    between atoms: S1_8  and  N3_9 
ROOT
HETATM    1  C1  UNL     1      -4.309  18.177  -7.088  1.00  0.00     0.683 A 
HETATM    2  N2  UNL     1      -4.297  18.218  -8.385  1.00  0.00    -0.171 N 
ATOM      3  H2  UNL     1      -4.442  19.102  -8.874  1.00  0.00     0.185 HD
HETATM    4  C2  UNL     1      -4.095  17.102  -9.067  1.00  0.00     0.222 A 
HETATM    5  S2  UNL     1      -3.914  15.960  -7.809  1.00  0.00     0.034 SA
HETATM    6  N4  UNL     1      -4.112  16.995  -6.497  1.00  0.00    -0.158 N 
ATOM      7  H4  UNL     1      -4.088  16.775  -5.501  1.00  0.00     0.193 HD
ENDROOT
BRANCH   4   8
HETATM    8  S1  UNL     1      -4.028  16.864 -10.817  1.00  0.00     0.281 S 
HETATM    9  O1  UNL     1      -4.916  17.862 -11.498  1.00  0.00    -0.199 OA
HETATM   10  O2  UNL     1      -4.569  15.473 -11.076  1.00  0.00    -0.199 OA
BRANCH   8  11
HETATM   11  N3  UNL     1      -2.411  16.933 -11.385  1.00  0.00    -0.323 N 
ATOM     12  H32 UNL     1      -1.600  17.023 -10.773  1.00  0.00     0.169 HD
ATOM     13  H31 UNL     1      -2.378  16.870 -12.402  1.00  0.00     0.169 HD
ENDBRANCH   8  11
ENDBRANCH   4   8
BRANCH   1  14
HETATM   14  N1  UNL     1      -4.507  19.265  -6.367  1.00  0.00    -0.234 N 
ATOM     15  H12 UNL     1      -3.880  20.065  -6.450  1.00  0.00     0.174 HD
ATOM     16  H11 UNL     1      -5.287  19.335  -5.713  1.00  0.00     0.174 HD
ENDBRANCH   1  14
TORSDOF 3
ENDMDL
MODEL 2
REMARK VINA RESULT: -4.772769504      1.159      1.388
REMARK  3 active torsions:
REMARK  status: ('A' for Active; 'I' for Inactive)
REMARK    1  A    between atoms: N1_1  and  C1_4 
REMARK    2  A    between atoms: C2_7  and  S1_8 
REMARK    3  A    between atoms: S1_8  and  N3_9 
ROOT
HETATM    1  C1  UNL     1      -4.320  18.312  -7.123  1.00  0.00     0.683 A 
HETATM    2  N2  UNL     1      -4.283  18.300  -8.420  1.00  0.00    -0.171 N 
ATOM      3  H2  UNL     1      -4.435  19.161  -8.947  1.00  0.00     0.185 HD
HETATM    4  C2  UNL     1      -4.046  17.162  -9.052  1.00  0.00     0.222 A 
HETATM    5  S2  UNL     1      -3.869  16.076  -7.744  1.00  0.00     0.034 SA
HETATM    6  N4  UNL     1      -4.113  17.159  -6.480  1.00  0.00    -0.158 N 
ATOM      7  H4  UNL     1      -4.105  16.981  -5.476  1.00  0.00     0.193 HD
ENDROOT
BRANCH   4   8
HETATM    8  S1  UNL     1      -3.940  16.855 -10.789  1.00  0.00     0.281 S 
HETATM    9  O1  UNL     1      -2.544  17.119 -11.266  1.00  0.00    -0.199 OA
HETATM   10  O2  UNL     1      -4.878  17.843 -11.452  1.00  0.00    -0.199 OA
BRANCH   8  11
HETATM   11  N3  UNL     1      -4.470  15.267 -11.165  1.00  0.00    -0.323 N 
ATOM     12  H32 UNL     1      -4.989  14.676 -10.516  1.00  0.00     0.169 HD
ATOM     13  H31 UNL     1      -4.197  15.006 -12.111  1.00  0.00     0.169 HD
ENDBRANCH   8  11
ENDBRANCH   4   8
BRANCH   1  14
HETATM   14  N1  UNL     1      -4.553  19.424  -6.451  1.00  0.00    -0.234 N 
ATOM     15  H12 UNL     1      -3.786  19.949  -6.032  1.00  0.00     0.174 HD
ATOM     16  H11 UNL     1      -5.500  19.786  -6.335  1.00  0.00     0.174 HD
ENDBRANCH   1  14
TORSDOF 3
ENDMDL
MODEL 3
REMARK VINA RESULT: -4.771434426      1.237      1.491
REMARK  3 active torsions:
REMARK  status: ('A' for Active; 'I' for Inactive)
REMARK    1  A    between atoms: N1_1  and  C1_4 
REMARK    2  A    between atoms: C2_7  and  S1_8 
REMARK    3  A    between atoms: S1_8  and  N3_9 
ROOT
HETATM    1  C1  UNL     1      -4.233  18.197  -7.386  1.00  0.00     0.683 A 
HETATM    2  N2  UNL     1      -4.277  18.100  -8.680  1.00  0.00    -0.171 N 
ATOM      3  H2  UNL     1      -4.421  18.931  -9.254  1.00  0.00     0.185 HD
HETATM    4  C2  UNL     1      -4.134  16.912  -9.246  1.00  0.00     0.222 A 
HETATM    5  S2  UNL     1      -3.929  15.905  -7.881  1.00  0.00     0.034 SA
HETATM    6  N4  UNL     1      -4.042  17.078  -6.681  1.00  0.00    -0.158 N 
ATOM      7  H4  UNL     1      -3.980  16.965  -5.669  1.00  0.00     0.193 HD
ENDROOT
BRANCH   4   8
HETATM    8  S1  UNL     1      -4.150  16.489 -10.962  1.00  0.00     0.281 S 
HETATM    9  O1  UNL     1      -4.516  15.044 -11.123  1.00  0.00    -0.199 OA
HETATM   10  O2  UNL     1      -2.734  16.693 -11.462  1.00  0.00    -0.199 OA
BRANCH   8  11
HETATM   11  N3  UNL     1      -5.193  17.529 -11.841  1.00  0.00    -0.323 N 
ATOM     12  H32 UNL     1      -5.140  17.660 -12.852  1.00  0.00     0.169 HD
ATOM     13  H31 UNL     1      -5.859  17.987 -11.221  1.00  0.00     0.169 HD
ENDBRANCH   8  11
ENDBRANCH   4   8
BRANCH   1  14
HETATM   14  N1  UNL     1      -4.372  19.361  -6.779  1.00  0.00    -0.234 N 
ATOM     15  H12 UNL     1      -5.222  19.578  -6.259  1.00  0.00     0.174 HD
ATOM     16  H11 UNL     1      -3.638  20.068  -6.812  1.00  0.00     0.174 HD
ENDBRANCH   1  14
TORSDOF 3
ENDMDL
MODEL 4
REMARK VINA RESULT: -4.098090150      1.105      1.188
REMARK  3 active torsions:
REMARK  status: ('A' for Active; 'I' for Inactive)
REMARK    1  A    between atoms: N1_1  and  C1_4 
REMARK    2  A    between atoms: C2_7  and  S1_8 
REMARK    3  A    between atoms: S1_8  and  N3_9 
ROOT
HETATM    1  C1  UNL     1      -4.147  16.818  -7.448  1.00  0.00     0.683 A 
HETATM    2  N2  UNL     1      -4.259  17.138  -8.701  1.00  0.00    -0.171 N 
ATOM      3  H2  UNL     1      -4.433  18.107  -8.972  1.00  0.00     0.185 HD
HETATM    4  C2  UNL     1      -4.146  16.196  -9.623  1.00  0.00     0.222 A 
HETATM    5  S2  UNL     1      -3.868  14.810  -8.663  1.00  0.00     0.034 SA
HETATM    6  N4  UNL     1      -3.918  15.537  -7.147  1.00  0.00    -0.158 N 
ATOM      7  H4  UNL     1      -3.803  15.108  -6.229  1.00  0.00     0.193 HD
ENDROOT
BRANCH   4   8
HETATM    8  S1  UNL     1      -4.253  16.342 -11.381  1.00  0.00     0.281 S 
HETATM    9  O1  UNL     1      -5.088  17.533 -11.741  1.00  0.00    -0.199 OA
HETATM   10  O2  UNL     1      -4.952  15.089 -11.868  1.00  0.00    -0.199 OA
BRANCH   8  11
HETATM   11  N3  UNL     1      -2.691  16.401 -12.088  1.00  0.00    -0.323 N 
ATOM     12  H32 UNL     1      -2.247  15.605 -12.547  1.00  0.00     0.169 HD
ATOM     13  H31 UNL     1      -2.279  17.328 -11.986  1.00  0.00     0.169 HD
ENDBRANCH   8  11
ENDBRANCH   4   8
BRANCH   1  14
HETATM   14  N1  UNL     1      -4.254  17.725  -6.494  1.00  0.00    -0.234 N 
ATOM     15  H12 UNL     1      -5.144  17.878  -6.020  1.00  0.00     0.174 HD
ATOM     16  H11 UNL     1      -3.456  18.293  -6.208  1.00  0.00     0.174 HD
ENDBRANCH   1  14
TORSDOF 3
ENDMDL
MODEL 5
REMARK VINA RESULT: -4.061577978      2.927      3.612
REMARK  3 active torsions:
REMARK  status: ('A' for Active; 'I' for Inactive)
REMARK    1  A    between atoms: N1_1  and  C1_4 
REMARK    2  A    between atoms: C2_7  and  S1_8 
REMARK    3  A    between atoms: S1_8  and  N3_9 
ROOT
HETATM    1  C1  UNL     1      -4.182  17.654  -7.245  1.00  0.00     0.683 A 
HETATM    2  N2  UNL     1      -3.917  16.441  -6.868  1.00  0.00    -0.171 N 
ATOM      3  H2  UNL     1      -3.800  16.223  -5.878  1.00  0.00     0.185 HD
HETATM    4  C2  UNL     1      -3.799  15.489  -7.780  1.00  0.00     0.222 A 
HETATM    5  S2  UNL     1      -4.079  16.361  -9.222  1.00  0.00     0.034 SA
HETATM    6  N4  UNL     1      -4.327  17.885  -8.553  1.00  0.00    -0.158 N 
ATOM      7  H4  UNL     1      -4.535  18.764  -9.027  1.00  0.00     0.193 HD
ENDROOT
BRANCH   4   8
HETATM    8  S1  UNL     1      -3.446  13.772  -7.557  1.00  0.00     0.281 S 
HETATM    9  O1  UNL     1      -4.699  13.043  -7.174  1.00  0.00    -0.199 OA
HETATM   10  O2  UNL     1      -2.462  13.687  -6.407  1.00  0.00    -0.199 OA
BRANCH   8  11
HETATM   11  N3  UNL     1      -2.706  13.110  -8.956  1.00  0.00    -0.323 N 
ATOM     12  H32 UNL     1      -2.194  12.228  -8.961  1.00  0.00     0.169 HD
ATOM     13  H31 UNL     1      -2.850  13.714  -9.764  1.00  0.00     0.169 HD
ENDBRANCH   8  11
ENDBRANCH   4   8
BRANCH   1  14
HETATM   14  N1  UNL     1      -4.308  18.634  -6.370  1.00  0.00    -0.234 N 
ATOM     15  H12 UNL     1      -3.948  19.565  -6.578  1.00  0.00     0.174 HD
ATOM     16  H11 UNL     1      -4.766  18.488  -5.470  1.00  0.00     0.174 HD
ENDBRANCH   1  14
TORSDOF 3
ENDMDL
