MODEL 1
REMARK VINA RESULT: -4.940390277      0.000      0.000
REMARK  2 active torsions:
REMARK  status: ('A' for Active; 'I' for Inactive)
REMARK    1  A    between atoms: N1_1  and  C1_4 
REMARK    2  A    between atoms: C3_10  and  N4_11 
ROOT
HETATM    1  C1  UNL     1      -4.317  17.306  -9.512  1.00  0.00     0.691 A 
HETATM    2  N2  UNL     1      -4.334  18.132  -8.468  1.00  0.00    -0.187 N 
ATOM      3  H2  UNL     1      -4.489  19.128  -8.620  1.00  0.00     0.185 HD
HETATM    4  C2  UNL     1      -4.148  17.672  -7.209  1.00  0.00     0.215 A 
HETATM    5  N3  UNL     1      -3.940  16.350  -6.970  1.00  0.00    -0.187 N 
ATOM      6  H3  UNL     1      -3.802  16.001  -6.021  1.00  0.00     0.185 HD
HETATM    7  C3  UNL     1      -3.922  15.516  -8.027  1.00  0.00     0.695 A 
HETATM    8  N6  UNL     1      -4.110  15.985  -9.282  1.00  0.00    -0.022 N 
ATOM      9  H6  UNL     1      -4.095  15.336 -10.067  1.00  0.00     0.203 HD
ENDROOT
BRANCH   7  10
HETATM   10  N4  UNL     1      -3.699  14.135  -7.781  1.00  0.00    -0.214 N 
HETATM   11  C4  UNL     1      -4.296  13.151  -8.623  1.00  0.00     0.168 C 
HETATM   12  C5  UNL     1      -3.670  11.794  -8.319  1.00  0.00     0.252 C 
HETATM   13  N5  UNL     1      -3.751  11.617  -6.870  1.00  0.00    -0.072 N 
HETATM   14  C6  UNL     1      -2.663  12.418  -6.331  1.00  0.00     0.252 C 
ATOM     15  H52 UNL     1      -4.665  11.844  -6.477  1.00  0.00     0.277 HD
ATOM     16  H51 UNL     1      -3.734  10.642  -6.572  1.00  0.00     0.277 HD
HETATM   17  C7  UNL     1      -2.850  13.852  -6.654  1.00  0.00     0.168 C 
ENDBRANCH   7  10
BRANCH   1  18
HETATM   18  N1  UNL     1      -4.472  17.658 -10.733  1.00  0.00    -0.234 N 
ATOM     19  H12 UNL     1      -4.976  17.008 -11.336  1.00  0.00     0.174 HD
ATOM     20  H11 UNL     1      -4.123  18.525 -11.144  1.00  0.00     0.174 HD
ENDBRANCH   1  18
TORSDOF 2
ENDMDL
MODEL 2
REMARK VINA RESULT: -4.914959516      0.670      1.833
REMARK  2 active torsions:
REMARK  status: ('A' for Active; 'I' for Inactive)
REMARK    1  A    between atoms: N1_1  and  C1_4 
REMARK    2  A    between atoms: C3_10  and  N4_11 
ROOT
HETATM    1  C1  UNL     1      -4.126  17.591  -7.255  1.00  0.00     0.691 A 
HETATM    2  N2  UNL     1      -4.318  18.027  -8.498  1.00  0.00    -0.187 N 
ATOM      3  H2  UNL     1      -4.450  19.024  -8.665  1.00  0.00     0.185 HD
HETATM    4  C2  UNL     1      -4.340  17.169  -9.545  1.00  0.00     0.215 A 
HETATM    5  N3  UNL     1      -4.165  15.833  -9.359  1.00  0.00    -0.187 N 
ATOM      6  H3  UNL     1      -4.179  15.185 -10.146  1.00  0.00     0.185 HD
HETATM    7  C3  UNL     1      -3.973  15.394  -8.100  1.00  0.00     0.695 A 
HETATM    8  N6  UNL     1      -3.952  16.260  -7.061  1.00  0.00    -0.022 N 
ATOM      9  H6  UNL     1      -3.802  15.906  -6.117  1.00  0.00     0.203 HD
ENDROOT
BRANCH   7  10
HETATM   10  N4  UNL     1      -3.797  13.999  -7.902  1.00  0.00    -0.214 N 
HETATM   11  C4  UNL     1      -4.314  13.068  -8.851  1.00  0.00     0.168 C 
HETATM   12  C5  UNL     1      -3.743  11.686  -8.550  1.00  0.00     0.252 C 
HETATM   13  N5  UNL     1      -3.982  11.442  -7.129  1.00  0.00    -0.072 N 
HETATM   14  C6  UNL     1      -2.947  12.195  -6.437  1.00  0.00     0.252 C 
ATOM     15  H52 UNL     1      -4.929  11.667  -6.824  1.00  0.00     0.277 HD
ATOM     16  H51 UNL     1      -4.010  10.453  -6.879  1.00  0.00     0.277 HD
HETATM   17  C7  UNL     1      -3.078  13.645  -6.706  1.00  0.00     0.168 C 
ENDBRANCH   7  10
BRANCH   1  18
HETATM   18  N1  UNL     1      -4.104  18.331  -6.210  1.00  0.00    -0.234 N 
ATOM     19  H12 UNL     1      -4.868  18.998  -6.106  1.00  0.00     0.174 HD
ATOM     20  H11 UNL     1      -3.382  18.308  -5.489  1.00  0.00     0.174 HD
ENDBRANCH   1  18
TORSDOF 2
ENDMDL
MODEL 3
REMARK VINA RESULT: -4.902421957      0.368      1.397
REMARK  2 active torsions:
REMARK  status: ('A' for Active; 'I' for Inactive)
REMARK    1  A    between atoms: N1_1  and  C1_4 
REMARK    2  A    between atoms: C3_10  and  N4_11 
ROOT
HETATM    1  C1  UNL     1      -4.296  17.304  -9.499  1.00  0.00     0.691 A 
HETATM    2  N2  UNL     1      -4.350  18.167  -8.487  1.00  0.00    -0.187 N 
ATOM      3  H2  UNL     1      -4.513  19.155  -8.680  1.00  0.00     0.185 HD
HETATM    4  C2  UNL     1      -4.192  17.756  -7.207  1.00  0.00     0.215 A 
HETATM    5  N3  UNL     1      -3.975  16.446  -6.914  1.00  0.00    -0.187 N 
ATOM      6  H3  UNL     1      -3.858  16.134  -5.950  1.00  0.00     0.185 HD
HETATM    7  C3  UNL     1      -3.919  15.574  -7.939  1.00  0.00     0.695 A 
HETATM    8  N6  UNL     1      -4.079  15.995  -9.214  1.00  0.00    -0.022 N 
ATOM      9  H6  UNL     1      -4.036  15.317  -9.975  1.00  0.00     0.203 HD
ENDROOT
BRANCH   7  10
HETATM   10  N4  UNL     1      -3.686  14.206  -7.637  1.00  0.00    -0.214 N 
HETATM   11  C4  UNL     1      -2.850  13.846  -6.539  1.00  0.00     0.168 C 
HETATM   12  C5  UNL     1      -3.003  12.353  -6.269  1.00  0.00     0.252 C 
HETATM   13  N5  UNL     1      -2.804  11.679  -7.550  1.00  0.00    -0.072 N 
HETATM   14  C6  UNL     1      -4.062  11.842  -8.262  1.00  0.00     0.252 C 
ATOM     15  H52 UNL     1      -1.991  12.011  -8.069  1.00  0.00     0.277 HD
ATOM     16  H51 UNL     1      -2.501  10.709  -7.463  1.00  0.00     0.277 HD
HETATM   17  C7  UNL     1      -4.350  13.274  -8.509  1.00  0.00     0.168 C 
ENDBRANCH   7  10
BRANCH   1  18
HETATM   18  N1  UNL     1      -4.422  17.608 -10.736  1.00  0.00    -0.234 N 
ATOM     19  H12 UNL     1      -5.335  17.954 -11.031  1.00  0.00     0.174 HD
ATOM     20  H11 UNL     1      -3.688  17.523 -11.440  1.00  0.00     0.174 HD
ENDBRANCH   1  18
TORSDOF 2
ENDMDL
MODEL 4
REMARK VINA RESULT: -4.897330565      1.037      1.883
REMARK  2 active torsions:
REMARK  status: ('A' for Active; 'I' for Inactive)
REMARK    1  A    between atoms: N1_1  and  C1_4 
REMARK    2  A    between atoms: C3_10  and  N4_11 
ROOT
HETATM    1  C1  UNL     1      -4.114  17.478  -7.811  1.00  0.00     0.691 A 
HETATM    2  N2  UNL     1      -4.310  17.468  -9.127  1.00  0.00    -0.187 N 
ATOM      3  H2  UNL     1      -4.462  18.349  -9.617  1.00  0.00     0.185 HD
HETATM    4  C2  UNL     1      -4.312  16.308  -9.825  1.00  0.00     0.215 A 
HETATM    5  N3  UNL     1      -4.110  15.116  -9.203  1.00  0.00    -0.187 N 
ATOM      6  H3  UNL     1      -4.108  14.242  -9.728  1.00  0.00     0.185 HD
HETATM    7  C3  UNL     1      -3.913  15.128  -7.871  1.00  0.00     0.695 A 
HETATM    8  N6  UNL     1      -3.913  16.293  -7.182  1.00  0.00    -0.022 N 
ATOM      9  H6  UNL     1      -3.759  16.279  -6.174  1.00  0.00     0.203 HD
ENDROOT
BRANCH   7  10
HETATM   10  N4  UNL     1      -3.708  13.884  -7.218  1.00  0.00    -0.214 N 
HETATM   11  C4  UNL     1      -4.710  12.871  -7.274  1.00  0.00     0.168 C 
HETATM   12  C5  UNL     1      -4.123  11.565  -6.748  1.00  0.00     0.252 C 
HETATM   13  N5  UNL     1      -3.516  11.877  -5.455  1.00  0.00    -0.072 N 
HETATM   14  C6  UNL     1      -2.244  12.504  -5.777  1.00  0.00     0.252 C 
ATOM     15  H52 UNL     1      -4.110  12.439  -4.845  1.00  0.00     0.277 HD
ATOM     16  H51 UNL     1      -3.435  11.073  -4.833  1.00  0.00     0.277 HD
HETATM   17  C7  UNL     1      -2.449  13.763  -6.531  1.00  0.00     0.168 C 
ENDBRANCH   7  10
BRANCH   1  18
HETATM   18  N1  UNL     1      -4.110  18.526  -7.074  1.00  0.00    -0.234 N 
ATOM     19  H12 UNL     1      -4.984  18.756  -6.602  1.00  0.00     0.174 HD
ATOM     20  H11 UNL     1      -3.309  19.143  -6.934  1.00  0.00     0.174 HD
ENDBRANCH   1  18
TORSDOF 2
ENDMDL
MODEL 5
REMARK VINA RESULT: -4.879451256      0.800      2.309
REMARK  2 active torsions:
REMARK  status: ('A' for Active; 'I' for Inactive)
REMARK    1  A    between atoms: N1_1  and  C1_4 
REMARK    2  A    between atoms: C3_10  and  N4_11 
ROOT
HETATM    1  C1  UNL     1      -4.128  17.602  -7.250  1.00  0.00     0.691 A 
HETATM    2  N2  UNL     1      -4.319  18.029  -8.496  1.00  0.00    -0.187 N 
ATOM      3  H2  UNL     1      -4.456  19.025  -8.668  1.00  0.00     0.185 HD
HETATM    4  C2  UNL     1      -4.334  17.165  -9.538  1.00  0.00     0.215 A 
HETATM    5  N3  UNL     1      -4.152  15.832  -9.344  1.00  0.00    -0.187 N 
ATOM      6  H3  UNL     1      -4.161  15.180 -10.129  1.00  0.00     0.185 HD
HETATM    7  C3  UNL     1      -3.961  15.400  -8.083  1.00  0.00     0.695 A 
HETATM    8  N6  UNL     1      -3.947  16.272  -7.049  1.00  0.00    -0.022 N 
ATOM      9  H6  UNL     1      -3.797  15.924  -6.102  1.00  0.00     0.203 HD
ENDROOT
BRANCH   7  10
HETATM   10  N4  UNL     1      -3.777  14.007  -7.877  1.00  0.00    -0.214 N 
HETATM   11  C4  UNL     1      -3.128  13.536  -6.698  1.00  0.00     0.168 C 
HETATM   12  C5  UNL     1      -3.321  12.027  -6.597  1.00  0.00     0.252 C 
HETATM   13  N5  UNL     1      -2.917  11.472  -7.887  1.00  0.00    -0.072 N 
HETATM   14  C6  UNL     1      -4.044  11.716  -8.773  1.00  0.00     0.252 C 
ATOM     15  H52 UNL     1      -2.031  11.839  -8.236  1.00  0.00     0.277 HD
ATOM     16  H51 UNL     1      -2.630  10.493  -7.844  1.00  0.00     0.277 HD
HETATM   17  C7  UNL     1      -4.291  13.169  -8.928  1.00  0.00     0.168 C 
ENDBRANCH   7  10
BRANCH   1  18
HETATM   18  N1  UNL     1      -4.111  18.347  -6.209  1.00  0.00    -0.234 N 
ATOM     19  H12 UNL     1      -4.836  19.062  -6.148  1.00  0.00     0.174 HD
ATOM     20  H11 UNL     1      -3.430  18.284  -5.451  1.00  0.00     0.174 HD
ENDBRANCH   1  18
TORSDOF 2
ENDMDL
