MODEL 1
REMARK VINA RESULT: -5.057359892      0.000      0.000
REMARK  2 active torsions:
REMARK  status: ('A' for Active; 'I' for Inactive)
REMARK    1  A    between atoms: N4_13  and  N5_15 
REMARK    2  A    between atoms: N5_15  and  C7_17 
ROOT
HETATM    1  N1  UNL     1      -5.015  18.061 -11.711  1.00  0.00    -0.191 NA
HETATM    2  C1  UNL     1      -4.735  17.602 -10.689  1.00  0.00     0.103 C 
HETATM    3  C2  UNL     1      -4.386  17.059  -9.395  1.00  0.00     0.090 A 
HETATM    4  C3  UNL     1      -4.353  17.854  -8.321  1.00  0.00     0.112 A 
HETATM    5  N2  UNL     1      -4.023  17.405  -7.018  1.00  0.00    -0.371 N 
ATOM      6  H2  UNL     1      -4.020  18.076  -6.251  1.00  0.00     0.164 HD
HETATM    7  C4  UNL     1      -3.725  16.176  -6.771  1.00  0.00     0.119 A 
HETATM    8  C5  UNL     1      -3.727  15.224  -7.854  1.00  0.00     0.071 A 
HETATM    9  N3  UNL     1      -3.442  13.987  -7.681  1.00  0.00    -0.396 N 
ATOM     10  H31 UNL     1      -3.444  13.314  -8.447  1.00  0.00     0.156 HD
ATOM     11  H32 UNL     1      -3.209  13.695  -6.732  1.00  0.00     0.156 HD
HETATM   12  C6  UNL     1      -4.068  15.649  -9.236  1.00  0.00     0.097 A 
HETATM   13  N4  UNL     1      -4.066  14.807 -10.177  1.00  0.00    -0.295 N 
ATOM     14  H4  UNL     1      -3.818  13.863  -9.884  1.00  0.00     0.187 HD
ENDROOT
BRANCH  13  15
HETATM   15  N5  UNL     1      -4.333  14.920 -11.511  1.00  0.00    -0.277 N 
ATOM     16  H5  UNL     1      -5.289  15.122 -11.804  1.00  0.00     0.189 HD
BRANCH  15  17
HETATM   17  C7  UNL     1      -3.319  14.764 -12.520  1.00  0.00     0.368 C 
HETATM   18  O1  UNL     1      -2.926  15.800 -13.105  1.00  0.00    -0.282 OA
ENDBRANCH  15  17
ENDBRANCH  13  15
TORSDOF 2
ENDMDL
MODEL 2
REMARK VINA RESULT: -4.967175591      2.492      3.969
REMARK  2 active torsions:
REMARK  status: ('A' for Active; 'I' for Inactive)
REMARK    1  A    between atoms: N4_13  and  N5_15 
REMARK    2  A    between atoms: N5_15  and  C7_17 
ROOT
HETATM    1  N1  UNL     1      -4.436  17.988 -10.872  1.00  0.00    -0.191 NA
HETATM    2  C1  UNL     1      -4.321  16.916 -10.458  1.00  0.00     0.103 C 
HETATM    3  C2  UNL     1      -4.185  15.561  -9.970  1.00  0.00     0.090 A 
HETATM    4  C3  UNL     1      -4.324  14.530 -10.809  1.00  0.00     0.112 A 
HETATM    5  N2  UNL     1      -4.207  13.174 -10.416  1.00  0.00    -0.371 N 
ATOM      6  H2  UNL     1      -4.327  12.444 -11.119  1.00  0.00     0.164 HD
HETATM    7  C4  UNL     1      -3.953  12.831  -9.200  1.00  0.00     0.119 A 
HETATM    8  C5  UNL     1      -3.782  13.860  -8.204  1.00  0.00     0.071 A 
HETATM    9  N3  UNL     1      -3.528  13.592  -6.978  1.00  0.00    -0.396 N 
ATOM     10  H31 UNL     1      -3.407  14.320  -6.274  1.00  0.00     0.156 HD
ATOM     11  H32 UNL     1      -3.449  12.607  -6.727  1.00  0.00     0.156 HD
HETATM   12  C6  UNL     1      -3.896  15.295  -8.570  1.00  0.00     0.097 A 
HETATM   13  N4  UNL     1      -3.746  16.187  -7.690  1.00  0.00    -0.295 N 
ATOM     14  H4  UNL     1      -3.549  15.820  -6.760  1.00  0.00     0.187 HD
ENDROOT
BRANCH  13  15
HETATM   15  N5  UNL     1      -3.796  17.550  -7.746  1.00  0.00    -0.277 N 
ATOM     16  H5  UNL     1      -3.517  18.016  -8.610  1.00  0.00     0.189 HD
BRANCH  15  17
HETATM   17  C7  UNL     1      -4.226  18.357  -6.634  1.00  0.00     0.368 C 
HETATM   18  O1  UNL     1      -4.630  19.515  -6.887  1.00  0.00    -0.282 OA
ENDBRANCH  15  17
ENDBRANCH  13  15
TORSDOF 2
ENDMDL
MODEL 3
REMARK VINA RESULT: -4.956818854      2.463      4.187
REMARK  2 active torsions:
REMARK  status: ('A' for Active; 'I' for Inactive)
REMARK    1  A    between atoms: N4_13  and  N5_15 
REMARK    2  A    between atoms: N5_15  and  C7_17 
ROOT
HETATM    1  N1  UNL     1      -3.790  17.616  -6.535  1.00  0.00    -0.191 NA
HETATM    2  C1  UNL     1      -3.947  17.252  -7.620  1.00  0.00     0.103 C 
HETATM    3  C2  UNL     1      -4.148  16.828  -8.988  1.00  0.00     0.090 A 
HETATM    4  C3  UNL     1      -4.385  17.734  -9.942  1.00  0.00     0.112 A 
HETATM    5  N2  UNL     1      -4.593  17.406 -11.305  1.00  0.00    -0.371 N 
ATOM      6  H2  UNL     1      -4.769  18.158 -11.971  1.00  0.00     0.164 HD
HETATM    7  C4  UNL     1      -4.568  16.190 -11.730  1.00  0.00     0.119 A 
HETATM    8  C5  UNL     1      -4.320  15.125 -10.790  1.00  0.00     0.071 A 
HETATM    9  N3  UNL     1      -4.280  13.895 -11.142  1.00  0.00    -0.396 N 
ATOM     10  H31 UNL     1      -4.104  13.142 -10.477  1.00  0.00     0.156 HD
ATOM     11  H32 UNL     1      -4.433  13.691 -12.130  1.00  0.00     0.156 HD
HETATM   12  C6  UNL     1      -4.096  15.421  -9.352  1.00  0.00     0.097 A 
HETATM   13  N4  UNL     1      -3.880  14.481  -8.537  1.00  0.00    -0.295 N 
ATOM     14  H4  UNL     1      -3.879  13.556  -8.966  1.00  0.00     0.187 HD
ENDROOT
BRANCH  13  15
HETATM   15  N5  UNL     1      -3.648  14.466  -7.192  1.00  0.00    -0.277 N 
ATOM     16  H5  UNL     1      -4.264  15.004  -6.582  1.00  0.00     0.189 HD
BRANCH  15  17
HETATM   17  C7  UNL     1      -2.567  13.722  -6.600  1.00  0.00     0.368 C 
HETATM   18  O1  UNL     1      -2.871  12.762  -5.856  1.00  0.00    -0.282 OA
ENDBRANCH  15  17
ENDBRANCH  13  15
TORSDOF 2
ENDMDL
MODEL 4
REMARK VINA RESULT: -4.917566991      1.416      1.416
REMARK  2 active torsions:
REMARK  status: ('A' for Active; 'I' for Inactive)
REMARK    1  A    between atoms: N4_13  and  N5_15 
REMARK    2  A    between atoms: N5_15  and  C7_17 
ROOT
HETATM    1  N1  UNL     1      -5.035  17.845 -11.812  1.00  0.00    -0.191 NA
HETATM    2  C1  UNL     1      -4.754  17.547 -10.732  1.00  0.00     0.103 C 
HETATM    3  C2  UNL     1      -4.404  17.207  -9.371  1.00  0.00     0.090 A 
HETATM    4  C3  UNL     1      -4.360  18.158  -8.433  1.00  0.00     0.112 A 
HETATM    5  N2  UNL     1      -4.027  17.912  -7.077  1.00  0.00    -0.371 N 
ATOM      6  H2  UNL     1      -4.016  18.694  -6.423  1.00  0.00     0.164 HD
HETATM    7  C4  UNL     1      -3.738  16.734  -6.644  1.00  0.00     0.119 A 
HETATM    8  C5  UNL     1      -3.752  15.626  -7.567  1.00  0.00     0.071 A 
HETATM    9  N3  UNL     1      -3.476  14.429  -7.206  1.00  0.00    -0.396 N 
ATOM     10  H31 UNL     1      -3.486  13.645  -7.859  1.00  0.00     0.156 HD
ATOM     11  H32 UNL     1      -3.241  14.284  -6.225  1.00  0.00     0.156 HD
HETATM   12  C6  UNL     1      -4.096  15.836  -8.997  1.00  0.00     0.097 A 
HETATM   13  N4  UNL     1      -4.105  14.859  -9.797  1.00  0.00    -0.295 N 
ATOM     14  H4  UNL     1      -3.862  13.969  -9.363  1.00  0.00     0.187 HD
ENDROOT
BRANCH  13  15
HETATM   15  N5  UNL     1      -4.376  14.767 -11.131  1.00  0.00    -0.277 N 
ATOM     16  H5  UNL     1      -4.227  15.586 -11.720  1.00  0.00     0.189 HD
BRANCH  15  17
HETATM   17  C7  UNL     1      -4.866  13.558 -11.741  1.00  0.00     0.368 C 
HETATM   18  O1  UNL     1      -5.192  12.621 -10.978  1.00  0.00    -0.282 OA
ENDBRANCH  15  17
ENDBRANCH  13  15
TORSDOF 2
ENDMDL
MODEL 5
REMARK VINA RESULT: -4.867197500      2.358      4.934
REMARK  2 active torsions:
REMARK  status: ('A' for Active; 'I' for Inactive)
REMARK    1  A    between atoms: N4_13  and  N5_15 
REMARK    2  A    between atoms: N5_15  and  C7_17 
ROOT
HETATM    1  N1  UNL     1      -2.885  14.570  -7.122  1.00  0.00    -0.191 NA
HETATM    2  C1  UNL     1      -3.318  14.861  -8.153  1.00  0.00     0.103 C 
HETATM    3  C2  UNL     1      -3.857  15.193  -9.453  1.00  0.00     0.090 A 
HETATM    4  C3  UNL     1      -4.062  14.232 -10.359  1.00  0.00     0.112 A 
HETATM    5  N2  UNL     1      -4.586  14.470 -11.654  1.00  0.00    -0.371 N 
ATOM      6  H2  UNL     1      -4.712  13.680 -12.287  1.00  0.00     0.164 HD
HETATM    7  C4  UNL     1      -4.909  15.649 -12.058  1.00  0.00     0.119 A 
HETATM    8  C5  UNL     1      -4.732  16.768 -11.165  1.00  0.00     0.071 A 
HETATM    9  N3  UNL     1      -5.032  17.967 -11.500  1.00  0.00    -0.396 N 
ATOM     10  H31 UNL     1      -4.906  18.758 -10.868  1.00  0.00     0.156 HD
ATOM     11  H32 UNL     1      -5.407  18.105 -12.438  1.00  0.00     0.156 HD
HETATM   12  C6  UNL     1      -4.186  16.567  -9.799  1.00  0.00     0.097 A 
HETATM   13  N4  UNL     1      -4.034  17.553  -9.025  1.00  0.00    -0.295 N 
ATOM     14  H4  UNL     1      -4.317  18.444  -9.433  1.00  0.00     0.187 HD
ENDROOT
BRANCH  13  15
HETATM   15  N5  UNL     1      -3.565  17.655  -7.747  1.00  0.00    -0.277 N 
ATOM     16  H5  UNL     1      -2.675  17.215  -7.516  1.00  0.00     0.189 HD
BRANCH  15  17
HETATM   17  C7  UNL     1      -4.278  18.359  -6.713  1.00  0.00     0.368 C 
HETATM   18  O1  UNL     1      -4.678  19.515  -6.977  1.00  0.00    -0.282 OA
ENDBRANCH  15  17
ENDBRANCH  13  15
TORSDOF 2
ENDMDL
