MODEL 1
REMARK VINA RESULT: -5.676050633      0.000      0.000
REMARK  2 active torsions:
REMARK  status: ('A' for Active; 'I' for Inactive)
REMARK       I    between atoms: C1_2  and  N1_3 
REMARK    1  A    between atoms: C1_2  and  C3_12 
REMARK    2  A    between atoms: N1_3  and  C2_5 
ROOT
HETATM    1  O1  UNL     1      -4.914  18.011 -10.892  1.00  0.00    -0.263 OA
HETATM    2  C1  UNL     1      -4.336  17.132 -10.219  1.00  0.00     0.305 C 
HETATM    3  N1  UNL     1      -3.782  16.002 -10.861  1.00  0.00    -0.151 N 
ATOM      4  H1  UNL     1      -3.995  15.079 -10.484  1.00  0.00     0.188 HD
ENDROOT
BRANCH   2   5
HETATM    5  C3  UNL     1      -4.258  17.314  -8.777  1.00  0.00     0.191 A 
HETATM    6  N6  UNL     1      -4.284  18.468  -8.092  1.00  0.00    -0.332 N 
HETATM    7  C4  UNL     1      -4.184  18.153  -6.787  1.00  0.00     0.199 A 
ATOM      8  H6  UNL     1      -4.365  19.405  -8.485  1.00  0.00     0.168 HD
HETATM    9  N7  UNL     1      -4.096  16.817  -6.642  1.00  0.00    -0.294 N 
HETATM   10  N8  UNL     1      -4.141  16.312  -7.864  1.00  0.00    -0.280 N 
ATOM     11  H7  UNL     1      -4.011  16.299  -5.767  1.00  0.00     0.187 HD
ATOM     12  H8  UNL     1      -4.095  15.318  -8.089  1.00  0.00     0.188 HD
ENDBRANCH   2   5
BRANCH   3  13
HETATM   13  C2  UNL     1      -3.031  16.077 -11.889  1.00  0.00     0.710 A 
HETATM   14  N2  UNL     1      -1.723  16.377 -11.873  1.00  0.00    -0.117 N 
HETATM   15  N3  UNL     1      -1.333  16.347 -13.136  1.00  0.00     0.006 NA
ATOM     16  H2  UNL     1      -1.149  16.584 -11.056  1.00  0.00     0.202 HD
HETATM   17  N4  UNL     1      -2.358  16.040 -13.931  1.00  0.00     0.006 NA
HETATM   18  N5  UNL     1      -3.431  15.869 -13.152  1.00  0.00    -0.117 N 
ATOM     19  H5  UNL     1      -4.372  15.626 -13.459  1.00  0.00     0.202 HD
ENDBRANCH   3  13
TORSDOF 2
ENDMDL
MODEL 2
REMARK VINA RESULT: -5.669211032      0.046      1.008
REMARK  2 active torsions:
REMARK  status: ('A' for Active; 'I' for Inactive)
REMARK       I    between atoms: C1_2  and  N1_3 
REMARK    1  A    between atoms: C1_2  and  C3_12 
REMARK    2  A    between atoms: N1_3  and  C2_5 
ROOT
HETATM    1  O1  UNL     1      -4.913  18.014 -10.927  1.00  0.00    -0.263 OA
HETATM    2  C1  UNL     1      -4.332  17.133 -10.258  1.00  0.00     0.305 C 
HETATM    3  N1  UNL     1      -3.775  16.009 -10.907  1.00  0.00    -0.151 N 
ATOM      4  H1  UNL     1      -3.985  15.083 -10.535  1.00  0.00     0.188 HD
ENDROOT
BRANCH   2   5
HETATM    5  C3  UNL     1      -4.254  17.308  -8.816  1.00  0.00     0.191 A 
HETATM    6  N6  UNL     1      -4.258  18.460  -8.126  1.00  0.00    -0.332 N 
HETATM    7  C4  UNL     1      -4.168  18.139  -6.823  1.00  0.00     0.199 A 
ATOM      8  H6  UNL     1      -4.319  19.400  -8.516  1.00  0.00     0.168 HD
HETATM    9  N7  UNL     1      -4.107  16.800  -6.683  1.00  0.00    -0.294 N 
HETATM   10  N8  UNL     1      -4.159  16.300  -7.907  1.00  0.00    -0.280 N 
ATOM     11  H7  UNL     1      -4.035  16.277  -5.809  1.00  0.00     0.187 HD
ATOM     12  H8  UNL     1      -4.133  15.307  -8.136  1.00  0.00     0.188 HD
ENDBRANCH   2   5
BRANCH   3  13
HETATM   13  C2  UNL     1      -3.026  16.091 -11.935  1.00  0.00     0.710 A 
HETATM   14  N2  UNL     1      -3.419  15.884 -13.201  1.00  0.00    -0.117 N 
HETATM   15  N3  UNL     1      -2.343  16.068 -13.946  1.00  0.00     0.006 NA
ATOM     16  H2  UNL     1      -4.355  15.634 -13.522  1.00  0.00     0.202 HD
HETATM   17  N4  UNL     1      -1.298  16.382 -13.182  1.00  0.00     0.006 NA
HETATM   18  N5  UNL     1      -1.720  16.399 -11.913  1.00  0.00    -0.117 N 
ATOM     19  H5  UNL     1      -1.158  16.605 -11.088  1.00  0.00     0.202 HD
ENDBRANCH   3  13
TORSDOF 2
ENDMDL
MODEL 3
REMARK VINA RESULT: -5.663677184      0.527      1.433
REMARK  2 active torsions:
REMARK  status: ('A' for Active; 'I' for Inactive)
REMARK       I    between atoms: C1_2  and  N1_3 
REMARK    1  A    between atoms: C1_2  and  C3_12 
REMARK    2  A    between atoms: N1_3  and  C2_5 
ROOT
HETATM    1  O1  UNL     1      -4.983  17.993 -11.011  1.00  0.00    -0.263 OA
HETATM    2  C1  UNL     1      -4.383  17.121 -10.348  1.00  0.00     0.305 C 
HETATM    3  N1  UNL     1      -3.847  15.987 -10.997  1.00  0.00    -0.151 N 
ATOM      4  H1  UNL     1      -4.045  15.066 -10.605  1.00  0.00     0.188 HD
ENDROOT
BRANCH   2   5
HETATM    5  C3  UNL     1      -4.261  17.316  -8.911  1.00  0.00     0.191 A 
HETATM    6  N6  UNL     1      -4.226  16.376  -7.953  1.00  0.00    -0.332 N 
HETATM    7  C4  UNL     1      -4.106  17.016  -6.776  1.00  0.00     0.199 A 
ATOM      8  H6  UNL     1      -4.279  15.367  -8.092  1.00  0.00     0.168 HD
HETATM    9  N7  UNL     1      -4.066  18.348  -6.980  1.00  0.00    -0.294 N 
HETATM   10  N8  UNL     1      -4.162  18.522  -8.288  1.00  0.00    -0.280 N 
ATOM     11  H7  UNL     1      -3.979  19.075  -6.269  1.00  0.00     0.187 HD
ATOM     12  H8  UNL     1      -4.162  19.426  -8.760  1.00  0.00     0.188 HD
ENDBRANCH   2   5
BRANCH   3  13
HETATM   13  C2  UNL     1      -3.128  16.054 -12.048  1.00  0.00     0.710 A 
HETATM   14  N2  UNL     1      -3.571  15.879 -13.303  1.00  0.00    -0.117 N 
HETATM   15  N3  UNL     1      -2.514  16.032 -14.081  1.00  0.00     0.006 NA
ATOM     16  H2  UNL     1      -4.526  15.672 -13.595  1.00  0.00     0.202 HD
HETATM   17  N4  UNL     1      -1.432  16.293 -13.348  1.00  0.00     0.006 NA
HETATM   18  N5  UNL     1      -1.812  16.309 -12.066  1.00  0.00    -0.117 N 
ATOM     19  H5  UNL     1      -1.215  16.481 -11.258  1.00  0.00     0.202 HD
ENDBRANCH   3  13
TORSDOF 2
ENDMDL
MODEL 4
REMARK VINA RESULT: -5.514663880      2.130      5.285
REMARK  2 active torsions:
REMARK  status: ('A' for Active; 'I' for Inactive)
REMARK       I    between atoms: C1_2  and  N1_3 
REMARK    1  A    between atoms: C1_2  and  C3_12 
REMARK    2  A    between atoms: N1_3  and  C2_5 
ROOT
HETATM    1  O1  UNL     1      -2.886  17.427 -10.811  1.00  0.00    -0.263 OA
HETATM    2  C1  UNL     1      -3.808  16.618 -10.572  1.00  0.00     0.305 C 
HETATM    3  N1  UNL     1      -4.034  16.178  -9.250  1.00  0.00    -0.151 N 
ATOM      4  H1  UNL     1      -4.136  15.177  -9.084  1.00  0.00     0.188 HD
ENDROOT
BRANCH   2   5
HETATM    5  C3  UNL     1      -4.621  16.159 -11.688  1.00  0.00     0.191 A 
HETATM    6  N6  UNL     1      -4.875  14.892 -12.053  1.00  0.00    -0.332 N 
HETATM    7  C4  UNL     1      -5.669  14.946 -13.137  1.00  0.00     0.199 A 
ATOM      8  H6  UNL     1      -4.532  14.048 -11.594  1.00  0.00     0.168 HD
HETATM    9  N7  UNL     1      -5.919  16.230 -13.460  1.00  0.00    -0.294 N 
HETATM   10  N8  UNL     1      -5.273  16.965 -12.569  1.00  0.00    -0.280 N 
ATOM     11  H7  UNL     1      -6.490  16.568 -14.236  1.00  0.00     0.187 HD
ATOM     12  H8  UNL     1      -5.264  17.984 -12.546  1.00  0.00     0.188 HD
ENDBRANCH   2   5
BRANCH   3  13
HETATM   13  C2  UNL     1      -4.116  16.966  -8.252  1.00  0.00     0.710 A 
HETATM   14  N2  UNL     1      -3.974  16.608  -6.966  1.00  0.00    -0.117 N 
HETATM   15  N3  UNL     1      -4.132  17.718  -6.264  1.00  0.00     0.006 NA
ATOM     16  H2  UNL     1      -3.784  15.673  -6.604  1.00  0.00     0.202 HD
HETATM   17  N4  UNL     1      -4.368  18.749  -7.075  1.00  0.00     0.006 NA
HETATM   18  N5  UNL     1      -4.359  18.283  -8.328  1.00  0.00    -0.117 N 
ATOM     19  H5  UNL     1      -4.509  18.825  -9.179  1.00  0.00     0.202 HD
ENDBRANCH   3  13
TORSDOF 2
ENDMDL
MODEL 5
REMARK VINA RESULT: -5.501525456      2.094      5.311
REMARK  2 active torsions:
REMARK  status: ('A' for Active; 'I' for Inactive)
REMARK       I    between atoms: C1_2  and  N1_3 
REMARK    1  A    between atoms: C1_2  and  C3_12 
REMARK    2  A    between atoms: N1_3  and  C2_5 
ROOT
HETATM    1  O1  UNL     1      -2.807  17.401 -10.790  1.00  0.00    -0.263 OA
HETATM    2  C1  UNL     1      -3.749  16.616 -10.556  1.00  0.00     0.305 C 
HETATM    3  N1  UNL     1      -3.998  16.187  -9.234  1.00  0.00    -0.151 N 
ATOM      4  H1  UNL     1      -4.125  15.189  -9.065  1.00  0.00     0.188 HD
ENDROOT
BRANCH   2   5
HETATM    5  C3  UNL     1      -4.563  16.170 -11.677  1.00  0.00     0.191 A 
HETATM    6  N6  UNL     1      -4.783  14.909 -12.083  1.00  0.00    -0.332 N 
HETATM    7  C4  UNL     1      -5.593  14.976 -13.155  1.00  0.00     0.199 A 
ATOM      8  H6  UNL     1      -4.408  14.061 -11.658  1.00  0.00     0.168 HD
HETATM    9  N7  UNL     1      -5.886  16.262 -13.430  1.00  0.00    -0.294 N 
HETATM   10  N8  UNL     1      -5.251  16.985 -12.522  1.00  0.00    -0.280 N 
ATOM     11  H7  UNL     1      -6.477  16.608 -14.186  1.00  0.00     0.187 HD
ATOM     12  H8  UNL     1      -5.273  18.003 -12.463  1.00  0.00     0.188 HD
ENDBRANCH   2   5
BRANCH   3  13
HETATM   13  C2  UNL     1      -4.071  16.982  -8.240  1.00  0.00     0.710 A 
HETATM   14  N2  UNL     1      -4.365  18.289  -8.313  1.00  0.00    -0.117 N 
HETATM   15  N3  UNL     1      -4.336  18.734  -7.068  1.00  0.00     0.006 NA
ATOM     16  H2  UNL     1      -4.569  18.829  -9.154  1.00  0.00     0.202 HD
HETATM   17  N4  UNL     1      -4.033  17.744  -6.229  1.00  0.00     0.006 NA
HETATM   18  N5  UNL     1      -3.865  16.637  -6.960  1.00  0.00    -0.117 N 
ATOM     19  H5  UNL     1      -3.625  15.709  -6.612  1.00  0.00     0.202 HD
ENDBRANCH   3  13
TORSDOF 2
ENDMDL
