MODEL 1
REMARK VINA RESULT: -5.568721346      0.000      0.000
REMARK  3 active torsions:
REMARK  status: ('A' for Active; 'I' for Inactive)
REMARK    1  A    between atoms: N1_1  and  N2_4 
REMARK    2  A    between atoms: N2_4  and  C1_6 
REMARK    3  A    between atoms: C2_9  and  N4_10 
ROOT
HETATM    1  C1  UNL     1      -4.121  16.929  -9.663  1.00  0.00     0.697 A 
HETATM    2  N3  UNL     1      -4.003  15.672  -9.179  1.00  0.00    -0.175 N 
ATOM      3  H3  UNL     1      -3.925  14.888  -9.826  1.00  0.00     0.186 HD
HETATM    4  C2  UNL     1      -3.988  15.445  -7.850  1.00  0.00     0.121 A 
HETATM    5  C6  UNL     1      -4.096  16.524  -7.002  1.00  0.00     0.066 A 
HETATM    6  C7  UNL     1      -4.213  17.776  -7.511  1.00  0.00     0.110 A 
HETATM    7  N6  UNL     1      -4.225  17.967  -8.838  1.00  0.00    -0.200 N 
ATOM      8  H6  UNL     1      -4.314  18.911  -9.215  1.00  0.00     0.183 HD
ENDROOT
BRANCH   4   9
HETATM    9  N4  UNL     1      -3.863  14.116  -7.361  1.00  0.00    -0.342 N 
HETATM   10  C3  UNL     1      -2.773  13.618  -6.557  1.00  0.00     0.153 C 
HETATM   11  C4  UNL     1      -3.289  12.358  -5.934  1.00  0.00     0.254 C 
HETATM   12  N5  UNL     1      -4.605  12.142  -6.440  1.00  0.00    -0.058 N 
HETATM   13  C5  UNL     1      -4.773  13.011  -7.558  1.00  0.00     0.358 C 
ATOM     14  H52 UNL     1      -4.793  11.164  -6.661  1.00  0.00     0.279 HD
ATOM     15  H51 UNL     1      -5.329  12.256  -5.731  1.00  0.00     0.279 HD
ENDBRANCH   4   9
BRANCH   1  16
HETATM   16  N2  UNL     1      -4.137  17.167 -10.930  1.00  0.00    -0.138 N 
ATOM     17  H2  UNL     1      -3.381  16.838 -11.531  1.00  0.00     0.205 HD
BRANCH  16  18
HETATM   18  N1  UNL     1      -5.200  17.876 -11.460  1.00  0.00    -0.331 N 
ATOM     19  H12 UNL     1      -6.110  17.840 -11.001  1.00  0.00     0.177 HD
ATOM     20  H11 UNL     1      -5.050  18.424 -12.307  1.00  0.00     0.177 HD
ENDBRANCH  16  18
ENDBRANCH   1  16
TORSDOF 3
ENDMDL
MODEL 2
REMARK VINA RESULT: -5.389026585      1.256      2.263
REMARK  3 active torsions:
REMARK  status: ('A' for Active; 'I' for Inactive)
REMARK    1  A    between atoms: N1_1  and  N2_4 
REMARK    2  A    between atoms: N2_4  and  C1_6 
REMARK    3  A    between atoms: C2_9  and  N4_10 
ROOT
HETATM    1  C1  UNL     1      -3.979  17.508  -7.394  1.00  0.00     0.697 A 
HETATM    2  N3  UNL     1      -3.876  16.244  -6.925  1.00  0.00    -0.175 N 
ATOM      3  H3  UNL     1      -3.736  16.086  -5.927  1.00  0.00     0.186 HD
HETATM    4  C2  UNL     1      -3.955  15.191  -7.763  1.00  0.00     0.121 A 
HETATM    5  C6  UNL     1      -4.143  15.437  -9.105  1.00  0.00     0.066 A 
HETATM    6  C7  UNL     1      -4.244  16.714  -9.551  1.00  0.00     0.110 A 
HETATM    7  N6  UNL     1      -4.161  17.738  -8.691  1.00  0.00    -0.200 N 
ATOM      8  H6  UNL     1      -4.237  18.697  -9.032  1.00  0.00     0.183 HD
ENDROOT
BRANCH   4   9
HETATM    9  N4  UNL     1      -3.844  13.870  -7.251  1.00  0.00    -0.342 N 
HETATM   10  C3  UNL     1      -2.746  13.367  -6.461  1.00  0.00     0.153 C 
HETATM   11  C4  UNL     1      -3.272  12.129  -5.802  1.00  0.00     0.254 C 
HETATM   12  N5  UNL     1      -4.602  11.928  -6.274  1.00  0.00    -0.058 N 
HETATM   13  C5  UNL     1      -4.779  12.778  -7.405  1.00  0.00     0.358 C 
ATOM     14  H52 UNL     1      -4.813  10.950  -6.472  1.00  0.00     0.279 HD
ATOM     15  H51 UNL     1      -5.308  12.070  -5.553  1.00  0.00     0.279 HD
ENDBRANCH   4   9
BRANCH   1  16
HETATM   16  N2  UNL     1      -3.907  18.528  -6.608  1.00  0.00    -0.138 N 
ATOM     17  H2  UNL     1      -3.455  18.452  -5.696  1.00  0.00     0.205 HD
BRANCH  16  18
HETATM   18  N1  UNL     1      -4.453  19.729  -7.025  1.00  0.00    -0.331 N 
ATOM     19  H12 UNL     1      -5.193  19.731  -7.727  1.00  0.00     0.177 HD
ATOM     20  H11 UNL     1      -4.100  20.595  -6.618  1.00  0.00     0.177 HD
ENDBRANCH  16  18
ENDBRANCH   1  16
TORSDOF 3
ENDMDL
MODEL 3
REMARK VINA RESULT: -5.330191133      0.793      1.206
REMARK  3 active torsions:
REMARK  status: ('A' for Active; 'I' for Inactive)
REMARK    1  A    between atoms: N1_1  and  N2_4 
REMARK    2  A    between atoms: N2_4  and  C1_6 
REMARK    3  A    between atoms: C2_9  and  N4_10 
ROOT
HETATM    1  C1  UNL     1      -4.026  17.126  -9.607  1.00  0.00     0.697 A 
HETATM    2  N3  UNL     1      -3.824  15.867  -9.160  1.00  0.00    -0.175 N 
ATOM      3  H3  UNL     1      -3.649  15.116  -9.828  1.00  0.00     0.186 HD
HETATM    4  C2  UNL     1      -3.851  15.592  -7.839  1.00  0.00     0.121 A 
HETATM    5  C6  UNL     1      -4.090  16.627  -6.963  1.00  0.00     0.066 A 
HETATM    6  C7  UNL     1      -4.290  17.883  -7.436  1.00  0.00     0.110 A 
HETATM    7  N6  UNL     1      -4.256  18.120  -8.754  1.00  0.00    -0.200 N 
ATOM      8  H6  UNL     1      -4.407  19.067  -9.105  1.00  0.00     0.183 HD
ENDROOT
BRANCH   4   9
HETATM    9  N4  UNL     1      -3.636  14.262  -7.389  1.00  0.00    -0.342 N 
HETATM   10  C3  UNL     1      -4.495  13.136  -7.662  1.00  0.00     0.153 C 
HETATM   11  C4  UNL     1      -3.657  11.926  -7.385  1.00  0.00     0.254 C 
HETATM   12  N5  UNL     1      -2.394  12.384  -6.910  1.00  0.00    -0.058 N 
HETATM   13  C5  UNL     1      -2.543  13.764  -6.584  1.00  0.00     0.358 C 
ATOM     14  H52 UNL     1      -2.032  11.828  -6.136  1.00  0.00     0.279 HD
ATOM     15  H51 UNL     1      -1.632  12.208  -7.564  1.00  0.00     0.279 HD
ENDBRANCH   4   9
BRANCH   1  16
HETATM   16  N2  UNL     1      -4.003  17.408 -10.865  1.00  0.00    -0.138 N 
ATOM     17  H2  UNL     1      -3.134  17.347 -11.396  1.00  0.00     0.205 HD
BRANCH  16  18
HETATM   18  N1  UNL     1      -5.179  17.795 -11.481  1.00  0.00    -0.331 N 
ATOM     19  H12 UNL     1      -6.049  17.802 -10.950  1.00  0.00     0.177 HD
ATOM     20  H11 UNL     1      -5.151  18.066 -12.465  1.00  0.00     0.177 HD
ENDBRANCH  16  18
ENDBRANCH   1  16
TORSDOF 3
ENDMDL
MODEL 4
REMARK VINA RESULT: -5.251857491      0.840      1.043
REMARK  3 active torsions:
REMARK  status: ('A' for Active; 'I' for Inactive)
REMARK    1  A    between atoms: N1_1  and  N2_4 
REMARK    2  A    between atoms: N2_4  and  C1_6 
REMARK    3  A    between atoms: C2_9  and  N4_10 
ROOT
HETATM    1  C1  UNL     1      -3.448  17.262  -9.362  1.00  0.00     0.697 A 
HETATM    2  N3  UNL     1      -3.307  15.978  -8.962  1.00  0.00    -0.175 N 
ATOM      3  H3  UNL     1      -2.944  15.283  -9.614  1.00  0.00     0.186 HD
HETATM    4  C2  UNL     1      -3.643  15.607  -7.709  1.00  0.00     0.121 A 
HETATM    5  C6  UNL     1      -4.132  16.568  -6.852  1.00  0.00     0.066 A 
HETATM    6  C7  UNL     1      -4.264  17.849  -7.277  1.00  0.00     0.110 A 
HETATM    7  N6  UNL     1      -3.921  18.184  -8.529  1.00  0.00    -0.200 N 
ATOM      8  H6  UNL     1      -4.023  19.150  -8.843  1.00  0.00     0.183 HD
ENDROOT
BRANCH   4   9
HETATM    9  N4  UNL     1      -3.487  14.253  -7.308  1.00  0.00    -0.342 N 
HETATM   10  C3  UNL     1      -2.376  13.725  -6.553  1.00  0.00     0.153 C 
HETATM   11  C4  UNL     1      -2.860  12.419  -6.004  1.00  0.00     0.254 C 
HETATM   12  N5  UNL     1      -4.179  12.211  -6.502  1.00  0.00    -0.058 N 
HETATM   13  C5  UNL     1      -4.381  13.145  -7.560  1.00  0.00     0.358 C 
ATOM     14  H52 UNL     1      -4.354  11.246  -6.782  1.00  0.00     0.279 HD
ATOM     15  H51 UNL     1      -4.894  12.267  -5.777  1.00  0.00     0.279 HD
ENDBRANCH   4   9
BRANCH   1  16
HETATM   16  N2  UNL     1      -3.133  17.636 -10.555  1.00  0.00    -0.138 N 
ATOM     17  H2  UNL     1      -3.583  18.447 -10.982  1.00  0.00     0.205 HD
BRANCH  16  18
HETATM   18  N1  UNL     1      -2.172  16.919 -11.245  1.00  0.00    -0.331 N 
ATOM     19  H12 UNL     1      -2.165  16.935 -12.264  1.00  0.00     0.177 HD
ATOM     20  H11 UNL     1      -1.485  16.384 -10.713  1.00  0.00     0.177 HD
ENDBRANCH  16  18
ENDBRANCH   1  16
TORSDOF 3
ENDMDL
MODEL 5
REMARK VINA RESULT: -5.140526682      2.031      4.734
REMARK  3 active torsions:
REMARK  status: ('A' for Active; 'I' for Inactive)
REMARK    1  A    between atoms: N1_1  and  N2_4 
REMARK    2  A    between atoms: N2_4  and  C1_6 
REMARK    3  A    between atoms: C2_9  and  N4_10 
ROOT
HETATM    1  C1  UNL     1      -3.967  17.501  -7.427  1.00  0.00     0.697 A 
HETATM    2  N3  UNL     1      -4.138  17.546  -8.767  1.00  0.00    -0.175 N 
ATOM      3  H3  UNL     1      -4.214  18.448  -9.237  1.00  0.00     0.186 HD
HETATM    4  C2  UNL     1      -4.209  16.409  -9.490  1.00  0.00     0.121 A 
HETATM    5  C6  UNL     1      -4.104  15.206  -8.827  1.00  0.00     0.066 A 
HETATM    6  C7  UNL     1      -3.933  15.188  -7.482  1.00  0.00     0.110 A 
HETATM    7  N6  UNL     1      -3.867  16.336  -6.794  1.00  0.00    -0.200 N 
ATOM      8  H6  UNL     1      -3.739  16.316  -5.782  1.00  0.00     0.183 HD
ENDROOT
BRANCH   4   9
HETATM    9  N4  UNL     1      -4.388  16.477 -10.898  1.00  0.00    -0.342 N 
HETATM   10  C3  UNL     1      -3.921  15.499 -11.850  1.00  0.00     0.153 C 
HETATM   11  C4  UNL     1      -4.710  15.756 -13.097  1.00  0.00     0.254 C 
HETATM   12  N5  UNL     1      -5.538  16.890 -12.849  1.00  0.00    -0.058 N 
HETATM   13  C5  UNL     1      -5.058  17.509 -11.658  1.00  0.00     0.358 C 
ATOM     14  H52 UNL     1      -5.587  17.530 -13.640  1.00  0.00     0.279 HD
ATOM     15  H51 UNL     1      -6.531  16.658 -12.807  1.00  0.00     0.279 HD
ENDBRANCH   4   9
BRANCH   1  16
HETATM   16  N2  UNL     1      -3.897  18.577  -6.719  1.00  0.00    -0.138 N 
ATOM     17  H2  UNL     1      -3.334  18.604  -5.868  1.00  0.00     0.205 HD
BRANCH  16  18
HETATM   18  N1  UNL     1      -4.599  19.693  -7.134  1.00  0.00    -0.331 N 
ATOM     19  H12 UNL     1      -5.508  19.581  -7.582  1.00  0.00     0.177 HD
ATOM     20  H11 UNL     1      -4.188  20.615  -6.982  1.00  0.00     0.177 HD
ENDBRANCH  16  18
ENDBRANCH   1  16
TORSDOF 3
ENDMDL
