MODEL 1
REMARK VINA RESULT: -5.335478366      0.000      0.000
REMARK  3 active torsions:
REMARK  status: ('A' for Active; 'I' for Inactive)
REMARK    1  A    between atoms: N1_1  and  C1_4 
REMARK    2  A    between atoms: C6_14  and  C7_15 
REMARK    3  A    between atoms: C7_15  and  N5_16 
ROOT
HETATM    1  C1  UNL     1      -4.760  17.137 -10.901  1.00  0.00     0.124 A 
HETATM    2  N2  UNL     1      -4.727  17.893  -9.812  1.00  0.00    -0.260 N 
ATOM      3  H2  UNL     1      -4.986  18.878  -9.860  1.00  0.00     0.191 HD
HETATM    4  N3  UNL     1      -4.357  17.355  -8.664  1.00  0.00    -0.149 N 
HETATM    5  C2  UNL     1      -4.254  17.942  -7.438  1.00  0.00     0.283 A 
HETATM    6  O1  UNL     1      -4.504  19.139  -7.182  1.00  0.00    -0.265 OA
HETATM    7  C3  UNL     1      -3.831  17.023  -6.507  1.00  0.00     0.097 A 
HETATM    8  C4  UNL     1      -3.679  15.839  -7.223  1.00  0.00     0.123 A 
HETATM    9  N4  UNL     1      -4.005  16.092  -8.505  1.00  0.00    -0.254 N 
HETATM   10  C5  UNL     1      -4.037  15.315  -9.615  1.00  0.00     0.130 A 
HETATM   11  C6  UNL     1      -4.412  15.811 -10.839  1.00  0.00     0.029 A 
ENDROOT
BRANCH  11  12
HETATM   12  C7  UNL     1      -4.425  14.916 -12.011  1.00  0.00     0.273 C 
BRANCH  12  13
HETATM   13  N5  UNL     1      -4.852  13.595 -11.632  1.00  0.00    -0.075 N 
ATOM     14  H53 UNL     1      -4.146  12.892 -11.850  1.00  0.00     0.274 HD
ATOM     15  H52 UNL     1      -4.873  13.480 -10.619  1.00  0.00     0.274 HD
ATOM     16  H51 UNL     1      -5.751  13.373 -12.058  1.00  0.00     0.274 HD
ENDBRANCH  12  13
ENDBRANCH  11  12
BRANCH   1  17
HETATM   17  N1  UNL     1      -5.111  17.596 -12.055  1.00  0.00    -0.384 N 
ATOM     18  H12 UNL     1      -5.057  18.605 -12.186  1.00  0.00     0.157 HD
ATOM     19  H11 UNL     1      -5.431  16.991 -12.812  1.00  0.00     0.157 HD
ENDBRANCH   1  17
TORSDOF 3
ENDMDL
MODEL 2
REMARK VINA RESULT: -5.191344754      2.247      3.320
REMARK  3 active torsions:
REMARK  status: ('A' for Active; 'I' for Inactive)
REMARK    1  A    between atoms: N1_1  and  C1_4 
REMARK    2  A    between atoms: C6_14  and  C7_15 
REMARK    3  A    between atoms: C7_15  and  N5_16 
ROOT
HETATM    1  C1  UNL     1      -4.151  13.861  -9.372  1.00  0.00     0.124 A 
HETATM    2  N2  UNL     1      -4.243  15.120  -9.775  1.00  0.00    -0.260 N 
ATOM      3  H2  UNL     1      -4.323  15.340 -10.768  1.00  0.00     0.191 HD
HETATM    4  N3  UNL     1      -4.229  16.088  -8.877  1.00  0.00    -0.149 N 
HETATM    5  C2  UNL     1      -4.310  17.435  -9.070  1.00  0.00     0.283 A 
HETATM    6  O1  UNL     1      -4.416  18.006 -10.176  1.00  0.00    -0.265 OA
HETATM    7  C3  UNL     1      -4.259  18.090  -7.862  1.00  0.00     0.097 A 
HETATM    8  C4  UNL     1      -4.142  17.077  -6.915  1.00  0.00     0.123 A 
HETATM    9  N4  UNL     1      -4.128  15.902  -7.573  1.00  0.00    -0.254 N 
HETATM   10  C5  UNL     1      -4.035  14.616  -7.155  1.00  0.00     0.130 A 
HETATM   11  C6  UNL     1      -4.042  13.563  -8.037  1.00  0.00     0.029 A 
ENDROOT
BRANCH  11  12
HETATM   12  C7  UNL     1      -3.937  12.186  -7.520  1.00  0.00     0.273 C 
BRANCH  12  13
HETATM   13  N5  UNL     1      -5.101  11.845  -6.747  1.00  0.00    -0.075 N 
ATOM     14  H53 UNL     1      -5.469  12.651  -6.241  1.00  0.00     0.274 HD
ATOM     15  H52 UNL     1      -5.908  11.657  -7.341  1.00  0.00     0.274 HD
ATOM     16  H51 UNL     1      -4.900  11.066  -6.121  1.00  0.00     0.274 HD
ENDBRANCH  12  13
ENDBRANCH  11  12
BRANCH   1  17
HETATM   17  N1  UNL     1      -4.158  12.865 -10.193  1.00  0.00    -0.384 N 
ATOM     18  H12 UNL     1      -3.417  12.841 -10.894  1.00  0.00     0.157 HD
ATOM     19  H11 UNL     1      -4.863  12.129 -10.159  1.00  0.00     0.157 HD
ENDBRANCH   1  17
TORSDOF 3
ENDMDL
MODEL 3
REMARK VINA RESULT: -4.958929866      1.999      3.965
REMARK  3 active torsions:
REMARK  status: ('A' for Active; 'I' for Inactive)
REMARK    1  A    between atoms: N1_1  and  C1_4 
REMARK    2  A    between atoms: C6_14  and  C7_15 
REMARK    3  A    between atoms: C7_15  and  N5_16 
ROOT
HETATM    1  C1  UNL     1      -4.036  16.381  -7.975  1.00  0.00     0.124 A 
HETATM    2  N2  UNL     1      -4.379  17.081  -9.047  1.00  0.00    -0.260 N 
ATOM      3  H2  UNL     1      -4.571  18.080  -8.971  1.00  0.00     0.191 HD
HETATM    4  N3  UNL     1      -4.470  16.472 -10.215  1.00  0.00    -0.149 N 
HETATM    5  C2  UNL     1      -4.803  16.994 -11.429  1.00  0.00     0.283 A 
HETATM    6  O1  UNL     1      -5.090  18.190 -11.653  1.00  0.00    -0.265 OA
HETATM    7  C3  UNL     1      -4.778  16.011 -12.390  1.00  0.00     0.097 A 
HETATM    8  C4  UNL     1      -4.414  14.855 -11.706  1.00  0.00     0.123 A 
HETATM    9  N4  UNL     1      -4.242  15.185 -10.411  1.00  0.00    -0.254 N 
HETATM   10  C5  UNL     1      -3.890  14.465  -9.318  1.00  0.00     0.130 A 
HETATM   11  C6  UNL     1      -3.779  15.037  -8.075  1.00  0.00     0.029 A 
ENDROOT
BRANCH  11  12
HETATM   12  C7  UNL     1      -3.393  14.199  -6.924  1.00  0.00     0.273 C 
BRANCH  12  13
HETATM   13  N5  UNL     1      -4.069  12.930  -6.974  1.00  0.00    -0.075 N 
ATOM     14  H53 UNL     1      -3.653  12.254  -6.334  1.00  0.00     0.274 HD
ATOM     15  H52 UNL     1      -4.999  12.981  -6.559  1.00  0.00     0.274 HD
ATOM     16  H51 UNL     1      -4.099  12.577  -7.930  1.00  0.00     0.274 HD
ENDBRANCH  12  13
ENDBRANCH  11  12
BRANCH   1  17
HETATM   17  N1  UNL     1      -3.929  16.911  -6.803  1.00  0.00    -0.384 N 
ATOM     18  H12 UNL     1      -3.053  16.755  -6.306  1.00  0.00     0.157 HD
ATOM     19  H11 UNL     1      -4.675  17.462  -6.379  1.00  0.00     0.157 HD
ENDBRANCH   1  17
TORSDOF 3
ENDMDL
MODEL 4
REMARK VINA RESULT: -4.910259713      2.181      4.147
REMARK  3 active torsions:
REMARK  status: ('A' for Active; 'I' for Inactive)
REMARK    1  A    between atoms: N1_1  and  C1_4 
REMARK    2  A    between atoms: C6_14  and  C7_15 
REMARK    3  A    between atoms: C7_15  and  N5_16 
ROOT
HETATM    1  C1  UNL     1      -4.238  17.332  -8.947  1.00  0.00     0.124 A 
HETATM    2  N2  UNL     1      -4.580  17.500 -10.217  1.00  0.00    -0.260 N 
ATOM      3  H2  UNL     1      -4.803  18.430 -10.572  1.00  0.00     0.191 HD
HETATM    4  N3  UNL     1      -4.629  16.451 -11.017  1.00  0.00    -0.149 N 
HETATM    5  C2  UNL     1      -4.952  16.398 -12.340  1.00  0.00     0.283 A 
HETATM    6  O1  UNL     1      -5.270  17.376 -13.050  1.00  0.00    -0.265 OA
HETATM    7  C3  UNL     1      -4.879  15.103 -12.794  1.00  0.00     0.097 A 
HETATM    8  C4  UNL     1      -4.494  14.359 -11.682  1.00  0.00     0.123 A 
HETATM    9  N4  UNL     1      -4.358  15.212 -10.648  1.00  0.00    -0.254 N 
HETATM   10  C5  UNL     1      -4.008  15.034  -9.351  1.00  0.00     0.130 A 
HETATM   11  C6  UNL     1      -3.939  16.082  -8.467  1.00  0.00     0.029 A 
ENDROOT
BRANCH  11  12
HETATM   12  C7  UNL     1      -3.552  15.824  -7.067  1.00  0.00     0.273 C 
BRANCH  12  13
HETATM   13  N5  UNL     1      -3.170  14.449  -6.893  1.00  0.00    -0.075 N 
ATOM     14  H53 UNL     1      -3.933  13.887  -6.517  1.00  0.00     0.274 HD
ATOM     15  H52 UNL     1      -3.056  13.972  -7.787  1.00  0.00     0.274 HD
ATOM     16  H51 UNL     1      -2.330  14.379  -6.318  1.00  0.00     0.274 HD
ENDBRANCH  12  13
ENDBRANCH  11  12
BRANCH   1  17
HETATM   17  N1  UNL     1      -4.171  18.312  -8.109  1.00  0.00    -0.384 N 
ATOM     18  H12 UNL     1      -4.967  18.441  -7.486  1.00  0.00     0.157 HD
ATOM     19  H11 UNL     1      -3.366  18.937  -8.059  1.00  0.00     0.157 HD
ENDBRANCH   1  17
TORSDOF 3
ENDMDL
MODEL 5
REMARK VINA RESULT: -4.865676554      2.409      4.833
REMARK  3 active torsions:
REMARK  status: ('A' for Active; 'I' for Inactive)
REMARK    1  A    between atoms: N1_1  and  C1_4 
REMARK    2  A    between atoms: C6_14  and  C7_15 
REMARK    3  A    between atoms: C7_15  and  N5_16 
ROOT
HETATM    1  C1  UNL     1      -3.786  15.520  -8.046  1.00  0.00     0.124 A 
HETATM    2  N2  UNL     1      -3.897  14.854  -9.187  1.00  0.00    -0.260 N 
ATOM      3  H2  UNL     1      -3.703  13.853  -9.220  1.00  0.00     0.191 HD
HETATM    4  N3  UNL     1      -4.260  15.500 -10.279  1.00  0.00    -0.149 N 
HETATM    5  C2  UNL     1      -4.434  15.016 -11.542  1.00  0.00     0.283 A 
HETATM    6  O1  UNL     1      -4.272  13.828 -11.894  1.00  0.00    -0.265 OA
HETATM    7  C3  UNL     1      -4.818  16.029 -12.388  1.00  0.00     0.097 A 
HETATM    8  C4  UNL     1      -4.873  17.163 -11.582  1.00  0.00     0.123 A 
HETATM    9  N4  UNL     1      -4.530  16.792 -10.333  1.00  0.00    -0.254 N 
HETATM   10  C5  UNL     1      -4.419  17.478  -9.170  1.00  0.00     0.130 A 
HETATM   11  C6  UNL     1      -4.044  16.867  -7.998  1.00  0.00     0.029 A 
ENDROOT
BRANCH  11  12
HETATM   12  C7  UNL     1      -3.940  17.668  -6.764  1.00  0.00     0.273 C 
BRANCH  12  13
HETATM   13  N5  UNL     1      -4.318  19.033  -7.015  1.00  0.00    -0.075 N 
ATOM     14  H53 UNL     1      -3.647  19.507  -7.620  1.00  0.00     0.274 HD
ATOM     15  H52 UNL     1      -5.137  19.095  -7.619  1.00  0.00     0.274 HD
ATOM     16  H51 UNL     1      -4.455  19.534  -6.137  1.00  0.00     0.274 HD
ENDBRANCH  12  13
ENDBRANCH  11  12
BRANCH   1  17
HETATM   17  N1  UNL     1      -3.434  14.954  -6.941  1.00  0.00    -0.384 N 
ATOM     18  H12 UNL     1      -2.991  15.547  -6.239  1.00  0.00     0.157 HD
ATOM     19  H11 UNL     1      -3.585  13.961  -6.760  1.00  0.00     0.157 HD
ENDBRANCH   1  17
TORSDOF 3
ENDMDL
