MODEL 1
REMARK VINA RESULT: -6.596796719      0.000      0.000
REMARK  11 active torsions:
REMARK  status: ('A' for Active; 'I' for Inactive)
REMARK    1  A    between atoms: N1_2  and  N2_5 
REMARK    2  A    between atoms: N2_5  and  N4_10 
REMARK    3  A    between atoms: N3_6  and  O2_8 
REMARK    4  A    between atoms: C3_11  and  C4_12 
REMARK    5  A    between atoms: C5_16  and  N6_17 
REMARK       I    between atoms: N6_17  and  C6_19 
REMARK    6  A    between atoms: C6_19  and  C7_21 
REMARK    7  A    between atoms: C7_21  and  N7_22 
REMARK    8  A    between atoms: C7_21  and  C8_26 
REMARK    9  A    between atoms: C8_26  and  C9_27 
REMARK   10  A    between atoms: C9_27  and  C10_28 
REMARK   11  A    between atoms: C10_28  and  N8_29 
REMARK       I    between atoms: N8_29  and  C11_31 
ROOT
HETATM    1  N4  UNL     1      20.893  16.327  32.787  1.00  0.00    -0.114 N 
HETATM    2  C3  UNL     1      22.297  16.335  32.559  1.00  0.00     0.128 C 
HETATM    3  N5  UNL     1      22.943  16.097  31.450  1.00  0.00    -0.352 N 
ATOM      4  H5  UNL     1      23.956  16.167  31.544  1.00  0.00     0.163 HD
HETATM    5  C5  UNL     1      22.517  15.759  30.138  1.00  0.00     0.209 C 
HETATM    6  C12 UNL     1      21.566  16.768  29.599  1.00  0.00     0.033 C 
HETATM    7  C13 UNL     1      20.420  17.186  30.097  1.00  0.00     0.133 C 
HETATM    8  S2  UNL     1      19.659  16.667  31.578  1.00  0.00     0.276 S 
HETATM    9  O4  UNL     1      18.691  17.704  32.088  1.00  0.00    -0.199 OA
HETATM   10  O5  UNL     1      18.982  15.361  31.287  1.00  0.00    -0.199 OA
ENDROOT
BRANCH   5  11
HETATM   11  N6  UNL     1      23.666  15.642  29.262  1.00  0.00    -0.335 N 
HETATM   12  C6  UNL     1      24.727  14.737  29.541  1.00  0.00     0.250 C 
HETATM   13  O3  UNL     1      24.670  14.014  30.579  1.00  0.00    -0.271 OA
ATOM     14  H6  UNL     1      23.715  16.223  28.425  1.00  0.00     0.164 HD
BRANCH  12  15
HETATM   15  C7  UNL     1      25.909  14.594  28.670  1.00  0.00     0.274 C 
BRANCH  15  16
HETATM   16  N7  UNL     1      27.115  14.388  29.448  1.00  0.00    -0.067 N 
ATOM     17  H73 UNL     1      27.283  15.163  30.089  1.00  0.00     0.275 HD
ATOM     18  H72 UNL     1      26.996  13.642  30.133  1.00  0.00     0.275 HD
ATOM     19  H71 UNL     1      27.920  14.219  28.846  1.00  0.00     0.275 HD
ENDBRANCH  15  16
BRANCH  15  20
HETATM   20  C8  UNL     1      26.123  15.765  27.767  1.00  0.00     0.044 C 
BRANCH  20  21
HETATM   21  C9  UNL     1      27.345  16.570  28.072  1.00  0.00     0.022 C 
BRANCH  21  22
HETATM   22  C10 UNL     1      26.896  18.036  28.115  1.00  0.00     0.122 C 
BRANCH  22  23
HETATM   23  N8  UNL     1      25.964  18.352  27.073  1.00  0.00    -0.365 N 
HETATM   24  C11 UNL     1      24.712  18.963  27.382  1.00  0.00     0.181 C 
HETATM   25  N9  UNL     1      24.633  20.176  27.802  1.00  0.00    -0.374 N 
HETATM   26  N10 UNL     1      23.537  18.204  27.217  1.00  0.00    -0.064 NA
ATOM     27  H92 UNL     1      25.484  20.726  27.921  1.00  0.00     0.158 HD
ATOM     28  H91 UNL     1      23.738  20.612  28.023  1.00  0.00     0.158 HD
ATOM     29  H8  UNL     1      26.198  18.138  26.103  1.00  0.00     0.162 HD
ENDBRANCH  22  23
ENDBRANCH  21  22
ENDBRANCH  20  21
ENDBRANCH  15  20
ENDBRANCH  12  15
ENDBRANCH   5  11
BRANCH   2  30
HETATM   30  C4  UNL     1      23.166  16.638  33.716  1.00  0.00     0.165 C 
HETATM   31  S1  UNL     1      24.534  15.507  33.946  1.00  0.00    -0.090 SA
ENDBRANCH   2  30
BRANCH   1  32
HETATM   32  N2  UNL     1      20.384  16.053  34.054  1.00  0.00     0.045 N 
HETATM   33  N3  UNL     1      19.854  17.012  34.670  1.00  0.00    -0.160 N 
ATOM     34  H3  UNL     1      19.871  17.908  34.183  1.00  0.00     0.220 HD
BRANCH  32  35
HETATM   35  N1  UNL     1      20.406  14.792  34.646  1.00  0.00     0.136 N 
HETATM   36  C1  UNL     1      20.940  13.744  33.804  1.00  0.00     0.393 C 
HETATM   37  C2  UNL     1      21.252  14.779  35.853  1.00  0.00     0.393 C 
HETATM   38  O1  UNL     1      19.153  14.419  35.050  1.00  0.00    -0.040 OA
ENDBRANCH  32  35
BRANCH  33  39
HETATM   39  O2  UNL     1      19.267  17.028  35.878  1.00  0.00    -0.271 OA
ATOM     40  H2  UNL     1      19.495  17.529  36.651  1.00  0.00     0.246 HD
ENDBRANCH  33  39
ENDBRANCH   1  32
TORSDOF 11
ENDMDL
MODEL 2
REMARK VINA RESULT: -6.568373497      2.867      4.159
REMARK  11 active torsions:
REMARK  status: ('A' for Active; 'I' for Inactive)
REMARK    1  A    between atoms: N1_2  and  N2_5 
REMARK    2  A    between atoms: N2_5  and  N4_10 
REMARK    3  A    between atoms: N3_6  and  O2_8 
REMARK    4  A    between atoms: C3_11  and  C4_12 
REMARK    5  A    between atoms: C5_16  and  N6_17 
REMARK       I    between atoms: N6_17  and  C6_19 
REMARK    6  A    between atoms: C6_19  and  C7_21 
REMARK    7  A    between atoms: C7_21  and  N7_22 
REMARK    8  A    between atoms: C7_21  and  C8_26 
REMARK    9  A    between atoms: C8_26  and  C9_27 
REMARK   10  A    between atoms: C9_27  and  C10_28 
REMARK   11  A    between atoms: C10_28  and  N8_29 
REMARK       I    between atoms: N8_29  and  C11_31 
ROOT
HETATM    1  N4  UNL     1      21.558  13.359  33.788  1.00  0.00    -0.114 N 
HETATM    2  C3  UNL     1      21.124  14.387  32.906  1.00  0.00     0.128 C 
HETATM    3  N5  UNL     1      21.589  14.698  31.726  1.00  0.00    -0.352 N 
ATOM      4  H5  UNL     1      21.102  15.481  31.288  1.00  0.00     0.163 HD
HETATM    5  C5  UNL     1      22.635  14.164  30.929  1.00  0.00     0.209 C 
HETATM    6  C12 UNL     1      22.447  12.707  30.690  1.00  0.00     0.033 C 
HETATM    7  C13 UNL     1      22.317  11.728  31.561  1.00  0.00     0.133 C 
HETATM    8  S2  UNL     1      22.325  11.851  33.300  1.00  0.00     0.276 S 
HETATM    9  O4  UNL     1      21.628  10.675  33.936  1.00  0.00    -0.199 OA
HETATM   10  O5  UNL     1      23.760  11.951  33.724  1.00  0.00    -0.199 OA
ENDROOT
BRANCH   5  11
HETATM   11  N6  UNL     1      22.702  14.870  29.665  1.00  0.00    -0.335 N 
HETATM   12  C6  UNL     1      23.942  15.292  29.112  1.00  0.00     0.250 C 
HETATM   13  O3  UNL     1      25.017  15.048  29.736  1.00  0.00    -0.271 OA
ATOM     14  H6  UNL     1      21.839  15.069  29.160  1.00  0.00     0.164 HD
BRANCH  12  15
HETATM   15  C7  UNL     1      24.044  16.013  27.829  1.00  0.00     0.274 C 
BRANCH  15  16
HETATM   16  N7  UNL     1      25.297  16.736  27.728  1.00  0.00    -0.067 N 
ATOM     17  H73 UNL     1      25.513  17.232  28.592  1.00  0.00     0.275 HD
ATOM     18  H72 UNL     1      26.095  16.100  27.708  1.00  0.00     0.275 HD
ATOM     19  H71 UNL     1      25.298  17.364  26.925  1.00  0.00     0.275 HD
ENDBRANCH  15  16
BRANCH  15  20
HETATM   20  C8  UNL     1      22.923  16.975  27.600  1.00  0.00     0.044 C 
BRANCH  20  21
HETATM   21  C9  UNL     1      23.188  18.364  28.086  1.00  0.00     0.022 C 
BRANCH  21  22
HETATM   22  C10 UNL     1      21.815  19.020  28.285  1.00  0.00     0.122 C 
BRANCH  22  23
HETATM   23  N8  UNL     1      20.746  18.066  28.253  1.00  0.00    -0.365 N 
HETATM   24  C11 UNL     1      19.972  17.805  29.424  1.00  0.00     0.181 C 
HETATM   25  N9  UNL     1      19.162  18.677  29.911  1.00  0.00    -0.374 N 
HETATM   26  N10 UNL     1      20.110  16.552  30.053  1.00  0.00    -0.064 NA
ATOM     27  H92 UNL     1      19.063  19.585  29.455  1.00  0.00     0.158 HD
ATOM     28  H91 UNL     1      18.610  18.491  30.748  1.00  0.00     0.158 HD
ATOM     29  H8  UNL     1      20.536  17.570  27.387  1.00  0.00     0.162 HD
ENDBRANCH  22  23
ENDBRANCH  21  22
ENDBRANCH  20  21
ENDBRANCH  15  20
ENDBRANCH  12  15
ENDBRANCH   5  11
BRANCH   2  30
HETATM   30  C4  UNL     1      20.009  15.242  33.365  1.00  0.00     0.165 C 
HETATM   31  S1  UNL     1      20.473  16.917  33.794  1.00  0.00    -0.090 SA
ENDBRANCH   2  30
BRANCH   1  32
HETATM   32  N2  UNL     1      21.376  13.483  35.163  1.00  0.00     0.045 N 
HETATM   33  N3  UNL     1      20.357  12.931  35.650  1.00  0.00    -0.160 N 
ATOM     34  H3  UNL     1      19.750  12.463  34.978  1.00  0.00     0.220 HD
BRANCH  32  35
HETATM   35  N1  UNL     1      22.261  14.148  36.010  1.00  0.00     0.136 N 
HETATM   36  C1  UNL     1      23.007  13.281  36.896  1.00  0.00     0.393 C 
HETATM   37  C2  UNL     1      23.285  14.883  35.246  1.00  0.00     0.393 C 
HETATM   38  O1  UNL     1      21.607  15.076  36.770  1.00  0.00    -0.040 OA
ENDBRANCH  32  35
BRANCH  33  39
HETATM   39  O2  UNL     1      19.953  12.868  36.929  1.00  0.00    -0.271 OA
ATOM     40  H2  UNL     1      19.084  12.710  37.279  1.00  0.00     0.246 HD
ENDBRANCH  33  39
ENDBRANCH   1  32
TORSDOF 11
ENDMDL
MODEL 3
REMARK VINA RESULT: -6.383713507      3.413      7.588
REMARK  11 active torsions:
REMARK  status: ('A' for Active; 'I' for Inactive)
REMARK    1  A    between atoms: N1_2  and  N2_5 
REMARK    2  A    between atoms: N2_5  and  N4_10 
REMARK    3  A    between atoms: N3_6  and  O2_8 
REMARK    4  A    between atoms: C3_11  and  C4_12 
REMARK    5  A    between atoms: C5_16  and  N6_17 
REMARK       I    between atoms: N6_17  and  C6_19 
REMARK    6  A    between atoms: C6_19  and  C7_21 
REMARK    7  A    between atoms: C7_21  and  N7_22 
REMARK    8  A    between atoms: C7_21  and  C8_26 
REMARK    9  A    between atoms: C8_26  and  C9_27 
REMARK   10  A    between atoms: C9_27  and  C10_28 
REMARK   11  A    between atoms: C10_28  and  N8_29 
REMARK       I    between atoms: N8_29  and  C11_31 
ROOT
HETATM    1  N4  UNL     1      25.389  17.465  28.231  1.00  0.00    -0.114 N 
HETATM    2  C3  UNL     1      24.712  16.315  28.724  1.00  0.00     0.128 C 
HETATM    3  N5  UNL     1      23.498  16.225  29.198  1.00  0.00    -0.352 N 
ATOM      4  H5  UNL     1      23.242  15.281  29.488  1.00  0.00     0.163 HD
HETATM    5  C5  UNL     1      22.463  17.178  29.389  1.00  0.00     0.209 C 
HETATM    6  C12 UNL     1      22.128  17.878  28.120  1.00  0.00     0.033 C 
HETATM    7  C13 UNL     1      22.910  18.568  27.314  1.00  0.00     0.133 C 
HETATM    8  S2  UNL     1      24.618  18.870  27.501  1.00  0.00     0.276 S 
HETATM    9  O4  UNL     1      25.263  19.198  26.179  1.00  0.00    -0.199 OA
HETATM   10  O5  UNL     1      24.758  19.989  28.489  1.00  0.00    -0.199 OA
ENDROOT
BRANCH   5  11
HETATM   11  N6  UNL     1      21.285  16.525  29.922  1.00  0.00    -0.335 N 
HETATM   12  C6  UNL     1      21.330  15.775  31.129  1.00  0.00     0.250 C 
HETATM   13  O3  UNL     1      22.425  15.672  31.757  1.00  0.00    -0.271 OA
ATOM     14  H6  UNL     1      20.401  16.605  29.419  1.00  0.00     0.164 HD
BRANCH  12  15
HETATM   15  C7  UNL     1      20.148  15.098  31.698  1.00  0.00     0.274 C 
BRANCH  15  16
HETATM   16  N7  UNL     1      18.958  15.373  30.916  1.00  0.00    -0.067 N 
ATOM     17  H73 UNL     1      19.179  15.894  30.068  1.00  0.00     0.275 HD
ATOM     18  H72 UNL     1      18.588  14.524  30.487  1.00  0.00     0.275 HD
ATOM     19  H71 UNL     1      18.250  15.849  31.475  1.00  0.00     0.275 HD
ENDBRANCH  15  16
BRANCH  15  20
HETATM   20  C8  UNL     1      19.878  15.474  33.118  1.00  0.00     0.044 C 
BRANCH  20  21
HETATM   21  C9  UNL     1      19.714  16.942  33.353  1.00  0.00     0.022 C 
BRANCH  21  22
HETATM   22  C10 UNL     1      20.455  17.255  34.660  1.00  0.00     0.122 C 
BRANCH  22  23
HETATM   23  N8  UNL     1      21.703  16.558  34.758  1.00  0.00    -0.365 N 
HETATM   24  C11 UNL     1      22.878  17.236  35.203  1.00  0.00     0.181 C 
HETATM   25  N9  UNL     1      23.016  17.628  36.421  1.00  0.00    -0.374 N 
HETATM   26  N10 UNL     1      23.908  17.474  34.273  1.00  0.00    -0.064 NA
ATOM     27  H92 UNL     1      22.269  17.455  37.095  1.00  0.00     0.158 HD
ATOM     28  H91 UNL     1      23.855  18.112  36.739  1.00  0.00     0.158 HD
ATOM     29  H8  UNL     1      21.753  15.570  34.509  1.00  0.00     0.162 HD
ENDBRANCH  22  23
ENDBRANCH  21  22
ENDBRANCH  20  21
ENDBRANCH  15  20
ENDBRANCH  12  15
ENDBRANCH   5  11
BRANCH   2  30
HETATM   30  C4  UNL     1      25.462  15.041  28.725  1.00  0.00     0.165 C 
HETATM   31  S1  UNL     1      25.433  14.153  30.279  1.00  0.00    -0.090 SA
ENDBRANCH   2  30
BRANCH   1  32
HETATM   32  N2  UNL     1      26.778  17.544  28.282  1.00  0.00     0.045 N 
HETATM   33  N3  UNL     1      27.394  17.385  27.197  1.00  0.00    -0.160 N 
ATOM     34  H3  UNL     1      26.807  17.191  26.386  1.00  0.00     0.220 HD
BRANCH  32  35
HETATM   35  N1  UNL     1      27.501  17.813  29.443  1.00  0.00     0.136 N 
HETATM   36  C1  UNL     1      26.686  18.115  30.599  1.00  0.00     0.393 C 
HETATM   37  C2  UNL     1      28.320  16.656  29.846  1.00  0.00     0.393 C 
HETATM   38  O1  UNL     1      28.369  18.852  29.249  1.00  0.00    -0.040 OA
ENDBRANCH  32  35
BRANCH  33  39
HETATM   39  O2  UNL     1      28.713  17.436  26.953  1.00  0.00    -0.271 OA
ATOM     40  H2  UNL     1      29.262  18.188  26.766  1.00  0.00     0.246 HD
ENDBRANCH  33  39
ENDBRANCH   1  32
TORSDOF 11
ENDMDL
MODEL 4
REMARK VINA RESULT: -6.365775818      3.361      8.233
REMARK  11 active torsions:
REMARK  status: ('A' for Active; 'I' for Inactive)
REMARK    1  A    between atoms: N1_2  and  N2_5 
REMARK    2  A    between atoms: N2_5  and  N4_10 
REMARK    3  A    between atoms: N3_6  and  O2_8 
REMARK    4  A    between atoms: C3_11  and  C4_12 
REMARK    5  A    between atoms: C5_16  and  N6_17 
REMARK       I    between atoms: N6_17  and  C6_19 
REMARK    6  A    between atoms: C6_19  and  C7_21 
REMARK    7  A    between atoms: C7_21  and  N7_22 
REMARK    8  A    between atoms: C7_21  and  C8_26 
REMARK    9  A    between atoms: C8_26  and  C9_27 
REMARK   10  A    between atoms: C9_27  and  C10_28 
REMARK   11  A    between atoms: C10_28  and  N8_29 
REMARK       I    between atoms: N8_29  and  C11_31 
ROOT
HETATM    1  N4  UNL     1      25.372  17.457  28.240  1.00  0.00    -0.114 N 
HETATM    2  C3  UNL     1      24.685  16.314  28.734  1.00  0.00     0.128 C 
HETATM    3  N5  UNL     1      23.470  16.234  29.207  1.00  0.00    -0.352 N 
ATOM      4  H5  UNL     1      23.206  15.293  29.499  1.00  0.00     0.163 HD
HETATM    5  C5  UNL     1      22.443  17.196  29.394  1.00  0.00     0.209 C 
HETATM    6  C12 UNL     1      22.115  17.896  28.123  1.00  0.00     0.033 C 
HETATM    7  C13 UNL     1      22.904  18.577  27.317  1.00  0.00     0.133 C 
HETATM    8  S2  UNL     1      24.613  18.866  27.505  1.00  0.00     0.276 S 
HETATM    9  O4  UNL     1      25.263  19.187  26.184  1.00  0.00    -0.199 OA
HETATM   10  O5  UNL     1      24.761  19.987  28.491  1.00  0.00    -0.199 OA
ENDROOT
BRANCH   5  11
HETATM   11  N6  UNL     1      21.258  16.554  29.927  1.00  0.00    -0.335 N 
HETATM   12  C6  UNL     1      21.257  15.937  31.208  1.00  0.00     0.250 C 
HETATM   13  O3  UNL     1      22.315  15.947  31.904  1.00  0.00    -0.271 OA
ATOM     14  H6  UNL     1      20.404  16.543  29.369  1.00  0.00     0.164 HD
BRANCH  12  15
HETATM   15  C7  UNL     1      20.068  15.275  31.779  1.00  0.00     0.274 C 
BRANCH  15  16
HETATM   16  N7  UNL     1      18.916  15.421  30.910  1.00  0.00    -0.067 N 
ATOM     17  H73 UNL     1      18.301  16.170  31.227  1.00  0.00     0.275 HD
ATOM     18  H72 UNL     1      19.178  15.808  30.002  1.00  0.00     0.275 HD
ATOM     19  H71 UNL     1      18.414  14.540  30.810  1.00  0.00     0.275 HD
ENDBRANCH  15  16
BRANCH  15  20
HETATM   20  C8  UNL     1      19.703  15.781  33.136  1.00  0.00     0.044 C 
BRANCH  20  21
HETATM   21  C9  UNL     1      19.262  14.723  34.096  1.00  0.00     0.022 C 
BRANCH  21  22
HETATM   22  C10 UNL     1      19.272  15.371  35.487  1.00  0.00     0.122 C 
BRANCH  22  23
HETATM   23  N8  UNL     1      19.469  14.412  36.533  1.00  0.00    -0.365 N 
HETATM   24  C11 UNL     1      20.750  13.817  36.740  1.00  0.00     0.181 C 
HETATM   25  N9  UNL     1      21.748  14.493  37.189  1.00  0.00    -0.374 N 
HETATM   26  N10 UNL     1      20.910  12.450  36.439  1.00  0.00    -0.064 NA
ATOM     27  H92 UNL     1      21.631  15.483  37.406  1.00  0.00     0.158 HD
ATOM     28  H91 UNL     1      22.663  14.068  37.336  1.00  0.00     0.158 HD
ATOM     29  H8  UNL     1      18.687  14.153  37.136  1.00  0.00     0.162 HD
ENDBRANCH  22  23
ENDBRANCH  21  22
ENDBRANCH  20  21
ENDBRANCH  15  20
ENDBRANCH  12  15
ENDBRANCH   5  11
BRANCH   2  30
HETATM   30  C4  UNL     1      25.425  15.033  28.739  1.00  0.00     0.165 C 
HETATM   31  S1  UNL     1      25.394  14.153  30.298  1.00  0.00    -0.090 SA
ENDBRANCH   2  30
BRANCH   1  32
HETATM   32  N2  UNL     1      26.762  17.525  28.292  1.00  0.00     0.045 N 
HETATM   33  N3  UNL     1      27.378  17.351  27.210  1.00  0.00    -0.160 N 
ATOM     34  H3  UNL     1      26.791  17.153  26.400  1.00  0.00     0.220 HD
BRANCH  32  35
HETATM   35  N1  UNL     1      27.485  17.799  29.452  1.00  0.00     0.136 N 
HETATM   36  C1  UNL     1      26.670  18.113  30.605  1.00  0.00     0.393 C 
HETATM   37  C2  UNL     1      28.299  16.642  29.864  1.00  0.00     0.393 C 
HETATM   38  O1  UNL     1      28.357  18.833  29.251  1.00  0.00    -0.040 OA
ENDBRANCH  32  35
BRANCH  33  39
HETATM   39  O2  UNL     1      28.698  17.388  26.968  1.00  0.00    -0.271 OA
ATOM     40  H2  UNL     1      29.187  17.022  26.241  1.00  0.00     0.246 HD
ENDBRANCH  33  39
ENDBRANCH   1  32
TORSDOF 11
ENDMDL
MODEL 5
REMARK VINA RESULT: -6.350052519      2.668      7.644
REMARK  11 active torsions:
REMARK  status: ('A' for Active; 'I' for Inactive)
REMARK    1  A    between atoms: N1_2  and  N2_5 
REMARK    2  A    between atoms: N2_5  and  N4_10 
REMARK    3  A    between atoms: N3_6  and  O2_8 
REMARK    4  A    between atoms: C3_11  and  C4_12 
REMARK    5  A    between atoms: C5_16  and  N6_17 
REMARK       I    between atoms: N6_17  and  C6_19 
REMARK    6  A    between atoms: C6_19  and  C7_21 
REMARK    7  A    between atoms: C7_21  and  N7_22 
REMARK    8  A    between atoms: C7_21  and  C8_26 
REMARK    9  A    between atoms: C8_26  and  C9_27 
REMARK   10  A    between atoms: C9_27  and  C10_28 
REMARK   11  A    between atoms: C10_28  and  N8_29 
REMARK       I    between atoms: N8_29  and  C11_31 
ROOT
HETATM    1  N4  UNL     1      22.922  15.850  28.899  1.00  0.00    -0.114 N 
HETATM    2  C3  UNL     1      22.229  15.046  29.846  1.00  0.00     0.128 C 
HETATM    3  N5  UNL     1      21.359  15.415  30.747  1.00  0.00    -0.352 N 
ATOM      4  H5  UNL     1      21.000  14.643  31.309  1.00  0.00     0.163 HD
HETATM    5  C5  UNL     1      20.814  16.677  31.102  1.00  0.00     0.209 C 
HETATM    6  C12 UNL     1      20.180  17.343  29.933  1.00  0.00     0.033 C 
HETATM    7  C13 UNL     1      20.703  17.655  28.765  1.00  0.00     0.133 C 
HETATM    8  S2  UNL     1      22.337  17.369  28.227  1.00  0.00     0.276 S 
HETATM    9  O4  UNL     1      22.422  17.348  26.722  1.00  0.00    -0.199 OA
HETATM   10  O5  UNL     1      23.189  18.450  28.824  1.00  0.00    -0.199 OA
ENDROOT
BRANCH   5  11
HETATM   11  N6  UNL     1      19.843  16.512  32.166  1.00  0.00    -0.335 N 
HETATM   12  C6  UNL     1      20.190  15.906  33.405  1.00  0.00     0.250 C 
HETATM   13  O3  UNL     1      21.375  15.498  33.586  1.00  0.00    -0.271 OA
ATOM     14  H6  UNL     1      18.888  16.839  32.023  1.00  0.00     0.164 HD
BRANCH  12  15
HETATM   15  C7  UNL     1      19.226  15.724  34.506  1.00  0.00     0.274 C 
BRANCH  15  16
HETATM   16  N7  UNL     1      19.378  16.754  35.515  1.00  0.00    -0.067 N 
ATOM     17  H73 UNL     1      20.350  17.048  35.606  1.00  0.00     0.275 HD
ATOM     18  H72 UNL     1      18.974  17.640  35.209  1.00  0.00     0.275 HD
ATOM     19  H71 UNL     1      18.992  16.456  36.410  1.00  0.00     0.275 HD
ENDBRANCH  15  16
BRANCH  15  20
HETATM   20  C8  UNL     1      19.334  14.391  35.172  1.00  0.00     0.044 C 
BRANCH  20  21
HETATM   21  C9  UNL     1      19.765  14.443  36.603  1.00  0.00     0.022 C 
BRANCH  21  22
HETATM   22  C10 UNL     1      21.054  13.617  36.696  1.00  0.00     0.122 C 
BRANCH  22  23
HETATM   23  N8  UNL     1      22.195  14.328  36.198  1.00  0.00    -0.365 N 
HETATM   24  C11 UNL     1      22.724  15.442  36.915  1.00  0.00     0.181 C 
HETATM   25  N9  UNL     1      23.323  15.299  38.045  1.00  0.00    -0.374 N 
HETATM   26  N10 UNL     1      22.581  16.728  36.359  1.00  0.00    -0.064 NA
ATOM     27  H92 UNL     1      23.427  14.368  38.448  1.00  0.00     0.158 HD
ATOM     28  H91 UNL     1      23.701  16.095  38.558  1.00  0.00     0.158 HD
ATOM     29  H8  UNL     1      22.631  14.036  35.323  1.00  0.00     0.162 HD
ENDBRANCH  22  23
ENDBRANCH  21  22
ENDBRANCH  20  21
ENDBRANCH  15  20
ENDBRANCH  12  15
ENDBRANCH   5  11
BRANCH   2  30
HETATM   30  C4  UNL     1      22.521  13.596  29.840  1.00  0.00     0.165 C 
HETATM   31  S1  UNL     1      22.287  12.776  31.414  1.00  0.00    -0.090 SA
ENDBRANCH   2  30
BRANCH   1  32
HETATM   32  N2  UNL     1      24.162  15.453  28.406  1.00  0.00     0.045 N 
HETATM   33  N3  UNL     1      24.166  14.851  27.303  1.00  0.00    -0.160 N 
ATOM     34  H3  UNL     1      23.248  14.693  26.888  1.00  0.00     0.220 HD
BRANCH  32  35
HETATM   35  N1  UNL     1      25.373  15.711  29.047  1.00  0.00     0.136 N 
HETATM   36  C1  UNL     1      26.166  16.752  28.431  1.00  0.00     0.393 C 
HETATM   37  C2  UNL     1      25.162  16.163  30.434  1.00  0.00     0.393 C 
HETATM   38  O1  UNL     1      26.137  14.580  29.122  1.00  0.00    -0.040 OA
ENDBRANCH  32  35
BRANCH  33  39
HETATM   39  O2  UNL     1      25.206  14.385  26.592  1.00  0.00    -0.271 OA
ATOM     40  H2  UNL     1      25.207  13.892  25.781  1.00  0.00     0.246 HD
ENDBRANCH  33  39
ENDBRANCH   1  32
TORSDOF 11
ENDMDL
