MODEL 1
REMARK VINA RESULT: -7.423250178      0.000      0.000
REMARK  13 active torsions:
REMARK  status: ('A' for Active; 'I' for Inactive)
REMARK    1  A    between atoms: N1_2  and  S1_4 
REMARK    2  A    between atoms: S1_4  and  C2_7 
REMARK    3  A    between atoms: C5_18  and  N6_19 
REMARK    4  A    between atoms: N6_19  and  C6_21 
REMARK    5  A    between atoms: C6_21  and  C7_22 
REMARK    6  A    between atoms: C7_22  and  N7_23 
REMARK    7  A    between atoms: N7_23  and  C8_25 
REMARK    8  A    between atoms: C8_25  and  C9_30 
REMARK    9  A    between atoms: N8_26  and  O3_28 
REMARK   10  A    between atoms: C12_35  and  C13_36 
REMARK   11  A    between atoms: C13_36  and  O4_37 
REMARK   12  A    between atoms: C13_36  and  C14_39 
REMARK   13  A    between atoms: C14_39  and  O5_41 
ROOT
HETATM    1  C6  UNL     1      22.086  13.047  31.596  1.00  0.00     0.141 C 
ENDROOT
BRANCH   1   2
HETATM    2  N6  UNL     1      21.169  14.001  32.176  1.00  0.00    -0.374 N 
ATOM      3  H6  UNL     1      20.391  14.375  31.632  1.00  0.00     0.161 HD
BRANCH   2   4
HETATM    4  C5  UNL     1      21.357  14.372  33.410  1.00  0.00     0.119 A 
HETATM    5  N5  UNL     1      22.035  13.594  34.273  1.00  0.00    -0.338 N 
HETATM    6  C4  UNL     1      22.182  14.034  35.533  1.00  0.00     0.183 A 
ATOM      7  H5  UNL     1      22.426  12.700  33.979  1.00  0.00     0.168 HD
HETATM    8  N4  UNL     1      21.670  15.214  35.935  1.00  0.00    -0.337 N 
HETATM    9  C3  UNL     1      20.992  16.005  35.098  1.00  0.00     0.138 A 
ATOM     10  H4  UNL     1      21.804  15.511  36.901  1.00  0.00     0.168 HD
HETATM   11  N3  UNL     1      20.376  17.192  35.183  1.00  0.00    -0.283 N 
HETATM   12  C17 UNL     1      20.814  15.591  33.775  1.00  0.00     0.095 A 
HETATM   13  N2  UNL     1      19.851  17.523  34.045  1.00  0.00    -0.286 N 
ATOM     14  H3  UNL     1      20.327  17.758  36.029  1.00  0.00     0.188 HD
HETATM   15  C2  UNL     1      20.088  16.559  33.106  1.00  0.00     0.181 A 
ATOM     16  H2  UNL     1      19.332  18.385  33.874  1.00  0.00     0.188 HD
BRANCH  15  17
HETATM   17  S1  UNL     1      19.577  16.546  31.449  1.00  0.00     0.276 S 
HETATM   18  O1  UNL     1      20.887  16.637  30.629  1.00  0.00    -0.199 OA
HETATM   19  O2  UNL     1      18.960  15.300  30.972  1.00  0.00    -0.199 OA
BRANCH  17  20
HETATM   20  N1  UNL     1      18.745  17.992  30.998  1.00  0.00    -0.319 N 
HETATM   21  C1  UNL     1      19.482  18.578  29.895  1.00  0.00     0.159 C 
ATOM     22  H1  UNL     1      17.897  18.362  31.427  1.00  0.00     0.171 HD
ENDBRANCH  17  20
ENDBRANCH  15  17
ENDBRANCH   2   4
ENDBRANCH   1   2
BRANCH   1  23
HETATM   23  C7  UNL     1      22.385  13.345  30.148  1.00  0.00     0.141 C 
BRANCH  23  24
HETATM   24  N7  UNL     1      22.862  14.689  29.992  1.00  0.00    -0.373 N 
ATOM     25  H7  UNL     1      22.656  15.386  30.707  1.00  0.00     0.161 HD
BRANCH  24  26
HETATM   26  C8  UNL     1      23.628  15.060  28.835  1.00  0.00     0.132 C 
HETATM   27  N8  UNL     1      24.042  14.147  28.029  1.00  0.00    -0.253 N 
ATOM     28  H8  UNL     1      23.818  13.172  28.225  1.00  0.00     0.196 HD
BRANCH  27  29
HETATM   29  O3  UNL     1      24.773  14.447  26.919  1.00  0.00    -0.288 OA
ATOM     30  H3  UNL     1      25.617  14.880  26.975  1.00  0.00     0.244 HD
ENDBRANCH  27  29
BRANCH  26  31
HETATM   31  C9  UNL     1      23.913  16.462  28.586  1.00  0.00     0.025 A 
HETATM   32  C10 UNL     1      23.004  17.191  27.817  1.00  0.00     0.102 A 
HETATM   33  N9  UNL     1      23.279  18.479  27.581  1.00  0.00    -0.374 N 
HETATM   34  C11 UNL     1      24.370  19.098  28.039  1.00  0.00     0.097 A 
ATOM     35  H9  UNL     1      22.618  19.019  27.021  1.00  0.00     0.164 HD
HETATM   36  C12 UNL     1      25.314  18.412  28.814  1.00  0.00    -0.011 A 
HETATM   37  C16 UNL     1      25.062  17.096  29.073  1.00  0.00     0.027 A 
BRANCH  36  38
HETATM   38  C13 UNL     1      26.470  19.152  29.291  1.00  0.00     0.180 C 
BRANCH  38  39
HETATM   39  O4  UNL     1      26.665  18.739  30.641  1.00  0.00    -0.388 OA
ATOM     40  H4  UNL     1      27.569  18.946  30.846  1.00  0.00     0.210 HD
ENDBRANCH  38  39
BRANCH  38  41
HETATM   41  C14 UNL     1      27.770  18.911  28.605  1.00  0.00     0.147 C 
HETATM   42  C15 UNL     1      28.394  17.674  29.267  1.00  0.00     0.042 C 
BRANCH  41  43
HETATM   43  O5  UNL     1      28.709  19.924  28.757  1.00  0.00    -0.393 OA
ATOM     44  H5  UNL     1      29.398  19.932  28.103  1.00  0.00     0.210 HD
ENDBRANCH  41  43
ENDBRANCH  38  41
ENDBRANCH  36  38
ENDBRANCH  26  31
ENDBRANCH  24  26
ENDBRANCH  23  24
ENDBRANCH   1  23
TORSDOF 13
ENDMDL
MODEL 2
REMARK VINA RESULT: -7.256494184      3.088      4.624
REMARK  13 active torsions:
REMARK  status: ('A' for Active; 'I' for Inactive)
REMARK    1  A    between atoms: N1_2  and  S1_4 
REMARK    2  A    between atoms: S1_4  and  C2_7 
REMARK    3  A    between atoms: C5_18  and  N6_19 
REMARK    4  A    between atoms: N6_19  and  C6_21 
REMARK    5  A    between atoms: C6_21  and  C7_22 
REMARK    6  A    between atoms: C7_22  and  N7_23 
REMARK    7  A    between atoms: N7_23  and  C8_25 
REMARK    8  A    between atoms: C8_25  and  C9_30 
REMARK    9  A    between atoms: N8_26  and  O3_28 
REMARK   10  A    between atoms: C12_35  and  C13_36 
REMARK   11  A    between atoms: C13_36  and  O4_37 
REMARK   12  A    between atoms: C13_36  and  C14_39 
REMARK   13  A    between atoms: C14_39  and  O5_41 
ROOT
HETATM    1  C6  UNL     1      22.984  14.264  29.907  1.00  0.00     0.141 C 
ENDROOT
BRANCH   1   2
HETATM    2  N6  UNL     1      22.513  15.588  29.573  1.00  0.00    -0.374 N 
ATOM      3  H6  UNL     1      23.057  16.196  28.960  1.00  0.00     0.161 HD
BRANCH   2   4
HETATM    4  C5  UNL     1      21.379  15.989  30.072  1.00  0.00     0.119 A 
HETATM    5  N5  UNL     1      20.715  15.242  30.971  1.00  0.00    -0.338 N 
HETATM    6  C4  UNL     1      19.545  15.710  31.436  1.00  0.00     0.183 A 
ATOM      7  H5  UNL     1      21.087  14.348  31.290  1.00  0.00     0.168 HD
HETATM    8  N4  UNL     1      19.042  16.890  31.022  1.00  0.00    -0.337 N 
HETATM    9  C3  UNL     1      19.682  17.651  30.130  1.00  0.00     0.138 A 
ATOM     10  H4  UNL     1      18.150  17.210  31.400  1.00  0.00     0.168 HD
HETATM   11  N3  UNL     1      19.456  18.829  29.532  1.00  0.00    -0.283 N 
HETATM   12  C17 UNL     1      20.904  17.206  29.618  1.00  0.00     0.095 A 
HETATM   13  N2  UNL     1      20.420  19.127  28.718  1.00  0.00    -0.286 N 
ATOM     14  H3  UNL     1      18.636  19.412  29.696  1.00  0.00     0.188 HD
HETATM   15  C2  UNL     1      21.373  18.147  28.720  1.00  0.00     0.181 A 
ATOM     16  H2  UNL     1      20.461  19.976  28.153  1.00  0.00     0.188 HD
BRANCH  15  17
HETATM   17  S1  UNL     1      22.835  18.089  27.790  1.00  0.00     0.276 S 
HETATM   18  O1  UNL     1      23.970  18.018  28.840  1.00  0.00    -0.199 OA
HETATM   19  O2  UNL     1      23.040  16.881  26.980  1.00  0.00    -0.199 OA
BRANCH  17  20
HETATM   20  N1  UNL     1      23.164  19.578  26.976  1.00  0.00    -0.319 N 
HETATM   21  C1  UNL     1      24.195  20.258  27.736  1.00  0.00     0.159 C 
ATOM     22  H1  UNL     1      22.718  19.914  26.122  1.00  0.00     0.171 HD
ENDBRANCH  17  20
ENDBRANCH  15  17
ENDBRANCH   2   4
ENDBRANCH   1   2
BRANCH   1  23
HETATM   23  C7  UNL     1      23.825  13.659  28.811  1.00  0.00     0.141 C 
BRANCH  23  24
HETATM   24  N7  UNL     1      25.222  13.821  29.091  1.00  0.00    -0.373 N 
ATOM     25  H7  UNL     1      25.736  13.072  29.555  1.00  0.00     0.161 HD
BRANCH  24  26
HETATM   26  C8  UNL     1      25.903  15.031  28.724  1.00  0.00     0.132 C 
HETATM   27  N8  UNL     1      25.556  15.655  27.654  1.00  0.00    -0.253 N 
ATOM     28  H8  UNL     1      24.798  15.279  27.084  1.00  0.00     0.196 HD
BRANCH  27  29
HETATM   29  O3  UNL     1      26.170  16.805  27.261  1.00  0.00    -0.288 OA
ATOM     30  H3  UNL     1      25.928  17.651  27.618  1.00  0.00     0.244 HD
ENDBRANCH  27  29
BRANCH  26  31
HETATM   31  C9  UNL     1      26.968  15.539  29.572  1.00  0.00     0.025 A 
HETATM   32  C10 UNL     1      28.283  15.196  29.251  1.00  0.00     0.102 A 
HETATM   33  N9  UNL     1      29.259  15.656  30.043  1.00  0.00    -0.374 N 
HETATM   34  C11 UNL     1      29.040  16.421  31.116  1.00  0.00     0.097 A 
ATOM     35  H9  UNL     1      30.222  15.411  29.814  1.00  0.00     0.164 HD
HETATM   36  C12 UNL     1      27.740  16.793  31.481  1.00  0.00    -0.011 A 
HETATM   37  C16 UNL     1      26.722  16.339  30.693  1.00  0.00     0.027 A 
BRANCH  36  38
HETATM   38  C13 UNL     1      27.578  17.638  32.652  1.00  0.00     0.180 C 
BRANCH  38  39
HETATM   39  O4  UNL     1      28.390  18.786  32.418  1.00  0.00    -0.388 OA
ATOM     40  H4  UNL     1      28.299  19.329  33.193  1.00  0.00     0.210 HD
ENDBRANCH  38  39
BRANCH  38  41
HETATM   41  C14 UNL     1      26.214  18.161  32.937  1.00  0.00     0.147 C 
HETATM   42  C15 UNL     1      26.399  19.514  33.639  1.00  0.00     0.042 C 
BRANCH  41  43
HETATM   43  O5  UNL     1      25.462  17.391  33.816  1.00  0.00    -0.393 OA
ATOM     44  H5  UNL     1      25.034  17.877  34.510  1.00  0.00     0.210 HD
ENDBRANCH  41  43
ENDBRANCH  38  41
ENDBRANCH  36  38
ENDBRANCH  26  31
ENDBRANCH  24  26
ENDBRANCH  23  24
ENDBRANCH   1  23
TORSDOF 13
ENDMDL
MODEL 3
REMARK VINA RESULT: -7.187494527      2.814      8.370
REMARK  13 active torsions:
REMARK  status: ('A' for Active; 'I' for Inactive)
REMARK    1  A    between atoms: N1_2  and  S1_4 
REMARK    2  A    between atoms: S1_4  and  C2_7 
REMARK    3  A    between atoms: C5_18  and  N6_19 
REMARK    4  A    between atoms: N6_19  and  C6_21 
REMARK    5  A    between atoms: C6_21  and  C7_22 
REMARK    6  A    between atoms: C7_22  and  N7_23 
REMARK    7  A    between atoms: N7_23  and  C8_25 
REMARK    8  A    between atoms: C8_25  and  C9_30 
REMARK    9  A    between atoms: N8_26  and  O3_28 
REMARK   10  A    between atoms: C12_35  and  C13_36 
REMARK   11  A    between atoms: C13_36  and  O4_37 
REMARK   12  A    between atoms: C13_36  and  C14_39 
REMARK   13  A    between atoms: C14_39  and  O5_41 
ROOT
HETATM    1  C6  UNL     1      21.680  16.755  29.596  1.00  0.00     0.141 C 
ENDROOT
BRANCH   1   2
HETATM    2  N6  UNL     1      22.872  16.466  28.833  1.00  0.00    -0.374 N 
ATOM      3  H6  UNL     1      23.185  15.504  28.700  1.00  0.00     0.161 HD
BRANCH   2   4
HETATM    4  C5  UNL     1      23.536  17.460  28.317  1.00  0.00     0.119 A 
HETATM    5  N5  UNL     1      22.958  18.661  28.136  1.00  0.00    -0.338 N 
HETATM    6  C4  UNL     1      23.699  19.638  27.588  1.00  0.00     0.183 A 
ATOM      7  H5  UNL     1      21.989  18.824  28.407  1.00  0.00     0.168 HD
HETATM    8  N4  UNL     1      24.981  19.436  27.226  1.00  0.00    -0.337 N 
HETATM    9  C3  UNL     1      25.577  18.252  27.394  1.00  0.00     0.138 A 
ATOM     10  H4  UNL     1      25.509  20.205  26.813  1.00  0.00     0.168 HD
HETATM   11  N3  UNL     1      26.792  17.743  27.144  1.00  0.00    -0.283 N 
HETATM   12  C17 UNL     1      24.848  17.204  27.961  1.00  0.00     0.095 A 
HETATM   13  N2  UNL     1      26.856  16.500  27.505  1.00  0.00    -0.286 N 
ATOM     14  H3  UNL     1      27.562  18.264  26.726  1.00  0.00     0.188 HD
HETATM   15  C2  UNL     1      25.663  16.089  28.033  1.00  0.00     0.181 A 
ATOM     16  H2  UNL     1      27.682  15.909  27.409  1.00  0.00     0.188 HD
BRANCH  15  17
HETATM   17  S1  UNL     1      25.259  14.516  28.638  1.00  0.00     0.276 S 
HETATM   18  O1  UNL     1      24.778  14.761  30.089  1.00  0.00    -0.199 OA
HETATM   19  O2  UNL     1      24.111  13.853  28.004  1.00  0.00    -0.199 OA
BRANCH  17  20
HETATM   20  N1  UNL     1      26.648  13.513  28.863  1.00  0.00    -0.319 N 
HETATM   21  C1  UNL     1      26.179  12.259  29.424  1.00  0.00     0.159 C 
ATOM     22  H1  UNL     1      27.614  13.756  28.643  1.00  0.00     0.171 HD
ENDBRANCH  17  20
ENDBRANCH  15  17
ENDBRANCH   2   4
ENDBRANCH   1   2
BRANCH   1  23
HETATM   23  C7  UNL     1      21.096  15.523  30.239  1.00  0.00     0.141 C 
BRANCH  23  24
HETATM   24  N7  UNL     1      19.736  15.752  30.638  1.00  0.00    -0.373 N 
ATOM     25  H7  UNL     1      18.985  15.210  30.212  1.00  0.00     0.161 HD
BRANCH  24  26
HETATM   26  C8  UNL     1      19.426  16.739  31.634  1.00  0.00     0.132 C 
HETATM   27  N8  UNL     1      18.746  17.780  31.306  1.00  0.00    -0.253 N 
ATOM     28  H8  UNL     1      18.437  17.886  30.340  1.00  0.00     0.196 HD
BRANCH  27  29
HETATM   29  O3  UNL     1      18.427  18.746  32.212  1.00  0.00    -0.288 OA
ATOM     30  H3  UNL     1      17.534  19.050  32.328  1.00  0.00     0.244 HD
ENDBRANCH  27  29
BRANCH  26  31
HETATM   31  C9  UNL     1      19.875  16.541  33.002  1.00  0.00     0.025 A 
HETATM   32  C10 UNL     1      20.768  17.470  33.540  1.00  0.00     0.102 A 
HETATM   33  N9  UNL     1      21.187  17.276  34.796  1.00  0.00    -0.374 N 
HETATM   34  C11 UNL     1      20.798  16.247  35.554  1.00  0.00     0.097 A 
ATOM     35  H9  UNL     1      21.839  17.951  35.197  1.00  0.00     0.164 HD
HETATM   36  C12 UNL     1      19.906  15.288  35.062  1.00  0.00    -0.011 A 
HETATM   37  C16 UNL     1      19.458  15.458  33.783  1.00  0.00     0.027 A 
BRANCH  36  38
HETATM   38  C13 UNL     1      19.516  14.203  35.946  1.00  0.00     0.180 C 
BRANCH  38  39
HETATM   39  O4  UNL     1      19.278  13.080  35.102  1.00  0.00    -0.388 OA
ATOM     40  H4  UNL     1      18.702  12.505  35.592  1.00  0.00     0.210 HD
ENDBRANCH  38  39
BRANCH  38  41
HETATM   41  C14 UNL     1      20.512  13.746  36.953  1.00  0.00     0.147 C 
HETATM   42  C15 UNL     1      21.443  12.760  36.234  1.00  0.00     0.042 C 
BRANCH  41  43
HETATM   43  O5  UNL     1      19.981  13.037  38.024  1.00  0.00    -0.393 OA
ATOM     44  H5  UNL     1      20.615  12.549  38.536  1.00  0.00     0.210 HD
ENDBRANCH  41  43
ENDBRANCH  38  41
ENDBRANCH  36  38
ENDBRANCH  26  31
ENDBRANCH  24  26
ENDBRANCH  23  24
ENDBRANCH   1  23
TORSDOF 13
ENDMDL
MODEL 4
REMARK VINA RESULT: -7.121756860      2.681      3.876
REMARK  13 active torsions:
REMARK  status: ('A' for Active; 'I' for Inactive)
REMARK    1  A    between atoms: N1_2  and  S1_4 
REMARK    2  A    between atoms: S1_4  and  C2_7 
REMARK    3  A    between atoms: C5_18  and  N6_19 
REMARK    4  A    between atoms: N6_19  and  C6_21 
REMARK    5  A    between atoms: C6_21  and  C7_22 
REMARK    6  A    between atoms: C7_22  and  N7_23 
REMARK    7  A    between atoms: N7_23  and  C8_25 
REMARK    8  A    between atoms: C8_25  and  C9_30 
REMARK    9  A    between atoms: N8_26  and  O3_28 
REMARK   10  A    between atoms: C12_35  and  C13_36 
REMARK   11  A    between atoms: C13_36  and  O4_37 
REMARK   12  A    between atoms: C13_36  and  C14_39 
REMARK   13  A    between atoms: C14_39  and  O5_41 
ROOT
HETATM    1  C6  UNL     1      22.417  14.764  31.963  1.00  0.00     0.141 C 
ENDROOT
BRANCH   1   2
HETATM    2  N6  UNL     1      22.463  16.135  32.415  1.00  0.00    -0.374 N 
ATOM      3  H6  UNL     1      21.702  16.780  32.201  1.00  0.00     0.161 HD
BRANCH   2   4
HETATM    4  C5  UNL     1      23.497  16.528  33.102  1.00  0.00     0.119 A 
HETATM    5  N5  UNL     1      24.729  16.524  32.565  1.00  0.00    -0.338 N 
HETATM    6  C4  UNL     1      25.752  16.932  33.334  1.00  0.00     0.183 A 
ATOM      7  H5  UNL     1      24.883  16.221  31.603  1.00  0.00     0.168 HD
HETATM    8  N4  UNL     1      25.563  17.335  34.605  1.00  0.00    -0.337 N 
HETATM    9  C3  UNL     1      24.349  17.348  35.163  1.00  0.00     0.138 A 
ATOM     10  H4  UNL     1      26.367  17.638  35.156  1.00  0.00     0.168 HD
HETATM   11  N3  UNL     1      23.844  17.677  36.361  1.00  0.00    -0.283 N 
HETATM   12  C17 UNL     1      23.253  16.934  34.402  1.00  0.00     0.095 A 
HETATM   13  N2  UNL     1      22.561  17.498  36.387  1.00  0.00    -0.286 N 
ATOM     14  H3  UNL     1      24.396  18.020  37.146  1.00  0.00     0.188 HD
HETATM   15  C2  UNL     1      22.115  17.030  35.182  1.00  0.00     0.181 A 
ATOM     16  H2  UNL     1      21.965  17.680  37.195  1.00  0.00     0.188 HD
BRANCH  15  17
HETATM   17  S1  UNL     1      20.487  16.630  34.737  1.00  0.00     0.276 S 
HETATM   18  O1  UNL     1      19.611  17.226  35.865  1.00  0.00    -0.199 OA
HETATM   19  O2  UNL     1      19.971  17.276  33.523  1.00  0.00    -0.199 OA
BRANCH  17  20
HETATM   20  N1  UNL     1      20.162  14.937  34.858  1.00  0.00    -0.319 N 
HETATM   21  C1  UNL     1      19.602  14.706  36.177  1.00  0.00     0.159 C 
ATOM     22  H1  UNL     1      20.331  14.234  34.139  1.00  0.00     0.171 HD
ENDBRANCH  17  20
ENDBRANCH  15  17
ENDBRANCH   2   4
ENDBRANCH   1   2
BRANCH   1  23
HETATM   23  C7  UNL     1      21.039  14.354  31.508  1.00  0.00     0.141 C 
BRANCH  23  24
HETATM   24  N7  UNL     1      20.748  14.894  30.211  1.00  0.00    -0.373 N 
ATOM     25  H7  UNL     1      20.803  14.294  29.388  1.00  0.00     0.161 HD
BRANCH  24  26
HETATM   26  C8  UNL     1      20.381  16.275  30.063  1.00  0.00     0.132 C 
HETATM   27  N8  UNL     1      19.411  16.752  30.759  1.00  0.00    -0.253 N 
ATOM     28  H8  UNL     1      18.917  16.139  31.408  1.00  0.00     0.196 HD
BRANCH  27  29
HETATM   29  O3  UNL     1      19.023  18.053  30.654  1.00  0.00    -0.288 OA
ATOM     30  H3  UNL     1      19.594  18.720  30.292  1.00  0.00     0.244 HD
ENDBRANCH  27  29
BRANCH  26  31
HETATM   31  C9  UNL     1      21.120  17.116  29.136  1.00  0.00     0.025 A 
HETATM   32  C10 UNL     1      20.394  17.977  28.310  1.00  0.00     0.102 A 
HETATM   33  N9  UNL     1      21.079  18.740  27.450  1.00  0.00    -0.374 N 
HETATM   34  C11 UNL     1      22.410  18.720  27.343  1.00  0.00     0.097 A 
ATOM     35  H9  UNL     1      20.556  19.372  26.845  1.00  0.00     0.164 HD
HETATM   36  C12 UNL     1      23.184  17.874  28.147  1.00  0.00    -0.011 A 
HETATM   37  C16 UNL     1      22.515  17.082  29.035  1.00  0.00     0.027 A 
BRANCH  36  38
HETATM   38  C13 UNL     1      24.627  17.914  27.986  1.00  0.00     0.180 C 
BRANCH  38  39
HETATM   39  O4  UNL     1      24.886  18.966  27.059  1.00  0.00    -0.388 OA
ATOM     40  H4  UNL     1      25.157  19.711  27.582  1.00  0.00     0.210 HD
ENDBRANCH  38  39
BRANCH  38  41
HETATM   41  C14 UNL     1      25.444  18.230  29.190  1.00  0.00     0.147 C 
HETATM   42  C15 UNL     1      26.561  19.176  28.728  1.00  0.00     0.042 C 
BRANCH  41  43
HETATM   43  O5  UNL     1      26.095  17.141  29.758  1.00  0.00    -0.393 OA
ATOM     44  H5  UNL     1      26.009  17.072  30.702  1.00  0.00     0.210 HD
ENDBRANCH  41  43
ENDBRANCH  38  41
ENDBRANCH  36  38
ENDBRANCH  26  31
ENDBRANCH  24  26
ENDBRANCH  23  24
ENDBRANCH   1  23
TORSDOF 13
ENDMDL
MODEL 5
REMARK VINA RESULT: -7.111752124      2.837      6.101
REMARK  13 active torsions:
REMARK  status: ('A' for Active; 'I' for Inactive)
REMARK    1  A    between atoms: N1_2  and  S1_4 
REMARK    2  A    between atoms: S1_4  and  C2_7 
REMARK    3  A    between atoms: C5_18  and  N6_19 
REMARK    4  A    between atoms: N6_19  and  C6_21 
REMARK    5  A    between atoms: C6_21  and  C7_22 
REMARK    6  A    between atoms: C7_22  and  N7_23 
REMARK    7  A    between atoms: N7_23  and  C8_25 
REMARK    8  A    between atoms: C8_25  and  C9_30 
REMARK    9  A    between atoms: N8_26  and  O3_28 
REMARK   10  A    between atoms: C12_35  and  C13_36 
REMARK   11  A    between atoms: C13_36  and  O4_37 
REMARK   12  A    between atoms: C13_36  and  C14_39 
REMARK   13  A    between atoms: C14_39  and  O5_41 
ROOT
HETATM    1  C6  UNL     1      22.988  13.986  29.883  1.00  0.00     0.141 C 
ENDROOT
BRANCH   1   2
HETATM    2  N6  UNL     1      22.519  15.320  29.587  1.00  0.00    -0.374 N 
ATOM      3  H6  UNL     1      23.054  15.937  28.975  1.00  0.00     0.161 HD
BRANCH   2   4
HETATM    4  C5  UNL     1      21.399  15.718  30.120  1.00  0.00     0.119 A 
HETATM    5  N5  UNL     1      20.745  14.952  31.012  1.00  0.00    -0.338 N 
HETATM    6  C4  UNL     1      19.590  15.419  31.513  1.00  0.00     0.183 A 
ATOM      7  H5  UNL     1      21.114  14.046  31.298  1.00  0.00     0.168 HD
HETATM    8  N4  UNL     1      19.091  16.615  31.143  1.00  0.00    -0.337 N 
HETATM    9  C3  UNL     1      19.721  17.394  30.259  1.00  0.00     0.138 A 
ATOM     10  H4  UNL     1      18.210  16.933  31.547  1.00  0.00     0.168 HD
HETATM   11  N3  UNL     1      19.496  18.591  29.699  1.00  0.00    -0.283 N 
HETATM   12  C17 UNL     1      20.928  16.952  29.710  1.00  0.00     0.095 A 
HETATM   13  N2  UNL     1      20.446  18.902  28.874  1.00  0.00    -0.286 N 
ATOM     14  H3  UNL     1      18.686  19.178  29.896  1.00  0.00     0.188 HD
HETATM   15  C2  UNL     1      21.388  17.913  28.830  1.00  0.00     0.181 A 
ATOM     16  H2  UNL     1      20.485  19.766  28.332  1.00  0.00     0.188 HD
BRANCH  15  17
HETATM   17  S1  UNL     1      22.831  17.867  27.868  1.00  0.00     0.276 S 
HETATM   18  O1  UNL     1      23.989  17.813  28.894  1.00  0.00    -0.199 OA
HETATM   19  O2  UNL     1      23.032  16.656  27.060  1.00  0.00    -0.199 OA
BRANCH  17  20
HETATM   20  N1  UNL     1      23.126  19.354  27.040  1.00  0.00    -0.319 N 
HETATM   21  C1  UNL     1      24.161  20.054  27.779  1.00  0.00     0.159 C 
ATOM     22  H1  UNL     1      22.661  19.679  26.192  1.00  0.00     0.171 HD
ENDBRANCH  17  20
ENDBRANCH  15  17
ENDBRANCH   2   4
ENDBRANCH   1   2
BRANCH   1  23
HETATM   23  C7  UNL     1      24.436  13.964  30.301  1.00  0.00     0.141 C 
BRANCH  23  24
HETATM   24  N7  UNL     1      24.583  14.419  31.654  1.00  0.00    -0.373 N 
ATOM     25  H7  UNL     1      24.500  13.755  32.424  1.00  0.00     0.161 HD
BRANCH  24  26
HETATM   26  C8  UNL     1      24.845  15.803  31.932  1.00  0.00     0.132 C 
HETATM   27  N8  UNL     1      25.533  16.499  31.098  1.00  0.00    -0.253 N 
ATOM     28  H8  UNL     1      25.881  16.054  30.249  1.00  0.00     0.196 HD
BRANCH  27  29
HETATM   29  O3  UNL     1      25.811  17.815  31.316  1.00  0.00    -0.288 OA
ATOM     30  H3  UNL     1      25.170  18.496  31.156  1.00  0.00     0.244 HD
ENDBRANCH  27  29
BRANCH  26  31
HETATM   31  C9  UNL     1      24.320  16.401  33.148  1.00  0.00     0.025 A 
HETATM   32  C10 UNL     1      25.220  17.027  34.013  1.00  0.00     0.102 A 
HETATM   33  N9  UNL     1      24.732  17.565  35.138  1.00  0.00    -0.374 N 
HETATM   34  C11 UNL     1      23.439  17.533  35.472  1.00  0.00     0.097 A 
ATOM     35  H9  UNL     1      25.383  18.025  35.774  1.00  0.00     0.164 HD
HETATM   36  C12 UNL     1      22.497  16.916  34.639  1.00  0.00    -0.011 A 
HETATM   37  C16 UNL     1      22.962  16.358  33.484  1.00  0.00     0.027 A 
BRANCH  36  38
HETATM   38  C13 UNL     1      21.105  16.931  35.059  1.00  0.00     0.180 C 
BRANCH  38  39
HETATM   39  O4  UNL     1      20.399  17.629  34.037  1.00  0.00    -0.388 OA
ATOM     40  H4  UNL     1      20.279  18.513  34.363  1.00  0.00     0.210 HD
ENDBRANCH  38  39
BRANCH  38  41
HETATM   41  C14 UNL     1      20.416  15.618  35.199  1.00  0.00     0.147 C 
HETATM   42  C15 UNL     1      18.910  15.914  35.235  1.00  0.00     0.042 C 
BRANCH  41  43
HETATM   43  O5  UNL     1      20.687  14.938  36.379  1.00  0.00    -0.393 OA
ATOM     44  H5  UNL     1      20.312  14.066  36.434  1.00  0.00     0.210 HD
ENDBRANCH  41  43
ENDBRANCH  38  41
ENDBRANCH  36  38
ENDBRANCH  26  31
ENDBRANCH  24  26
ENDBRANCH  23  24
ENDBRANCH   1  23
TORSDOF 13
ENDMDL
