MODEL 1
REMARK VINA RESULT: -7.349076336      0.000      0.000
REMARK  16 active torsions:
REMARK  status: ('A' for Active; 'I' for Inactive)
REMARK    1  A    between atoms: C2_2  and  C3_3 
REMARK    2  A    between atoms: C4_4  and  C5_5 
REMARK    3  A    between atoms: C7_10  and  N3_11 
REMARK    4  A    between atoms: N3_11  and  C8_13 
REMARK    5  A    between atoms: C8_13  and  C9_14 
REMARK    6  A    between atoms: C12_17  and  O1_18 
REMARK    7  A    between atoms: C15_24  and  N5_25 
REMARK    8  A    between atoms: N5_25  and  C16_27 
REMARK    9  A    between atoms: C16_27  and  C17_28 
REMARK   10  A    between atoms: C17_28  and  N6_29 
REMARK   11  A    between atoms: N6_29  and  C18_31 
REMARK   12  A    between atoms: C19_34  and  N8_35 
REMARK   13  A    between atoms: N8_35  and  C20_37 
REMARK   14  A    between atoms: C20_37  and  C21_38 
REMARK   15  A    between atoms: C21_38  and  N9_39 
REMARK   16  A    between atoms: N11_45  and  O2_46 
ROOT
HETATM    1  C5  UNL     1      19.906  16.440  31.461  1.00  0.00     0.103 A 
HETATM    2  C6  UNL     1      19.339  17.664  31.181  1.00  0.00     0.154 A 
HETATM    3  N1  UNL     1      18.467  18.213  32.161  1.00  0.00    -0.080 NA
HETATM    4  N2  UNL     1      19.595  18.335  30.013  1.00  0.00    -0.177 N 
ATOM      5  H2  UNL     1      19.164  19.241  29.827  1.00  0.00     0.185 HD
HETATM    6  C7  UNL     1      20.423  17.776  29.122  1.00  0.00     0.681 A 
HETATM    7  N4  UNL     1      20.998  16.557  29.382  1.00  0.00    -0.175 N 
ATOM      8  H4  UNL     1      21.627  16.146  28.692  1.00  0.00     0.186 HD
HETATM    9  C15 UNL     1      20.753  15.895  30.520  1.00  0.00     0.139 A 
ENDROOT
BRANCH   9  10
HETATM   10  N5  UNL     1      21.273  14.749  30.799  1.00  0.00    -0.373 N 
ATOM     11  H5  UNL     1      20.701  14.008  31.203  1.00  0.00     0.161 HD
BRANCH  10  12
HETATM   12  C16 UNL     1      22.696  14.521  30.530  1.00  0.00     0.141 C 
BRANCH  12  13
HETATM   13  C17 UNL     1      23.548  15.142  31.625  1.00  0.00     0.158 C 
BRANCH  13  14
HETATM   14  N6  UNL     1      24.949  15.005  31.279  1.00  0.00    -0.221 N 
ATOM     15  H6  UNL     1      25.305  14.101  30.968  1.00  0.00     0.177 HD
BRANCH  14  16
HETATM   16  C18 UNL     1      25.762  16.025  31.361  1.00  0.00     0.735 A 
HETATM   17  N7  UNL     1      25.552  17.121  32.113  1.00  0.00    -0.018 N 
HETATM   18  C19 UNL     1      26.593  17.949  31.948  1.00  0.00     0.709 A 
ATOM     19  H7  UNL     1      24.740  17.292  32.706  1.00  0.00     0.203 HD
HETATM   20  N10 UNL     1      27.450  17.357  31.086  1.00  0.00    -0.090 N 
HETATM   21  N11 UNL     1      26.938  16.192  30.737  1.00  0.00     0.031 N 
ATOM     22  H10 UNL     1      28.338  17.743  30.763  1.00  0.00     0.209 HD
BRANCH  18  23
HETATM   23  N8  UNL     1      26.727  19.110  32.527  1.00  0.00    -0.223 N 
ATOM     24  H8  UNL     1      27.092  19.913  32.015  1.00  0.00     0.177 HD
BRANCH  23  25
HETATM   25  C20 UNL     1      26.343  19.223  33.917  1.00  0.00     0.165 C 
BRANCH  25  26
HETATM   26  C21 UNL     1      27.096  20.404  34.497  1.00  0.00     0.249 C 
BRANCH  26  27
HETATM   27  N9  UNL     1      28.461  20.383  33.994  1.00  0.00    -0.078 N 
ATOM     28  H93 UNL     1      28.857  19.443  33.981  1.00  0.00     0.274 HD
ATOM     29  H92 UNL     1      28.511  20.572  32.993  1.00  0.00     0.274 HD
ATOM     30  H91 UNL     1      29.023  21.034  34.542  1.00  0.00     0.274 HD
ENDBRANCH  26  27
ENDBRANCH  25  26
ENDBRANCH  23  25
ENDBRANCH  18  23
BRANCH  21  31
HETATM   31  O2  UNL     1      27.515  15.288  29.869  1.00  0.00    -0.254 OA
ATOM     32  H2  UNL     1      28.059  14.552  30.125  1.00  0.00     0.247 HD
ENDBRANCH  21  31
ENDBRANCH  14  16
ENDBRANCH  13  14
ENDBRANCH  12  13
ENDBRANCH  10  12
ENDBRANCH   9  10
BRANCH   1  33
HETATM   33  C4  UNL     1      19.633  15.742  32.694  1.00  0.00    -0.055 C 
HETATM   34  C3  UNL     1      19.424  15.149  33.734  1.00  0.00    -0.074 C 
BRANCH  34  35
HETATM   35  C2  UNL     1      19.195  14.430  34.955  1.00  0.00     0.054 C 
HETATM   36  C1  UNL     1      19.555  14.912  36.133  1.00  0.00     0.020 C 
ENDBRANCH  34  35
ENDBRANCH   1  33
BRANCH   6  37
HETATM   37  N3  UNL     1      20.686  18.372  28.030  1.00  0.00    -0.222 N 
ATOM     38  H3  UNL     1      20.129  19.204  27.835  1.00  0.00     0.178 HD
BRANCH  37  39
HETATM   39  C8  UNL     1      21.652  18.033  27.046  1.00  0.00     0.176 C 
BRANCH  39  40
HETATM   40  C9  UNL     1      23.007  18.422  27.542  1.00  0.00    -0.040 A 
HETATM   41  C10 UNL     1      23.900  17.441  27.862  1.00  0.00     0.011 A 
HETATM   42  C11 UNL     1      25.147  17.812  28.319  1.00  0.00     0.037 A 
HETATM   43  C12 UNL     1      25.446  19.155  28.437  1.00  0.00     0.065 A 
HETATM   44  C13 UNL     1      24.506  20.137  28.101  1.00  0.00     0.037 A 
HETATM   45  C14 UNL     1      23.277  19.765  27.650  1.00  0.00     0.011 A 
BRANCH  43  46
HETATM   46  O1  UNL     1      26.698  19.523  28.896  1.00  0.00    -0.361 OA
ATOM     47  H1  UNL     1      27.401  18.885  28.871  1.00  0.00     0.217 HD
ENDBRANCH  43  46
ENDBRANCH  39  40
ENDBRANCH  37  39
ENDBRANCH   6  37
TORSDOF 16
ENDMDL
MODEL 2
REMARK VINA RESULT: -7.230364926      2.041      2.403
REMARK  16 active torsions:
REMARK  status: ('A' for Active; 'I' for Inactive)
REMARK    1  A    between atoms: C2_2  and  C3_3 
REMARK    2  A    between atoms: C4_4  and  C5_5 
REMARK    3  A    between atoms: C7_10  and  N3_11 
REMARK    4  A    between atoms: N3_11  and  C8_13 
REMARK    5  A    between atoms: C8_13  and  C9_14 
REMARK    6  A    between atoms: C12_17  and  O1_18 
REMARK    7  A    between atoms: C15_24  and  N5_25 
REMARK    8  A    between atoms: N5_25  and  C16_27 
REMARK    9  A    between atoms: C16_27  and  C17_28 
REMARK   10  A    between atoms: C17_28  and  N6_29 
REMARK   11  A    between atoms: N6_29  and  C18_31 
REMARK   12  A    between atoms: C19_34  and  N8_35 
REMARK   13  A    between atoms: N8_35  and  C20_37 
REMARK   14  A    between atoms: C20_37  and  C21_38 
REMARK   15  A    between atoms: C21_38  and  N9_39 
REMARK   16  A    between atoms: N11_45  and  O2_46 
ROOT
HETATM    1  C5  UNL     1      19.958  16.564  31.749  1.00  0.00     0.103 A 
HETATM    2  C6  UNL     1      19.287  17.676  31.288  1.00  0.00     0.154 A 
HETATM    3  N1  UNL     1      18.315  18.251  32.152  1.00  0.00    -0.080 NA
HETATM    4  N2  UNL     1      19.535  18.216  30.053  1.00  0.00    -0.177 N 
ATOM      5  H2  UNL     1      19.027  19.040  29.732  1.00  0.00     0.185 HD
HETATM    6  C7  UNL     1      20.460  17.639  29.277  1.00  0.00     0.681 A 
HETATM    7  N4  UNL     1      21.140  16.530  29.717  1.00  0.00    -0.175 N 
ATOM      8  H4  UNL     1      21.842  16.103  29.113  1.00  0.00     0.186 HD
HETATM    9  C15 UNL     1      20.903  15.996  30.922  1.00  0.00     0.139 A 
ENDROOT
BRANCH   9  10
HETATM   10  N5  UNL     1      21.519  14.957  31.370  1.00  0.00    -0.373 N 
ATOM     11  H5  UNL     1      21.000  14.109  31.599  1.00  0.00     0.161 HD
BRANCH  10  12
HETATM   12  C16 UNL     1      22.973  15.004  31.547  1.00  0.00     0.141 C 
BRANCH  12  13
HETATM   13  C17 UNL     1      23.321  15.236  33.009  1.00  0.00     0.158 C 
BRANCH  13  14
HETATM   14  N6  UNL     1      23.321  16.660  33.282  1.00  0.00    -0.221 N 
ATOM     15  H6  UNL     1      22.751  17.282  32.709  1.00  0.00     0.177 HD
BRANCH  14  16
HETATM   16  C18 UNL     1      24.042  17.156  34.253  1.00  0.00     0.735 A 
HETATM   17  N7  UNL     1      25.326  17.543  34.141  1.00  0.00    -0.018 N 
HETATM   18  C19 UNL     1      25.733  17.998  35.333  1.00  0.00     0.709 A 
ATOM     19  H7  UNL     1      25.892  17.498  33.293  1.00  0.00     0.203 HD
HETATM   20  N10 UNL     1      24.690  17.889  36.187  1.00  0.00    -0.090 N 
HETATM   21  N11 UNL     1      23.671  17.378  35.523  1.00  0.00     0.031 N 
ATOM     22  H10 UNL     1      24.691  18.155  37.172  1.00  0.00     0.209 HD
BRANCH  18  23
HETATM   23  N8  UNL     1      26.925  18.457  35.595  1.00  0.00    -0.223 N 
ATOM     24  H8  UNL     1      27.733  17.836  35.623  1.00  0.00     0.177 HD
BRANCH  23  25
HETATM   25  C20 UNL     1      27.066  19.876  35.844  1.00  0.00     0.165 C 
BRANCH  25  26
HETATM   26  C21 UNL     1      27.095  20.569  34.496  1.00  0.00     0.249 C 
BRANCH  26  27
HETATM   27  N9  UNL     1      28.433  20.450  33.936  1.00  0.00    -0.078 N 
ATOM     28  H93 UNL     1      29.157  20.457  34.654  1.00  0.00     0.274 HD
ATOM     29  H92 UNL     1      28.616  19.520  33.560  1.00  0.00     0.274 HD
ATOM     30  H91 UNL     1      28.565  21.185  33.241  1.00  0.00     0.274 HD
ENDBRANCH  26  27
ENDBRANCH  25  26
ENDBRANCH  23  25
ENDBRANCH  18  23
BRANCH  21  31
HETATM   31  O2  UNL     1      22.422  17.112  36.046  1.00  0.00    -0.254 OA
ATOM     32  H2  UNL     1      22.025  17.569  36.778  1.00  0.00     0.247 HD
ENDBRANCH  21  31
ENDBRANCH  14  16
ENDBRANCH  13  14
ENDBRANCH  12  13
ENDBRANCH  10  12
ENDBRANCH   9  10
BRANCH   1  33
HETATM   33  C4  UNL     1      19.691  16.004  33.053  1.00  0.00    -0.055 C 
HETATM   34  C3  UNL     1      19.485  15.541  34.157  1.00  0.00    -0.074 C 
BRANCH  34  35
HETATM   35  C2  UNL     1      19.268  14.989  35.464  1.00  0.00     0.054 C 
HETATM   36  C1  UNL     1      20.021  14.015  35.950  1.00  0.00     0.020 C 
ENDBRANCH  34  35
ENDBRANCH   1  33
BRANCH   6  37
HETATM   37  N3  UNL     1      20.719  18.115  28.127  1.00  0.00    -0.222 N 
ATOM     38  H3  UNL     1      20.135  18.897  27.830  1.00  0.00     0.178 HD
BRANCH  37  39
HETATM   39  C8  UNL     1      21.714  17.703  27.200  1.00  0.00     0.176 C 
BRANCH  39  40
HETATM   40  C9  UNL     1      23.036  18.253  27.631  1.00  0.00    -0.040 A 
HETATM   41  C10 UNL     1      24.018  17.387  28.014  1.00  0.00     0.011 A 
HETATM   42  C11 UNL     1      25.233  17.907  28.410  1.00  0.00     0.037 A 
HETATM   43  C12 UNL     1      25.411  19.276  28.405  1.00  0.00     0.065 A 
HETATM   44  C13 UNL     1      24.381  20.137  28.006  1.00  0.00     0.037 A 
HETATM   45  C14 UNL     1      23.185  19.619  27.616  1.00  0.00     0.011 A 
BRANCH  43  46
HETATM   46  O1  UNL     1      26.631  19.793  28.802  1.00  0.00    -0.361 OA
ATOM     47  H1  UNL     1      26.653  20.645  29.223  1.00  0.00     0.217 HD
ENDBRANCH  43  46
ENDBRANCH  39  40
ENDBRANCH  37  39
ENDBRANCH   6  37
TORSDOF 16
ENDMDL
MODEL 3
REMARK VINA RESULT: -7.201818908      2.885      3.535
REMARK  16 active torsions:
REMARK  status: ('A' for Active; 'I' for Inactive)
REMARK    1  A    between atoms: C2_2  and  C3_3 
REMARK    2  A    between atoms: C4_4  and  C5_5 
REMARK    3  A    between atoms: C7_10  and  N3_11 
REMARK    4  A    between atoms: N3_11  and  C8_13 
REMARK    5  A    between atoms: C8_13  and  C9_14 
REMARK    6  A    between atoms: C12_17  and  O1_18 
REMARK    7  A    between atoms: C15_24  and  N5_25 
REMARK    8  A    between atoms: N5_25  and  C16_27 
REMARK    9  A    between atoms: C16_27  and  C17_28 
REMARK   10  A    between atoms: C17_28  and  N6_29 
REMARK   11  A    between atoms: N6_29  and  C18_31 
REMARK   12  A    between atoms: C19_34  and  N8_35 
REMARK   13  A    between atoms: N8_35  and  C20_37 
REMARK   14  A    between atoms: C20_37  and  C21_38 
REMARK   15  A    between atoms: C21_38  and  N9_39 
REMARK   16  A    between atoms: N11_45  and  O2_46 
ROOT
HETATM    1  C5  UNL     1      19.861  16.336  31.438  1.00  0.00     0.103 A 
HETATM    2  C6  UNL     1      19.373  17.605  31.214  1.00  0.00     0.154 A 
HETATM    3  N1  UNL     1      18.591  18.191  32.247  1.00  0.00    -0.080 NA
HETATM    4  N2  UNL     1      19.621  18.286  30.050  1.00  0.00    -0.177 N 
ATOM      5  H2  UNL     1      19.250  19.225  29.905  1.00  0.00     0.185 HD
HETATM    6  C7  UNL     1      20.363  17.692  29.107  1.00  0.00     0.681 A 
HETATM    7  N4  UNL     1      20.859  16.428  29.311  1.00  0.00    -0.175 N 
ATOM      8  H4  UNL     1      21.423  15.990  28.582  1.00  0.00     0.186 HD
HETATM    9  C15 UNL     1      20.620  15.756  30.445  1.00  0.00     0.139 A 
ENDROOT
BRANCH   9  10
HETATM   10  N5  UNL     1      21.067  14.569  30.673  1.00  0.00    -0.373 N 
ATOM     11  H5  UNL     1      20.553  13.933  31.282  1.00  0.00     0.161 HD
BRANCH  10  12
HETATM   12  C16 UNL     1      22.322  14.142  30.047  1.00  0.00     0.141 C 
BRANCH  12  13
HETATM   13  C17 UNL     1      23.027  13.116  30.921  1.00  0.00     0.158 C 
BRANCH  13  14
HETATM   14  N6  UNL     1      22.138  12.705  31.990  1.00  0.00    -0.221 N 
ATOM     15  H6  UNL     1      21.304  12.162  31.770  1.00  0.00     0.177 HD
BRANCH  14  16
HETATM   16  C18 UNL     1      22.392  13.023  33.232  1.00  0.00     0.735 A 
HETATM   17  N7  UNL     1      22.932  14.187  33.636  1.00  0.00    -0.018 N 
HETATM   18  C19 UNL     1      23.044  14.158  34.971  1.00  0.00     0.709 A 
ATOM     19  H7  UNL     1      23.208  14.960  33.030  1.00  0.00     0.203 HD
HETATM   20  N10 UNL     1      22.571  12.963  35.392  1.00  0.00    -0.090 N 
HETATM   21  N11 UNL     1      22.179  12.283  34.331  1.00  0.00     0.031 N 
ATOM     22  H10 UNL     1      22.525  12.643  36.359  1.00  0.00     0.209 HD
BRANCH  18  23
HETATM   23  N8  UNL     1      23.527  15.121  35.705  1.00  0.00    -0.223 N 
ATOM     24  H8  UNL     1      23.866  14.942  36.650  1.00  0.00     0.177 HD
BRANCH  23  25
HETATM   25  C20 UNL     1      23.568  16.451  35.138  1.00  0.00     0.165 C 
BRANCH  25  26
HETATM   26  C21 UNL     1      22.574  17.299  35.908  1.00  0.00     0.249 C 
BRANCH  26  27
HETATM   27  N9  UNL     1      21.486  17.672  35.017  1.00  0.00    -0.078 N 
ATOM     28  H93 UNL     1      21.724  18.468  34.424  1.00  0.00     0.274 HD
ATOM     29  H92 UNL     1      21.335  16.986  34.278  1.00  0.00     0.274 HD
ATOM     30  H91 UNL     1      20.648  17.837  35.574  1.00  0.00     0.274 HD
ENDBRANCH  26  27
ENDBRANCH  25  26
ENDBRANCH  23  25
ENDBRANCH  18  23
BRANCH  21  31
HETATM   31  O2  UNL     1      21.635  11.015  34.344  1.00  0.00    -0.254 OA
ATOM     32  H2  UNL     1      22.096  10.218  34.109  1.00  0.00     0.247 HD
ENDBRANCH  21  31
ENDBRANCH  14  16
ENDBRANCH  13  14
ENDBRANCH  12  13
ENDBRANCH  10  12
ENDBRANCH   9  10
BRANCH   1  33
HETATM   33  C4  UNL     1      19.596  15.629  32.668  1.00  0.00    -0.055 C 
HETATM   34  C3  UNL     1      19.394  15.033  33.707  1.00  0.00    -0.074 C 
BRANCH  34  35
HETATM   35  C2  UNL     1      19.178  14.314  34.931  1.00  0.00     0.054 C 
HETATM   36  C1  UNL     1      19.511  14.815  36.109  1.00  0.00     0.020 C 
ENDBRANCH  34  35
ENDBRANCH   1  33
BRANCH   6  37
HETATM   37  N3  UNL     1      20.617  18.294  28.017  1.00  0.00    -0.222 N 
ATOM     38  H3  UNL     1      20.035  19.108  27.816  1.00  0.00     0.178 HD
BRANCH  37  39
HETATM   39  C8  UNL     1      21.602  17.986  27.042  1.00  0.00     0.176 C 
BRANCH  39  40
HETATM   40  C9  UNL     1      22.941  18.409  27.555  1.00  0.00    -0.040 A 
HETATM   41  C10 UNL     1      23.828  17.453  27.954  1.00  0.00     0.011 A 
HETATM   42  C11 UNL     1      25.060  17.856  28.426  1.00  0.00     0.037 A 
HETATM   43  C12 UNL     1      25.350  19.205  28.477  1.00  0.00     0.065 A 
HETATM   44  C13 UNL     1      24.416  20.161  28.058  1.00  0.00     0.037 A 
HETATM   45  C14 UNL     1      23.203  19.758  27.594  1.00  0.00     0.011 A 
BRANCH  43  46
HETATM   46  O1  UNL     1      26.587  19.606  28.950  1.00  0.00    -0.361 OA
ATOM     47  H1  UNL     1      26.861  20.505  28.812  1.00  0.00     0.217 HD
ENDBRANCH  43  46
ENDBRANCH  39  40
ENDBRANCH  37  39
ENDBRANCH   6  37
TORSDOF 16
ENDMDL
MODEL 4
REMARK VINA RESULT: -7.166417765      1.826      2.029
REMARK  16 active torsions:
REMARK  status: ('A' for Active; 'I' for Inactive)
REMARK    1  A    between atoms: C2_2  and  C3_3 
REMARK    2  A    between atoms: C4_4  and  C5_5 
REMARK    3  A    between atoms: C7_10  and  N3_11 
REMARK    4  A    between atoms: N3_11  and  C8_13 
REMARK    5  A    between atoms: C8_13  and  C9_14 
REMARK    6  A    between atoms: C12_17  and  O1_18 
REMARK    7  A    between atoms: C15_24  and  N5_25 
REMARK    8  A    between atoms: N5_25  and  C16_27 
REMARK    9  A    between atoms: C16_27  and  C17_28 
REMARK   10  A    between atoms: C17_28  and  N6_29 
REMARK   11  A    between atoms: N6_29  and  C18_31 
REMARK   12  A    between atoms: C19_34  and  N8_35 
REMARK   13  A    between atoms: N8_35  and  C20_37 
REMARK   14  A    between atoms: C20_37  and  C21_38 
REMARK   15  A    between atoms: C21_38  and  N9_39 
REMARK   16  A    between atoms: N11_45  and  O2_46 
ROOT
HETATM    1  C5  UNL     1      19.939  16.455  31.404  1.00  0.00     0.103 A 
HETATM    2  C6  UNL     1      19.324  17.653  31.110  1.00  0.00     0.154 A 
HETATM    3  N1  UNL     1      18.408  18.164  32.069  1.00  0.00    -0.080 NA
HETATM    4  N2  UNL     1      19.576  18.334  29.947  1.00  0.00    -0.177 N 
ATOM      5  H2  UNL     1      19.109  19.220  29.750  1.00  0.00     0.185 HD
HETATM    6  C7  UNL     1      20.447  17.811  29.075  1.00  0.00     0.681 A 
HETATM    7  N4  UNL     1      21.070  16.619  29.350  1.00  0.00    -0.175 N 
ATOM      8  H4  UNL     1      21.731  16.235  28.674  1.00  0.00     0.186 HD
HETATM    9  C15 UNL     1      20.829  15.947  30.483  1.00  0.00     0.139 A 
ENDROOT
BRANCH   9  10
HETATM   10  N5  UNL     1      21.393  14.826  30.775  1.00  0.00    -0.373 N 
ATOM     11  H5  UNL     1      21.011  14.234  31.513  1.00  0.00     0.161 HD
BRANCH  10  12
HETATM   12  C16 UNL     1      22.588  14.409  30.036  1.00  0.00     0.141 C 
BRANCH  12  13
HETATM   13  C17 UNL     1      23.782  14.312  30.972  1.00  0.00     0.158 C 
BRANCH  13  14
HETATM   14  N6  UNL     1      24.510  15.565  30.952  1.00  0.00    -0.221 N 
ATOM     15  H6  UNL     1      24.911  15.900  30.076  1.00  0.00     0.177 HD
BRANCH  14  16
HETATM   16  C18 UNL     1      24.659  16.272  32.041  1.00  0.00     0.735 A 
HETATM   17  N7  UNL     1      23.863  16.199  33.123  1.00  0.00    -0.018 N 
HETATM   18  C19 UNL     1      24.319  17.063  34.040  1.00  0.00     0.709 A 
ATOM     19  H7  UNL     1      23.051  15.591  33.227  1.00  0.00     0.203 HD
HETATM   20  N10 UNL     1      25.406  17.674  33.516  1.00  0.00    -0.090 N 
HETATM   21  N11 UNL     1      25.603  17.187  32.306  1.00  0.00     0.031 N 
ATOM     22  H10 UNL     1      25.974  18.386  33.976  1.00  0.00     0.209 HD
BRANCH  18  23
HETATM   23  N8  UNL     1      23.791  17.259  35.215  1.00  0.00    -0.223 N 
ATOM     24  H8  UNL     1      22.813  17.033  35.396  1.00  0.00     0.177 HD
BRANCH  23  25
HETATM   25  C20 UNL     1      24.634  17.808  36.255  1.00  0.00     0.165 C 
BRANCH  25  26
HETATM   26  C21 UNL     1      23.879  17.677  37.563  1.00  0.00     0.249 C 
BRANCH  26  27
HETATM   27  N9  UNL     1      24.110  18.872  38.360  1.00  0.00    -0.078 N 
ATOM     28  H93 UNL     1      24.328  18.655  39.332  1.00  0.00     0.274 HD
ATOM     29  H92 UNL     1      24.984  19.338  38.119  1.00  0.00     0.274 HD
ATOM     30  H91 UNL     1      23.302  19.488  38.270  1.00  0.00     0.274 HD
ENDBRANCH  26  27
ENDBRANCH  25  26
ENDBRANCH  23  25
ENDBRANCH  18  23
BRANCH  21  31
HETATM   31  O2  UNL     1      26.617  17.558  31.446  1.00  0.00    -0.254 OA
ATOM     32  H2  UNL     1      27.450  17.932  31.708  1.00  0.00     0.247 HD
ENDBRANCH  21  31
ENDBRANCH  14  16
ENDBRANCH  13  14
ENDBRANCH  12  13
ENDBRANCH  10  12
ENDBRANCH   9  10
BRANCH   1  33
HETATM   33  C4  UNL     1      19.669  15.747  32.633  1.00  0.00    -0.055 C 
HETATM   34  C3  UNL     1      19.461  15.157  33.674  1.00  0.00    -0.074 C 
BRANCH  34  35
HETATM   35  C2  UNL     1      19.243  14.454  34.906  1.00  0.00     0.054 C 
HETATM   36  C1  UNL     1      19.565  14.973  36.080  1.00  0.00     0.020 C 
ENDBRANCH  34  35
ENDBRANCH   1  33
BRANCH   6  37
HETATM   37  N3  UNL     1      20.707  18.417  27.988  1.00  0.00    -0.222 N 
ATOM     38  H3  UNL     1      20.141  19.244  27.796  1.00  0.00     0.178 HD
BRANCH  37  39
HETATM   39  C8  UNL     1      21.682  18.097  27.006  1.00  0.00     0.176 C 
BRANCH  39  40
HETATM   40  C9  UNL     1      23.034  18.461  27.528  1.00  0.00    -0.040 A 
HETATM   41  C10 UNL     1      23.918  17.465  27.826  1.00  0.00     0.011 A 
HETATM   42  C11 UNL     1      25.163  17.814  28.307  1.00  0.00     0.037 A 
HETATM   43  C12 UNL     1      25.468  19.151  28.470  1.00  0.00     0.065 A 
HETATM   44  C13 UNL     1      24.538  20.148  28.154  1.00  0.00     0.037 A 
HETATM   45  C14 UNL     1      23.311  19.799  27.680  1.00  0.00     0.011 A 
BRANCH  43  46
HETATM   46  O1  UNL     1      26.718  19.497  28.952  1.00  0.00    -0.361 OA
ATOM     47  H1  UNL     1      26.817  20.318  29.421  1.00  0.00     0.217 HD
ENDBRANCH  43  46
ENDBRANCH  39  40
ENDBRANCH  37  39
ENDBRANCH   6  37
TORSDOF 16
ENDMDL
MODEL 5
REMARK VINA RESULT: -7.097506785      1.567      2.211
REMARK  16 active torsions:
REMARK  status: ('A' for Active; 'I' for Inactive)
REMARK    1  A    between atoms: C2_2  and  C3_3 
REMARK    2  A    between atoms: C4_4  and  C5_5 
REMARK    3  A    between atoms: C7_10  and  N3_11 
REMARK    4  A    between atoms: N3_11  and  C8_13 
REMARK    5  A    between atoms: C8_13  and  C9_14 
REMARK    6  A    between atoms: C12_17  and  O1_18 
REMARK    7  A    between atoms: C15_24  and  N5_25 
REMARK    8  A    between atoms: N5_25  and  C16_27 
REMARK    9  A    between atoms: C16_27  and  C17_28 
REMARK   10  A    between atoms: C17_28  and  N6_29 
REMARK   11  A    between atoms: N6_29  and  C18_31 
REMARK   12  A    between atoms: C19_34  and  N8_35 
REMARK   13  A    between atoms: N8_35  and  C20_37 
REMARK   14  A    between atoms: C20_37  and  C21_38 
REMARK   15  A    between atoms: C21_38  and  N9_39 
REMARK   16  A    between atoms: N11_45  and  O2_46 
ROOT
HETATM    1  C5  UNL     1      19.895  16.574  31.689  1.00  0.00     0.103 A 
HETATM    2  C6  UNL     1      19.333  17.757  31.260  1.00  0.00     0.154 A 
HETATM    3  N1  UNL     1      18.468  18.430  32.166  1.00  0.00    -0.080 NA
HETATM    4  N2  UNL     1      19.589  18.276  30.017  1.00  0.00    -0.177 N 
ATOM      5  H2  UNL     1      19.162  19.154  29.721  1.00  0.00     0.185 HD
HETATM    6  C7  UNL     1      20.411  17.606  29.201  1.00  0.00     0.681 A 
HETATM    7  N4  UNL     1      20.980  16.425  29.609  1.00  0.00    -0.175 N 
ATOM      8  H4  UNL     1      21.604  15.927  28.974  1.00  0.00     0.186 HD
HETATM    9  C15 UNL     1      20.735  15.911  30.821  1.00  0.00     0.139 A 
ENDROOT
BRANCH   9  10
HETATM   10  N5  UNL     1      21.249  14.806  31.240  1.00  0.00    -0.373 N 
ATOM     11  H5  UNL     1      21.043  14.464  32.178  1.00  0.00     0.161 HD
BRANCH  10  12
HETATM   12  C16 UNL     1      22.135  14.045  30.353  1.00  0.00     0.141 C 
BRANCH  12  13
HETATM   13  C17 UNL     1      22.909  13.003  31.145  1.00  0.00     0.158 C 
BRANCH  13  14
HETATM   14  N6  UNL     1      24.014  12.515  30.345  1.00  0.00    -0.221 N 
ATOM     15  H6  UNL     1      24.092  11.518  30.148  1.00  0.00     0.177 HD
BRANCH  14  16
HETATM   16  C18 UNL     1      24.913  13.338  29.871  1.00  0.00     0.735 A 
HETATM   17  N7  UNL     1      25.746  14.084  30.618  1.00  0.00    -0.018 N 
HETATM   18  C19 UNL     1      26.523  14.800  29.794  1.00  0.00     0.709 A 
ATOM     19  H7  UNL     1      25.781  14.102  31.637  1.00  0.00     0.203 HD
HETATM   20  N10 UNL     1      26.163  14.492  28.527  1.00  0.00    -0.090 N 
HETATM   21  N11 UNL     1      25.187  13.606  28.585  1.00  0.00     0.031 N 
ATOM     22  H10 UNL     1      26.573  14.877  27.676  1.00  0.00     0.209 HD
BRANCH  18  23
HETATM   23  N8  UNL     1      27.450  15.635  30.172  1.00  0.00    -0.223 N 
ATOM     24  H8  UNL     1      28.281  15.792  29.601  1.00  0.00     0.177 HD
BRANCH  23  25
HETATM   25  C20 UNL     1      27.265  16.331  31.427  1.00  0.00     0.165 C 
BRANCH  25  26
HETATM   26  C21 UNL     1      27.834  17.726  31.256  1.00  0.00     0.249 C 
BRANCH  26  27
HETATM   27  N9  UNL     1      26.840  18.695  31.691  1.00  0.00    -0.078 N 
ATOM     28  H93 UNL     1      25.910  18.285  31.780  1.00  0.00     0.274 HD
ATOM     29  H92 UNL     1      26.966  18.972  32.664  1.00  0.00     0.274 HD
ATOM     30  H91 UNL     1      26.856  19.491  31.053  1.00  0.00     0.274 HD
ENDBRANCH  26  27
ENDBRANCH  25  26
ENDBRANCH  23  25
ENDBRANCH  18  23
BRANCH  21  31
HETATM   31  O2  UNL     1      24.547  13.042  27.500  1.00  0.00    -0.254 OA
ATOM     32  H2  UNL     1      24.119  13.526  26.803  1.00  0.00     0.247 HD
ENDBRANCH  21  31
ENDBRANCH  14  16
ENDBRANCH  13  14
ENDBRANCH  12  13
ENDBRANCH  10  12
ENDBRANCH   9  10
BRANCH   1  33
HETATM   33  C4  UNL     1      19.621  16.037  33.001  1.00  0.00    -0.055 C 
HETATM   34  C3  UNL     1      19.403  15.601  34.113  1.00  0.00    -0.074 C 
BRANCH  34  35
HETATM   35  C2  UNL     1      19.172  15.091  35.435  1.00  0.00     0.054 C 
HETATM   36  C1  UNL     1      19.789  14.014  35.892  1.00  0.00     0.020 C 
ENDBRANCH  34  35
ENDBRANCH   1  33
BRANCH   6  37
HETATM   37  N3  UNL     1      20.673  18.059  28.043  1.00  0.00    -0.222 N 
ATOM     38  H3  UNL     1      20.068  18.811  27.714  1.00  0.00     0.178 HD
BRANCH  37  39
HETATM   39  C8  UNL     1      21.699  17.658  27.145  1.00  0.00     0.176 C 
BRANCH  39  40
HETATM   40  C9  UNL     1      22.996  18.245  27.597  1.00  0.00    -0.040 A 
HETATM   41  C10 UNL     1      23.978  17.411  28.047  1.00  0.00     0.011 A 
HETATM   42  C11 UNL     1      25.171  17.966  28.462  1.00  0.00     0.037 A 
HETATM   43  C12 UNL     1      25.329  19.337  28.407  1.00  0.00     0.065 A 
HETATM   44  C13 UNL     1      24.301  20.164  27.940  1.00  0.00     0.037 A 
HETATM   45  C14 UNL     1      23.126  19.612  27.532  1.00  0.00     0.011 A 
BRANCH  43  46
HETATM   46  O1  UNL     1      26.527  19.888  28.824  1.00  0.00    -0.361 OA
ATOM     47  H1  UNL     1      27.223  19.309  29.111  1.00  0.00     0.217 HD
ENDBRANCH  43  46
ENDBRANCH  39  40
ENDBRANCH  37  39
ENDBRANCH   6  37
TORSDOF 16
ENDMDL
