MODEL 1
REMARK VINA RESULT: -7.082276511      0.000      0.000
REMARK  10 active torsions:
REMARK  status: ('A' for Active; 'I' for Inactive)
REMARK    1  A    between atoms: C5_14  and  C6_15 
REMARK       I    between atoms: C6_15  and  N5_17 
REMARK    2  A    between atoms: N5_17  and  N6_19 
REMARK    3  A    between atoms: N6_19  and  N7_20 
REMARK    4  A    between atoms: N8_23  and  C7_24 
REMARK    5  A    between atoms: C7_24  and  C8_25 
REMARK    6  A    between atoms: C7_24  and  C19_41 
REMARK    7  A    between atoms: C8_25  and  C9_26 
REMARK       I    between atoms: C9_26  and  N9_28 
REMARK    8  A    between atoms: N9_28  and  C10_30 
REMARK    9  A    between atoms: C10_30  and  C11_31 
REMARK   10  A    between atoms: C11_31  and  C12_32 
REMARK       I    between atoms: C12_32  and  N10_34 
ROOT
HETATM    1  N1  UNL     1      19.681  18.436  29.309  1.00  0.00    -0.383 N 
ATOM      2  H11 UNL     1      20.129  19.234  28.859  1.00  0.00     0.157 HD
ATOM      3  H12 UNL     1      18.690  18.500  29.543  1.00  0.00     0.157 HD
HETATM    4  C1  UNL     1      20.306  17.355  29.585  1.00  0.00     0.131 A 
HETATM    5  N2  UNL     1      19.721  16.314  30.171  1.00  0.00    -0.337 N 
ATOM      6  H2  UNL     1      18.730  16.373  30.407  1.00  0.00     0.168 HD
HETATM    7  C2  UNL     1      20.395  15.181  30.464  1.00  0.00     0.183 A 
HETATM    8  N3  UNL     1      21.710  15.113  30.145  1.00  0.00    -0.336 N 
ATOM      9  H3  UNL     1      22.227  14.261  30.362  1.00  0.00     0.168 HD
HETATM   10  C3  UNL     1      22.355  16.129  29.552  1.00  0.00     0.142 A 
HETATM   11  C4  UNL     1      21.674  17.267  29.261  1.00  0.00     0.123 A 
HETATM   12  N4  UNL     1      22.513  18.107  28.696  1.00  0.00    -0.332 N 
ATOM     13  H4  UNL     1      22.281  19.045  28.370  1.00  0.00     0.168 HD
HETATM   14  C5  UNL     1      23.754  17.519  28.617  1.00  0.00     0.181 A 
HETATM   15  N8  UNL     1      23.681  16.320  29.130  1.00  0.00    -0.297 N 
ENDROOT
BRANCH  15  16
HETATM   16  C7  UNL     1      24.543  15.207  29.354  1.00  0.00     0.203 C 
BRANCH  16  17
HETATM   17  C8  UNL     1      25.539  15.158  30.405  1.00  0.00     0.139 C 
BRANCH  17  18
HETATM   18  C9  UNL     1      24.991  14.281  31.539  1.00  0.00     0.220 C 
HETATM   19  O2  UNL     1      24.047  13.505  31.354  1.00  0.00    -0.274 OA
HETATM   20  N9  UNL     1      25.578  14.367  32.820  1.00  0.00    -0.361 N 
ATOM     21  H9  UNL     1      26.358  15.004  32.988  1.00  0.00     0.162 HD
BRANCH  20  22
HETATM   22  C10 UNL     1      25.067  13.550  33.881  1.00  0.00     0.132 C 
BRANCH  22  23
HETATM   23  C11 UNL     1      24.324  14.264  34.953  1.00  0.00     0.122 C 
BRANCH  23  24
HETATM   24  C12 UNL     1      23.450  15.354  34.521  1.00  0.00     0.221 C 
HETATM   25  O3  UNL     1      23.946  16.461  34.210  1.00  0.00    -0.273 OA
HETATM   26  N10 UNL     1      22.056  15.174  34.451  1.00  0.00    -0.352 N 
HETATM   27  C13 UNL     1      21.580  13.866  34.852  1.00  0.00     0.125 C 
HETATM   28  C18 UNL     1      21.310  16.315  33.982  1.00  0.00     0.125 C 
HETATM   29  C14 UNL     1      20.085  13.774  34.958  1.00  0.00     0.020 C 
HETATM   30  C15 UNL     1      19.508  14.813  35.881  1.00  0.00     0.002 C 
HETATM   31  C16 UNL     1      19.136  16.023  35.048  1.00  0.00     0.002 C 
HETATM   32  C17 UNL     1      20.370  16.892  34.993  1.00  0.00     0.020 C 
ENDBRANCH  23  24
ENDBRANCH  22  23
ENDBRANCH  20  22
ENDBRANCH  17  18
ENDBRANCH  16  17
BRANCH  16  33
HETATM   33  C19 UNL     1      25.190  14.937  28.003  1.00  0.00     0.197 C 
HETATM   34  O4  UNL     1      24.598  14.346  27.076  1.00  0.00    -0.646 OA
HETATM   35  O5  UNL     1      26.475  15.365  27.788  1.00  0.00    -0.646 OA
ENDBRANCH  16  33
ENDBRANCH  15  16
BRANCH  14  36
HETATM   36  C6  UNL     1      24.878  18.203  28.017  1.00  0.00     0.302 C 
HETATM   37  O1  UNL     1      24.940  18.671  26.907  1.00  0.00    -0.263 OA
HETATM   38  N5  UNL     1      26.080  18.361  28.814  1.00  0.00    -0.247 N 
ATOM     39  H5  UNL     1      26.109  17.990  29.764  1.00  0.00     0.187 HD
BRANCH  38  40
HETATM   40  N6  UNL     1      27.183  19.008  28.299  1.00  0.00    -0.027 NA
BRANCH  40  41
HETATM   41  N7  UNL     1      27.886  18.095  27.509  1.00  0.00    -0.329 N 
ATOM     42  H72 UNL     1      28.300  17.224  27.841  1.00  0.00     0.174 HD
ATOM     43  H71 UNL     1      27.906  18.456  26.555  1.00  0.00     0.174 HD
ENDBRANCH  40  41
ENDBRANCH  38  40
ENDBRANCH  14  36
TORSDOF 10
ENDMDL
MODEL 2
REMARK VINA RESULT: -7.055240857      1.561      2.131
REMARK  10 active torsions:
REMARK  status: ('A' for Active; 'I' for Inactive)
REMARK    1  A    between atoms: C5_14  and  C6_15 
REMARK       I    between atoms: C6_15  and  N5_17 
REMARK    2  A    between atoms: N5_17  and  N6_19 
REMARK    3  A    between atoms: N6_19  and  N7_20 
REMARK    4  A    between atoms: N8_23  and  C7_24 
REMARK    5  A    between atoms: C7_24  and  C8_25 
REMARK    6  A    between atoms: C7_24  and  C19_41 
REMARK    7  A    between atoms: C8_25  and  C9_26 
REMARK       I    between atoms: C9_26  and  N9_28 
REMARK    8  A    between atoms: N9_28  and  C10_30 
REMARK    9  A    between atoms: C10_30  and  C11_31 
REMARK   10  A    between atoms: C11_31  and  C12_32 
REMARK       I    between atoms: C12_32  and  N10_34 
ROOT
HETATM    1  N1  UNL     1      19.534  18.619  29.292  1.00  0.00    -0.383 N 
ATOM      2  H11 UNL     1      20.090  19.128  28.605  1.00  0.00     0.157 HD
ATOM      3  H12 UNL     1      18.594  18.953  29.504  1.00  0.00     0.157 HD
HETATM    4  C1  UNL     1      19.963  17.576  29.894  1.00  0.00     0.131 A 
HETATM    5  N2  UNL     1      19.237  16.912  30.790  1.00  0.00    -0.337 N 
ATOM      6  H2  UNL     1      18.296  17.241  31.004  1.00  0.00     0.168 HD
HETATM    7  C2  UNL     1      19.706  15.815  31.425  1.00  0.00     0.183 A 
HETATM    8  N3  UNL     1      20.957  15.387  31.131  1.00  0.00    -0.336 N 
ATOM      9  H3  UNL     1      21.319  14.559  31.605  1.00  0.00     0.168 HD
HETATM   10  C3  UNL     1      21.736  16.014  30.236  1.00  0.00     0.142 A 
HETATM   11  C4  UNL     1      21.262  17.116  29.602  1.00  0.00     0.123 A 
HETATM   12  N4  UNL     1      22.200  17.549  28.789  1.00  0.00    -0.332 N 
ATOM     13  H4  UNL     1      22.125  18.364  28.180  1.00  0.00     0.168 HD
HETATM   14  C5  UNL     1      23.298  16.727  28.890  1.00  0.00     0.181 A 
HETATM   15  N8  UNL     1      23.039  15.790  29.762  1.00  0.00    -0.297 N 
ENDROOT
BRANCH  15  16
HETATM   16  C7  UNL     1      23.690  14.653  30.323  1.00  0.00     0.203 C 
BRANCH  16  17
HETATM   17  C8  UNL     1      25.079  14.641  30.734  1.00  0.00     0.139 C 
BRANCH  17  18
HETATM   18  C9  UNL     1      25.322  15.866  31.626  1.00  0.00     0.220 C 
HETATM   19  O2  UNL     1      26.123  16.750  31.300  1.00  0.00    -0.274 OA
HETATM   20  N9  UNL     1      24.617  15.981  32.843  1.00  0.00    -0.361 N 
ATOM     21  H9  UNL     1      23.953  15.260  33.125  1.00  0.00     0.162 HD
BRANCH  20  22
HETATM   22  C10 UNL     1      24.844  17.125  33.677  1.00  0.00     0.132 C 
BRANCH  22  23
HETATM   23  C11 UNL     1      23.830  17.369  34.737  1.00  0.00     0.122 C 
BRANCH  23  24
HETATM   24  C12 UNL     1      23.444  16.212  35.544  1.00  0.00     0.221 C 
HETATM   25  O3  UNL     1      24.326  15.436  35.978  1.00  0.00    -0.273 OA
HETATM   26  N10 UNL     1      22.091  15.959  35.838  1.00  0.00    -0.352 N 
HETATM   27  C13 UNL     1      21.148  16.901  35.272  1.00  0.00     0.125 C 
HETATM   28  C18 UNL     1      21.846  14.805  36.667  1.00  0.00     0.125 C 
HETATM   29  C14 UNL     1      19.713  16.490  35.435  1.00  0.00     0.020 C 
HETATM   30  C15 UNL     1      19.438  15.121  34.874  1.00  0.00     0.002 C 
HETATM   31  C16 UNL     1      19.605  14.116  35.996  1.00  0.00     0.002 C 
HETATM   32  C17 UNL     1      21.063  13.721  35.995  1.00  0.00     0.020 C 
ENDBRANCH  23  24
ENDBRANCH  22  23
ENDBRANCH  20  22
ENDBRANCH  17  18
ENDBRANCH  16  17
BRANCH  16  33
HETATM   33  C19 UNL     1      23.424  13.525  29.335  1.00  0.00     0.197 C 
HETATM   34  O4  UNL     1      22.339  12.908  29.289  1.00  0.00    -0.646 OA
HETATM   35  O5  UNL     1      24.412  13.173  28.452  1.00  0.00    -0.646 OA
ENDBRANCH  16  33
ENDBRANCH  15  16
BRANCH  14  36
HETATM   36  C6  UNL     1      24.483  16.947  28.090  1.00  0.00     0.302 C 
HETATM   37  O1  UNL     1      25.310  16.130  27.769  1.00  0.00    -0.263 OA
HETATM   38  N5  UNL     1      24.733  18.291  27.603  1.00  0.00    -0.247 N 
ATOM     39  H5  UNL     1      24.081  19.042  27.834  1.00  0.00     0.187 HD
BRANCH  38  40
HETATM   40  N6  UNL     1      25.843  18.563  26.832  1.00  0.00    -0.027 NA
BRANCH  40  41
HETATM   41  N7  UNL     1      26.903  18.854  27.695  1.00  0.00    -0.329 N 
ATOM     42  H72 UNL     1      27.612  19.570  27.536  1.00  0.00     0.174 HD
ATOM     43  H71 UNL     1      26.836  18.228  28.497  1.00  0.00     0.174 HD
ENDBRANCH  40  41
ENDBRANCH  38  40
ENDBRANCH  14  36
TORSDOF 10
ENDMDL
MODEL 3
REMARK VINA RESULT: -7.036001269      1.423      1.975
REMARK  10 active torsions:
REMARK  status: ('A' for Active; 'I' for Inactive)
REMARK    1  A    between atoms: C5_14  and  C6_15 
REMARK       I    between atoms: C6_15  and  N5_17 
REMARK    2  A    between atoms: N5_17  and  N6_19 
REMARK    3  A    between atoms: N6_19  and  N7_20 
REMARK    4  A    between atoms: N8_23  and  C7_24 
REMARK    5  A    between atoms: C7_24  and  C8_25 
REMARK    6  A    between atoms: C7_24  and  C19_41 
REMARK    7  A    between atoms: C8_25  and  C9_26 
REMARK       I    between atoms: C9_26  and  N9_28 
REMARK    8  A    between atoms: N9_28  and  C10_30 
REMARK    9  A    between atoms: C10_30  and  C11_31 
REMARK   10  A    between atoms: C11_31  and  C12_32 
REMARK       I    between atoms: C12_32  and  N10_34 
ROOT
HETATM    1  N1  UNL     1      20.307  19.271  28.517  1.00  0.00    -0.383 N 
ATOM      2  H11 UNL     1      20.921  19.947  28.064  1.00  0.00     0.157 HD
ATOM      3  H12 UNL     1      19.316  19.495  28.607  1.00  0.00     0.157 HD
HETATM    4  C1  UNL     1      20.725  18.152  28.972  1.00  0.00     0.131 A 
HETATM    5  N2  UNL     1      19.923  17.270  29.563  1.00  0.00    -0.337 N 
ATOM      6  H2  UNL     1      18.931  17.488  29.654  1.00  0.00     0.168 HD
HETATM    7  C2  UNL     1      20.380  16.094  30.046  1.00  0.00     0.183 A 
HETATM    8  N3  UNL     1      21.699  15.814  29.918  1.00  0.00    -0.336 N 
ATOM      9  H3  UNL     1      22.052  14.928  30.280  1.00  0.00     0.168 HD
HETATM   10  C3  UNL     1      22.556  16.662  29.332  1.00  0.00     0.142 A 
HETATM   11  C4  UNL     1      22.094  17.843  28.849  1.00  0.00     0.123 A 
HETATM   12  N4  UNL     1      23.112  18.495  28.333  1.00  0.00    -0.332 N 
ATOM     13  H4  UNL     1      23.065  19.416  27.895  1.00  0.00     0.168 HD
HETATM   14  C5  UNL     1      24.252  17.739  28.478  1.00  0.00     0.181 A 
HETATM   15  N8  UNL     1      23.938  16.624  29.081  1.00  0.00    -0.297 N 
ENDROOT
BRANCH  15  16
HETATM   16  C7  UNL     1      24.590  15.435  29.520  1.00  0.00     0.203 C 
BRANCH  16  17
HETATM   17  C8  UNL     1      25.996  15.366  29.863  1.00  0.00     0.139 C 
BRANCH  17  18
HETATM   18  C9  UNL     1      26.234  16.274  31.077  1.00  0.00     0.220 C 
HETATM   19  O2  UNL     1      27.211  17.029  31.134  1.00  0.00    -0.274 OA
HETATM   20  N9  UNL     1      25.318  16.243  32.150  1.00  0.00    -0.361 N 
ATOM     21  H9  UNL     1      24.507  15.624  32.118  1.00  0.00     0.162 HD
BRANCH  20  22
HETATM   22  C10 UNL     1      25.540  17.089  33.286  1.00  0.00     0.132 C 
BRANCH  22  23
HETATM   23  C11 UNL     1      24.885  16.666  34.552  1.00  0.00     0.122 C 
BRANCH  23  24
HETATM   24  C12 UNL     1      23.954  15.543  34.457  1.00  0.00     0.221 C 
HETATM   25  O3  UNL     1      24.390  14.397  34.202  1.00  0.00    -0.273 OA
HETATM   26  N10 UNL     1      22.574  15.733  34.648  1.00  0.00    -0.352 N 
HETATM   27  C13 UNL     1      22.168  17.097  34.916  1.00  0.00     0.125 C 
HETATM   28  C18 UNL     1      21.769  14.540  34.558  1.00  0.00     0.125 C 
HETATM   29  C14 UNL     1      20.680  17.297  34.915  1.00  0.00     0.020 C 
HETATM   30  C15 UNL     1      20.039  16.834  33.635  1.00  0.00     0.002 C 
HETATM   31  C16 UNL     1      19.606  15.394  33.823  1.00  0.00     0.002 C 
HETATM   32  C17 UNL     1      20.789  14.543  33.427  1.00  0.00     0.020 C 
ENDBRANCH  23  24
ENDBRANCH  22  23
ENDBRANCH  20  22
ENDBRANCH  17  18
ENDBRANCH  16  17
BRANCH  16  33
HETATM   33  C19 UNL     1      24.256  14.394  28.461  1.00  0.00     0.197 C 
HETATM   34  O4  UNL     1      24.670  14.469  27.285  1.00  0.00    -0.646 OA
HETATM   35  O5  UNL     1      23.472  13.324  28.809  1.00  0.00    -0.646 OA
ENDBRANCH  16  33
ENDBRANCH  15  16
BRANCH  14  36
HETATM   36  C6  UNL     1      25.531  18.195  27.980  1.00  0.00     0.302 C 
HETATM   37  O1  UNL     1      25.961  18.080  26.859  1.00  0.00    -0.263 OA
HETATM   38  N5  UNL     1      26.417  18.872  28.907  1.00  0.00    -0.247 N 
ATOM     39  H5  UNL     1      26.128  19.007  29.876  1.00  0.00     0.187 HD
BRANCH  38  40
HETATM   40  N6  UNL     1      27.648  19.334  28.491  1.00  0.00    -0.027 NA
BRANCH  40  41
HETATM   41  N7  UNL     1      28.577  18.307  28.678  1.00  0.00    -0.329 N 
ATOM     42  H72 UNL     1      29.070  17.815  27.932  1.00  0.00     0.174 HD
ATOM     43  H71 UNL     1      28.668  18.145  29.680  1.00  0.00     0.174 HD
ENDBRANCH  40  41
ENDBRANCH  38  40
ENDBRANCH  14  36
TORSDOF 10
ENDMDL
MODEL 4
REMARK VINA RESULT: -6.999599753      2.502      7.081
REMARK  10 active torsions:
REMARK  status: ('A' for Active; 'I' for Inactive)
REMARK    1  A    between atoms: C5_14  and  C6_15 
REMARK       I    between atoms: C6_15  and  N5_17 
REMARK    2  A    between atoms: N5_17  and  N6_19 
REMARK    3  A    between atoms: N6_19  and  N7_20 
REMARK    4  A    between atoms: N8_23  and  C7_24 
REMARK    5  A    between atoms: C7_24  and  C8_25 
REMARK    6  A    between atoms: C7_24  and  C19_41 
REMARK    7  A    between atoms: C8_25  and  C9_26 
REMARK       I    between atoms: C9_26  and  N9_28 
REMARK    8  A    between atoms: N9_28  and  C10_30 
REMARK    9  A    between atoms: C10_30  and  C11_31 
REMARK   10  A    between atoms: C11_31  and  C12_32 
REMARK       I    between atoms: C12_32  and  N10_34 
ROOT
HETATM    1  N1  UNL     1      19.602  15.471  29.734  1.00  0.00    -0.383 N 
ATOM      2  H11 UNL     1      20.057  14.570  29.590  1.00  0.00     0.157 HD
ATOM      3  H12 UNL     1      19.138  15.916  28.942  1.00  0.00     0.157 HD
HETATM    4  C1  UNL     1      19.582  16.063  30.868  1.00  0.00     0.131 A 
HETATM    5  N2  UNL     1      18.988  17.238  31.055  1.00  0.00    -0.337 N 
ATOM      6  H2  UNL     1      18.522  17.688  30.267  1.00  0.00     0.168 HD
HETATM    7  C2  UNL     1      18.981  17.857  32.257  1.00  0.00     0.183 A 
HETATM    8  N3  UNL     1      19.602  17.250  33.297  1.00  0.00    -0.336 N 
ATOM      9  H3  UNL     1      19.601  17.709  34.207  1.00  0.00     0.168 HD
HETATM   10  C3  UNL     1      20.217  16.065  33.169  1.00  0.00     0.142 A 
HETATM   11  C4  UNL     1      20.223  15.447  31.960  1.00  0.00     0.123 A 
HETATM   12  N4  UNL     1      20.884  14.318  32.087  1.00  0.00    -0.332 N 
ATOM     13  H4  UNL     1      21.050  13.643  31.340  1.00  0.00     0.168 HD
HETATM   14  C5  UNL     1      21.317  14.192  33.386  1.00  0.00     0.181 A 
HETATM   15  N8  UNL     1      20.924  15.240  34.060  1.00  0.00    -0.297 N 
ENDROOT
BRANCH  15  16
HETATM   16  C7  UNL     1      21.009  15.738  35.392  1.00  0.00     0.203 C 
BRANCH  16  17
HETATM   17  C8  UNL     1      22.256  15.932  36.103  1.00  0.00     0.139 C 
BRANCH  17  18
HETATM   18  C9  UNL     1      23.273  16.533  35.123  1.00  0.00     0.220 C 
HETATM   19  O2  UNL     1      23.231  17.727  34.806  1.00  0.00    -0.274 OA
HETATM   20  N9  UNL     1      24.272  15.703  34.573  1.00  0.00    -0.361 N 
ATOM     21  H9  UNL     1      24.319  14.716  34.825  1.00  0.00     0.162 HD
BRANCH  20  22
HETATM   22  C10 UNL     1      25.222  16.263  33.657  1.00  0.00     0.132 C 
BRANCH  22  23
HETATM   23  C11 UNL     1      24.877  16.155  32.215  1.00  0.00     0.122 C 
BRANCH  23  24
HETATM   24  C12 UNL     1      25.685  16.952  31.293  1.00  0.00     0.221 C 
HETATM   25  O3  UNL     1      26.765  17.449  31.686  1.00  0.00    -0.273 OA
HETATM   26  N10 UNL     1      25.264  17.167  29.968  1.00  0.00    -0.352 N 
HETATM   27  C13 UNL     1      23.993  16.568  29.617  1.00  0.00     0.125 C 
HETATM   28  C18 UNL     1      26.165  17.943  29.153  1.00  0.00     0.125 C 
HETATM   29  C14 UNL     1      23.481  16.983  28.268  1.00  0.00     0.020 C 
HETATM   30  C15 UNL     1      23.378  18.477  28.126  1.00  0.00     0.002 C 
HETATM   31  C16 UNL     1      24.675  18.980  27.525  1.00  0.00     0.002 C 
HETATM   32  C17 UNL     1      25.602  19.249  28.686  1.00  0.00     0.020 C 
ENDBRANCH  23  24
ENDBRANCH  22  23
ENDBRANCH  20  22
ENDBRANCH  17  18
ENDBRANCH  16  17
BRANCH  16  33
HETATM   33  C19 UNL     1      20.076  14.845  36.201  1.00  0.00     0.197 C 
HETATM   34  O4  UNL     1      18.852  15.068  36.308  1.00  0.00    -0.646 OA
HETATM   35  O5  UNL     1      20.597  13.747  36.835  1.00  0.00    -0.646 OA
ENDBRANCH  16  33
ENDBRANCH  15  16
BRANCH  14  36
HETATM   36  C6  UNL     1      22.057  13.030  33.827  1.00  0.00     0.302 C 
HETATM   37  O1  UNL     1      23.249  12.858  33.767  1.00  0.00    -0.263 OA
HETATM   38  N5  UNL     1      21.310  11.933  34.413  1.00  0.00    -0.247 N 
ATOM     39  H5  UNL     1      20.295  12.000  34.497  1.00  0.00     0.187 HD
BRANCH  38  40
HETATM   40  N6  UNL     1      21.959  10.800  34.856  1.00  0.00    -0.027 NA
BRANCH  40  41
HETATM   41  N7  UNL     1      22.201  10.953  36.224  1.00  0.00    -0.329 N 
ATOM     42  H72 UNL     1      22.972  11.483  36.630  1.00  0.00     0.174 HD
ATOM     43  H71 UNL     1      21.476  10.444  36.729  1.00  0.00     0.174 HD
ENDBRANCH  40  41
ENDBRANCH  38  40
ENDBRANCH  14  36
TORSDOF 10
ENDMDL
MODEL 5
REMARK VINA RESULT: -6.979220916      1.464      1.727
REMARK  10 active torsions:
REMARK  status: ('A' for Active; 'I' for Inactive)
REMARK    1  A    between atoms: C5_14  and  C6_15 
REMARK       I    between atoms: C6_15  and  N5_17 
REMARK    2  A    between atoms: N5_17  and  N6_19 
REMARK    3  A    between atoms: N6_19  and  N7_20 
REMARK    4  A    between atoms: N8_23  and  C7_24 
REMARK    5  A    between atoms: C7_24  and  C8_25 
REMARK    6  A    between atoms: C7_24  and  C19_41 
REMARK    7  A    between atoms: C8_25  and  C9_26 
REMARK       I    between atoms: C9_26  and  N9_28 
REMARK    8  A    between atoms: N9_28  and  C10_30 
REMARK    9  A    between atoms: C10_30  and  C11_31 
REMARK   10  A    between atoms: C11_31  and  C12_32 
REMARK       I    between atoms: C12_32  and  N10_34 
ROOT
HETATM    1  N1  UNL     1      20.359  19.443  28.472  1.00  0.00    -0.383 N 
ATOM      2  H11 UNL     1      20.958  20.096  27.969  1.00  0.00     0.157 HD
ATOM      3  H12 UNL     1      19.377  19.686  28.608  1.00  0.00     0.157 HD
HETATM    4  C1  UNL     1      20.783  18.329  28.935  1.00  0.00     0.131 A 
HETATM    5  N2  UNL     1      20.000  17.477  29.592  1.00  0.00    -0.337 N 
ATOM      6  H2  UNL     1      19.017  17.715  29.729  1.00  0.00     0.168 HD
HETATM    7  C2  UNL     1      20.463  16.307  30.083  1.00  0.00     0.183 A 
HETATM    8  N3  UNL     1      21.769  16.001  29.893  1.00  0.00    -0.336 N 
ATOM      9  H3  UNL     1      22.127  15.119  30.260  1.00  0.00     0.168 HD
HETATM   10  C3  UNL     1      22.607  16.819  29.239  1.00  0.00     0.142 A 
HETATM   11  C4  UNL     1      22.138  17.994  28.748  1.00  0.00     0.123 A 
HETATM   12  N4  UNL     1      23.137  18.615  28.161  1.00  0.00    -0.332 N 
ATOM     13  H4  UNL     1      23.081  19.523  27.701  1.00  0.00     0.168 HD
HETATM   14  C5  UNL     1      24.271  17.843  28.266  1.00  0.00     0.181 A 
HETATM   15  N8  UNL     1      23.973  16.750  28.916  1.00  0.00    -0.297 N 
ENDROOT
BRANCH  15  16
HETATM   16  C7  UNL     1      24.628  15.562  29.353  1.00  0.00     0.203 C 
BRANCH  16  17
HETATM   17  C8  UNL     1      25.623  15.531  30.406  1.00  0.00     0.139 C 
BRANCH  17  18
HETATM   18  C9  UNL     1      25.416  14.245  31.217  1.00  0.00     0.220 C 
HETATM   19  O2  UNL     1      26.353  13.703  31.814  1.00  0.00    -0.274 OA
HETATM   20  N9  UNL     1      24.128  13.670  31.279  1.00  0.00    -0.361 N 
ATOM     21  H9  UNL     1      23.345  14.106  30.791  1.00  0.00     0.162 HD
BRANCH  20  22
HETATM   22  C10 UNL     1      23.934  12.468  32.035  1.00  0.00     0.132 C 
BRANCH  22  23
HETATM   23  C11 UNL     1      22.928  12.541  33.127  1.00  0.00     0.122 C 
BRANCH  23  24
HETATM   24  C12 UNL     1      21.857  13.522  32.958  1.00  0.00     0.221 C 
HETATM   25  O3  UNL     1      21.245  13.590  31.868  1.00  0.00    -0.273 OA
HETATM   26  N10 UNL     1      21.505  14.392  34.006  1.00  0.00    -0.352 N 
HETATM   27  C13 UNL     1      22.286  14.250  35.218  1.00  0.00     0.125 C 
HETATM   28  C18 UNL     1      20.414  15.290  33.722  1.00  0.00     0.125 C 
HETATM   29  C14 UNL     1      22.022  15.320  36.237  1.00  0.00     0.020 C 
HETATM   30  C15 UNL     1      22.222  16.704  35.682  1.00  0.00     0.002 C 
HETATM   31  C16 UNL     1      20.885  17.198  35.166  1.00  0.00     0.002 C 
HETATM   32  C17 UNL     1      20.791  16.738  33.731  1.00  0.00     0.020 C 
ENDBRANCH  23  24
ENDBRANCH  22  23
ENDBRANCH  20  22
ENDBRANCH  17  18
ENDBRANCH  16  17
BRANCH  16  33
HETATM   33  C19 UNL     1      25.188  14.937  28.082  1.00  0.00     0.197 C 
HETATM   34  O4  UNL     1      24.486  14.275  27.289  1.00  0.00    -0.646 OA
HETATM   35  O5  UNL     1      26.516  15.110  27.790  1.00  0.00    -0.646 OA
ENDBRANCH  16  33
ENDBRANCH  15  16
BRANCH  14  36
HETATM   36  C6  UNL     1      25.528  18.264  27.688  1.00  0.00     0.302 C 
HETATM   37  O1  UNL     1      25.709  18.718  26.586  1.00  0.00    -0.263 OA
HETATM   38  N5  UNL     1      26.724  18.138  28.501  1.00  0.00    -0.247 N 
ATOM     39  H5  UNL     1      26.655  17.760  29.446  1.00  0.00     0.187 HD
BRANCH  38  40
HETATM   40  N6  UNL     1      27.951  18.527  28.008  1.00  0.00    -0.027 NA
BRANCH  40  41
HETATM   41  N7  UNL     1      28.219  19.812  28.487  1.00  0.00    -0.329 N 
ATOM     42  H72 UNL     1      28.056  20.678  27.974  1.00  0.00     0.174 HD
ATOM     43  H71 UNL     1      28.601  19.722  29.428  1.00  0.00     0.174 HD
ENDBRANCH  40  41
ENDBRANCH  38  40
ENDBRANCH  14  36
TORSDOF 10
ENDMDL
