MODEL 1
REMARK VINA RESULT: -4.386972205      0.000      0.000
REMARK  3 active torsions:
REMARK  status: ('A' for Active; 'I' for Inactive)
REMARK    1  A    between atoms: C2_2  and  N1_3 
REMARK    2  A    between atoms: C2_2  and  C3_7 
REMARK    3  A    between atoms: C3_7  and  C4_8 
ROOT
HETATM    1  C4  UNL     1      47.563 -68.309  39.716  1.00  0.00     0.029 A 
HETATM    2  C5  UNL     1      48.161 -67.824  38.573  1.00  0.00     0.045 A 
HETATM    3  C6  UNL     1      47.792 -68.708  37.554  1.00  0.00     0.109 A 
HETATM    4  N2  UNL     1      47.019 -69.658  38.076  1.00  0.00    -0.312 N 
ATOM      5  H2  UNL     1      46.605 -70.435  37.562  1.00  0.00     0.186 HD
HETATM    6  N3  UNL     1      46.878 -69.428  39.357  1.00  0.00    -0.305 N 
ATOM      7  H3  UNL     1      46.331 -70.006  39.995  1.00  0.00     0.186 HD
ENDROOT
BRANCH   1   8
HETATM    8  C3  UNL     1      47.656 -67.713  41.078  1.00  0.00     0.090 C 
BRANCH   8   9
HETATM    9  C2  UNL     1      49.077 -67.205  41.232  1.00  0.00     0.185 C 
HETATM   10  C1  UNL     1      49.946 -68.255  41.838  1.00  0.00     0.040 C 
BRANCH   9  11
HETATM   11  N1  UNL     1      49.127 -66.012  42.053  1.00  0.00    -0.075 N 
ATOM     12  H13 UNL     1      48.352 -65.965  42.715  1.00  0.00     0.274 HD
ATOM     13  H12 UNL     1      49.891 -66.037  42.728  1.00  0.00     0.274 HD
ATOM     14  H11 UNL     1      49.170 -65.190  41.450  1.00  0.00     0.274 HD
ENDBRANCH   9  11
ENDBRANCH   8   9
ENDBRANCH   1   8
TORSDOF 3
ENDMDL
MODEL 2
REMARK VINA RESULT: -4.092894629      1.178      1.459
REMARK  3 active torsions:
REMARK  status: ('A' for Active; 'I' for Inactive)
REMARK    1  A    between atoms: C2_2  and  N1_3 
REMARK    2  A    between atoms: C2_2  and  C3_7 
REMARK    3  A    between atoms: C3_7  and  C4_8 
ROOT
HETATM    1  C4  UNL     1      47.851 -68.241  39.271  1.00  0.00     0.029 A 
HETATM    2  C5  UNL     1      47.783 -68.539  37.928  1.00  0.00     0.045 A 
HETATM    3  C6  UNL     1      46.943 -69.654  37.833  1.00  0.00     0.109 A 
HETATM    4  N2  UNL     1      46.542 -69.987  39.057  1.00  0.00    -0.312 N 
ATOM      5  H2  UNL     1      45.922 -70.763  39.288  1.00  0.00     0.186 HD
HETATM    6  N3  UNL     1      47.075 -69.155  39.916  1.00  0.00    -0.305 N 
ATOM      7  H3  UNL     1      46.929 -69.186  40.925  1.00  0.00     0.186 HD
ENDROOT
BRANCH   1   8
HETATM    8  C3  UNL     1      48.626 -67.130  39.888  1.00  0.00     0.090 C 
BRANCH   8   9
HETATM    9  C2  UNL     1      48.673 -67.411  41.379  1.00  0.00     0.185 C 
HETATM   10  C1  UNL     1      48.513 -66.146  42.155  1.00  0.00     0.040 C 
BRANCH   9  11
HETATM   11  N1  UNL     1      49.918 -68.049  41.759  1.00  0.00    -0.075 N 
ATOM     12  H13 UNL     1      49.768 -68.868  42.349  1.00  0.00     0.274 HD
ATOM     13  H12 UNL     1      50.369 -68.518  40.974  1.00  0.00     0.274 HD
ATOM     14  H11 UNL     1      50.527 -67.360  42.201  1.00  0.00     0.274 HD
ENDBRANCH   9  11
ENDBRANCH   8   9
ENDBRANCH   1   8
TORSDOF 3
ENDMDL
MODEL 3
REMARK VINA RESULT: -3.927138791      0.778      1.294
REMARK  3 active torsions:
REMARK  status: ('A' for Active; 'I' for Inactive)
REMARK    1  A    between atoms: C2_2  and  N1_3 
REMARK    2  A    between atoms: C2_2  and  C3_7 
REMARK    3  A    between atoms: C3_7  and  C4_8 
ROOT
HETATM    1  C4  UNL     1      48.308 -68.571  39.960  1.00  0.00     0.029 A 
HETATM    2  C5  UNL     1      48.511 -67.971  38.737  1.00  0.00     0.045 A 
HETATM    3  C6  UNL     1      47.459 -68.410  37.925  1.00  0.00     0.109 A 
HETATM    4  N2  UNL     1      46.684 -69.223  38.639  1.00  0.00    -0.312 N 
ATOM      5  H2  UNL     1      45.843 -69.690  38.302  1.00  0.00     0.186 HD
HETATM    6  N3  UNL     1      47.180 -69.324  39.847  1.00  0.00    -0.305 N 
ATOM      7  H3  UNL     1      46.777 -69.886  40.597  1.00  0.00     0.186 HD
ENDROOT
BRANCH   1   8
HETATM    8  C3  UNL     1      49.164 -68.418  41.168  1.00  0.00     0.090 C 
BRANCH   8   9
HETATM    9  C2  UNL     1      48.706 -67.150  41.865  1.00  0.00     0.185 C 
HETATM   10  C1  UNL     1      47.238 -66.953  41.681  1.00  0.00     0.040 C 
BRANCH   9  11
HETATM   11  N1  UNL     1      49.410 -65.986  41.365  1.00  0.00    -0.075 N 
ATOM     12  H13 UNL     1      49.265 -65.164  41.952  1.00  0.00     0.274 HD
ATOM     13  H12 UNL     1      50.420 -66.066  41.476  1.00  0.00     0.274 HD
ATOM     14  H11 UNL     1      49.139 -65.820  40.395  1.00  0.00     0.274 HD
ENDBRANCH   9  11
ENDBRANCH   8   9
ENDBRANCH   1   8
TORSDOF 3
ENDMDL
MODEL 4
REMARK VINA RESULT: -3.871205542      1.496      3.975
REMARK  3 active torsions:
REMARK  status: ('A' for Active; 'I' for Inactive)
REMARK    1  A    between atoms: C2_2  and  N1_3 
REMARK    2  A    between atoms: C2_2  and  C3_7 
REMARK    3  A    between atoms: C3_7  and  C4_8 
ROOT
HETATM    1  C4  UNL     1      47.985 -68.205  40.612  1.00  0.00     0.029 A 
HETATM    2  C5  UNL     1      49.210 -68.101  41.235  1.00  0.00     0.045 A 
HETATM    3  C6  UNL     1      49.344 -66.751  41.576  1.00  0.00     0.109 A 
HETATM    4  N2  UNL     1      48.254 -66.102  41.174  1.00  0.00    -0.312 N 
ATOM      5  H2  UNL     1      48.079 -65.105  41.291  1.00  0.00     0.186 HD
HETATM    6  N3  UNL     1      47.443 -66.957  40.601  1.00  0.00    -0.305 N 
ATOM      7  H3  UNL     1      46.533 -66.720  40.205  1.00  0.00     0.186 HD
ENDROOT
BRANCH   1   8
HETATM    8  C3  UNL     1      47.380 -69.448  40.062  1.00  0.00     0.090 C 
BRANCH   8   9
HETATM    9  C2  UNL     1      46.841 -69.096  38.688  1.00  0.00     0.185 C 
HETATM   10  C1  UNL     1      46.107 -70.255  38.100  1.00  0.00     0.040 C 
BRANCH   9  11
HETATM   11  N1  UNL     1      47.904 -68.698  37.787  1.00  0.00    -0.075 N 
ATOM     12  H13 UNL     1      48.804 -68.620  38.260  1.00  0.00     0.274 HD
ATOM     13  H12 UNL     1      48.151 -69.437  37.129  1.00  0.00     0.274 HD
ATOM     14  H11 UNL     1      47.638 -67.833  37.315  1.00  0.00     0.274 HD
ENDBRANCH   9  11
ENDBRANCH   8   9
ENDBRANCH   1   8
TORSDOF 3
ENDMDL
MODEL 5
REMARK VINA RESULT: -3.822786495      1.069      4.124
REMARK  3 active torsions:
REMARK  status: ('A' for Active; 'I' for Inactive)
REMARK    1  A    between atoms: C2_2  and  N1_3 
REMARK    2  A    between atoms: C2_2  and  C3_7 
REMARK    3  A    between atoms: C3_7  and  C4_8 
ROOT
HETATM    1  C4  UNL     1      48.206 -67.375  39.909  1.00  0.00     0.029 A 
HETATM    2  C5  UNL     1      48.812 -68.340  40.684  1.00  0.00     0.045 A 
HETATM    3  C6  UNL     1      49.466 -67.643  41.706  1.00  0.00     0.109 A 
HETATM    4  N2  UNL     1      49.252 -66.341  41.535  1.00  0.00    -0.312 N 
ATOM      5  H2  UNL     1      49.610 -65.597  42.133  1.00  0.00     0.186 HD
HETATM    6  N3  UNL     1      48.506 -66.173  40.472  1.00  0.00    -0.305 N 
ATOM      7  H3  UNL     1      48.193 -65.270  40.117  1.00  0.00     0.186 HD
ENDROOT
BRANCH   1   8
HETATM    8  C3  UNL     1      47.384 -67.614  38.691  1.00  0.00     0.090 C 
BRANCH   8   9
HETATM    9  C2  UNL     1      47.432 -69.106  38.422  1.00  0.00     0.185 C 
HETATM   10  C1  UNL     1      48.011 -69.376  37.073  1.00  0.00     0.040 C 
BRANCH   9  11
HETATM   11  N1  UNL     1      46.113 -69.703  38.503  1.00  0.00    -0.075 N 
ATOM     12  H13 UNL     1      45.376 -69.003  38.586  1.00  0.00     0.274 HD
ATOM     13  H12 UNL     1      45.820 -70.116  37.618  1.00  0.00     0.274 HD
ATOM     14  H11 UNL     1      46.096 -70.376  39.269  1.00  0.00     0.274 HD
ENDBRANCH   9  11
ENDBRANCH   8   9
ENDBRANCH   1   8
TORSDOF 3
ENDMDL
