MODEL 1
REMARK VINA RESULT: -5.195490931      0.000      0.000
REMARK  3 active torsions:
REMARK  status: ('A' for Active; 'I' for Inactive)
REMARK    1  A    between atoms: C2_2  and  N1_3 
REMARK    2  A    between atoms: C2_2  and  C3_7 
REMARK    3  A    between atoms: N1_3  and  N2_4 
ROOT
HETATM    1  C1  UNL     1      49.684 -68.757  41.703  1.00  0.00     0.030 C 
HETATM    2  C2  UNL     1      49.367 -67.444  41.036  1.00  0.00     0.098 C 
ENDROOT
BRANCH   2   3
HETATM    3  N1  UNL     1      49.481 -66.375  42.003  1.00  0.00    -0.143 NA
BRANCH   3   4
HETATM    4  N2  UNL     1      48.248 -65.793  42.228  1.00  0.00    -0.348 N 
ATOM      5  H22 UNL     1      47.376 -66.316  42.304  1.00  0.00     0.172 HD
ATOM      6  H21 UNL     1      48.340 -64.780  42.305  1.00  0.00     0.172 HD
ENDBRANCH   3   4
ENDBRANCH   2   3
BRANCH   2   7
HETATM    7  C3  UNL     1      48.006 -67.537  40.427  1.00  0.00     0.006 C 
HETATM    8  C4  UNL     1      47.841 -66.944  39.062  1.00  0.00     0.006 C 
HETATM    9  C5  UNL     1      47.678 -68.349  38.502  1.00  0.00     0.001 C 
HETATM   10  C6  UNL     1      47.566 -68.876  39.935  1.00  0.00     0.006 C 
ENDBRANCH   2   7
TORSDOF 3
ENDMDL
MODEL 2
REMARK VINA RESULT: -4.968902688      2.768      3.694
REMARK  3 active torsions:
REMARK  status: ('A' for Active; 'I' for Inactive)
REMARK    1  A    between atoms: C2_2  and  N1_3 
REMARK    2  A    between atoms: C2_2  and  C3_7 
REMARK    3  A    between atoms: N1_3  and  N2_4 
ROOT
HETATM    1  C1  UNL     1      47.983 -66.951  38.519  1.00  0.00     0.030 C 
HETATM    2  C2  UNL     1      47.967 -68.379  39.000  1.00  0.00     0.098 C 
ENDROOT
BRANCH   2   3
HETATM    3  N1  UNL     1      46.831 -69.065  38.428  1.00  0.00    -0.143 NA
BRANCH   3   4
HETATM    4  N2  UNL     1      46.445 -70.119  39.235  1.00  0.00    -0.348 N 
ATOM      5  H22 UNL     1      46.964 -70.993  39.318  1.00  0.00     0.172 HD
ATOM      6  H21 UNL     1      45.580 -69.895  39.727  1.00  0.00     0.172 HD
ENDBRANCH   3   4
ENDBRANCH   2   3
BRANCH   2   7
HETATM    7  C3  UNL     1      47.957 -68.377  40.494  1.00  0.00     0.006 C 
HETATM    8  C4  UNL     1      49.287 -68.460  41.174  1.00  0.00     0.006 C 
HETATM    9  C5  UNL     1      49.111 -67.021  41.635  1.00  0.00     0.001 C 
HETATM   10  C6  UNL     1      47.652 -67.083  41.174  1.00  0.00     0.006 C 
ENDBRANCH   2   7
TORSDOF 3
ENDMDL
MODEL 3
REMARK VINA RESULT: -4.819676538      2.744      3.644
REMARK  3 active torsions:
REMARK  status: ('A' for Active; 'I' for Inactive)
REMARK    1  A    between atoms: C2_2  and  N1_3 
REMARK    2  A    between atoms: C2_2  and  C3_7 
REMARK    3  A    between atoms: N1_3  and  N2_4 
ROOT
HETATM    1  C1  UNL     1      48.130 -68.086  38.046  1.00  0.00     0.030 C 
HETATM    2  C2  UNL     1      48.031 -68.313  39.532  1.00  0.00     0.098 C 
ENDROOT
BRANCH   2   3
HETATM    3  N1  UNL     1      47.072 -69.362  39.794  1.00  0.00    -0.143 NA
BRANCH   3   4
HETATM    4  N2  UNL     1      46.405 -69.709  38.634  1.00  0.00    -0.348 N 
ATOM      5  H22 UNL     1      46.870 -69.919  37.751  1.00  0.00     0.172 HD
ATOM      6  H21 UNL     1      45.397 -69.723  38.791  1.00  0.00     0.172 HD
ENDBRANCH   3   4
ENDBRANCH   2   3
BRANCH   2   7
HETATM    7  C3  UNL     1      47.672 -67.019  40.187  1.00  0.00     0.006 C 
HETATM    8  C4  UNL     1      47.336 -67.076  41.645  1.00  0.00     0.006 C 
HETATM    9  C5  UNL     1      48.629 -66.333  41.944  1.00  0.00     0.001 C 
HETATM   10  C6  UNL     1      48.780 -66.053  40.447  1.00  0.00     0.006 C 
ENDBRANCH   2   7
TORSDOF 3
ENDMDL
MODEL 4
REMARK VINA RESULT: -4.563241715      2.619      3.446
REMARK  3 active torsions:
REMARK  status: ('A' for Active; 'I' for Inactive)
REMARK    1  A    between atoms: C2_2  and  N1_3 
REMARK    2  A    between atoms: C2_2  and  C3_7 
REMARK    3  A    between atoms: N1_3  and  N2_4 
ROOT
HETATM    1  C1  UNL     1      47.635 -67.336  38.443  1.00  0.00     0.030 C 
HETATM    2  C2  UNL     1      48.260 -68.331  39.386  1.00  0.00     0.098 C 
ENDROOT
BRANCH   2   3
HETATM    3  N1  UNL     1      47.222 -69.133  39.993  1.00  0.00    -0.143 NA
BRANCH   3   4
HETATM    4  N2  UNL     1      46.522 -69.831  39.027  1.00  0.00    -0.348 N 
ATOM      5  H22 UNL     1      45.860 -70.579  39.232  1.00  0.00     0.172 HD
ATOM      6  H21 UNL     1      46.761 -69.490  38.096  1.00  0.00     0.172 HD
ENDBRANCH   3   4
ENDBRANCH   2   3
BRANCH   2   7
HETATM    7  C3  UNL     1      49.081 -67.586  40.387  1.00  0.00     0.006 C 
HETATM    8  C4  UNL     1      48.698 -66.162  40.641  1.00  0.00     0.006 C 
HETATM    9  C5  UNL     1      48.221 -66.566  42.027  1.00  0.00     0.001 C 
HETATM   10  C6  UNL     1      48.886 -67.930  41.826  1.00  0.00     0.006 C 
ENDBRANCH   2   7
TORSDOF 3
ENDMDL
MODEL 5
REMARK VINA RESULT: -4.553068633      1.416      2.139
REMARK  3 active torsions:
REMARK  status: ('A' for Active; 'I' for Inactive)
REMARK    1  A    between atoms: C2_2  and  N1_3 
REMARK    2  A    between atoms: C2_2  and  C3_7 
REMARK    3  A    between atoms: N1_3  and  N2_4 
ROOT
HETATM    1  C1  UNL     1      48.722 -66.153  40.968  1.00  0.00     0.030 C 
HETATM    2  C2  UNL     1      48.334 -67.576  41.278  1.00  0.00     0.098 C 
ENDROOT
BRANCH   2   3
HETATM    3  N1  UNL     1      49.126 -68.058  42.386  1.00  0.00    -0.143 NA
BRANCH   3   4
HETATM    4  N2  UNL     1      50.192 -68.810  41.929  1.00  0.00    -0.348 N 
ATOM      5  H22 UNL     1      50.170 -69.825  41.826  1.00  0.00     0.172 HD
ATOM      6  H21 UNL     1      50.987 -68.210  41.715  1.00  0.00     0.172 HD
ENDBRANCH   3   4
ENDBRANCH   2   3
BRANCH   2   7
HETATM    7  C3  UNL     1      48.504 -68.394  40.040  1.00  0.00     0.006 C 
HETATM    8  C4  UNL     1      47.358 -69.279  39.659  1.00  0.00     0.006 C 
HETATM    9  C5  UNL     1      47.093 -68.376  38.465  1.00  0.00     0.001 C 
HETATM   10  C6  UNL     1      48.430 -67.680  38.731  1.00  0.00     0.006 C 
ENDBRANCH   2   7
TORSDOF 3
ENDMDL
