MODEL 1
REMARK VINA RESULT: -8.235280881      0.000      0.000
REMARK  3 active torsions:
REMARK  status: ('A' for Active; 'I' for Inactive)
REMARK    1  A    between atoms: C5_7  and  C6_8 
REMARK    2  A    between atoms: C6_8  and  C7_9 
REMARK    3  A    between atoms: C7_9  and  C8_10 
ROOT
HETATM    1  C8  UNL     1      -4.260   2.739  12.198  1.00  0.00     0.009 C 
HETATM    2  C9  UNL     1      -2.799   2.484  12.492  1.00  0.00     0.007 C 
HETATM    3  C10 UNL     1      -2.184   1.459  11.597  1.00  0.00     0.002 C 
HETATM    4  C11 UNL     1      -1.816   1.930  10.244  1.00  0.00     0.020 C 
HETATM    5  C12 UNL     1      -1.115   3.241  10.174  1.00  0.00     0.122 C 
HETATM    6  N2  UNL     1       0.291   3.137  10.507  1.00  0.00    -0.361 N 
ATOM      7  H2  UNL     1       0.667   2.225  10.767  1.00  0.00     0.162 HD
HETATM    8  C13 UNL     1       1.152   4.238  10.487  1.00  0.00     0.219 C 
HETATM    9  O1  UNL     1       2.380   4.055  10.204  1.00  0.00    -0.274 OA
HETATM   10  C14 UNL     1       0.736   5.634  10.775  1.00  0.00     0.122 C 
HETATM   11  C15 UNL     1       1.897   6.384  11.324  1.00  0.00     0.132 C 
HETATM   12  N3  UNL     1       1.835   7.811  11.079  1.00  0.00    -0.361 N 
ATOM     13  H3  UNL     1       2.361   8.175  10.284  1.00  0.00     0.162 HD
HETATM   14  C16 UNL     1       1.110   8.729  11.849  1.00  0.00     0.217 C 
HETATM   15  O2  UNL     1       0.891   9.872  11.340  1.00  0.00    -0.274 OA
HETATM   16  C17 UNL     1       0.576   8.472  13.211  1.00  0.00     0.103 C 
HETATM   17  C18 UNL     1      -0.606   9.361  13.495  1.00  0.00     0.013 C 
HETATM   18  C19 UNL     1      -1.905   8.592  13.592  1.00  0.00     0.027 C 
HETATM   19  C20 UNL     1      -2.125   7.793  12.361  1.00  0.00    -0.029 C 
HETATM   20  C21 UNL     1      -2.889   6.713  12.269  1.00  0.00    -0.005 C 
HETATM   21  C22 UNL     1      -3.662   6.109  13.386  1.00  0.00     0.194 C 
HETATM   22  O3  UNL     1      -3.620   4.728  13.248  1.00  0.00    -0.387 OA
HETATM   23  C23 UNL     1      -4.474   4.245  12.288  1.00  0.00     0.172 C 
ENDROOT
BRANCH   1  24
HETATM   24  C7  UNL     1      -5.172   2.109  13.219  1.00  0.00     0.011 C 
BRANCH  24  25
HETATM   25  C6  UNL     1      -4.418   1.585  14.421  1.00  0.00     0.054 C 
BRANCH  25  26
HETATM   26  C5  UNL     1      -4.799   2.464  15.602  1.00  0.00     0.216 C 
HETATM   27  N1  UNL     1      -6.114   2.954  15.383  1.00  0.00    -0.397 N 
HETATM   28  C4  UNL     1      -6.790   3.467  16.516  1.00  0.00     0.119 C 
ATOM     29  H1  UNL     1      -6.547   2.938  14.459  1.00  0.00     0.155 HD
HETATM   30  C3  UNL     1      -6.524   2.753  17.802  1.00  0.00     0.051 C 
HETATM   31  C2  UNL     1      -5.713   1.526  17.514  1.00  0.00     0.121 C 
HETATM   32  C1  UNL     1      -6.547   0.391  16.947  1.00  0.00     0.040 C 
HETATM   33  O4  UNL     1      -4.602   1.754  16.748  1.00  0.00    -0.362 OA
ENDBRANCH  25  26
ENDBRANCH  24  25
ENDBRANCH   1  24
TORSDOF 3
ENDMDL
MODEL 2
REMARK VINA RESULT: -8.062485574      1.613      2.169
REMARK  3 active torsions:
REMARK  status: ('A' for Active; 'I' for Inactive)
REMARK    1  A    between atoms: C5_7  and  C6_8 
REMARK    2  A    between atoms: C6_8  and  C7_9 
REMARK    3  A    between atoms: C7_9  and  C8_10 
ROOT
HETATM    1  C8  UNL     1      -2.882   3.028  11.326  1.00  0.00     0.009 C 
HETATM    2  C9  UNL     1      -1.383   3.154  11.478  1.00  0.00     0.007 C 
HETATM    3  C10 UNL     1      -0.628   2.781  10.245  1.00  0.00     0.002 C 
HETATM    4  C11 UNL     1      -0.594   3.808   9.181  1.00  0.00     0.020 C 
HETATM    5  C12 UNL     1      -0.310   5.201   9.622  1.00  0.00     0.122 C 
HETATM    6  N2  UNL     1       1.100   5.427   9.871  1.00  0.00    -0.361 N 
ATOM      7  H2  UNL     1       1.751   4.652   9.747  1.00  0.00     0.162 HD
HETATM    8  C13 UNL     1       1.602   6.668  10.274  1.00  0.00     0.219 C 
HETATM    9  O1  UNL     1       2.782   6.998   9.927  1.00  0.00    -0.274 OA
HETATM   10  C14 UNL     1       0.849   7.652  11.092  1.00  0.00     0.122 C 
HETATM   11  C15 UNL     1       1.812   8.470  11.878  1.00  0.00     0.132 C 
HETATM   12  N3  UNL     1       1.316   9.789  12.213  1.00  0.00    -0.361 N 
ATOM     13  H3  UNL     1       1.605  10.566  11.618  1.00  0.00     0.162 HD
HETATM   14  C16 UNL     1       0.470  10.081  13.291  1.00  0.00     0.217 C 
HETATM   15  O2  UNL     1      -0.131  11.199  13.274  1.00  0.00    -0.274 OA
HETATM   16  C17 UNL     1       0.219   9.185  14.449  1.00  0.00     0.103 C 
HETATM   17  C18 UNL     1      -1.118   9.487  15.074  1.00  0.00     0.013 C 
HETATM   18  C19 UNL     1      -2.120   8.371  14.877  1.00  0.00     0.027 C 
HETATM   19  C20 UNL     1      -2.268   8.058  13.434  1.00  0.00    -0.029 C 
HETATM   20  C21 UNL     1      -2.699   6.907  12.934  1.00  0.00    -0.005 C 
HETATM   21  C22 UNL     1      -3.111   5.724  13.735  1.00  0.00     0.194 C 
HETATM   22  O3  UNL     1      -2.698   4.581  13.064  1.00  0.00    -0.387 OA
HETATM   23  C23 UNL     1      -3.500   4.245  12.003  1.00  0.00     0.172 C 
ENDROOT
BRANCH   1  24
HETATM   24  C7  UNL     1      -3.432   1.813  12.029  1.00  0.00     0.011 C 
BRANCH  24  25
HETATM   25  C6  UNL     1      -4.808   2.056  12.607  1.00  0.00     0.054 C 
BRANCH  25  26
HETATM   26  C5  UNL     1      -4.800   1.498  14.022  1.00  0.00     0.216 C 
HETATM   27  N1  UNL     1      -3.712   2.084  14.722  1.00  0.00    -0.397 N 
HETATM   28  C4  UNL     1      -3.754   1.996  16.135  1.00  0.00     0.119 C 
ATOM     29  H1  UNL     1      -2.942   2.542  14.234  1.00  0.00     0.155 HD
HETATM   30  C3  UNL     1      -5.113   2.111  16.747  1.00  0.00     0.051 C 
HETATM   31  C2  UNL     1      -6.095   2.478  15.676  1.00  0.00     0.121 C 
HETATM   32  C1  UNL     1      -6.034   3.948  15.302  1.00  0.00     0.040 C 
HETATM   33  O4  UNL     1      -6.036   1.682  14.564  1.00  0.00    -0.362 OA
ENDBRANCH  25  26
ENDBRANCH  24  25
ENDBRANCH   1  24
TORSDOF 3
ENDMDL
MODEL 3
REMARK VINA RESULT: -8.062242616      3.089      9.233
REMARK  3 active torsions:
REMARK  status: ('A' for Active; 'I' for Inactive)
REMARK    1  A    between atoms: C5_7  and  C6_8 
REMARK    2  A    between atoms: C6_8  and  C7_9 
REMARK    3  A    between atoms: C7_9  and  C8_10 
ROOT
HETATM    1  C8  UNL     1       1.067   4.524   9.814  1.00  0.00     0.009 C 
HETATM    2  C9  UNL     1       1.100   5.035  11.237  1.00  0.00     0.007 C 
HETATM    3  C10 UNL     1       1.416   6.490  11.337  1.00  0.00     0.002 C 
HETATM    4  C11 UNL     1       0.295   7.411  11.046  1.00  0.00     0.020 C 
HETATM    5  C12 UNL     1      -1.013   7.068  11.669  1.00  0.00     0.122 C 
HETATM    6  N2  UNL     1      -1.078   7.449  13.066  1.00  0.00    -0.361 N 
ATOM      7  H2  UNL     1      -0.261   7.882  13.495  1.00  0.00     0.162 HD
HETATM    8  C13 UNL     1      -2.219   7.244  13.848  1.00  0.00     0.219 C 
HETATM    9  O1  UNL     1      -2.468   8.054  14.798  1.00  0.00    -0.274 OA
HETATM   10  C14 UNL     1      -3.182   6.131  13.651  1.00  0.00     0.122 C 
HETATM   11  C15 UNL     1      -3.821   5.805  14.954  1.00  0.00     0.132 C 
HETATM   12  N3  UNL     1      -5.141   5.222  14.825  1.00  0.00    -0.361 N 
ATOM     13  H3  UNL     1      -5.943   5.844  14.930  1.00  0.00     0.162 HD
HETATM   14  C16 UNL     1      -5.401   3.870  14.566  1.00  0.00     0.217 C 
HETATM   15  O2  UNL     1      -6.568   3.567  14.166  1.00  0.00    -0.274 OA
HETATM   16  C17 UNL     1      -4.421   2.764  14.720  1.00  0.00     0.103 C 
HETATM   17  C18 UNL     1      -4.784   1.605  13.830  1.00  0.00     0.013 C 
HETATM   18  C19 UNL     1      -3.794   1.400  12.705  1.00  0.00     0.027 C 
HETATM   19  C20 UNL     1      -3.644   2.648  11.915  1.00  0.00    -0.029 C 
HETATM   20  C21 UNL     1      -2.595   2.966  11.167  1.00  0.00    -0.005 C 
HETATM   21  C22 UNL     1      -1.382   2.125  10.987  1.00  0.00     0.194 C 
HETATM   22  O3  UNL     1      -0.278   2.965  10.922  1.00  0.00    -0.387 OA
HETATM   23  C23 UNL     1      -0.129   3.586   9.708  1.00  0.00     0.172 C 
ENDROOT
BRANCH   1  24
HETATM   24  C7  UNL     1       2.288   3.712   9.465  1.00  0.00     0.011 C 
BRANCH  24  25
HETATM   25  C6  UNL     1       3.316   4.517   8.701  1.00  0.00     0.054 C 
BRANCH  25  26
HETATM   26  C5  UNL     1       2.831   4.606   7.263  1.00  0.00     0.216 C 
HETATM   27  N1  UNL     1       3.549   5.648   6.618  1.00  0.00    -0.397 N 
HETATM   28  C4  UNL     1       3.527   5.643   5.202  1.00  0.00     0.119 C 
ATOM     29  H1  UNL     1       4.053   6.361   7.145  1.00  0.00     0.155 HD
HETATM   30  C3  UNL     1       3.545   4.292   4.562  1.00  0.00     0.051 C 
HETATM   31  C2  UNL     1       3.765   3.258   5.625  1.00  0.00     0.121 C 
HETATM   32  C1  UNL     1       5.214   3.172   6.069  1.00  0.00     0.040 C 
HETATM   33  O4  UNL     1       2.925   3.369   6.699  1.00  0.00    -0.362 OA
ENDBRANCH  25  26
ENDBRANCH  24  25
ENDBRANCH   1  24
TORSDOF 3
ENDMDL
MODEL 4
REMARK VINA RESULT: -7.958687270      4.189      7.617
REMARK  3 active torsions:
REMARK  status: ('A' for Active; 'I' for Inactive)
REMARK    1  A    between atoms: C5_7  and  C6_8 
REMARK    2  A    between atoms: C6_8  and  C7_9 
REMARK    3  A    between atoms: C7_9  and  C8_10 
ROOT
HETATM    1  C8  UNL     1      -2.936   6.897   8.983  1.00  0.00     0.009 C 
HETATM    2  C9  UNL     1      -3.412   5.486   8.724  1.00  0.00     0.007 C 
HETATM    3  C10 UNL     1      -2.422   4.652   7.981  1.00  0.00     0.002 C 
HETATM    4  C11 UNL     1      -1.304   4.114   8.789  1.00  0.00     0.020 C 
HETATM    5  C12 UNL     1      -1.671   3.524  10.105  1.00  0.00     0.122 C 
HETATM    6  N2  UNL     1      -2.211   2.185   9.981  1.00  0.00    -0.361 N 
ATOM      7  H2  UNL     1      -2.309   1.779   9.050  1.00  0.00     0.162 HD
HETATM    8  C13 UNL     1      -2.603   1.427  11.088  1.00  0.00     0.219 C 
HETATM    9  O1  UNL     1      -2.505   0.159  11.034  1.00  0.00    -0.274 OA
HETATM   10  C14 UNL     1      -3.138   2.000  12.350  1.00  0.00     0.122 C 
HETATM   11  C15 UNL     1      -4.043   1.008  12.989  1.00  0.00     0.132 C 
HETATM   12  N3  UNL     1      -4.137   1.149  14.428  1.00  0.00    -0.361 N 
ATOM     13  H3  UNL     1      -3.555   0.537  15.000  1.00  0.00     0.162 HD
HETATM   14  C16 UNL     1      -4.964   2.063  15.095  1.00  0.00     0.217 C 
HETATM   15  O2  UNL     1      -4.711   2.294  16.318  1.00  0.00    -0.274 OA
HETATM   16  C17 UNL     1      -6.111   2.783  14.485  1.00  0.00     0.103 C 
HETATM   17  C18 UNL     1      -6.387   4.066  15.224  1.00  0.00     0.013 C 
HETATM   18  C19 UNL     1      -6.070   5.294  14.401  1.00  0.00     0.027 C 
HETATM   19  C20 UNL     1      -4.665   5.248  13.924  1.00  0.00    -0.029 C 
HETATM   20  C21 UNL     1      -4.187   5.894  12.869  1.00  0.00    -0.005 C 
HETATM   21  C22 UNL     1      -4.977   6.781  11.975  1.00  0.00     0.194 C 
HETATM   22  O3  UNL     1      -4.524   6.602  10.674  1.00  0.00    -0.387 OA
HETATM   23  C23 UNL     1      -3.343   7.248  10.409  1.00  0.00     0.172 C 
ENDROOT
BRANCH   1  24
HETATM   24  C7  UNL     1      -3.604   7.904   8.080  1.00  0.00     0.011 C 
BRANCH  24  25
HETATM   25  C6  UNL     1      -4.863   7.362   7.442  1.00  0.00     0.054 C 
BRANCH  25  26
HETATM   26  C5  UNL     1      -5.959   8.389   7.679  1.00  0.00     0.216 C 
HETATM   27  N1  UNL     1      -6.714   8.513   6.482  1.00  0.00    -0.397 N 
HETATM   28  C4  UNL     1      -7.989   9.118   6.604  1.00  0.00     0.119 C 
ATOM     29  H1  UNL     1      -6.358   8.184   5.584  1.00  0.00     0.155 HD
HETATM   30  C3  UNL     1      -8.732   8.805   7.862  1.00  0.00     0.051 C 
HETATM   31  C2  UNL     1      -7.979   7.753   8.619  1.00  0.00     0.121 C 
HETATM   32  C1  UNL     1      -8.176   6.361   8.044  1.00  0.00     0.040 C 
HETATM   33  O4  UNL     1      -6.651   8.031   8.796  1.00  0.00    -0.362 OA
ENDBRANCH  25  26
ENDBRANCH  24  25
ENDBRANCH   1  24
TORSDOF 3
ENDMDL
MODEL 5
REMARK VINA RESULT: -7.894575862      1.578      2.206
REMARK  3 active torsions:
REMARK  status: ('A' for Active; 'I' for Inactive)
REMARK    1  A    between atoms: C5_7  and  C6_8 
REMARK    2  A    between atoms: C6_8  and  C7_9 
REMARK    3  A    between atoms: C7_9  and  C8_10 
ROOT
HETATM    1  C8  UNL     1      -4.178   4.904  13.867  1.00  0.00     0.009 C 
HETATM    2  C9  UNL     1      -2.974   4.087  13.457  1.00  0.00     0.007 C 
HETATM    3  C10 UNL     1      -3.276   3.073  12.404  1.00  0.00     0.002 C 
HETATM    4  C11 UNL     1      -3.375   3.596  11.023  1.00  0.00     0.020 C 
HETATM    5  C12 UNL     1      -2.313   4.552  10.606  1.00  0.00     0.122 C 
HETATM    6  N2  UNL     1      -1.075   3.886  10.253  1.00  0.00    -0.361 N 
ATOM      7  H2  UNL     1      -1.025   2.870  10.330  1.00  0.00     0.162 HD
HETATM    8  C13 UNL     1       0.053   4.583   9.811  1.00  0.00     0.219 C 
HETATM    9  O1  UNL     1       0.849   4.014   8.997  1.00  0.00    -0.274 OA
HETATM   10  C14 UNL     1       0.402   5.965  10.227  1.00  0.00     0.122 C 
HETATM   11  C15 UNL     1       1.878   6.136  10.159  1.00  0.00     0.132 C 
HETATM   12  N3  UNL     1       2.296   7.505   9.937  1.00  0.00    -0.361 N 
ATOM     13  H3  UNL     1       2.522   7.779   8.981  1.00  0.00     0.162 HD
HETATM   14  C16 UNL     1       2.412   8.483  10.934  1.00  0.00     0.217 C 
HETATM   15  O2  UNL     1       2.474   9.694  10.558  1.00  0.00    -0.274 OA
HETATM   16  C17 UNL     1       2.466   8.214  12.394  1.00  0.00     0.103 C 
HETATM   17  C18 UNL     1       1.991   9.413  13.172  1.00  0.00     0.013 C 
HETATM   18  C19 UNL     1       0.676   9.168  13.877  1.00  0.00     0.027 C 
HETATM   19  C20 UNL     1      -0.355   8.723  12.906  1.00  0.00    -0.029 C 
HETATM   20  C21 UNL     1      -1.446   8.029  13.204  1.00  0.00    -0.005 C 
HETATM   21  C22 UNL     1      -1.829   7.572  14.566  1.00  0.00     0.194 C 
HETATM   22  O3  UNL     1      -2.409   6.316  14.455  1.00  0.00    -0.387 OA
HETATM   23  C23 UNL     1      -3.707   6.346  14.011  1.00  0.00     0.172 C 
ENDROOT
BRANCH   1  24
HETATM   24  C7  UNL     1      -4.727   4.490  15.209  1.00  0.00     0.011 C 
BRANCH  24  25
HETATM   25  C6  UNL     1      -6.168   4.040  15.129  1.00  0.00     0.054 C 
BRANCH  25  26
HETATM   26  C5  UNL     1      -6.173   2.531  15.319  1.00  0.00     0.216 C 
HETATM   27  N1  UNL     1      -4.882   2.136  15.760  1.00  0.00    -0.397 N 
HETATM   28  C4  UNL     1      -4.786   0.853  16.352  1.00  0.00     0.119 C 
ATOM     29  H1  UNL     1      -4.069   2.743  15.656  1.00  0.00     0.155 HD
HETATM   30  C3  UNL     1      -5.958   0.438  17.182  1.00  0.00     0.051 C 
HETATM   31  C2  UNL     1      -6.890   1.603  17.318  1.00  0.00     0.121 C 
HETATM   32  C1  UNL     1      -6.411   2.623  18.335  1.00  0.00     0.040 C 
HETATM   33  O4  UNL     1      -7.216   2.203  16.132  1.00  0.00    -0.362 OA
ENDBRANCH  25  26
ENDBRANCH  24  25
ENDBRANCH   1  24
TORSDOF 3
ENDMDL
