MODEL 1
REMARK VINA RESULT: -8.253853597      0.000      0.000
REMARK  6 active torsions:
REMARK  status: ('A' for Active; 'I' for Inactive)
REMARK    1  A    between atoms: N1_2  and  C2_5 
REMARK    2  A    between atoms: C7_11  and  O2_12 
REMARK    3  A    between atoms: C12_18  and  C13_19 
REMARK    4  A    between atoms: C13_19  and  O4_21 
REMARK    5  A    between atoms: O4_21  and  C14_22 
REMARK    6  A    between atoms: C24_32  and  O5_33 
ROOT
HETATM    1  C2  UNL     1      -3.795   0.967  11.958  1.00  0.00     0.211 C 
HETATM    2  C3  UNL     1      -5.080   1.622  12.163  1.00  0.00     0.202 C 
HETATM    3  O1  UNL     1      -5.186   2.955  12.167  1.00  0.00    -0.373 OA
HETATM    4  C4  UNL     1      -4.174   3.725  12.654  1.00  0.00     0.122 A 
HETATM    5  C5  UNL     1      -3.764   3.741  14.062  1.00  0.00     0.062 A 
HETATM    6  C6  UNL     1      -4.279   2.754  15.071  1.00  0.00     0.017 C 
HETATM    7  C7  UNL     1      -4.648   4.835  13.583  1.00  0.00     0.115 A 
HETATM    8  C8  UNL     1      -4.072   6.146  13.374  1.00  0.00     0.010 C 
HETATM    9  C9  UNL     1      -3.027   6.376  12.626  1.00  0.00    -0.022 C 
HETATM   10  C10 UNL     1      -2.347   5.265  11.924  1.00  0.00     0.028 C 
HETATM   11  C11 UNL     1      -1.648   5.873  10.751  1.00  0.00     0.015 C 
HETATM   12  C12 UNL     1      -3.332   4.184  11.521  1.00  0.00     0.115 C 
HETATM   13  C24 UNL     1      -2.598   2.971  10.998  1.00  0.00     0.142 C 
HETATM   14  C25 UNL     1      -2.552   1.806  11.922  1.00  0.00     0.068 C 
ENDROOT
BRANCH  12  15
HETATM   15  C13 UNL     1      -4.201   4.661  10.405  1.00  0.00     0.274 C 
HETATM   16  O3  UNL     1      -4.101   4.201   9.217  1.00  0.00    -0.264 OA
BRANCH  15  17
HETATM   17  O4  UNL     1      -5.188   5.625  10.518  1.00  0.00    -0.314 OA
BRANCH  17  18
HETATM   18  C14 UNL     1      -5.713   6.353   9.449  1.00  0.00     0.140 C 
HETATM   19  C15 UNL     1      -4.811   7.574   9.294  1.00  0.00     0.016 C 
HETATM   20  C16 UNL     1      -5.126   8.328   8.024  1.00  0.00     0.012 C 
HETATM   21  C20 UNL     1      -5.009   8.431  10.506  1.00  0.00     0.012 C 
HETATM   22  C17 UNL     1      -6.552   8.790   8.097  1.00  0.00    -0.013 C 
HETATM   23  C18 UNL     1      -6.690   9.733   9.272  1.00  0.00     0.009 C 
HETATM   24  C23 UNL     1      -7.434   7.598   8.285  1.00  0.00     0.012 C 
HETATM   25  C19 UNL     1      -6.429   8.971  10.534  1.00  0.00    -0.013 C 
HETATM   26  C21 UNL     1      -7.344   7.788  10.709  1.00  0.00     0.012 C 
HETATM   27  C22 UNL     1      -7.106   6.835   9.576  1.00  0.00     0.016 C 
ENDBRANCH  17  18
ENDBRANCH  15  17
ENDBRANCH  12  15
BRANCH  13  28
HETATM   28  O5  UNL     1      -1.287   3.267  10.634  1.00  0.00    -0.394 OA
ATOM     29  H5  UNL     1      -0.854   2.529  10.222  1.00  0.00     0.210 HD
ENDBRANCH  13  28
BRANCH   7  30
HETATM   30  O2  UNL     1      -5.957   4.741  14.076  1.00  0.00    -0.382 OA
ATOM     31  H2  UNL     1      -6.230   5.395  14.709  1.00  0.00     0.211 HD
ENDBRANCH   7  30
BRANCH   1  32
HETATM   32  N1  UNL     1      -3.833   0.207  10.694  1.00  0.00    -0.073 N 
HETATM   33  C1  UNL     1      -3.296  -1.106  10.830  1.00  0.00     0.267 C 
ATOM     34  H12 UNL     1      -3.368   0.719   9.945  1.00  0.00     0.277 HD
ATOM     35  H11 UNL     1      -4.779   0.179  10.311  1.00  0.00     0.277 HD
ENDBRANCH   1  32
TORSDOF 6
ENDMDL
MODEL 2
REMARK VINA RESULT: -8.084957318      0.545      1.030
REMARK  6 active torsions:
REMARK  status: ('A' for Active; 'I' for Inactive)
REMARK    1  A    between atoms: N1_2  and  C2_5 
REMARK    2  A    between atoms: C7_11  and  O2_12 
REMARK    3  A    between atoms: C12_18  and  C13_19 
REMARK    4  A    between atoms: C13_19  and  O4_21 
REMARK    5  A    between atoms: O4_21  and  C14_22 
REMARK    6  A    between atoms: C24_32  and  O5_33 
ROOT
HETATM    1  C2  UNL     1      -3.824   0.937  11.939  1.00  0.00     0.211 C 
HETATM    2  C3  UNL     1      -5.114   1.595  12.092  1.00  0.00     0.202 C 
HETATM    3  O1  UNL     1      -5.221   2.927  12.065  1.00  0.00    -0.373 OA
HETATM    4  C4  UNL     1      -4.224   3.708  12.565  1.00  0.00     0.122 A 
HETATM    5  C5  UNL     1      -3.856   3.755  13.984  1.00  0.00     0.062 A 
HETATM    6  C6  UNL     1      -4.400   2.789  14.998  1.00  0.00     0.017 C 
HETATM    7  C7  UNL     1      -4.726   4.837  13.457  1.00  0.00     0.115 A 
HETATM    8  C8  UNL     1      -4.145   6.144  13.237  1.00  0.00     0.010 C 
HETATM    9  C9  UNL     1      -3.078   6.359  12.515  1.00  0.00    -0.022 C 
HETATM   10  C10 UNL     1      -2.377   5.235  11.857  1.00  0.00     0.028 C 
HETATM   11  C11 UNL     1      -1.644   5.819  10.693  1.00  0.00     0.015 C 
HETATM   12  C12 UNL     1      -3.349   4.145  11.448  1.00  0.00     0.115 C 
HETATM   13  C24 UNL     1      -2.599   2.922  10.972  1.00  0.00     0.142 C 
HETATM   14  C25 UNL     1      -2.580   1.776  11.922  1.00  0.00     0.068 C 
ENDROOT
BRANCH  12  15
HETATM   15  C13 UNL     1      -4.186   4.597  10.297  1.00  0.00     0.274 C 
HETATM   16  O3  UNL     1      -4.066   4.095   9.128  1.00  0.00    -0.264 OA
BRANCH  15  17
HETATM   17  O4  UNL     1      -5.159   5.580  10.355  1.00  0.00    -0.314 OA
BRANCH  17  18
HETATM   18  C14 UNL     1      -5.125   6.774   9.635  1.00  0.00     0.140 C 
HETATM   19  C15 UNL     1      -5.670   7.844  10.577  1.00  0.00     0.016 C 
HETATM   20  C16 UNL     1      -5.471   9.228  10.007  1.00  0.00     0.012 C 
HETATM   21  C20 UNL     1      -7.120   7.544  10.801  1.00  0.00     0.012 C 
HETATM   22  C17 UNL     1      -6.216   9.308   8.707  1.00  0.00    -0.013 C 
HETATM   23  C18 UNL     1      -7.689   9.102   8.986  1.00  0.00     0.009 C 
HETATM   24  C23 UNL     1      -5.708   8.237   7.795  1.00  0.00     0.012 C 
HETATM   25  C19 UNL     1      -7.890   7.711   9.502  1.00  0.00    -0.013 C 
HETATM   26  C21 UNL     1      -7.390   6.653   8.556  1.00  0.00     0.012 C 
HETATM   27  C22 UNL     1      -5.911   6.834   8.384  1.00  0.00     0.016 C 
ENDBRANCH  17  18
ENDBRANCH  15  17
ENDBRANCH  12  15
BRANCH  13  28
HETATM   28  O5  UNL     1      -1.278   3.211  10.641  1.00  0.00    -0.394 OA
ATOM     29  H5  UNL     1      -1.163   3.342   9.707  1.00  0.00     0.210 HD
ENDBRANCH  13  28
BRANCH   7  30
HETATM   30  O2  UNL     1      -6.049   4.752  13.913  1.00  0.00    -0.382 OA
ATOM     31  H2  UNL     1      -6.206   4.953  14.828  1.00  0.00     0.211 HD
ENDBRANCH   7  30
BRANCH   1  32
HETATM   32  N1  UNL     1      -3.824   0.151  10.691  1.00  0.00    -0.073 N 
HETATM   33  C1  UNL     1      -3.278  -1.154  10.868  1.00  0.00     0.267 C 
ATOM     34  H12 UNL     1      -3.346   0.651   9.942  1.00  0.00     0.277 HD
ATOM     35  H11 UNL     1      -4.760   0.105  10.286  1.00  0.00     0.277 HD
ENDBRANCH   1  32
TORSDOF 6
ENDMDL
MODEL 3
REMARK VINA RESULT: -7.925554203      0.741      1.269
REMARK  6 active torsions:
REMARK  status: ('A' for Active; 'I' for Inactive)
REMARK    1  A    between atoms: N1_2  and  C2_5 
REMARK    2  A    between atoms: C7_11  and  O2_12 
REMARK    3  A    between atoms: C12_18  and  C13_19 
REMARK    4  A    between atoms: C13_19  and  O4_21 
REMARK    5  A    between atoms: O4_21  and  C14_22 
REMARK    6  A    between atoms: C24_32  and  O5_33 
ROOT
HETATM    1  C2  UNL     1      -3.965   1.132  12.028  1.00  0.00     0.211 C 
HETATM    2  C3  UNL     1      -5.080   2.054  12.200  1.00  0.00     0.202 C 
HETATM    3  O1  UNL     1      -4.914   3.374  12.079  1.00  0.00    -0.373 OA
HETATM    4  C4  UNL     1      -3.747   3.960  12.465  1.00  0.00     0.122 A 
HETATM    5  C5  UNL     1      -3.282   4.017  13.856  1.00  0.00     0.062 A 
HETATM    6  C6  UNL     1      -3.943   3.251  14.967  1.00  0.00     0.017 C 
HETATM    7  C7  UNL     1      -3.945   5.222  13.295  1.00  0.00     0.115 A 
HETATM    8  C8  UNL     1      -3.126   6.362  12.948  1.00  0.00     0.010 C 
HETATM    9  C9  UNL     1      -2.088   6.305  12.156  1.00  0.00    -0.022 C 
HETATM   10  C10 UNL     1      -1.679   5.020  11.548  1.00  0.00     0.028 C 
HETATM   11  C11 UNL     1      -0.922   5.364  10.306  1.00  0.00     0.015 C 
HETATM   12  C12 UNL     1      -2.878   4.134  11.274  1.00  0.00     0.115 C 
HETATM   13  C24 UNL     1      -2.428   2.754  10.852  1.00  0.00     0.142 C 
HETATM   14  C25 UNL     1      -2.581   1.691  11.883  1.00  0.00     0.068 C 
ENDROOT
BRANCH  12  15
HETATM   15  C13 UNL     1      -3.680   4.678  10.138  1.00  0.00     0.274 C 
HETATM   16  O3  UNL     1      -3.994   3.968   9.123  1.00  0.00    -0.264 OA
BRANCH  15  17
HETATM   17  O4  UNL     1      -4.165   5.972  10.051  1.00  0.00    -0.314 OA
BRANCH  17  18
HETATM   18  C14 UNL     1      -5.514   6.321  10.124  1.00  0.00     0.140 C 
HETATM   19  C15 UNL     1      -5.944   6.623   8.692  1.00  0.00     0.016 C 
HETATM   20  C16 UNL     1      -7.442   6.788   8.594  1.00  0.00     0.012 C 
HETATM   21  C20 UNL     1      -5.225   7.865   8.262  1.00  0.00     0.012 C 
HETATM   22  C17 UNL     1      -7.842   7.940   9.469  1.00  0.00    -0.013 C 
HETATM   23  C18 UNL     1      -7.177   9.194   8.944  1.00  0.00     0.009 C 
HETATM   24  C23 UNL     1      -7.389   7.662  10.867  1.00  0.00     0.012 C 
HETATM   25  C19 UNL     1      -5.694   9.049   9.090  1.00  0.00    -0.013 C 
HETATM   26  C21 UNL     1      -5.263   8.790  10.509  1.00  0.00     0.012 C 
HETATM   27  C22 UNL     1      -5.866   7.492  10.956  1.00  0.00     0.016 C 
ENDBRANCH  17  18
ENDBRANCH  15  17
ENDBRANCH  12  15
BRANCH  13  28
HETATM   28  O5  UNL     1      -1.101   2.740  10.431  1.00  0.00    -0.394 OA
ATOM     29  H5  UNL     1      -0.840   3.566  10.042  1.00  0.00     0.210 HD
ENDBRANCH  13  28
BRANCH   7  30
HETATM   30  O2  UNL     1      -5.224   5.444  13.826  1.00  0.00    -0.382 OA
ATOM     31  H2  UNL     1      -5.361   5.214  14.738  1.00  0.00     0.211 HD
ENDBRANCH   7  30
BRANCH   1  32
HETATM   32  N1  UNL     1      -4.211   0.287  10.845  1.00  0.00    -0.073 N 
HETATM   33  C1  UNL     1      -3.404  -0.888  10.837  1.00  0.00     0.267 C 
ATOM     34  H12 UNL     1      -4.092   0.820   9.983  1.00  0.00     0.277 HD
ATOM     35  H11 UNL     1      -5.200   0.055  10.758  1.00  0.00     0.277 HD
ENDBRANCH   1  32
TORSDOF 6
ENDMDL
MODEL 4
REMARK VINA RESULT: -7.326758843      2.076      3.508
REMARK  6 active torsions:
REMARK  status: ('A' for Active; 'I' for Inactive)
REMARK    1  A    between atoms: N1_2  and  C2_5 
REMARK    2  A    between atoms: C7_11  and  O2_12 
REMARK    3  A    between atoms: C12_18  and  C13_19 
REMARK    4  A    between atoms: C13_19  and  O4_21 
REMARK    5  A    between atoms: O4_21  and  C14_22 
REMARK    6  A    between atoms: C24_32  and  O5_33 
ROOT
HETATM    1  C2  UNL     1       0.016   3.132   9.933  1.00  0.00     0.211 C 
HETATM    2  C3  UNL     1      -1.221   3.115   9.163  1.00  0.00     0.202 C 
HETATM    3  O1  UNL     1      -2.377   3.518   9.698  1.00  0.00    -0.373 OA
HETATM    4  C4  UNL     1      -2.634   3.311  11.019  1.00  0.00     0.122 A 
HETATM    5  C5  UNL     1      -2.807   1.984  11.619  1.00  0.00     0.062 A 
HETATM    6  C6  UNL     1      -2.507   0.711  10.880  1.00  0.00     0.017 C 
HETATM    7  C7  UNL     1      -4.029   2.759  11.287  1.00  0.00     0.115 A 
HETATM    8  C8  UNL     1      -4.773   3.372  12.366  1.00  0.00     0.010 C 
HETATM    9  C9  UNL     1      -4.248   4.174  13.254  1.00  0.00    -0.022 C 
HETATM   10  C10 UNL     1      -2.809   4.513  13.202  1.00  0.00     0.028 C 
HETATM   11  C11 UNL     1      -2.661   5.829  13.895  1.00  0.00     0.015 C 
HETATM   12  C12 UNL     1      -2.303   4.545  11.773  1.00  0.00     0.115 C 
HETATM   13  C24 UNL     1      -0.798   4.684  11.751  1.00  0.00     0.142 C 
HETATM   14  C25 UNL     1      -0.049   3.447  11.398  1.00  0.00     0.068 C 
ENDROOT
BRANCH  12  15
HETATM   15  C13 UNL     1      -2.844   5.738  11.055  1.00  0.00     0.274 C 
HETATM   16  O3  UNL     1      -2.089   6.675  10.625  1.00  0.00    -0.264 OA
BRANCH  15  17
HETATM   17  O4  UNL     1      -4.181   5.964  10.778  1.00  0.00    -0.314 OA
BRANCH  17  18
HETATM   18  C14 UNL     1      -4.823   7.196  10.916  1.00  0.00     0.140 C 
HETATM   19  C15 UNL     1      -6.314   6.904  10.782  1.00  0.00     0.016 C 
HETATM   20  C16 UNL     1      -7.143   8.114  11.144  1.00  0.00     0.012 C 
HETATM   21  C20 UNL     1      -6.560   6.473   9.369  1.00  0.00     0.012 C 
HETATM   22  C17 UNL     1      -6.784   9.224  10.201  1.00  0.00    -0.013 C 
HETATM   23  C18 UNL     1      -7.139   8.792   8.795  1.00  0.00     0.009 C 
HETATM   24  C23 UNL     1      -5.315   9.487  10.304  1.00  0.00     0.012 C 
HETATM   25  C19 UNL     1      -6.280   7.625   8.419  1.00  0.00    -0.013 C 
HETATM   26  C21 UNL     1      -4.808   7.922   8.512  1.00  0.00     0.012 C 
HETATM   27  C22 UNL     1      -4.481   8.251   9.938  1.00  0.00     0.016 C 
ENDBRANCH  17  18
ENDBRANCH  15  17
ENDBRANCH  12  15
BRANCH  13  28
HETATM   28  O5  UNL     1      -0.295   5.146  12.964  1.00  0.00    -0.394 OA
ATOM     29  H5  UNL     1       0.160   4.465  13.446  1.00  0.00     0.210 HD
ENDBRANCH  13  28
BRANCH   7  30
HETATM   30  O2  UNL     1      -4.732   2.237  10.192  1.00  0.00    -0.382 OA
ATOM     31  H2  UNL     1      -4.825   1.292  10.147  1.00  0.00     0.211 HD
ENDBRANCH   7  30
BRANCH   1  32
HETATM   32  N1  UNL     1       0.951   4.099   9.330  1.00  0.00    -0.073 N 
HETATM   33  C1  UNL     1       2.308   3.836   9.677  1.00  0.00     0.267 C 
ATOM     34  H12 UNL     1       0.690   5.057   9.565  1.00  0.00     0.277 HD
ATOM     35  H11 UNL     1       0.832   4.142   8.317  1.00  0.00     0.277 HD
ENDBRANCH   1  32
TORSDOF 6
ENDMDL
MODEL 5
REMARK VINA RESULT: -7.306492325      1.362      2.166
REMARK  6 active torsions:
REMARK  status: ('A' for Active; 'I' for Inactive)
REMARK    1  A    between atoms: N1_2  and  C2_5 
REMARK    2  A    between atoms: C7_11  and  O2_12 
REMARK    3  A    between atoms: C12_18  and  C13_19 
REMARK    4  A    between atoms: C13_19  and  O4_21 
REMARK    5  A    between atoms: O4_21  and  C14_22 
REMARK    6  A    between atoms: C24_32  and  O5_33 
ROOT
HETATM    1  C2  UNL     1      -3.827   2.261  12.601  1.00  0.00     0.211 C 
HETATM    2  C3  UNL     1      -4.496   3.542  12.783  1.00  0.00     0.202 C 
HETATM    3  O1  UNL     1      -4.076   4.642  12.149  1.00  0.00    -0.373 OA
HETATM    4  C4  UNL     1      -2.751   4.827  11.896  1.00  0.00     0.122 A 
HETATM    5  C5  UNL     1      -1.740   5.029  12.939  1.00  0.00     0.062 A 
HETATM    6  C6  UNL     1      -2.031   4.841  14.402  1.00  0.00     0.017 C 
HETATM    7  C7  UNL     1      -2.258   6.228  12.233  1.00  0.00     0.115 A 
HETATM    8  C8  UNL     1      -1.411   6.871  11.252  1.00  0.00     0.010 C 
HETATM    9  C9  UNL     1      -0.860   6.253  10.242  1.00  0.00    -0.022 C 
HETATM   10  C10 UNL     1      -1.080   4.804  10.038  1.00  0.00     0.028 C 
HETATM   11  C11 UNL     1      -0.866   4.546   8.582  1.00  0.00     0.015 C 
HETATM   12  C12 UNL     1      -2.460   4.386  10.509  1.00  0.00     0.115 C 
HETATM   13  C24 UNL     1      -2.590   2.881  10.489  1.00  0.00     0.142 C 
HETATM   14  C25 UNL     1      -2.546   2.219  11.821  1.00  0.00     0.068 C 
ENDROOT
BRANCH  12  15
HETATM   15  C13 UNL     1      -3.507   4.909   9.581  1.00  0.00     0.274 C 
HETATM   16  O3  UNL     1      -4.013   4.194   8.651  1.00  0.00    -0.264 OA
BRANCH  15  17
HETATM   17  O4  UNL     1      -4.040   6.186   9.617  1.00  0.00    -0.314 OA
BRANCH  17  18
HETATM   18  C14 UNL     1      -5.391   6.477   9.807  1.00  0.00     0.140 C 
HETATM   19  C15 UNL     1      -5.932   6.859   8.432  1.00  0.00     0.016 C 
HETATM   20  C16 UNL     1      -7.437   6.974   8.448  1.00  0.00     0.012 C 
HETATM   21  C20 UNL     1      -5.286   8.154   8.043  1.00  0.00     0.012 C 
HETATM   22  C17 UNL     1      -7.813   8.047   9.427  1.00  0.00    -0.013 C 
HETATM   23  C18 UNL     1      -7.229   9.358   8.948  1.00  0.00     0.009 C 
HETATM   24  C23 UNL     1      -7.253   7.692  10.768  1.00  0.00     0.012 C 
HETATM   25  C19 UNL     1      -5.736   9.260   8.982  1.00  0.00    -0.013 C 
HETATM   26  C21 UNL     1      -5.197   8.923  10.346  1.00  0.00     0.012 C 
HETATM   27  C22 UNL     1      -5.723   7.575  10.741  1.00  0.00     0.016 C 
ENDBRANCH  17  18
ENDBRANCH  15  17
ENDBRANCH  12  15
BRANCH  13  28
HETATM   28  O5  UNL     1      -1.618   2.280   9.692  1.00  0.00    -0.394 OA
ATOM     29  H5  UNL     1      -1.827   1.375   9.494  1.00  0.00     0.210 HD
ENDBRANCH  13  28
BRANCH   7  30
HETATM   30  O2  UNL     1      -3.090   7.023  13.034  1.00  0.00    -0.382 OA
ATOM     31  H2  UNL     1      -2.696   7.430  13.798  1.00  0.00     0.211 HD
ENDBRANCH   7  30
BRANCH   1  32
HETATM   32  N1  UNL     1      -4.753   1.318  11.950  1.00  0.00    -0.073 N 
HETATM   33  C1  UNL     1      -4.298  -0.031  12.020  1.00  0.00     0.267 C 
ATOM     34  H12 UNL     1      -4.939   1.592  10.985  1.00  0.00     0.277 HD
ATOM     35  H11 UNL     1      -5.696   1.407  12.330  1.00  0.00     0.277 HD
ENDBRANCH   1  32
TORSDOF 6
ENDMDL
