MODEL 1
REMARK VINA RESULT: -6.581346529      0.000      0.000
REMARK  5 active torsions:
REMARK  status: ('A' for Active; 'I' for Inactive)
REMARK    1  A    between atoms: C2_2  and  C4_4 
REMARK    2  A    between atoms: C7_7  and  O1_8 
REMARK    3  A    between atoms: C8_10  and  O2_11 
REMARK    4  A    between atoms: C14_18  and  N1_19 
REMARK    5  A    between atoms: C24_30  and  O4_32 
ROOT
HETATM    1  C4  UNL     1      -4.212   4.959  14.608  1.00  0.00     0.045 C 
HETATM    2  C5  UNL     1      -4.119   5.604  13.221  1.00  0.00     0.027 C 
HETATM    3  C6  UNL     1      -2.895   5.271  12.502  1.00  0.00     0.027 C 
HETATM    4  C7  UNL     1      -2.235   4.569  13.678  1.00  0.00     0.159 C 
HETATM    5  C8  UNL     1      -3.372   3.824  14.436  1.00  0.00     0.155 C 
HETATM    6  C9  UNL     1      -2.034   6.462  12.021  1.00  0.00     0.018 C 
HETATM    7  C10 UNL     1      -2.660   7.636  11.397  1.00  0.00    -0.036 C 
HETATM    8  C11 UNL     1      -2.244   8.826  12.329  1.00  0.00     0.016 C 
HETATM    9  C12 UNL     1      -4.124   7.828  11.257  1.00  0.00     0.012 C 
HETATM   10  C13 UNL     1      -4.648   8.431   9.948  1.00  0.00     0.040 C 
HETATM   11  C14 UNL     1      -4.103   7.748   8.748  1.00  0.00     0.256 C 
HETATM   12  C17 UNL     1      -2.689   7.196   9.038  1.00  0.00     0.089 C 
HETATM   13  C18 UNL     1      -2.027   7.335   7.666  1.00  0.00     0.048 C 
HETATM   14  C19 UNL     1      -2.171   8.157  10.072  1.00  0.00     0.049 C 
HETATM   15  O3  UNL     1      -2.794   5.965   9.525  1.00  0.00    -0.369 OA
HETATM   16  C20 UNL     1      -2.005   5.214  10.230  1.00  0.00     0.165 C 
HETATM   17  C21 UNL     1      -0.963   5.758  11.141  1.00  0.00    -0.013 C 
HETATM   18  C22 UNL     1       0.100   6.670  10.677  1.00  0.00     0.018 C 
HETATM   19  C23 UNL     1      -0.111   4.756  11.818  1.00  0.00     0.018 C 
HETATM   20  C24 UNL     1      -2.906   4.469  11.264  1.00  0.00     0.091 C 
HETATM   21  C25 UNL     1      -4.194   4.060  10.630  1.00  0.00     0.049 C 
ENDROOT
BRANCH   4  22
HETATM   22  O1  UNL     1      -1.874   5.532  14.655  1.00  0.00    -0.392 OA
ATOM     23  H1  UNL     1      -1.015   5.881  14.447  1.00  0.00     0.210 HD
ENDBRANCH   4  22
BRANCH  20  24
HETATM   24  O4  UNL     1      -2.414   3.140  11.443  1.00  0.00    -0.387 OA
ATOM     25  H4  UNL     1      -2.004   2.780  10.666  1.00  0.00     0.210 HD
ENDBRANCH  20  24
BRANCH   1  26
HETATM   26  C2  UNL     1      -5.601   4.825  15.068  1.00  0.00    -0.086 C 
HETATM   27  C1  UNL     1      -6.058   4.021  16.011  1.00  0.00     0.014 C 
HETATM   28  C3  UNL     1      -6.615   5.693  14.394  1.00  0.00     0.043 C 
ENDBRANCH   1  26
BRANCH   5  29
HETATM   29  O2  UNL     1      -3.743   2.661  13.925  1.00  0.00    -0.392 OA
ATOM     30  H2  UNL     1      -3.314   2.210  13.208  1.00  0.00     0.210 HD
ENDBRANCH   5  29
BRANCH  11  31
HETATM   31  N1  UNL     1      -4.997   6.819   8.183  1.00  0.00     0.087 N 
HETATM   32  C15 UNL     1      -6.298   7.011   8.760  1.00  0.00     0.310 C 
HETATM   33  C16 UNL     1      -5.127   6.766   6.779  1.00  0.00     0.310 C 
ENDBRANCH  11  31
TORSDOF 5
ENDMDL
MODEL 2
REMARK VINA RESULT: -6.438912618      1.223      1.527
REMARK  5 active torsions:
REMARK  status: ('A' for Active; 'I' for Inactive)
REMARK    1  A    between atoms: C2_2  and  C4_4 
REMARK    2  A    between atoms: C7_7  and  O1_8 
REMARK    3  A    between atoms: C8_10  and  O2_11 
REMARK    4  A    between atoms: C14_18  and  N1_19 
REMARK    5  A    between atoms: C24_30  and  O4_32 
ROOT
HETATM    1  C4  UNL     1      -4.438   4.543  14.512  1.00  0.00     0.045 C 
HETATM    2  C5  UNL     1      -3.959   5.494  13.411  1.00  0.00     0.027 C 
HETATM    3  C6  UNL     1      -2.872   4.952  12.603  1.00  0.00     0.027 C 
HETATM    4  C7  UNL     1      -2.655   3.725  13.474  1.00  0.00     0.159 C 
HETATM    5  C8  UNL     1      -4.064   3.283  13.965  1.00  0.00     0.155 C 
HETATM    6  C9  UNL     1      -1.583   5.803  12.524  1.00  0.00     0.018 C 
HETATM    7  C10 UNL     1      -1.656   7.259  12.328  1.00  0.00    -0.036 C 
HETATM    8  C11 UNL     1      -0.936   7.845  13.591  1.00  0.00     0.016 C 
HETATM    9  C12 UNL     1      -2.919   8.034  12.283  1.00  0.00     0.012 C 
HETATM   10  C13 UNL     1      -3.033   9.164  11.251  1.00  0.00     0.040 C 
HETATM   11  C14 UNL     1      -2.648   8.728   9.885  1.00  0.00     0.256 C 
HETATM   12  C17 UNL     1      -1.581   7.612   9.956  1.00  0.00     0.089 C 
HETATM   13  C18 UNL     1      -0.765   7.899   8.695  1.00  0.00     0.048 C 
HETATM   14  C19 UNL     1      -0.863   7.929  11.239  1.00  0.00     0.049 C 
HETATM   15  O3  UNL     1      -2.187   6.433  10.016  1.00  0.00    -0.369 OA
HETATM   16  C20 UNL     1      -1.817   5.257  10.423  1.00  0.00     0.165 C 
HETATM   17  C21 UNL     1      -0.757   5.048  11.445  1.00  0.00    -0.013 C 
HETATM   18  C22 UNL     1       0.613   5.573  11.287  1.00  0.00     0.018 C 
HETATM   19  C23 UNL     1      -0.417   3.640  11.744  1.00  0.00     0.018 C 
HETATM   20  C24 UNL     1      -3.040   4.640  11.171  1.00  0.00     0.091 C 
HETATM   21  C25 UNL     1      -4.307   4.977  10.459  1.00  0.00     0.049 C 
ENDROOT
BRANCH   4  22
HETATM   22  O1  UNL     1      -2.075   4.123  14.706  1.00  0.00    -0.392 OA
ATOM     23  H1  UNL     1      -2.392   3.554  15.398  1.00  0.00     0.210 HD
ENDBRANCH   4  22
BRANCH  20  24
HETATM   24  O4  UNL     1      -3.098   3.239  10.898  1.00  0.00    -0.387 OA
ATOM     25  H4  UNL     1      -2.407   2.742  11.320  1.00  0.00     0.210 HD
ENDBRANCH  20  24
BRANCH   1  26
HETATM   26  C2  UNL     1      -5.820   4.820  14.926  1.00  0.00    -0.086 C 
HETATM   27  C1  UNL     1      -6.645   5.716  14.413  1.00  0.00     0.014 C 
HETATM   28  C3  UNL     1      -6.358   3.998  16.054  1.00  0.00     0.043 C 
ENDBRANCH   1  26
BRANCH   5  29
HETATM   29  O2  UNL     1      -4.779   2.573  13.108  1.00  0.00    -0.392 OA
ATOM     30  H2  UNL     1      -5.614   2.833  12.736  1.00  0.00     0.210 HD
ENDBRANCH   5  29
BRANCH  11  31
HETATM   31  N1  UNL     1      -3.753   8.439   9.062  1.00  0.00     0.087 N 
HETATM   32  C15 UNL     1      -4.961   8.684   9.798  1.00  0.00     0.310 C 
HETATM   33  C16 UNL     1      -3.849   9.073   7.805  1.00  0.00     0.310 C 
ENDBRANCH  11  31
TORSDOF 5
ENDMDL
MODEL 3
REMARK VINA RESULT: -6.326227925      2.431      5.052
REMARK  5 active torsions:
REMARK  status: ('A' for Active; 'I' for Inactive)
REMARK    1  A    between atoms: C2_2  and  C4_4 
REMARK    2  A    between atoms: C7_7  and  O1_8 
REMARK    3  A    between atoms: C8_10  and  O2_11 
REMARK    4  A    between atoms: C14_18  and  N1_19 
REMARK    5  A    between atoms: C24_30  and  O4_32 
ROOT
HETATM    1  C4  UNL     1      -0.896   9.048  13.267  1.00  0.00     0.045 C 
HETATM    2  C5  UNL     1      -1.788   7.809  13.139  1.00  0.00     0.027 C 
HETATM    3  C6  UNL     1      -1.568   7.055  11.910  1.00  0.00     0.027 C 
HETATM    4  C7  UNL     1      -0.641   8.085  11.284  1.00  0.00     0.159 C 
HETATM    5  C8  UNL     1       0.207   8.675  12.448  1.00  0.00     0.155 C 
HETATM    6  C9  UNL     1      -2.808   6.819  11.017  1.00  0.00     0.018 C 
HETATM    7  C10 UNL     1      -4.094   6.421  11.608  1.00  0.00    -0.036 C 
HETATM    8  C11 UNL     1      -5.075   7.566  11.182  1.00  0.00     0.016 C 
HETATM    9  C12 UNL     1      -4.343   6.302  13.065  1.00  0.00     0.012 C 
HETATM   10  C13 UNL     1      -5.195   5.124  13.555  1.00  0.00     0.040 C 
HETATM   11  C14 UNL     1      -4.738   3.823  13.005  1.00  0.00     0.256 C 
HETATM   12  C17 UNL     1      -4.107   4.021  11.607  1.00  0.00     0.089 C 
HETATM   13  C18 UNL     1      -4.488   2.708  10.920  1.00  0.00     0.048 C 
HETATM   14  C19 UNL     1      -4.843   5.224  11.086  1.00  0.00     0.049 C 
HETATM   15  O3  UNL     1      -2.810   4.265  11.745  1.00  0.00    -0.369 OA
HETATM   16  C20 UNL     1      -1.920   4.824  10.984  1.00  0.00     0.165 C 
HETATM   17  C21 UNL     1      -2.258   5.835   9.946  1.00  0.00    -0.013 C 
HETATM   18  C22 UNL     1      -3.216   5.564   8.857  1.00  0.00     0.018 C 
HETATM   19  C23 UNL     1      -1.127   6.320   9.126  1.00  0.00     0.018 C 
HETATM   20  C24 UNL     1      -1.015   5.688  11.918  1.00  0.00     0.091 C 
HETATM   21  C25 UNL     1      -0.764   4.972  13.203  1.00  0.00     0.049 C 
ENDROOT
BRANCH   4  22
HETATM   22  O1  UNL     1      -1.393   9.230  10.919  1.00  0.00    -0.392 OA
ATOM     23  H1  UNL     1      -1.889   9.041  10.130  1.00  0.00     0.210 HD
ENDBRANCH   4  22
BRANCH  20  24
HETATM   24  O4  UNL     1       0.335   5.618  11.457  1.00  0.00    -0.387 OA
ATOM     25  H4  UNL     1       0.847   4.942  11.885  1.00  0.00     0.210 HD
ENDBRANCH  20  24
BRANCH   1  26
HETATM   26  C2  UNL     1      -0.709   9.458  14.666  1.00  0.00    -0.086 C 
HETATM   27  C1  UNL     1       0.040  10.447  15.118  1.00  0.00     0.014 C 
HETATM   28  C3  UNL     1      -1.449   8.666  15.697  1.00  0.00     0.043 C 
ENDBRANCH   1  26
BRANCH   5  29
HETATM   29  O2  UNL     1       1.242   7.948  12.836  1.00  0.00    -0.392 OA
ATOM     30  H2  UNL     1       1.895   7.565  12.261  1.00  0.00     0.210 HD
ENDBRANCH   5  29
BRANCH  11  31
HETATM   31  N1  UNL     1      -3.953   3.082  13.908  1.00  0.00     0.087 N 
HETATM   32  C15 UNL     1      -3.777   3.846  15.111  1.00  0.00     0.310 C 
HETATM   33  C16 UNL     1      -4.365   1.777  14.255  1.00  0.00     0.310 C 
ENDBRANCH  11  31
TORSDOF 5
ENDMDL
MODEL 4
REMARK VINA RESULT: -6.175038272      1.802      2.929
REMARK  5 active torsions:
REMARK  status: ('A' for Active; 'I' for Inactive)
REMARK    1  A    between atoms: C2_2  and  C4_4 
REMARK    2  A    between atoms: C7_7  and  O1_8 
REMARK    3  A    between atoms: C8_10  and  O2_11 
REMARK    4  A    between atoms: C14_18  and  N1_19 
REMARK    5  A    between atoms: C24_30  and  O4_32 
ROOT
HETATM    1  C4  UNL     1      -4.112   3.950  12.730  1.00  0.00     0.045 C 
HETATM    2  C5  UNL     1      -4.111   4.869  11.504  1.00  0.00     0.027 C 
HETATM    3  C6  UNL     1      -3.266   6.048  11.657  1.00  0.00     0.027 C 
HETATM    4  C7  UNL     1      -2.970   5.812  13.129  1.00  0.00     0.159 C 
HETATM    5  C8  UNL     1      -2.852   4.270  13.309  1.00  0.00     0.155 C 
HETATM    6  C9  UNL     1      -3.952   7.417  11.448  1.00  0.00     0.018 C 
HETATM    7  C10 UNL     1      -4.882   7.628  10.329  1.00  0.00    -0.036 C 
HETATM    8  C11 UNL     1      -6.227   8.030  11.027  1.00  0.00     0.016 C 
HETATM    9  C12 UNL     1      -5.308   6.567   9.385  1.00  0.00     0.012 C 
HETATM   10  C13 UNL     1      -5.433   6.932   7.900  1.00  0.00     0.040 C 
HETATM   11  C14 UNL     1      -4.227   7.627   7.382  1.00  0.00     0.256 C 
HETATM   12  C17 UNL     1      -3.551   8.444   8.507  1.00  0.00     0.089 C 
HETATM   13  C18 UNL     1      -2.985   9.626   7.717  1.00  0.00     0.048 C 
HETATM   14  C19 UNL     1      -4.711   8.796   9.396  1.00  0.00     0.049 C 
HETATM   15  O3  UNL     1      -2.672   7.673   9.135  1.00  0.00    -0.369 OA
HETATM   16  C20 UNL     1      -2.116   7.725  10.307  1.00  0.00     0.165 C 
HETATM   17  C21 UNL     1      -2.745   8.397  11.476  1.00  0.00    -0.013 C 
HETATM   18  C22 UNL     1      -3.145   9.816  11.454  1.00  0.00     0.018 C 
HETATM   19  C23 UNL     1      -1.942   8.415  12.718  1.00  0.00     0.018 C 
HETATM   20  C24 UNL     1      -2.058   6.258  10.837  1.00  0.00     0.091 C 
HETATM   21  C25 UNL     1      -1.713   5.320   9.729  1.00  0.00     0.049 C 
ENDROOT
BRANCH   4  22
HETATM   22  O1  UNL     1      -4.143   6.061  13.887  1.00  0.00    -0.392 OA
ATOM     23  H1  UNL     1      -4.906   5.918  13.338  1.00  0.00     0.210 HD
ENDBRANCH   4  22
BRANCH  20  24
HETATM   24  O4  UNL     1      -0.840   6.069  11.559  1.00  0.00    -0.387 OA
ATOM     25  H4  UNL     1      -0.812   5.254  12.047  1.00  0.00     0.210 HD
ENDBRANCH  20  24
BRANCH   1  26
HETATM   26  C2  UNL     1      -4.471   2.567  12.389  1.00  0.00    -0.086 C 
HETATM   27  C1  UNL     1      -4.767   2.087  11.195  1.00  0.00     0.014 C 
HETATM   28  C3  UNL     1      -4.508   1.589  13.521  1.00  0.00     0.043 C 
ENDBRANCH   1  26
BRANCH   5  29
HETATM   29  O2  UNL     1      -1.690   3.736  12.970  1.00  0.00    -0.392 OA
ATOM     30  H2  UNL     1      -1.060   4.117  12.370  1.00  0.00     0.210 HD
ENDBRANCH   5  29
BRANCH  11  31
HETATM   31  N1  UNL     1      -3.363   6.779   6.664  1.00  0.00     0.087 N 
HETATM   32  C15 UNL     1      -3.955   5.473   6.576  1.00  0.00     0.310 C 
HETATM   33  C16 UNL     1      -2.937   7.172   5.377  1.00  0.00     0.310 C 
ENDBRANCH  11  31
TORSDOF 5
ENDMDL
MODEL 5
REMARK VINA RESULT: -6.025481277      2.535      5.024
REMARK  5 active torsions:
REMARK  status: ('A' for Active; 'I' for Inactive)
REMARK    1  A    between atoms: C2_2  and  C4_4 
REMARK    2  A    between atoms: C7_7  and  O1_8 
REMARK    3  A    between atoms: C8_10  and  O2_11 
REMARK    4  A    between atoms: C14_18  and  N1_19 
REMARK    5  A    between atoms: C24_30  and  O4_32 
ROOT
HETATM    1  C4  UNL     1      -5.430   8.360  10.682  1.00  0.00     0.045 C 
HETATM    2  C5  UNL     1      -3.998   7.841  10.850  1.00  0.00     0.027 C 
HETATM    3  C6  UNL     1      -3.874   6.398  10.676  1.00  0.00     0.027 C 
HETATM    4  C7  UNL     1      -5.371   6.142  10.607  1.00  0.00     0.159 C 
HETATM    5  C8  UNL     1      -5.987   7.352   9.845  1.00  0.00     0.155 C 
HETATM    6  C9  UNL     1      -3.238   5.616  11.848  1.00  0.00     0.018 C 
HETATM    7  C10 UNL     1      -2.040   6.127  12.529  1.00  0.00    -0.036 C 
HETATM    8  C11 UNL     1      -2.495   6.294  14.019  1.00  0.00     0.016 C 
HETATM    9  C12 UNL     1      -1.405   7.434  12.233  1.00  0.00     0.012 C 
HETATM   10  C13 UNL     1       0.128   7.500  12.210  1.00  0.00     0.040 C 
HETATM   11  C14 UNL     1       0.731   6.435  11.370  1.00  0.00     0.256 C 
HETATM   12  C17 UNL     1      -0.165   5.174  11.373  1.00  0.00     0.089 C 
HETATM   13  C18 UNL     1       0.881   4.065  11.255  1.00  0.00     0.048 C 
HETATM   14  C19 UNL     1      -0.830   5.252  12.719  1.00  0.00     0.049 C 
HETATM   15  O3  UNL     1      -1.048   5.266  10.387  1.00  0.00    -0.369 OA
HETATM   16  C20 UNL     1      -2.196   4.703  10.160  1.00  0.00     0.165 C 
HETATM   17  C21 UNL     1      -3.078   4.192  11.244  1.00  0.00    -0.013 C 
HETATM   18  C22 UNL     1      -2.628   3.189  12.227  1.00  0.00     0.018 C 
HETATM   19  C23 UNL     1      -4.320   3.522  10.801  1.00  0.00     0.018 C 
HETATM   20  C24 UNL     1      -3.120   5.806   9.555  1.00  0.00     0.091 C 
HETATM   21  C25 UNL     1      -2.350   6.668   8.612  1.00  0.00     0.049 C 
ENDROOT
BRANCH   4  22
HETATM   22  O1  UNL     1      -5.940   6.341  11.891  1.00  0.00    -0.392 OA
ATOM     23  H1  UNL     1      -6.499   5.603  12.103  1.00  0.00     0.210 HD
ENDBRANCH   4  22
BRANCH  20  24
HETATM   24  O4  UNL     1      -3.955   5.220   8.555  1.00  0.00    -0.387 OA
ATOM     25  H4  UNL     1      -3.498   4.604   7.994  1.00  0.00     0.210 HD
ENDBRANCH  20  24
BRANCH   1  26
HETATM   26  C2  UNL     1      -5.467   9.779  10.304  1.00  0.00    -0.086 C 
HETATM   27  C1  UNL     1      -6.528  10.491   9.971  1.00  0.00     0.014 C 
HETATM   28  C3  UNL     1      -4.158  10.502  10.293  1.00  0.00     0.043 C 
ENDBRANCH   1  26
BRANCH   5  29
HETATM   29  O2  UNL     1      -5.899   7.311   8.526  1.00  0.00    -0.392 OA
ATOM     30  H2  UNL     1      -6.630   7.358   7.921  1.00  0.00     0.210 HD
ENDBRANCH   5  29
BRANCH  11  31
HETATM   31  N1  UNL     1       1.115   6.884  10.092  1.00  0.00     0.087 N 
HETATM   32  C15 UNL     1       0.853   8.293   9.994  1.00  0.00     0.310 C 
HETATM   33  C16 UNL     1       2.432   6.634   9.650  1.00  0.00     0.310 C 
ENDBRANCH  11  31
TORSDOF 5
ENDMDL
