MODEL 1
REMARK VINA RESULT: -7.444736821      0.000      0.000
REMARK  5 active torsions:
REMARK  status: ('A' for Active; 'I' for Inactive)
REMARK    1  A    between atoms: C3_3  and  O1_4 
REMARK    2  A    between atoms: C16_19  and  C17_20 
REMARK    3  A    between atoms: C19_22  and  O3_23 
REMARK    4  A    between atoms: C23_28  and  O4_29 
REMARK    5  A    between atoms: C23_28  and  C24_31 
ROOT
HETATM    1  C1  UNL     1      -6.082  10.336  10.309  1.00  0.00     0.016 C 
HETATM    2  C2  UNL     1      -6.720   9.641   9.137  1.00  0.00     0.051 C 
HETATM    3  C3  UNL     1      -7.064   8.208   9.354  1.00  0.00     0.069 C 
HETATM    4  C4  UNL     1      -7.045   7.758  10.792  1.00  0.00     0.044 C 
HETATM    5  C5  UNL     1      -5.694   7.507  11.363  1.00  0.00    -0.002 A 
HETATM    6  C6  UNL     1      -4.624   7.132  10.492  1.00  0.00    -0.001 A 
HETATM    7  C7  UNL     1      -4.827   7.099   9.036  1.00  0.00    -0.001 C 
HETATM    8  C8  UNL     1      -4.084   8.255   8.358  1.00  0.00     0.014 C 
HETATM    9  C9  UNL     1      -5.019   8.870   7.429  1.00  0.00     0.031 C 
HETATM   10  C10 UNL     1      -5.986   7.703   7.131  1.00  0.00    -0.009 C 
HETATM   11  C11 UNL     1      -5.354   6.637   6.325  1.00  0.00     0.018 C 
HETATM   12  C12 UNL     1      -7.065   8.472   6.475  1.00  0.00     0.178 C 
HETATM   13  O2  UNL     1      -6.950   9.817   6.829  1.00  0.00    -0.379 OA
HETATM   14  C13 UNL     1      -5.981   9.883   7.865  1.00  0.00     0.068 C 
HETATM   15  C14 UNL     1      -5.394  11.265   7.812  1.00  0.00     0.047 C 
HETATM   16  C15 UNL     1      -6.242   7.248   8.544  1.00  0.00     0.036 C 
HETATM   17  C16 UNL     1      -5.157   6.056  11.365  1.00  0.00    -0.000 A 
ENDROOT
BRANCH  17  18
HETATM   18  C17 UNL     1      -4.517   5.666  12.644  1.00  0.00     0.005 C 
HETATM   19  C18 UNL     1      -4.699   4.219  13.040  1.00  0.00     0.074 C 
HETATM   20  C19 UNL     1      -3.468   3.873  13.884  1.00  0.00     0.165 C 
HETATM   21  C20 UNL     1      -3.385   4.969  14.954  1.00  0.00     0.069 C 
HETATM   22  O5  UNL     1      -2.304   3.831  13.134  1.00  0.00    -0.319 OA
HETATM   23  C21 UNL     1      -2.816   6.179  14.255  1.00  0.00     0.015 C 
HETATM   24  C22 UNL     1      -3.021   6.018  12.742  1.00  0.00     0.053 C 
HETATM   25  C23 UNL     1      -2.230   4.887  12.215  1.00  0.00     0.172 C 
BRANCH  20  26
HETATM   26  O3  UNL     1      -3.688   2.646  14.456  1.00  0.00    -0.365 OA
ATOM     27  H3  UNL     1      -3.664   2.759  15.399  1.00  0.00     0.213 HD
ENDBRANCH  20  26
BRANCH  25  28
HETATM   28  O4  UNL     1      -2.879   4.351  11.066  1.00  0.00    -0.364 OA
ATOM     29  H4  UNL     1      -3.020   3.420  11.189  1.00  0.00     0.213 HD
ENDBRANCH  25  28
BRANCH  25  30
HETATM   30  C24 UNL     1      -0.834   5.089  11.821  1.00  0.00     0.040 C 
HETATM   31  C25 UNL     1      -0.080   3.883  11.344  1.00  0.00     0.015 C 
HETATM   32  C26 UNL     1      -0.639   6.194  10.805  1.00  0.00     0.015 C 
ENDBRANCH  25  30
ENDBRANCH  17  18
BRANCH   3  33
HETATM   33  O1  UNL     1      -8.409   7.957   8.958  1.00  0.00    -0.389 OA
ATOM     34  H1  UNL     1      -8.558   7.023   8.868  1.00  0.00     0.210 HD
ENDBRANCH   3  33
TORSDOF 5
ENDMDL
MODEL 2
REMARK VINA RESULT: -7.437545222      4.034      6.476
REMARK  5 active torsions:
REMARK  status: ('A' for Active; 'I' for Inactive)
REMARK    1  A    between atoms: C3_3  and  O1_4 
REMARK    2  A    between atoms: C16_19  and  C17_20 
REMARK    3  A    between atoms: C19_22  and  O3_23 
REMARK    4  A    between atoms: C23_28  and  O4_29 
REMARK    5  A    between atoms: C23_28  and  C24_31 
ROOT
HETATM    1  C1  UNL     1     -11.151  12.978   7.101  1.00  0.00     0.016 C 
HETATM    2  C2  UNL     1     -11.483  12.363   5.769  1.00  0.00     0.051 C 
HETATM    3  C3  UNL     1     -11.248  10.895   5.666  1.00  0.00     0.069 C 
HETATM    4  C4  UNL     1     -11.043  10.188   6.980  1.00  0.00     0.044 C 
HETATM    5  C5  UNL     1      -9.694  10.350   7.587  1.00  0.00    -0.002 A 
HETATM    6  C6  UNL     1      -8.570  10.604   6.740  1.00  0.00    -0.001 A 
HETATM    7  C7  UNL     1      -8.759  10.811   5.297  1.00  0.00    -0.001 C 
HETATM    8  C8  UNL     1      -8.525  12.278   4.923  1.00  0.00     0.014 C 
HETATM    9  C9  UNL     1      -9.634  12.678   4.071  1.00  0.00     0.031 C 
HETATM   10  C10 UNL     1     -10.081  11.326   3.472  1.00  0.00    -0.009 C 
HETATM   11  C11 UNL     1      -9.094  10.778   2.516  1.00  0.00     0.018 C 
HETATM   12  C12 UNL     1     -11.379  11.752   2.907  1.00  0.00     0.178 C 
HETATM   13  O2  UNL     1     -11.786  12.930   3.534  1.00  0.00    -0.379 OA
HETATM   14  C13 UNL     1     -10.907  13.133   4.630  1.00  0.00     0.068 C 
HETATM   15  C14 UNL     1     -10.898  14.611   4.902  1.00  0.00     0.047 C 
HETATM   16  C15 UNL     1     -10.127  10.516   4.741  1.00  0.00     0.036 C 
HETATM   17  C16 UNL     1      -8.640   9.246   7.336  1.00  0.00    -0.000 A 
ENDROOT
BRANCH  17  18
HETATM   18  C17 UNL     1      -7.886   8.861   8.553  1.00  0.00     0.005 C 
HETATM   19  C18 UNL     1      -7.740   7.374   8.777  1.00  0.00     0.074 C 
HETATM   20  C19 UNL     1      -6.435   7.209   9.562  1.00  0.00     0.165 C 
HETATM   21  C20 UNL     1      -6.550   8.169  10.752  1.00  0.00     0.069 C 
HETATM   22  O5  UNL     1      -5.316   7.506   8.800  1.00  0.00    -0.319 OA
HETATM   23  C21 UNL     1      -6.278   9.544  10.196  1.00  0.00     0.015 C 
HETATM   24  C22 UNL     1      -6.497   9.515   8.676  1.00  0.00     0.053 C 
HETATM   25  C23 UNL     1      -5.502   8.649   8.011  1.00  0.00     0.172 C 
BRANCH  20  26
HETATM   26  O3  UNL     1      -6.368   5.907   9.987  1.00  0.00    -0.365 OA
ATOM     27  H3  UNL     1      -6.831   5.850  10.815  1.00  0.00     0.213 HD
ENDBRANCH  20  26
BRANCH  25  28
HETATM   28  O4  UNL     1      -6.062   8.119   6.814  1.00  0.00    -0.364 OA
ATOM     29  H4  UNL     1      -5.681   7.267   6.638  1.00  0.00     0.213 HD
ENDBRANCH  25  28
BRANCH  25  30
HETATM   30  C24 UNL     1      -4.196   9.191   7.630  1.00  0.00     0.040 C 
HETATM   31  C25 UNL     1      -4.117  10.669   7.389  1.00  0.00     0.015 C 
HETATM   32  C26 UNL     1      -3.076   8.811   8.573  1.00  0.00     0.015 C 
ENDBRANCH  25  30
ENDBRANCH  17  18
BRANCH   3  33
HETATM   33  O1  UNL     1     -12.396  10.246   5.129  1.00  0.00    -0.389 OA
ATOM     34  H1  UNL     1     -13.007  10.028   5.823  1.00  0.00     0.210 HD
ENDBRANCH   3  33
TORSDOF 5
ENDMDL
MODEL 3
REMARK VINA RESULT: -7.354809651      3.914      6.253
REMARK  5 active torsions:
REMARK  status: ('A' for Active; 'I' for Inactive)
REMARK    1  A    between atoms: C3_3  and  O1_4 
REMARK    2  A    between atoms: C16_19  and  C17_20 
REMARK    3  A    between atoms: C19_22  and  O3_23 
REMARK    4  A    between atoms: C23_28  and  O4_29 
REMARK    5  A    between atoms: C23_28  and  C24_31 
ROOT
HETATM    1  C1  UNL     1     -10.489  12.909   7.556  1.00  0.00     0.016 C 
HETATM    2  C2  UNL     1     -11.083  12.346   6.293  1.00  0.00     0.051 C 
HETATM    3  C3  UNL     1     -10.860  10.889   6.076  1.00  0.00     0.069 C 
HETATM    4  C4  UNL     1     -10.384  10.130   7.288  1.00  0.00     0.044 C 
HETATM    5  C5  UNL     1      -8.941  10.290   7.613  1.00  0.00    -0.002 A 
HETATM    6  C6  UNL     1      -8.017  10.599   6.566  1.00  0.00    -0.001 A 
HETATM    7  C7  UNL     1      -8.499  10.865   5.203  1.00  0.00    -0.001 C 
HETATM    8  C8  UNL     1      -8.360  12.351   4.857  1.00  0.00     0.014 C 
HETATM    9  C9  UNL     1      -9.623  12.767   4.269  1.00  0.00     0.031 C 
HETATM   10  C10 UNL     1     -10.172  11.434   3.713  1.00  0.00    -0.009 C 
HETATM   11  C11 UNL     1      -9.398  10.945   2.551  1.00  0.00     0.018 C 
HETATM   12  C12 UNL     1     -11.561  11.861   3.445  1.00  0.00     0.178 C 
HETATM   13  O2  UNL     1     -11.842  13.003   4.195  1.00  0.00    -0.379 OA
HETATM   14  C13 UNL     1     -10.759  13.175   5.097  1.00  0.00     0.068 C 
HETATM   15  C14 UNL     1     -10.708  14.640   5.428  1.00  0.00     0.047 C 
HETATM   16  C15 UNL     1      -9.950  10.569   4.926  1.00  0.00     0.036 C 
HETATM   17  C16 UNL     1      -7.951   9.216   7.101  1.00  0.00    -0.000 A 
ENDROOT
BRANCH  17  18
HETATM   18  C17 UNL     1      -6.961   8.793   8.119  1.00  0.00     0.005 C 
HETATM   19  C18 UNL     1      -7.393   7.644   9.000  1.00  0.00     0.074 C 
HETATM   20  C19 UNL     1      -6.096   6.940   9.413  1.00  0.00     0.165 C 
HETATM   21  C20 UNL     1      -5.189   8.046   9.965  1.00  0.00     0.069 C 
HETATM   22  O5  UNL     1      -5.486   6.289   8.353  1.00  0.00    -0.319 OA
HETATM   23  C21 UNL     1      -4.649   8.772   8.758  1.00  0.00     0.015 C 
HETATM   24  C22 UNL     1      -5.561   8.481   7.557  1.00  0.00     0.053 C 
HETATM   25  C23 UNL     1      -5.506   7.054   7.179  1.00  0.00     0.172 C 
BRANCH  20  26
HETATM   26  O3  UNL     1      -6.410   6.030  10.390  1.00  0.00    -0.365 OA
ATOM     27  H3  UNL     1      -5.702   5.398  10.433  1.00  0.00     0.213 HD
ENDBRANCH  20  26
BRANCH  25  28
HETATM   28  O4  UNL     1      -6.741   6.677   6.578  1.00  0.00    -0.364 OA
ATOM     29  H4  UNL     1      -6.680   5.780   6.271  1.00  0.00     0.213 HD
ENDBRANCH  25  28
BRANCH  25  30
HETATM   30  C24 UNL     1      -4.463   6.575   6.271  1.00  0.00     0.040 C 
HETATM   31  C25 UNL     1      -3.735   7.609   5.464  1.00  0.00     0.015 C 
HETATM   32  C26 UNL     1      -3.430   5.691   6.936  1.00  0.00     0.015 C 
ENDBRANCH  25  30
ENDBRANCH  17  18
BRANCH   3  33
HETATM   33  O1  UNL     1     -12.089  10.243   5.757  1.00  0.00    -0.389 OA
ATOM     34  H1  UNL     1     -12.134   9.392   6.176  1.00  0.00     0.210 HD
ENDBRANCH   3  33
TORSDOF 5
ENDMDL
MODEL 4
REMARK VINA RESULT: -7.200157095      1.473      3.312
REMARK  5 active torsions:
REMARK  status: ('A' for Active; 'I' for Inactive)
REMARK    1  A    between atoms: C3_3  and  O1_4 
REMARK    2  A    between atoms: C16_19  and  C17_20 
REMARK    3  A    between atoms: C19_22  and  O3_23 
REMARK    4  A    between atoms: C23_28  and  O4_29 
REMARK    5  A    between atoms: C23_28  and  C24_31 
ROOT
HETATM    1  C1  UNL     1      -7.296   6.853   7.377  1.00  0.00     0.016 C 
HETATM    2  C2  UNL     1      -6.579   8.165   7.202  1.00  0.00     0.051 C 
HETATM    3  C3  UNL     1      -5.134   8.157   7.566  1.00  0.00     0.069 C 
HETATM    4  C4  UNL     1      -4.524   6.789   7.726  1.00  0.00     0.044 C 
HETATM    5  C5  UNL     1      -4.838   6.097   9.005  1.00  0.00    -0.002 A 
HETATM    6  C6  UNL     1      -5.140   6.875  10.167  1.00  0.00    -0.001 A 
HETATM    7  C7  UNL     1      -5.247   8.338  10.074  1.00  0.00    -0.001 C 
HETATM    8  C8  UNL     1      -6.705   8.787  10.214  1.00  0.00     0.014 C 
HETATM    9  C9  UNL     1      -6.957   9.740   9.145  1.00  0.00     0.031 C 
HETATM   10  C10 UNL     1      -5.540  10.283   8.861  1.00  0.00    -0.009 C 
HETATM   11  C11 UNL     1      -5.026  11.128   9.960  1.00  0.00     0.018 C 
HETATM   12  C12 UNL     1      -5.818  10.967   7.580  1.00  0.00     0.178 C 
HETATM   13  O2  UNL     1      -6.989  10.447   7.028  1.00  0.00    -0.379 OA
HETATM   14  C13 UNL     1      -7.330   9.305   7.799  1.00  0.00     0.068 C 
HETATM   15  C14 UNL     1      -8.817   9.128   7.664  1.00  0.00     0.047 C 
HETATM   16  C15 UNL     1      -4.802   8.972   8.783  1.00  0.00     0.036 C 
HETATM   17  C16 UNL     1      -3.817   6.201  10.164  1.00  0.00    -0.000 A 
ENDROOT
BRANCH  17  18
HETATM   18  C17 UNL     1      -3.570   4.910  10.849  1.00  0.00     0.005 C 
HETATM   19  C18 UNL     1      -2.137   4.430  10.822  1.00  0.00     0.074 C 
HETATM   20  C19 UNL     1      -1.970   3.583  12.088  1.00  0.00     0.165 C 
HETATM   21  C20 UNL     1      -3.128   2.579  12.063  1.00  0.00     0.069 C 
HETATM   22  O5  UNL     1      -2.006   4.345  13.245  1.00  0.00    -0.319 OA
HETATM   23  C21 UNL     1      -4.349   3.352  12.498  1.00  0.00     0.015 C 
HETATM   24  C22 UNL     1      -4.080   4.851  12.301  1.00  0.00     0.053 C 
HETATM   25  C23 UNL     1      -3.009   5.323  13.203  1.00  0.00     0.172 C 
BRANCH  20  26
HETATM   26  O3  UNL     1      -0.762   2.940  12.001  1.00  0.00    -0.365 OA
ATOM     27  H3  UNL     1      -0.935   2.029  11.792  1.00  0.00     0.213 HD
ENDBRANCH  20  26
BRANCH  25  28
HETATM   28  O4  UNL     1      -2.344   6.432  12.605  1.00  0.00    -0.364 OA
ATOM     29  H4  UNL     1      -1.605   6.684  13.147  1.00  0.00     0.213 HD
ENDBRANCH  25  28
BRANCH  25  30
HETATM   30  C24 UNL     1      -3.332   5.746  14.567  1.00  0.00     0.040 C 
HETATM   31  C25 UNL     1      -2.884   7.116  14.979  1.00  0.00     0.015 C 
HETATM   32  C26 UNL     1      -4.797   5.607  14.921  1.00  0.00     0.015 C 
ENDBRANCH  25  30
ENDBRANCH  17  18
BRANCH   3  33
HETATM   33  O1  UNL     1      -4.358   8.734   6.520  1.00  0.00    -0.389 OA
ATOM     34  H1  UNL     1      -4.881   9.352   6.024  1.00  0.00     0.210 HD
ENDBRANCH   3  33
TORSDOF 5
ENDMDL
MODEL 5
REMARK VINA RESULT: -7.190195815      1.823      3.157
REMARK  5 active torsions:
REMARK  status: ('A' for Active; 'I' for Inactive)
REMARK    1  A    between atoms: C3_3  and  O1_4 
REMARK    2  A    between atoms: C16_19  and  C17_20 
REMARK    3  A    between atoms: C19_22  and  O3_23 
REMARK    4  A    between atoms: C23_28  and  O4_29 
REMARK    5  A    between atoms: C23_28  and  C24_31 
ROOT
HETATM    1  C1  UNL     1      -7.722   6.832   8.481  1.00  0.00     0.016 C 
HETATM    2  C2  UNL     1      -6.963   7.775   7.587  1.00  0.00     0.051 C 
HETATM    3  C3  UNL     1      -5.480   7.730   7.721  1.00  0.00     0.069 C 
HETATM    4  C4  UNL     1      -4.943   6.535   8.464  1.00  0.00     0.044 C 
HETATM    5  C5  UNL     1      -5.064   6.598   9.946  1.00  0.00    -0.002 A 
HETATM    6  C6  UNL     1      -5.097   7.874  10.592  1.00  0.00    -0.001 A 
HETATM    7  C7  UNL     1      -5.122   9.109   9.797  1.00  0.00    -0.001 C 
HETATM    8  C8  UNL     1      -6.497   9.780   9.876  1.00  0.00     0.014 C 
HETATM    9  C9  UNL     1      -6.876  10.127   8.516  1.00  0.00     0.031 C 
HETATM   10  C10 UNL     1      -5.501  10.250   7.823  1.00  0.00    -0.009 C 
HETATM   11  C11 UNL     1      -4.741  11.433   8.280  1.00  0.00     0.018 C 
HETATM   12  C12 UNL     1      -5.962  10.266   6.418  1.00  0.00     0.178 C 
HETATM   13  O2  UNL     1      -7.246   9.725   6.351  1.00  0.00    -0.379 OA
HETATM   14  C13 UNL     1      -7.516   9.159   7.625  1.00  0.00     0.068 C 
HETATM   15  C14 UNL     1      -9.011   9.161   7.784  1.00  0.00     0.047 C 
HETATM   16  C15 UNL     1      -4.879   8.970   8.317  1.00  0.00     0.036 C 
HETATM   17  C16 UNL     1      -3.845   7.094  10.760  1.00  0.00    -0.000 A 
ENDROOT
BRANCH  17  18
HETATM   18  C17 UNL     1      -3.563   6.272  11.961  1.00  0.00     0.005 C 
HETATM   19  C18 UNL     1      -2.272   5.488  11.917  1.00  0.00     0.074 C 
HETATM   20  C19 UNL     1      -1.841   5.335  13.379  1.00  0.00     0.165 C 
HETATM   21  C20 UNL     1      -3.067   4.776  14.110  1.00  0.00     0.069 C 
HETATM   22  O5  UNL     1      -1.440   6.537  13.942  1.00  0.00    -0.319 OA
HETATM   23  C21 UNL     1      -4.001   5.946  14.296  1.00  0.00     0.015 C 
HETATM   24  C22 UNL     1      -3.624   7.045  13.292  1.00  0.00     0.053 C 
HETATM   25  C23 UNL     1      -2.285   7.597  13.583  1.00  0.00     0.172 C 
BRANCH  20  26
HETATM   26  O3  UNL     1      -0.800   4.443  13.414  1.00  0.00    -0.365 OA
ATOM     27  H3  UNL     1      -0.896   3.920  14.202  1.00  0.00     0.213 HD
ENDBRANCH  20  26
BRANCH  25  28
HETATM   28  O4  UNL     1      -1.697   8.074  12.377  1.00  0.00    -0.364 OA
ATOM     29  H4  UNL     1      -0.826   7.706  12.284  1.00  0.00     0.213 HD
ENDBRANCH  25  28
BRANCH  25  30
HETATM   30  C24 UNL     1      -2.135   8.685  14.552  1.00  0.00     0.040 C 
HETATM   31  C25 UNL     1      -1.392   8.373  15.817  1.00  0.00     0.015 C 
HETATM   32  C26 UNL     1      -1.546   9.950  13.965  1.00  0.00     0.015 C 
ENDBRANCH  25  30
ENDBRANCH  17  18
BRANCH   3  33
HETATM   33  O1  UNL     1      -4.871   7.611   6.440  1.00  0.00    -0.389 OA
ATOM     34  H1  UNL     1      -5.427   7.996   5.773  1.00  0.00     0.210 HD
ENDBRANCH   3  33
TORSDOF 5
ENDMDL
