MODEL 1
REMARK VINA RESULT: -7.114874954      0.000      0.000
REMARK  7 active torsions:
REMARK  status: ('A' for Active; 'I' for Inactive)
REMARK    1  A    between atoms: N1_2  and  C2_4 
REMARK    2  A    between atoms: C5_11  and  N4_12 
REMARK    3  A    between atoms: N4_12  and  C6_14 
REMARK    4  A    between atoms: C6_14  and  N5_15 
REMARK    5  A    between atoms: C6_14  and  C8_18 
REMARK    6  A    between atoms: N5_15  and  O1_16 
REMARK       I    between atoms: C8_18  and  N6_20 
REMARK       I    between atoms: N6_20  and  C9_22 
REMARK    7  A    between atoms: C10_27  and  N9_28 
ROOT
HETATM    1  C2  UNL     1       4.149 -31.863 -11.037  1.00  0.00     0.132 A 
HETATM    2  N2  UNL     1       5.318 -32.539 -11.036  1.00  0.00    -0.337 N 
ATOM      3  H2  UNL     1       5.681 -32.915 -11.912  1.00  0.00     0.168 HD
HETATM    4  C3  UNL     1       6.010 -32.723  -9.894  1.00  0.00     0.182 A 
HETATM    5  N3  UNL     1       5.505 -32.214  -8.740  1.00  0.00    -0.347 N 
ATOM      6  H3  UNL     1       6.024 -32.349  -7.872  1.00  0.00     0.167 HD
HETATM    7  C4  UNL     1       4.352 -31.540  -8.705  1.00  0.00     0.109 A 
HETATM    8  C5  UNL     1       3.832 -31.014  -7.507  1.00  0.00     0.148 A 
HETATM    9  N8  UNL     1       2.665 -30.339  -7.510  1.00  0.00    -0.175 N 
ATOM     10  H8  UNL     1       2.295 -29.961  -6.638  1.00  0.00     0.186 HD
HETATM   11  C10 UNL     1       1.982 -30.162  -8.666  1.00  0.00     0.678 A 
HETATM   12  N10 UNL     1       2.469 -30.661  -9.815  1.00  0.00    -0.186 N 
ATOM     13  H10 UNL     1       1.946 -30.522 -10.679  1.00  0.00     0.184 HD
HETATM   14  C11 UNL     1       3.630 -31.338  -9.852  1.00  0.00     0.123 A 
ENDROOT
BRANCH   8  15
HETATM   15  N4  UNL     1       4.545 -31.234  -6.487  1.00  0.00    -0.346 N 
ATOM     16  H4  UNL     1       5.551 -31.208  -6.655  1.00  0.00     0.163 HD
BRANCH  15  17
HETATM   17  C6  UNL     1       4.171 -31.513  -5.137  1.00  0.00     0.298 C 
BRANCH  17  18
HETATM   18  N5  UNL     1       3.025 -30.765  -4.669  1.00  0.00    -0.066 NA
BRANCH  18  19
HETATM   19  O1  UNL     1       3.360 -29.508  -4.355  1.00  0.00    -0.289 OA
HETATM   20  C7  UNL     1       4.453 -29.483  -3.508  1.00  0.00     0.231 C 
ENDBRANCH  18  19
ENDBRANCH  17  18
BRANCH  17  21
HETATM   21  C8  UNL     1       3.875 -32.984  -4.978  1.00  0.00     0.266 C 
HETATM   22  O2  UNL     1       2.821 -33.477  -5.434  1.00  0.00    -0.269 OA
HETATM   23  N6  UNL     1       4.792 -33.830  -4.308  1.00  0.00    -0.279 N 
HETATM   24  C9  UNL     1       4.488 -35.209  -4.173  1.00  0.00     0.335 C 
ATOM     25  H6  UNL     1       5.659 -33.452  -3.926  1.00  0.00     0.173 HD
HETATM   26  N7  UNL     1       5.396 -36.072  -3.504  1.00  0.00    -0.040 NA
HETATM   27  O3  UNL     1       3.408 -35.653  -4.654  1.00  0.00    -0.251 OA
ENDBRANCH  17  21
ENDBRANCH  15  17
ENDBRANCH   8  15
BRANCH  11  28
HETATM   28  N9  UNL     1       0.857 -29.509  -8.655  1.00  0.00    -0.234 N 
ATOM     29  H92 UNL     1       0.834 -28.516  -8.890  1.00  0.00     0.174 HD
ATOM     30  H91 UNL     1      -0.006 -29.993  -8.409  1.00  0.00     0.174 HD
ENDBRANCH  11  28
BRANCH   1  31
HETATM   31  N1  UNL     1       3.451 -31.660 -12.102  1.00  0.00    -0.379 N 
HETATM   32  C1  UNL     1       4.043 -32.000 -13.378  1.00  0.00     0.147 C 
ATOM     33  H1  UNL     1       2.509 -31.272 -12.047  1.00  0.00     0.160 HD
ENDBRANCH   1  31
TORSDOF 7
ENDMDL
MODEL 2
REMARK VINA RESULT: -7.105798324      1.688      2.390
REMARK  7 active torsions:
REMARK  status: ('A' for Active; 'I' for Inactive)
REMARK    1  A    between atoms: N1_2  and  C2_4 
REMARK    2  A    between atoms: C5_11  and  N4_12 
REMARK    3  A    between atoms: N4_12  and  C6_14 
REMARK    4  A    between atoms: C6_14  and  N5_15 
REMARK    5  A    between atoms: C6_14  and  C8_18 
REMARK    6  A    between atoms: N5_15  and  O1_16 
REMARK       I    between atoms: C8_18  and  N6_20 
REMARK       I    between atoms: N6_20  and  C9_22 
REMARK    7  A    between atoms: C10_27  and  N9_28 
ROOT
HETATM    1  C2  UNL     1       4.745 -32.011 -13.184  1.00  0.00     0.132 A 
HETATM    2  N2  UNL     1       6.038 -32.382 -13.066  1.00  0.00    -0.337 N 
ATOM      3  H2  UNL     1       6.528 -32.761 -13.876  1.00  0.00     0.168 HD
HETATM    4  C3  UNL     1       6.689 -32.258 -11.891  1.00  0.00     0.182 A 
HETATM    5  N3  UNL     1       6.015 -31.752 -10.826  1.00  0.00    -0.347 N 
ATOM      6  H3  UNL     1       6.501 -31.655  -9.935  1.00  0.00     0.167 HD
HETATM    7  C4  UNL     1       4.735 -31.375 -10.909  1.00  0.00     0.109 A 
HETATM    8  C5  UNL     1       4.039 -30.851  -9.802  1.00  0.00     0.148 A 
HETATM    9  N8  UNL     1       2.749 -30.481  -9.923  1.00  0.00    -0.175 N 
ATOM     10  H8  UNL     1       2.253 -30.102  -9.116  1.00  0.00     0.186 HD
HETATM   11  C10 UNL     1       2.110 -30.611 -11.109  1.00  0.00     0.678 A 
HETATM   12  N10 UNL     1       2.764 -31.111 -12.172  1.00  0.00    -0.186 N 
ATOM     13  H10 UNL     1       2.273 -31.206 -13.060  1.00  0.00     0.184 HD
HETATM   14  C11 UNL     1       4.052 -31.490 -12.091  1.00  0.00     0.123 A 
ENDROOT
BRANCH   8  15
HETATM   15  N4  UNL     1       4.726 -30.771  -8.744  1.00  0.00    -0.346 N 
ATOM     16  H4  UNL     1       5.720 -30.967  -8.864  1.00  0.00     0.163 HD
BRANCH  15  17
HETATM   17  C6  UNL     1       4.336 -30.450  -7.408  1.00  0.00     0.298 C 
BRANCH  17  18
HETATM   18  N5  UNL     1       3.536 -29.250  -7.293  1.00  0.00    -0.066 NA
BRANCH  18  19
HETATM   19  O1  UNL     1       3.756 -28.630  -6.128  1.00  0.00    -0.289 OA
HETATM   20  C7  UNL     1       5.101 -28.640  -5.806  1.00  0.00     0.231 C 
ENDBRANCH  18  19
ENDBRANCH  17  18
BRANCH  17  21
HETATM   21  C8  UNL     1       3.561 -31.598  -6.808  1.00  0.00     0.266 C 
HETATM   22  O2  UNL     1       2.477 -31.968  -7.310  1.00  0.00    -0.269 OA
HETATM   23  N6  UNL     1       4.052 -32.273  -5.665  1.00  0.00    -0.279 N 
HETATM   24  C9  UNL     1       3.303 -33.348  -5.123  1.00  0.00     0.335 C 
ATOM     25  H6  UNL     1       4.934 -31.990  -5.237  1.00  0.00     0.173 HD
HETATM   26  N7  UNL     1       3.781 -34.037  -3.976  1.00  0.00    -0.040 NA
HETATM   27  O3  UNL     1       2.214 -33.680  -5.670  1.00  0.00    -0.251 OA
ENDBRANCH  17  21
ENDBRANCH  15  17
ENDBRANCH   8  15
BRANCH  11  28
HETATM   28  N9  UNL     1       0.864 -30.251 -11.212  1.00  0.00    -0.234 N 
ATOM     29  H92 UNL     1       0.412 -29.733 -10.458  1.00  0.00     0.174 HD
ATOM     30  H91 UNL     1       0.337 -30.487 -12.053  1.00  0.00     0.174 HD
ENDBRANCH  11  28
BRANCH   1  31
HETATM   31  N1  UNL     1       4.080 -32.110 -14.284  1.00  0.00    -0.379 N 
HETATM   32  C1  UNL     1       4.821 -32.123 -15.528  1.00  0.00     0.147 C 
ATOM     33  H1  UNL     1       3.062 -32.177 -14.278  1.00  0.00     0.160 HD
ENDBRANCH   1  31
TORSDOF 7
ENDMDL
MODEL 3
REMARK VINA RESULT: -6.965645035      1.780      2.840
REMARK  7 active torsions:
REMARK  status: ('A' for Active; 'I' for Inactive)
REMARK    1  A    between atoms: N1_2  and  C2_4 
REMARK    2  A    between atoms: C5_11  and  N4_12 
REMARK    3  A    between atoms: N4_12  and  C6_14 
REMARK    4  A    between atoms: C6_14  and  N5_15 
REMARK    5  A    between atoms: C6_14  and  C8_18 
REMARK    6  A    between atoms: N5_15  and  O1_16 
REMARK       I    between atoms: C8_18  and  N6_20 
REMARK       I    between atoms: N6_20  and  C9_22 
REMARK    7  A    between atoms: C10_27  and  N9_28 
ROOT
HETATM    1  C2  UNL     1       4.000 -31.499 -11.177  1.00  0.00     0.132 A 
HETATM    2  N2  UNL     1       5.189 -32.100 -10.956  1.00  0.00    -0.337 N 
ATOM      3  H2  UNL     1       5.671 -32.558 -11.729  1.00  0.00     0.168 HD
HETATM    4  C3  UNL     1       5.746 -32.102  -9.729  1.00  0.00     0.182 A 
HETATM    5  N3  UNL     1       5.085 -31.485  -8.715  1.00  0.00    -0.347 N 
ATOM      6  H3  UNL     1       5.501 -31.482  -7.783  1.00  0.00     0.167 HD
HETATM    7  C4  UNL     1       3.907 -30.881  -8.898  1.00  0.00     0.109 A 
HETATM    8  C5  UNL     1       3.224 -30.243  -7.845  1.00  0.00     0.148 A 
HETATM    9  N8  UNL     1       2.038 -29.644  -8.067  1.00  0.00    -0.175 N 
ATOM     10  H8  UNL     1       1.550 -29.184  -7.298  1.00  0.00     0.186 HD
HETATM   11  C10 UNL     1       1.491 -29.650  -9.306  1.00  0.00     0.678 A 
HETATM   12  N10 UNL     1       2.135 -30.257 -10.319  1.00  0.00    -0.186 N 
ATOM     13  H10 UNL     1       1.713 -30.256 -11.247  1.00  0.00     0.184 HD
HETATM   14  C11 UNL     1       3.320 -30.864 -10.136  1.00  0.00     0.123 A 
ENDROOT
BRANCH   8  15
HETATM   15  N4  UNL     1       3.819 -30.294  -6.731  1.00  0.00    -0.346 N 
ATOM     16  H4  UNL     1       4.599 -29.644  -6.633  1.00  0.00     0.163 HD
BRANCH  15  17
HETATM   17  C6  UNL     1       3.576 -31.114  -5.587  1.00  0.00     0.298 C 
BRANCH  17  18
HETATM   18  N5  UNL     1       4.084 -32.464  -5.702  1.00  0.00    -0.066 NA
BRANCH  18  19
HETATM   19  O1  UNL     1       5.392 -32.468  -5.979  1.00  0.00    -0.289 OA
HETATM   20  C7  UNL     1       5.919 -33.742  -5.865  1.00  0.00     0.231 C 
ENDBRANCH  18  19
ENDBRANCH  17  18
BRANCH  17  21
HETATM   21  C8  UNL     1       4.185 -30.480  -4.360  1.00  0.00     0.266 C 
HETATM   22  O2  UNL     1       4.280 -29.238  -4.264  1.00  0.00    -0.269 OA
HETATM   23  N6  UNL     1       4.658 -31.287  -3.298  1.00  0.00    -0.279 N 
HETATM   24  C9  UNL     1       5.225 -30.664  -2.156  1.00  0.00     0.335 C 
ATOM     25  H6  UNL     1       4.592 -32.304  -3.352  1.00  0.00     0.173 HD
HETATM   26  N7  UNL     1       5.705 -31.459  -1.081  1.00  0.00    -0.040 NA
HETATM   27  O3  UNL     1       5.297 -29.405  -2.112  1.00  0.00    -0.251 OA
ENDBRANCH  17  21
ENDBRANCH  15  17
ENDBRANCH   8  15
BRANCH  11  28
HETATM   28  N9  UNL     1       0.346 -29.068  -9.507  1.00  0.00    -0.234 N 
ATOM     29  H92 UNL     1      -0.377 -29.086  -8.787  1.00  0.00     0.174 HD
ATOM     30  H91 UNL     1       0.170 -28.590 -10.391  1.00  0.00     0.174 HD
ENDBRANCH  11  28
BRANCH   1  31
HETATM   31  N1  UNL     1       3.427 -31.469 -12.331  1.00  0.00    -0.379 N 
HETATM   32  C1  UNL     1       4.128 -32.054 -13.454  1.00  0.00     0.147 C 
ATOM     33  H1  UNL     1       2.506 -31.047 -12.450  1.00  0.00     0.160 HD
ENDBRANCH   1  31
TORSDOF 7
ENDMDL
MODEL 4
REMARK VINA RESULT: -6.859183554      2.099      3.197
REMARK  7 active torsions:
REMARK  status: ('A' for Active; 'I' for Inactive)
REMARK    1  A    between atoms: N1_2  and  C2_4 
REMARK    2  A    between atoms: C5_11  and  N4_12 
REMARK    3  A    between atoms: N4_12  and  C6_14 
REMARK    4  A    between atoms: C6_14  and  N5_15 
REMARK    5  A    between atoms: C6_14  and  C8_18 
REMARK    6  A    between atoms: N5_15  and  O1_16 
REMARK       I    between atoms: C8_18  and  N6_20 
REMARK       I    between atoms: N6_20  and  C9_22 
REMARK    7  A    between atoms: C10_27  and  N9_28 
ROOT
HETATM    1  C2  UNL     1       4.055 -31.918 -11.126  1.00  0.00     0.132 A 
HETATM    2  N2  UNL     1       5.270 -32.485 -10.971  1.00  0.00    -0.337 N 
ATOM      3  H2  UNL     1       5.636 -33.096 -11.701  1.00  0.00     0.168 HD
HETATM    4  C3  UNL     1       6.006 -32.253  -9.865  1.00  0.00     0.182 A 
HETATM    5  N3  UNL     1       5.498 -31.436  -8.907  1.00  0.00    -0.347 N 
ATOM      6  H3  UNL     1       6.050 -31.256  -8.068  1.00  0.00     0.167 HD
HETATM    7  C4  UNL     1       4.298 -30.859  -9.028  1.00  0.00     0.109 A 
HETATM    8  C5  UNL     1       3.774 -30.013  -8.032  1.00  0.00     0.148 A 
HETATM    9  N8  UNL     1       2.561 -29.448  -8.188  1.00  0.00    -0.175 N 
ATOM     10  H8  UNL     1       2.189 -28.836  -7.462  1.00  0.00     0.186 HD
HETATM   11  C10 UNL     1       1.834 -29.689  -9.305  1.00  0.00     0.678 A 
HETATM   12  N10 UNL     1       2.325 -30.496 -10.262  1.00  0.00    -0.186 N 
ATOM     13  H10 UNL     1       1.769 -30.672 -11.098  1.00  0.00     0.184 HD
HETATM   14  C11 UNL     1       3.531 -31.077 -10.142  1.00  0.00     0.123 A 
ENDROOT
BRANCH   8  15
HETATM   15  N4  UNL     1       4.531 -29.853  -7.032  1.00  0.00    -0.346 N 
ATOM     16  H4  UNL     1       5.526 -29.967  -7.226  1.00  0.00     0.163 HD
BRANCH  15  17
HETATM   17  C6  UNL     1       4.218 -29.538  -5.674  1.00  0.00     0.298 C 
BRANCH  17  18
HETATM   18  N5  UNL     1       3.254 -30.426  -5.063  1.00  0.00    -0.066 NA
BRANCH  18  19
HETATM   19  O1  UNL     1       3.752 -31.659  -4.920  1.00  0.00    -0.289 OA
HETATM   20  C7  UNL     1       2.866 -32.610  -5.394  1.00  0.00     0.231 C 
ENDBRANCH  18  19
ENDBRANCH  17  18
BRANCH  17  21
HETATM   21  C8  UNL     1       5.476 -29.554  -4.839  1.00  0.00     0.266 C 
HETATM   22  O2  UNL     1       6.599 -29.650  -5.379  1.00  0.00    -0.269 OA
HETATM   23  N6  UNL     1       5.399 -29.459  -3.429  1.00  0.00    -0.279 N 
HETATM   24  C9  UNL     1       6.597 -29.476  -2.669  1.00  0.00     0.335 C 
ATOM     25  H6  UNL     1       4.494 -29.379  -2.965  1.00  0.00     0.173 HD
HETATM   26  N7  UNL     1       6.539 -29.381  -1.254  1.00  0.00    -0.040 NA
HETATM   27  O3  UNL     1       7.705 -29.575  -3.266  1.00  0.00    -0.251 OA
ENDBRANCH  17  21
ENDBRANCH  15  17
ENDBRANCH   8  15
BRANCH  11  28
HETATM   28  N9  UNL     1       0.665 -29.138  -9.444  1.00  0.00    -0.234 N 
ATOM     29  H92 UNL     1      -0.185 -29.678  -9.277  1.00  0.00     0.174 HD
ATOM     30  H91 UNL     1       0.597 -28.158  -9.722  1.00  0.00     0.174 HD
ENDBRANCH  11  28
BRANCH   1  31
HETATM   31  N1  UNL     1       3.314 -32.107 -12.164  1.00  0.00    -0.379 N 
HETATM   32  C1  UNL     1       3.947 -32.083 -13.465  1.00  0.00     0.147 C 
ATOM     33  H1  UNL     1       2.311 -32.270 -12.071  1.00  0.00     0.160 HD
ENDBRANCH   1  31
TORSDOF 7
ENDMDL
MODEL 5
REMARK VINA RESULT: -6.777261678      2.234      2.814
REMARK  7 active torsions:
REMARK  status: ('A' for Active; 'I' for Inactive)
REMARK    1  A    between atoms: N1_2  and  C2_4 
REMARK    2  A    between atoms: C5_11  and  N4_12 
REMARK    3  A    between atoms: N4_12  and  C6_14 
REMARK    4  A    between atoms: C6_14  and  N5_15 
REMARK    5  A    between atoms: C6_14  and  C8_18 
REMARK    6  A    between atoms: N5_15  and  O1_16 
REMARK       I    between atoms: C8_18  and  N6_20 
REMARK       I    between atoms: N6_20  and  C9_22 
REMARK    7  A    between atoms: C10_27  and  N9_28 
ROOT
HETATM    1  C2  UNL     1       4.475 -31.968 -12.599  1.00  0.00     0.132 A 
HETATM    2  N2  UNL     1       5.752 -32.390 -12.483  1.00  0.00    -0.337 N 
ATOM      3  H2  UNL     1       6.204 -32.849 -13.275  1.00  0.00     0.168 HD
HETATM    4  C3  UNL     1       6.438 -32.214 -11.336  1.00  0.00     0.182 A 
HETATM    5  N3  UNL     1       5.815 -31.601 -10.295  1.00  0.00    -0.347 N 
ATOM      6  H3  UNL     1       6.329 -31.464  -9.425  1.00  0.00     0.167 HD
HETATM    7  C4  UNL     1       4.552 -31.172 -10.376  1.00  0.00     0.109 A 
HETATM    8  C5  UNL     1       3.910 -30.538  -9.295  1.00  0.00     0.148 A 
HETATM    9  N8  UNL     1       2.635 -30.118  -9.413  1.00  0.00    -0.175 N 
ATOM     10  H8  UNL     1       2.177 -29.660  -8.625  1.00  0.00     0.186 HD
HETATM   11  C10 UNL     1       1.960 -30.302 -10.572  1.00  0.00     0.678 A 
HETATM   12  N10 UNL     1       2.563 -30.907 -11.610  1.00  0.00    -0.186 N 
ATOM     13  H10 UNL     1       2.045 -31.041 -12.478  1.00  0.00     0.184 HD
HETATM   14  C11 UNL     1       3.834 -31.339 -11.531  1.00  0.00     0.123 A 
ENDROOT
BRANCH   8  15
HETATM   15  N4  UNL     1       4.626 -30.415  -8.262  1.00  0.00    -0.346 N 
ATOM     16  H4  UNL     1       5.611 -30.645  -8.394  1.00  0.00     0.163 HD
BRANCH  15  17
HETATM   17  C6  UNL     1       4.281 -30.007  -6.937  1.00  0.00     0.298 C 
BRANCH  17  18
HETATM   18  N5  UNL     1       3.153 -30.714  -6.371  1.00  0.00    -0.066 NA
BRANCH  18  19
HETATM   19  O1  UNL     1       3.151 -30.635  -5.035  1.00  0.00    -0.289 OA
HETATM   20  C7  UNL     1       2.399 -31.654  -4.479  1.00  0.00     0.231 C 
ENDBRANCH  18  19
ENDBRANCH  17  18
BRANCH  17  21
HETATM   21  C8  UNL     1       5.464 -30.186  -6.018  1.00  0.00     0.266 C 
HETATM   22  O2  UNL     1       6.106 -29.197  -5.604  1.00  0.00    -0.269 OA
HETATM   23  N6  UNL     1       5.864 -31.481  -5.610  1.00  0.00    -0.279 N 
HETATM   24  C9  UNL     1       6.980 -31.619  -4.744  1.00  0.00     0.335 C 
ATOM     25  H6  UNL     1       5.356 -32.305  -5.934  1.00  0.00     0.173 HD
HETATM   26  N7  UNL     1       7.395 -32.911  -4.325  1.00  0.00    -0.040 NA
HETATM   27  O3  UNL     1       7.592 -30.585  -4.357  1.00  0.00    -0.251 OA
ENDBRANCH  17  21
ENDBRANCH  15  17
ENDBRANCH   8  15
BRANCH  11  28
HETATM   28  N9  UNL     1       0.729 -29.892 -10.673  1.00  0.00    -0.234 N 
ATOM     29  H92 UNL     1       0.077 -30.020  -9.899  1.00  0.00     0.174 HD
ATOM     30  H91 UNL     1       0.416 -29.440 -11.532  1.00  0.00     0.174 HD
ENDBRANCH  11  28
BRANCH   1  31
HETATM   31  N1  UNL     1       3.778 -32.114 -13.674  1.00  0.00    -0.379 N 
HETATM   32  C1  UNL     1       4.465 -32.036 -14.946  1.00  0.00     0.147 C 
ATOM     33  H1  UNL     1       2.772 -32.279 -13.630  1.00  0.00     0.160 HD
ENDBRANCH   1  31
TORSDOF 7
ENDMDL
