MODEL 1
REMARK VINA RESULT: -6.533694084      0.000      0.000
REMARK  9 active torsions:
REMARK  status: ('A' for Active; 'I' for Inactive)
REMARK    1  A    between atoms: C2_2  and  C3_3 
REMARK    2  A    between atoms: C2_2  and  S1_28 
REMARK    3  A    between atoms: C3_3  and  C4_4 
REMARK    4  A    between atoms: C4_4  and  N1_5 
REMARK    5  A    between atoms: C4_4  and  C5_9 
REMARK       I    between atoms: C5_9  and  N2_11 
REMARK    6  A    between atoms: N2_11  and  N3_13 
REMARK       I    between atoms: N3_13  and  C6_15 
REMARK    7  A    between atoms: C6_15  and  C7_17 
REMARK    8  A    between atoms: S1_28  and  N7_29 
REMARK    9  A    between atoms: N7_29  and  N8_30 
ROOT
HETATM    1  C5  UNL     1       4.471 -31.643 -14.962  1.00  0.00     0.266 C 
HETATM    2  O1  UNL     1       4.315 -30.431 -15.242  1.00  0.00    -0.269 OA
HETATM    3  N2  UNL     1       3.980 -32.124 -13.725  1.00  0.00    -0.265 N 
ATOM      4  H2  UNL     1       4.119 -33.114 -13.523  1.00  0.00     0.190 HD
ENDROOT
BRANCH   3   5
HETATM    5  N3  UNL     1       3.331 -31.375 -12.766  1.00  0.00    -0.261 N 
HETATM    6  C6  UNL     1       3.782 -31.349 -11.435  1.00  0.00     0.304 C 
HETATM    7  O2  UNL     1       4.790 -32.019 -11.116  1.00  0.00    -0.263 OA
ATOM      8  H3  UNL     1       2.510 -30.829 -13.028  1.00  0.00     0.190 HD
BRANCH   6   9
HETATM    9  C7  UNL     1       3.119 -30.566 -10.392  1.00  0.00     0.184 A 
HETATM   10  N4  UNL     1       1.844 -30.139 -10.530  1.00  0.00    -0.290 N 
HETATM   11  C8  UNL     1       1.260 -29.421  -9.557  1.00  0.00     0.329 A 
ATOM     12  H4  UNL     1       1.322 -30.364 -11.377  1.00  0.00     0.172 HD
HETATM   13  O3  UNL     1       0.056 -29.048  -9.744  1.00  0.00    -0.246 OA
HETATM   14  N5  UNL     1       1.898 -29.096  -8.420  1.00  0.00    -0.260 N 
HETATM   15  C9  UNL     1       3.164 -29.519  -8.282  1.00  0.00     0.329 A 
ATOM     16  H5  UNL     1       1.439 -28.550  -7.692  1.00  0.00     0.175 HD
HETATM   17  O4  UNL     1       3.786 -29.220  -7.210  1.00  0.00    -0.246 OA
HETATM   18  N6  UNL     1       3.752 -30.238  -9.252  1.00  0.00    -0.290 N 
ATOM     19  H6  UNL     1       4.716 -30.546  -9.120  1.00  0.00     0.172 HD
ENDBRANCH   6   9
ENDBRANCH   3   5
BRANCH   1  20
HETATM   20  C4  UNL     1       5.149 -32.512 -15.918  1.00  0.00     0.277 C 
BRANCH  20  21
HETATM   21  C3  UNL     1       6.556 -32.063 -16.242  1.00  0.00     0.059 C 
BRANCH  21  22
HETATM   22  C2  UNL     1       7.426 -32.133 -15.043  1.00  0.00     0.065 C 
HETATM   23  C1  UNL     1       7.693 -33.451 -14.410  1.00  0.00     0.022 C 
BRANCH  22  24
HETATM   24  S1  UNL     1       8.112 -30.841 -14.379  1.00  0.00    -0.037 SA
BRANCH  24  25
HETATM   25  N7  UNL     1       7.175 -30.219 -13.064  1.00  0.00    -0.073 NA
BRANCH  25  26
HETATM   26  N8  UNL     1       6.410 -29.118 -13.420  1.00  0.00    -0.338 N 
ATOM     27  H82 UNL     1       5.820 -29.104 -14.252  1.00  0.00     0.173 HD
ATOM     28  H81 UNL     1       6.504 -28.342 -12.766  1.00  0.00     0.173 HD
ENDBRANCH  25  26
ENDBRANCH  24  25
ENDBRANCH  22  24
ENDBRANCH  21  22
ENDBRANCH  20  21
BRANCH  20  29
HETATM   29  N1  UNL     1       4.361 -32.696 -17.099  1.00  0.00    -0.066 N 
ATOM     30  H13 UNL     1       4.405 -31.878 -17.705  1.00  0.00     0.275 HD
ATOM     31  H12 UNL     1       4.785 -33.383 -17.724  1.00  0.00     0.275 HD
ATOM     32  H11 UNL     1       3.396 -32.942 -16.878  1.00  0.00     0.275 HD
ENDBRANCH  20  29
ENDBRANCH   1  20
TORSDOF 9
ENDMDL
MODEL 2
REMARK VINA RESULT: -6.517517415      0.030      1.676
REMARK  9 active torsions:
REMARK  status: ('A' for Active; 'I' for Inactive)
REMARK    1  A    between atoms: C2_2  and  C3_3 
REMARK    2  A    between atoms: C2_2  and  S1_28 
REMARK    3  A    between atoms: C3_3  and  C4_4 
REMARK    4  A    between atoms: C4_4  and  N1_5 
REMARK    5  A    between atoms: C4_4  and  C5_9 
REMARK       I    between atoms: C5_9  and  N2_11 
REMARK    6  A    between atoms: N2_11  and  N3_13 
REMARK       I    between atoms: N3_13  and  C6_15 
REMARK    7  A    between atoms: C6_15  and  C7_17 
REMARK    8  A    between atoms: S1_28  and  N7_29 
REMARK    9  A    between atoms: N7_29  and  N8_30 
ROOT
HETATM    1  C5  UNL     1       4.469 -31.642 -14.962  1.00  0.00     0.266 C 
HETATM    2  O1  UNL     1       4.337 -30.425 -15.234  1.00  0.00    -0.269 OA
HETATM    3  N2  UNL     1       3.966 -32.122 -13.729  1.00  0.00    -0.265 N 
ATOM      4  H2  UNL     1       4.085 -33.115 -13.533  1.00  0.00     0.190 HD
ENDROOT
BRANCH   3   5
HETATM    5  N3  UNL     1       3.327 -31.366 -12.767  1.00  0.00    -0.261 N 
HETATM    6  C6  UNL     1       3.767 -31.367 -11.432  1.00  0.00     0.304 C 
HETATM    7  O2  UNL     1       4.755 -32.066 -11.112  1.00  0.00    -0.263 OA
ATOM      8  H3  UNL     1       2.523 -30.797 -13.030  1.00  0.00     0.190 HD
BRANCH   6   9
HETATM    9  C7  UNL     1       3.115 -30.579 -10.386  1.00  0.00     0.184 A 
HETATM   10  N4  UNL     1       3.759 -30.245  -9.245  1.00  0.00    -0.290 N 
HETATM   11  C8  UNL     1       3.135 -29.521  -8.301  1.00  0.00     0.329 A 
ATOM     12  H4  UNL     1       4.723 -30.545  -9.100  1.00  0.00     0.172 HD
HETATM   13  O3  UNL     1       3.794 -29.238  -7.248  1.00  0.00    -0.246 OA
HETATM   14  N5  UNL     1       1.867 -29.100  -8.439  1.00  0.00    -0.260 N 
HETATM   15  C9  UNL     1       1.227 -29.430  -9.570  1.00  0.00     0.329 A 
ATOM     16  H5  UNL     1       1.409 -28.550  -7.711  1.00  0.00     0.175 HD
HETATM   17  O4  UNL     1       0.023 -29.039  -9.718  1.00  0.00    -0.246 OA
HETATM   18  N6  UNL     1       1.846 -30.154 -10.517  1.00  0.00    -0.290 N 
ATOM     19  H6  UNL     1       1.334 -30.390 -11.368  1.00  0.00     0.172 HD
ENDBRANCH   6   9
ENDBRANCH   3   5
BRANCH   1  20
HETATM   20  C4  UNL     1       5.134 -32.517 -15.921  1.00  0.00     0.277 C 
BRANCH  20  21
HETATM   21  C3  UNL     1       6.542 -32.079 -16.256  1.00  0.00     0.059 C 
BRANCH  21  22
HETATM   22  C2  UNL     1       7.417 -32.143 -15.059  1.00  0.00     0.065 C 
HETATM   23  C1  UNL     1       7.707 -33.460 -14.437  1.00  0.00     0.022 C 
BRANCH  22  24
HETATM   24  S1  UNL     1       8.084 -30.844 -14.389  1.00  0.00    -0.037 SA
BRANCH  24  25
HETATM   25  N7  UNL     1       7.140 -30.245 -13.068  1.00  0.00    -0.073 NA
BRANCH  25  26
HETATM   26  N8  UNL     1       6.412 -29.111 -13.395  1.00  0.00    -0.338 N 
ATOM     27  H82 UNL     1       6.580 -28.576 -14.246  1.00  0.00     0.173 HD
ATOM     28  H81 UNL     1       5.703 -28.881 -12.698  1.00  0.00     0.173 HD
ENDBRANCH  25  26
ENDBRANCH  24  25
ENDBRANCH  22  24
ENDBRANCH  21  22
ENDBRANCH  20  21
BRANCH  20  29
HETATM   29  N1  UNL     1       4.336 -32.697 -17.096  1.00  0.00    -0.066 N 
ATOM     30  H13 UNL     1       4.425 -31.903 -17.730  1.00  0.00     0.275 HD
ATOM     31  H12 UNL     1       4.720 -33.427 -17.697  1.00  0.00     0.275 HD
ATOM     32  H11 UNL     1       3.359 -32.881 -16.869  1.00  0.00     0.275 HD
ENDBRANCH  20  29
ENDBRANCH   1  20
TORSDOF 9
ENDMDL
MODEL 3
REMARK VINA RESULT: -6.279335715      4.739      8.934
REMARK  9 active torsions:
REMARK  status: ('A' for Active; 'I' for Inactive)
REMARK    1  A    between atoms: C2_2  and  C3_3 
REMARK    2  A    between atoms: C2_2  and  S1_28 
REMARK    3  A    between atoms: C3_3  and  C4_4 
REMARK    4  A    between atoms: C4_4  and  N1_5 
REMARK    5  A    between atoms: C4_4  and  C5_9 
REMARK       I    between atoms: C5_9  and  N2_11 
REMARK    6  A    between atoms: N2_11  and  N3_13 
REMARK       I    between atoms: N3_13  and  C6_15 
REMARK    7  A    between atoms: C6_15  and  C7_17 
REMARK    8  A    between atoms: S1_28  and  N7_29 
REMARK    9  A    between atoms: N7_29  and  N8_30 
ROOT
HETATM    1  C5  UNL     1       4.319 -29.480  -3.817  1.00  0.00     0.266 C 
HETATM    2  O1  UNL     1       3.127 -29.857  -3.714  1.00  0.00    -0.269 OA
HETATM    3  N2  UNL     1       4.785 -29.035  -5.078  1.00  0.00    -0.265 N 
ATOM      4  H2  UNL     1       5.758 -28.733  -5.134  1.00  0.00     0.190 HD
ENDROOT
BRANCH   3   5
HETATM    5  N3  UNL     1       4.042 -28.973  -6.238  1.00  0.00    -0.261 N 
HETATM    6  C6  UNL     1       3.861 -30.109  -7.047  1.00  0.00     0.304 C 
HETATM    7  O2  UNL     1       4.384 -31.194  -6.707  1.00  0.00    -0.263 OA
ATOM      8  H3  UNL     1       3.617 -28.088  -6.514  1.00  0.00     0.190 HD
BRANCH   6   9
HETATM    9  C7  UNL     1       3.080 -30.080  -8.284  1.00  0.00     0.184 A 
HETATM   10  N4  UNL     1       3.543 -30.634  -9.427  1.00  0.00    -0.290 N 
HETATM   11  C8  UNL     1       2.804 -30.592 -10.548  1.00  0.00     0.329 A 
ATOM     12  H4  UNL     1       4.457 -31.086  -9.438  1.00  0.00     0.172 HD
HETATM   13  O3  UNL     1       3.294 -31.132 -11.593  1.00  0.00    -0.246 OA
HETATM   14  N5  UNL     1       1.594 -30.010 -10.592  1.00  0.00    -0.260 N 
HETATM   15  C9  UNL     1       1.134 -29.460  -9.458  1.00  0.00     0.329 A 
ATOM     16  H5  UNL     1       1.047 -29.988 -11.452  1.00  0.00     0.175 HD
HETATM   17  O4  UNL     1      -0.012 -28.903  -9.481  1.00  0.00    -0.246 OA
HETATM   18  N6  UNL     1       1.868 -29.499  -8.334  1.00  0.00    -0.290 N 
ATOM     19  H6  UNL     1       1.493 -29.072  -7.487  1.00  0.00     0.172 HD
ENDBRANCH   6   9
ENDBRANCH   3   5
BRANCH   1  20
HETATM   20  C4  UNL     1       5.180 -29.513  -2.640  1.00  0.00     0.277 C 
BRANCH  20  21
HETATM   21  C3  UNL     1       5.513 -30.914  -2.180  1.00  0.00     0.059 C 
BRANCH  21  22
HETATM   22  C2  UNL     1       6.401 -31.596  -3.154  1.00  0.00     0.065 C 
HETATM   23  C1  UNL     1       7.713 -30.987  -3.496  1.00  0.00     0.022 C 
BRANCH  22  24
HETATM   24  S1  UNL     1       6.020 -32.982  -3.869  1.00  0.00    -0.037 SA
BRANCH  24  25
HETATM   25  N7  UNL     1       4.438 -33.524  -3.421  1.00  0.00    -0.073 NA
BRANCH  25  26
HETATM   26  N8  UNL     1       3.434 -32.944  -4.180  1.00  0.00    -0.338 N 
ATOM     27  H82 UNL     1       3.081 -33.363  -5.040  1.00  0.00     0.173 HD
ATOM     28  H81 UNL     1       3.096 -32.066  -3.786  1.00  0.00     0.173 HD
ENDBRANCH  25  26
ENDBRANCH  24  25
ENDBRANCH  22  24
ENDBRANCH  21  22
ENDBRANCH  20  21
BRANCH  20  29
HETATM   29  N1  UNL     1       4.637 -28.717  -1.581  1.00  0.00    -0.066 N 
ATOM     30  H13 UNL     1       4.953 -29.049  -0.669  1.00  0.00     0.275 HD
ATOM     31  H12 UNL     1       5.053 -27.786  -1.567  1.00  0.00     0.275 HD
ATOM     32  H11 UNL     1       3.619 -28.668  -1.624  1.00  0.00     0.275 HD
ENDBRANCH  20  29
ENDBRANCH   1  20
TORSDOF 9
ENDMDL
MODEL 4
REMARK VINA RESULT: -6.213180978      3.425      8.075
REMARK  9 active torsions:
REMARK  status: ('A' for Active; 'I' for Inactive)
REMARK    1  A    between atoms: C2_2  and  C3_3 
REMARK    2  A    between atoms: C2_2  and  S1_28 
REMARK    3  A    between atoms: C3_3  and  C4_4 
REMARK    4  A    between atoms: C4_4  and  N1_5 
REMARK    5  A    between atoms: C4_4  and  C5_9 
REMARK       I    between atoms: C5_9  and  N2_11 
REMARK    6  A    between atoms: N2_11  and  N3_13 
REMARK       I    between atoms: N3_13  and  C6_15 
REMARK    7  A    between atoms: C6_15  and  C7_17 
REMARK    8  A    between atoms: S1_28  and  N7_29 
REMARK    9  A    between atoms: N7_29  and  N8_30 
ROOT
HETATM    1  C5  UNL     1       4.211 -31.709 -13.032  1.00  0.00     0.266 C 
HETATM    2  O1  UNL     1       5.223 -32.449 -12.986  1.00  0.00    -0.269 OA
HETATM    3  N2  UNL     1       3.785 -31.217 -14.289  1.00  0.00    -0.265 N 
ATOM      4  H2  UNL     1       2.959 -30.619 -14.299  1.00  0.00     0.190 HD
ENDROOT
BRANCH   3   5
HETATM    5  N3  UNL     1       4.386 -31.474 -15.504  1.00  0.00    -0.261 N 
HETATM    6  C6  UNL     1       4.347 -30.534 -16.548  1.00  0.00     0.304 C 
HETATM    7  O2  UNL     1       3.755 -29.445 -16.370  1.00  0.00    -0.263 OA
ATOM      8  H3  UNL     1       4.868 -32.362 -15.646  1.00  0.00     0.190 HD
BRANCH   6   9
HETATM    9  C7  UNL     1       4.972 -30.772 -17.849  1.00  0.00     0.184 A 
HETATM   10  N4  UNL     1       4.899 -31.975 -18.460  1.00  0.00    -0.290 N 
HETATM   11  C8  UNL     1       5.484 -32.166 -19.654  1.00  0.00     0.329 A 
ATOM     12  H4  UNL     1       4.397 -32.742 -18.013  1.00  0.00     0.172 HD
HETATM   13  O3  UNL     1       5.380 -33.321 -20.181  1.00  0.00    -0.246 OA
HETATM   14  N5  UNL     1       6.158 -31.192 -20.289  1.00  0.00    -0.260 N 
HETATM   15  C9  UNL     1       6.231 -29.998 -19.683  1.00  0.00     0.329 A 
ATOM     16  H5  UNL     1       6.596 -31.355 -21.196  1.00  0.00     0.175 HD
HETATM   17  O4  UNL     1       6.867 -29.062 -20.271  1.00  0.00    -0.246 OA
HETATM   18  N6  UNL     1       5.648 -29.802 -18.490  1.00  0.00    -0.290 N 
ATOM     19  H6  UNL     1       5.721 -28.882 -18.052  1.00  0.00     0.172 HD
ENDBRANCH   6   9
ENDBRANCH   3   5
BRANCH   1  20
HETATM   20  C4  UNL     1       3.512 -31.383 -11.794  1.00  0.00     0.277 C 
BRANCH  20  21
HETATM   21  C3  UNL     1       4.398 -31.450 -10.571  1.00  0.00     0.059 C 
BRANCH  21  22
HETATM   22  C2  UNL     1       3.682 -30.957  -9.368  1.00  0.00     0.065 C 
HETATM   23  C1  UNL     1       3.562 -31.838  -8.178  1.00  0.00     0.022 C 
BRANCH  22  24
HETATM   24  S1  UNL     1       3.020 -29.496  -9.278  1.00  0.00    -0.037 SA
BRANCH  24  25
HETATM   25  N7  UNL     1       1.484 -29.534  -8.481  1.00  0.00    -0.073 NA
BRANCH  25  26
HETATM   26  N8  UNL     1       0.417 -29.421  -9.359  1.00  0.00    -0.338 N 
ATOM     27  H82 UNL     1      -0.143 -30.221  -9.651  1.00  0.00     0.173 HD
ATOM     28  H81 UNL     1       0.261 -28.463  -9.672  1.00  0.00     0.173 HD
ENDBRANCH  25  26
ENDBRANCH  24  25
ENDBRANCH  22  24
ENDBRANCH  21  22
ENDBRANCH  20  21
BRANCH  20  29
HETATM   29  N1  UNL     1       2.330 -32.176 -11.643  1.00  0.00    -0.066 N 
ATOM     30  H13 UNL     1       2.464 -32.912 -10.950  1.00  0.00     0.275 HD
ATOM     31  H12 UNL     1       1.588 -31.651 -11.180  1.00  0.00     0.275 HD
ATOM     32  H11 UNL     1       2.013 -32.560 -12.533  1.00  0.00     0.275 HD
ENDBRANCH  20  29
ENDBRANCH   1  20
TORSDOF 9
ENDMDL
MODEL 5
REMARK VINA RESULT: -6.206033972      3.218      7.801
REMARK  9 active torsions:
REMARK  status: ('A' for Active; 'I' for Inactive)
REMARK    1  A    between atoms: C2_2  and  C3_3 
REMARK    2  A    between atoms: C2_2  and  S1_28 
REMARK    3  A    between atoms: C3_3  and  C4_4 
REMARK    4  A    between atoms: C4_4  and  N1_5 
REMARK    5  A    between atoms: C4_4  and  C5_9 
REMARK       I    between atoms: C5_9  and  N2_11 
REMARK    6  A    between atoms: N2_11  and  N3_13 
REMARK       I    between atoms: N3_13  and  C6_15 
REMARK    7  A    between atoms: C6_15  and  C7_17 
REMARK    8  A    between atoms: S1_28  and  N7_29 
REMARK    9  A    between atoms: N7_29  and  N8_30 
ROOT
HETATM    1  C5  UNL     1       3.368 -30.067  -9.472  1.00  0.00     0.266 C 
HETATM    2  O1  UNL     1       2.524 -29.471 -10.183  1.00  0.00    -0.269 OA
HETATM    3  N2  UNL     1       4.516 -30.614 -10.094  1.00  0.00    -0.265 N 
ATOM      4  H2  UNL     1       5.187 -31.092  -9.492  1.00  0.00     0.190 HD
ENDROOT
BRANCH   3   5
HETATM    5  N3  UNL     1       4.810 -30.559 -11.440  1.00  0.00    -0.261 N 
HETATM    6  C6  UNL     1       4.279 -31.500 -12.340  1.00  0.00     0.304 C 
HETATM    7  O2  UNL     1       3.526 -32.403 -11.909  1.00  0.00    -0.263 OA
ATOM      8  H3  UNL     1       5.423 -29.822 -11.789  1.00  0.00     0.190 HD
BRANCH   6   9
HETATM    9  C7  UNL     1       4.569 -31.472 -13.773  1.00  0.00     0.184 A 
HETATM   10  N4  UNL     1       5.405 -32.367 -14.344  1.00  0.00    -0.290 N 
HETATM   11  C8  UNL     1       5.654 -32.318 -15.663  1.00  0.00     0.329 A 
ATOM     12  H4  UNL     1       5.849 -33.085 -13.771  1.00  0.00     0.172 HD
HETATM   13  O3  UNL     1       6.450 -33.189 -16.143  1.00  0.00    -0.246 OA
HETATM   14  N5  UNL     1       5.097 -31.396 -16.467  1.00  0.00    -0.260 N 
HETATM   15  C9  UNL     1       4.267 -30.507 -15.901  1.00  0.00     0.329 A 
ATOM     16  H5  UNL     1       5.297 -31.374 -17.466  1.00  0.00     0.175 HD
HETATM   17  O4  UNL     1       3.729 -29.624 -16.648  1.00  0.00    -0.246 OA
HETATM   18  N6  UNL     1       4.015 -30.552 -14.583  1.00  0.00    -0.290 N 
ATOM     19  H6  UNL     1       3.379 -29.863 -14.180  1.00  0.00     0.172 HD
ENDBRANCH   6   9
ENDBRANCH   3   5
BRANCH   1  20
HETATM   20  C4  UNL     1       3.138 -30.175  -8.036  1.00  0.00     0.277 C 
BRANCH  20  21
HETATM   21  C3  UNL     1       4.324 -30.725  -7.278  1.00  0.00     0.059 C 
BRANCH  21  22
HETATM   22  C2  UNL     1       4.400 -30.146  -5.914  1.00  0.00     0.065 C 
HETATM   23  C1  UNL     1       4.917 -28.765  -5.735  1.00  0.00     0.022 C 
BRANCH  22  24
HETATM   24  S1  UNL     1       3.941 -30.942  -4.597  1.00  0.00    -0.037 SA
BRANCH  24  25
HETATM   25  N7  UNL     1       2.326 -31.548  -4.739  1.00  0.00    -0.073 NA
BRANCH  25  26
HETATM   26  N8  UNL     1       1.431 -30.899  -3.903  1.00  0.00    -0.338 N 
ATOM     27  H82 UNL     1       0.834 -30.136  -4.221  1.00  0.00     0.173 HD
ATOM     28  H81 UNL     1       1.438 -31.268  -2.952  1.00  0.00     0.173 HD
ENDBRANCH  25  26
ENDBRANCH  24  25
ENDBRANCH  22  24
ENDBRANCH  21  22
ENDBRANCH  20  21
BRANCH  20  29
HETATM   29  N1  UNL     1       1.939 -30.907  -7.758  1.00  0.00    -0.066 N 
ATOM     30  H13 UNL     1       2.065 -31.537  -6.966  1.00  0.00     0.275 HD
ATOM     31  H12 UNL     1       1.217 -30.301  -7.368  1.00  0.00     0.275 HD
ATOM     32  H11 UNL     1       1.599 -31.408  -8.579  1.00  0.00     0.275 HD
ENDBRANCH  20  29
ENDBRANCH   1  20
TORSDOF 9
ENDMDL
