MODEL 1
REMARK VINA RESULT: -7.157272174      0.000      0.000
REMARK  7 active torsions:
REMARK  status: ('A' for Active; 'I' for Inactive)
REMARK    1  A    between atoms: N1_1  and  C1_4 
REMARK    2  A    between atoms: C4_11  and  N4_12 
REMARK    3  A    between atoms: N4_12  and  C5_14 
REMARK    4  A    between atoms: C5_14  and  C6_15 
REMARK    5  A    between atoms: C6_15  and  N5_16 
REMARK    6  A    between atoms: C6_15  and  N6_20 
REMARK    7  A    between atoms: N6_20  and  N7_21 
REMARK       I    between atoms: N6_20  and  C7_24 
ROOT
HETATM    1  C1  UNL     1       5.009 -31.372 -10.748  1.00  0.00     0.118 A 
HETATM    2  N2  UNL     1       6.057 -31.865 -10.066  1.00  0.00    -0.338 N 
ATOM      3  H2  UNL     1       6.929 -32.050 -10.560  1.00  0.00     0.168 HD
HETATM    4  C2  UNL     1       5.984 -32.121  -8.748  1.00  0.00     0.182 A 
HETATM    5  N3  UNL     1       4.852 -31.890  -8.065  1.00  0.00    -0.348 N 
ATOM      6  H3  UNL     1       4.817 -32.090  -7.066  1.00  0.00     0.167 HD
HETATM    7  C3  UNL     1       3.784 -31.406  -8.669  1.00  0.00     0.097 A 
HETATM    8  C4  UNL     1       2.747 -31.245  -7.790  1.00  0.00     0.137 C 
HETATM    9  N9  UNL     1       1.750 -30.328  -7.977  1.00  0.00    -0.292 N 
ATOM     10  H9  UNL     1       1.245 -30.054  -7.135  1.00  0.00     0.172 HD
HETATM   11  C8  UNL     1       1.339 -29.733  -9.118  1.00  0.00     0.328 C 
HETATM   12  O2  UNL     1       0.444 -28.854  -9.031  1.00  0.00    -0.247 OA
HETATM   13  N10 UNL     1       1.763 -29.952 -10.382  1.00  0.00    -0.275 N 
ATOM     14  H10 UNL     1       1.176 -29.537 -11.106  1.00  0.00     0.173 HD
HETATM   15  C9  UNL     1       2.825 -30.622 -10.843  1.00  0.00     0.265 C 
HETATM   16  O3  UNL     1       2.987 -30.842 -12.048  1.00  0.00    -0.267 OA
HETATM   17  C10 UNL     1       3.850 -31.135 -10.044  1.00  0.00     0.106 A 
ENDROOT
BRANCH   8  18
HETATM   18  N4  UNL     1       2.661 -31.929  -6.788  1.00  0.00    -0.350 N 
ATOM     19  H4  UNL     1       2.648 -32.905  -7.084  1.00  0.00     0.166 HD
BRANCH  18  20
HETATM   20  C5  UNL     1       2.575 -31.914  -5.413  1.00  0.00     0.118 C 
BRANCH  20  21
HETATM   21  C6  UNL     1       3.575 -31.065  -4.673  1.00  0.00     0.346 C 
BRANCH  21  22
HETATM   22  N5  UNL     1       2.950 -29.976  -3.946  1.00  0.00    -0.052 N 
ATOM     23  H53 UNL     1       3.641 -29.281  -3.663  1.00  0.00     0.277 HD
ATOM     24  H52 UNL     1       2.380 -29.401  -4.566  1.00  0.00     0.277 HD
ATOM     25  H51 UNL     1       2.408 -30.301  -3.145  1.00  0.00     0.277 HD
ENDBRANCH  21  22
BRANCH  21  26
HETATM   26  N6  UNL     1       4.292 -31.866  -3.699  1.00  0.00    -0.215 N 
HETATM   27  C7  UNL     1       5.308 -31.302  -2.874  1.00  0.00     0.351 C 
HETATM   28  N8  UNL     1       5.986 -32.121  -1.933  1.00  0.00    -0.038 NA
HETATM   29  O1  UNL     1       5.582 -30.092  -2.996  1.00  0.00    -0.249 OA
BRANCH  26  30
HETATM   30  N7  UNL     1       3.970 -33.243  -3.571  1.00  0.00    -0.337 N 
ATOM     31  H72 UNL     1       3.358 -33.683  -4.257  1.00  0.00     0.177 HD
ATOM     32  H71 UNL     1       4.361 -33.770  -2.789  1.00  0.00     0.177 HD
ENDBRANCH  26  30
ENDBRANCH  21  26
ENDBRANCH  20  21
ENDBRANCH  18  20
ENDBRANCH   8  18
BRANCH   1  33
HETATM   33  N1  UNL     1       5.046 -31.118 -11.997  1.00  0.00    -0.385 N 
ATOM     34  H12 UNL     1       5.909 -30.769 -12.413  1.00  0.00     0.157 HD
ATOM     35  H11 UNL     1       4.246 -31.248 -12.618  1.00  0.00     0.157 HD
ENDBRANCH   1  33
TORSDOF 7
ENDMDL
MODEL 2
REMARK VINA RESULT: -7.124453782      1.948      3.497
REMARK  7 active torsions:
REMARK  status: ('A' for Active; 'I' for Inactive)
REMARK    1  A    between atoms: N1_1  and  C1_4 
REMARK    2  A    between atoms: C4_11  and  N4_12 
REMARK    3  A    between atoms: N4_12  and  C5_14 
REMARK    4  A    between atoms: C5_14  and  C6_15 
REMARK    5  A    between atoms: C6_15  and  N5_16 
REMARK    6  A    between atoms: C6_15  and  N6_20 
REMARK    7  A    between atoms: N6_20  and  N7_21 
REMARK       I    between atoms: N6_20  and  C7_24 
ROOT
HETATM    1  C1  UNL     1       2.353 -30.432 -10.616  1.00  0.00     0.118 A 
HETATM    2  N2  UNL     1       1.280 -29.812 -10.094  1.00  0.00    -0.338 N 
ATOM      3  H2  UNL     1       0.447 -29.693 -10.669  1.00  0.00     0.168 HD
HETATM    4  C2  UNL     1       1.277 -29.346  -8.833  1.00  0.00     0.182 A 
HETATM    5  N3  UNL     1       2.356 -29.486  -8.047  1.00  0.00    -0.348 N 
ATOM      6  H3  UNL     1       2.334 -29.126  -7.093  1.00  0.00     0.167 HD
HETATM    7  C3  UNL     1       3.444 -30.084  -8.492  1.00  0.00     0.097 A 
HETATM    8  C4  UNL     1       4.419 -30.121  -7.530  1.00  0.00     0.137 C 
HETATM    9  N9  UNL     1       5.396 -31.076  -7.499  1.00  0.00    -0.292 N 
ATOM     10  H9  UNL     1       5.838 -31.220  -6.592  1.00  0.00     0.172 HD
HETATM   11  C8  UNL     1       5.860 -31.857  -8.499  1.00  0.00     0.328 C 
HETATM   12  O2  UNL     1       6.719 -32.729  -8.211  1.00  0.00    -0.247 OA
HETATM   13  N10 UNL     1       5.523 -31.839  -9.807  1.00  0.00    -0.275 N 
ATOM     14  H10 UNL     1       6.142 -32.379 -10.413  1.00  0.00     0.173 HD
HETATM   15  C9  UNL     1       4.513 -31.232 -10.441  1.00  0.00     0.265 C 
HETATM   16  O3  UNL     1       4.435 -31.209 -11.673  1.00  0.00    -0.267 OA
HETATM   17  C10 UNL     1       3.457 -30.574  -9.806  1.00  0.00     0.106 A 
ENDROOT
BRANCH   8  18
HETATM   18  N4  UNL     1       4.462 -29.284  -6.648  1.00  0.00    -0.350 N 
ATOM     19  H4  UNL     1       4.927 -28.460  -7.031  1.00  0.00     0.166 HD
BRANCH  18  20
HETATM   20  C5  UNL     1       4.134 -29.003  -5.340  1.00  0.00     0.118 C 
BRANCH  20  21
HETATM   21  C6  UNL     1       4.489 -30.039  -4.306  1.00  0.00     0.346 C 
BRANCH  21  22
HETATM   22  N5  UNL     1       4.449 -29.512  -2.955  1.00  0.00    -0.052 N 
ATOM     23  H53 UNL     1       5.252 -29.833  -2.413  1.00  0.00     0.277 HD
ATOM     24  H52 UNL     1       4.634 -28.509  -2.947  1.00  0.00     0.277 HD
ATOM     25  H51 UNL     1       3.575 -29.728  -2.477  1.00  0.00     0.277 HD
ENDBRANCH  21  22
BRANCH  21  26
HETATM   26  N6  UNL     1       3.551 -31.143  -4.357  1.00  0.00    -0.215 N 
HETATM   27  C7  UNL     1       3.975 -32.467  -4.669  1.00  0.00     0.351 C 
HETATM   28  N8  UNL     1       3.023 -33.521  -4.708  1.00  0.00    -0.038 NA
HETATM   29  O1  UNL     1       5.182 -32.676  -4.903  1.00  0.00    -0.249 OA
BRANCH  26  30
HETATM   30  N7  UNL     1       2.179 -30.893  -4.088  1.00  0.00    -0.337 N 
ATOM     31  H72 UNL     1       1.921 -30.280  -3.315  1.00  0.00     0.177 HD
ATOM     32  H71 UNL     1       1.472 -31.334  -4.678  1.00  0.00     0.177 HD
ENDBRANCH  26  30
ENDBRANCH  21  26
ENDBRANCH  20  21
ENDBRANCH  18  20
ENDBRANCH   8  18
BRANCH   1  33
HETATM   33  N1  UNL     1       2.387 -30.885 -11.807  1.00  0.00    -0.385 N 
ATOM     34  H12 UNL     1       1.578 -31.384 -12.177  1.00  0.00     0.157 HD
ATOM     35  H11 UNL     1       3.193 -30.776 -12.424  1.00  0.00     0.157 HD
ENDBRANCH   1  33
TORSDOF 7
ENDMDL
MODEL 3
REMARK VINA RESULT: -7.079008757      1.922      6.672
REMARK  7 active torsions:
REMARK  status: ('A' for Active; 'I' for Inactive)
REMARK    1  A    between atoms: N1_1  and  C1_4 
REMARK    2  A    between atoms: C4_11  and  N4_12 
REMARK    3  A    between atoms: N4_12  and  C5_14 
REMARK    4  A    between atoms: C5_14  and  C6_15 
REMARK    5  A    between atoms: C6_15  and  N5_16 
REMARK    6  A    between atoms: C6_15  and  N6_20 
REMARK    7  A    between atoms: N6_20  and  N7_21 
REMARK       I    between atoms: N6_20  and  C7_24 
ROOT
HETATM    1  C1  UNL     1       4.252 -31.101  -3.735  1.00  0.00     0.118 A 
HETATM    2  N2  UNL     1       2.928 -30.979  -3.932  1.00  0.00    -0.338 N 
ATOM      3  H2  UNL     1       2.319 -30.822  -3.130  1.00  0.00     0.168 HD
HETATM    4  C2  UNL     1       2.386 -31.060  -5.160  1.00  0.00     0.182 A 
HETATM    5  N3  UNL     1       3.157 -31.267  -6.238  1.00  0.00    -0.348 N 
ATOM      6  H3  UNL     1       2.727 -31.324  -7.161  1.00  0.00     0.167 HD
HETATM    7  C3  UNL     1       4.464 -31.396  -6.121  1.00  0.00     0.097 A 
HETATM    8  C4  UNL     1       5.055 -31.596  -7.339  1.00  0.00     0.137 C 
HETATM    9  N9  UNL     1       6.353 -31.253  -7.602  1.00  0.00    -0.292 N 
ATOM     10  H9  UNL     1       6.579 -31.121  -8.587  1.00  0.00     0.172 HD
HETATM   11  C8  UNL     1       7.377 -31.064  -6.742  1.00  0.00     0.328 C 
HETATM   12  O2  UNL     1       8.474 -30.672  -7.215  1.00  0.00    -0.247 OA
HETATM   13  N10 UNL     1       7.396 -31.240  -5.403  1.00  0.00    -0.275 N 
ATOM     14  H10 UNL     1       8.327 -31.232  -4.986  1.00  0.00     0.173 HD
HETATM   15  C9  UNL     1       6.397 -31.422  -4.532  1.00  0.00     0.265 C 
HETATM   16  O3  UNL     1       6.606 -31.707  -3.348  1.00  0.00    -0.267 OA
HETATM   17  C10 UNL     1       5.040 -31.313  -4.844  1.00  0.00     0.106 A 
ENDROOT
BRANCH   8  18
HETATM   18  N4  UNL     1       4.441 -32.104  -8.259  1.00  0.00    -0.350 N 
ATOM     19  H4  UNL     1       4.145 -33.031  -7.953  1.00  0.00     0.166 HD
BRANCH  18  20
HETATM   20  C5  UNL     1       3.986 -31.929  -9.547  1.00  0.00     0.118 C 
BRANCH  20  21
HETATM   21  C6  UNL     1       3.843 -30.512 -10.037  1.00  0.00     0.346 C 
BRANCH  21  22
HETATM   22  N5  UNL     1       4.482 -30.301 -11.322  1.00  0.00    -0.052 N 
ATOM     23  H53 UNL     1       4.926 -31.157 -11.656  1.00  0.00     0.277 HD
ATOM     24  H52 UNL     1       3.789 -30.176 -12.060  1.00  0.00     0.277 HD
ATOM     25  H51 UNL     1       5.146 -29.527 -11.307  1.00  0.00     0.277 HD
ENDBRANCH  21  22
BRANCH  21  26
HETATM   26  N6  UNL     1       2.442 -30.175 -10.202  1.00  0.00    -0.215 N 
HETATM   27  C7  UNL     1       1.751 -29.377  -9.244  1.00  0.00     0.351 C 
HETATM   28  N8  UNL     1       0.379 -29.070  -9.444  1.00  0.00    -0.038 NA
HETATM   29  O1  UNL     1       2.368 -28.963  -8.244  1.00  0.00    -0.249 OA
BRANCH  26  30
HETATM   30  N7  UNL     1       1.750 -30.653 -11.346  1.00  0.00    -0.337 N 
ATOM     31  H72 UNL     1       0.745 -30.501 -11.426  1.00  0.00     0.177 HD
ATOM     32  H71 UNL     1       2.274 -31.144 -12.071  1.00  0.00     0.177 HD
ENDBRANCH  26  30
ENDBRANCH  21  26
ENDBRANCH  20  21
ENDBRANCH  18  20
ENDBRANCH   8  18
BRANCH   1  33
HETATM   33  N1  UNL     1       4.796 -31.029  -2.584  1.00  0.00    -0.385 N 
ATOM     34  H12 UNL     1       4.611 -31.758  -1.896  1.00  0.00     0.157 HD
ATOM     35  H11 UNL     1       5.419 -30.270  -2.307  1.00  0.00     0.157 HD
ENDBRANCH   1  33
TORSDOF 7
ENDMDL
MODEL 4
REMARK VINA RESULT: -6.991712732      1.886      3.339
REMARK  7 active torsions:
REMARK  status: ('A' for Active; 'I' for Inactive)
REMARK    1  A    between atoms: N1_1  and  C1_4 
REMARK    2  A    between atoms: C4_11  and  N4_12 
REMARK    3  A    between atoms: N4_12  and  C5_14 
REMARK    4  A    between atoms: C5_14  and  C6_15 
REMARK    5  A    between atoms: C6_15  and  N5_16 
REMARK    6  A    between atoms: C6_15  and  N6_20 
REMARK    7  A    between atoms: N6_20  and  N7_21 
REMARK       I    between atoms: N6_20  and  C7_24 
ROOT
HETATM    1  C1  UNL     1       2.590 -30.545 -10.582  1.00  0.00     0.118 A 
HETATM    2  N2  UNL     1       1.501 -29.839 -10.230  1.00  0.00    -0.338 N 
ATOM      3  H2  UNL     1       0.791 -29.636 -10.934  1.00  0.00     0.168 HD
HETATM    4  C2  UNL     1       1.323 -29.392  -8.974  1.00  0.00     0.182 A 
HETATM    5  N3  UNL     1       2.237 -29.640  -8.023  1.00  0.00    -0.348 N 
ATOM      6  H3  UNL     1       2.083 -29.294  -7.076  1.00  0.00     0.167 HD
HETATM    7  C3  UNL     1       3.329 -30.326  -8.295  1.00  0.00     0.097 A 
HETATM    8  C4  UNL     1       4.119 -30.465  -7.185  1.00  0.00     0.137 C 
HETATM    9  N9  UNL     1       4.991 -31.504  -7.018  1.00  0.00    -0.292 N 
ATOM     10  H9  UNL     1       5.258 -31.700  -6.054  1.00  0.00     0.172 HD
HETATM   11  C8  UNL     1       5.549 -32.309  -7.949  1.00  0.00     0.328 C 
HETATM   12  O2  UNL     1       6.270 -33.258  -7.546  1.00  0.00    -0.247 OA
HETATM   13  N10 UNL     1       5.443 -32.242  -9.294  1.00  0.00    -0.275 N 
ATOM     14  H10 UNL     1       6.108 -32.826  -9.802  1.00  0.00     0.173 HD
HETATM   15  C9  UNL     1       4.612 -31.538 -10.070  1.00  0.00     0.265 C 
HETATM   16  O3  UNL     1       4.747 -31.489 -11.297  1.00  0.00    -0.267 OA
HETATM   17  C10 UNL     1       3.524 -30.797  -9.603  1.00  0.00     0.106 A 
ENDROOT
BRANCH   8  18
HETATM   18  N4  UNL     1       4.083 -29.648  -6.284  1.00  0.00    -0.350 N 
ATOM     19  H4  UNL     1       3.302 -29.019  -6.472  1.00  0.00     0.166 HD
BRANCH  18  20
HETATM   20  C5  UNL     1       4.675 -29.232  -5.112  1.00  0.00     0.118 C 
BRANCH  20  21
HETATM   21  C6  UNL     1       3.915 -29.479  -3.835  1.00  0.00     0.346 C 
BRANCH  21  22
HETATM   22  N5  UNL     1       2.731 -30.290  -4.041  1.00  0.00    -0.052 N 
ATOM     23  H53 UNL     1       1.885 -29.774  -3.794  1.00  0.00     0.277 HD
ATOM     24  H52 UNL     1       2.552 -30.433  -5.035  1.00  0.00     0.277 HD
ATOM     25  H51 UNL     1       2.774 -31.180  -3.544  1.00  0.00     0.277 HD
ENDBRANCH  21  22
BRANCH  21  26
HETATM   26  N6  UNL     1       4.749 -30.183  -2.881  1.00  0.00    -0.215 N 
HETATM   27  C7  UNL     1       5.206 -31.510  -3.128  1.00  0.00     0.351 C 
HETATM   28  N8  UNL     1       6.022 -32.164  -2.167  1.00  0.00    -0.038 NA
HETATM   29  O1  UNL     1       4.879 -32.073  -4.191  1.00  0.00    -0.249 OA
BRANCH  26  30
HETATM   30  N7  UNL     1       5.115 -29.531  -1.674  1.00  0.00    -0.337 N 
ATOM     31  H72 UNL     1       5.845 -28.819  -1.688  1.00  0.00     0.177 HD
ATOM     32  H71 UNL     1       4.637 -29.787  -0.809  1.00  0.00     0.177 HD
ENDBRANCH  26  30
ENDBRANCH  21  26
ENDBRANCH  20  21
ENDBRANCH  18  20
ENDBRANCH   8  18
BRANCH   1  33
HETATM   33  N1  UNL     1       2.787 -30.981 -11.764  1.00  0.00    -0.385 N 
ATOM     34  H12 UNL     1       2.672 -30.351 -12.557  1.00  0.00     0.157 HD
ATOM     35  H11 UNL     1       3.058 -31.944 -11.965  1.00  0.00     0.157 HD
ENDBRANCH   1  33
TORSDOF 7
ENDMDL
MODEL 5
REMARK VINA RESULT: -6.983488309      2.019      3.715
REMARK  7 active torsions:
REMARK  status: ('A' for Active; 'I' for Inactive)
REMARK    1  A    between atoms: N1_1  and  C1_4 
REMARK    2  A    between atoms: C4_11  and  N4_12 
REMARK    3  A    between atoms: N4_12  and  C5_14 
REMARK    4  A    between atoms: C5_14  and  C6_15 
REMARK    5  A    between atoms: C6_15  and  N5_16 
REMARK    6  A    between atoms: C6_15  and  N6_20 
REMARK    7  A    between atoms: N6_20  and  N7_21 
REMARK       I    between atoms: N6_20  and  C7_24 
ROOT
HETATM    1  C1  UNL     1       2.323 -30.555 -10.639  1.00  0.00     0.118 A 
HETATM    2  N2  UNL     1       1.379 -29.787 -10.068  1.00  0.00    -0.338 N 
ATOM      3  H2  UNL     1       0.519 -29.593 -10.580  1.00  0.00     0.168 HD
HETATM    4  C2  UNL     1       1.539 -29.268  -8.838  1.00  0.00     0.182 A 
HETATM    5  N3  UNL     1       2.658 -29.503  -8.135  1.00  0.00    -0.348 N 
ATOM      6  H3  UNL     1       2.761 -29.101  -7.203  1.00  0.00     0.167 HD
HETATM    7  C3  UNL     1       3.627 -30.247  -8.632  1.00  0.00     0.097 A 
HETATM    8  C4  UNL     1       4.669 -30.359  -7.751  1.00  0.00     0.137 C 
HETATM    9  N9  UNL     1       5.527 -31.424  -7.747  1.00  0.00    -0.292 N 
ATOM     10  H9  UNL     1       6.026 -31.579  -6.871  1.00  0.00     0.172 HD
HETATM   11  C8  UNL     1       5.808 -32.299  -8.737  1.00  0.00     0.328 C 
HETATM   12  O2  UNL     1       6.582 -33.254  -8.471  1.00  0.00    -0.247 OA
HETATM   13  N10 UNL     1       5.364 -32.298 -10.012  1.00  0.00    -0.275 N 
ATOM     14  H10 UNL     1       5.862 -32.935 -10.636  1.00  0.00     0.173 HD
HETATM   15  C9  UNL     1       4.382 -31.602 -10.595  1.00  0.00     0.265 C 
HETATM   16  O3  UNL     1       4.201 -31.624 -11.817  1.00  0.00    -0.267 OA
HETATM   17  C10 UNL     1       3.469 -30.793  -9.915  1.00  0.00     0.106 A 
ENDROOT
BRANCH   8  18
HETATM   18  N4  UNL     1       4.886 -29.495  -6.923  1.00  0.00    -0.350 N 
ATOM     19  H4  UNL     1       4.287 -28.700  -7.145  1.00  0.00     0.166 HD
BRANCH  18  20
HETATM   20  C5  UNL     1       5.617 -29.161  -5.804  1.00  0.00     0.118 C 
BRANCH  20  21
HETATM   21  C6  UNL     1       5.407 -30.001  -4.571  1.00  0.00     0.346 C 
BRANCH  21  22
HETATM   22  N5  UNL     1       6.027 -29.424  -3.393  1.00  0.00    -0.052 N 
ATOM     23  H53 UNL     1       6.928 -29.004  -3.622  1.00  0.00     0.277 HD
ATOM     24  H52 UNL     1       5.528 -28.589  -3.088  1.00  0.00     0.277 HD
ATOM     25  H51 UNL     1       6.119 -30.096  -2.631  1.00  0.00     0.277 HD
ENDBRANCH  21  22
BRANCH  21  26
HETATM   26  N6  UNL     1       3.991 -30.128  -4.284  1.00  0.00    -0.215 N 
HETATM   27  C7  UNL     1       3.262 -31.300  -4.640  1.00  0.00     0.351 C 
HETATM   28  N8  UNL     1       1.876 -31.384  -4.340  1.00  0.00    -0.038 NA
HETATM   29  O1  UNL     1       3.859 -32.232  -5.211  1.00  0.00    -0.249 OA
BRANCH  26  30
HETATM   30  N7  UNL     1       3.323 -29.058  -3.632  1.00  0.00    -0.337 N 
ATOM     31  H72 UNL     1       2.507 -29.253  -3.052  1.00  0.00     0.177 HD
ATOM     32  H71 UNL     1       3.673 -28.108  -3.758  1.00  0.00     0.177 HD
ENDBRANCH  26  30
ENDBRANCH  21  26
ENDBRANCH  20  21
ENDBRANCH  18  20
ENDBRANCH   8  18
BRANCH   1  33
HETATM   33  N1  UNL     1       2.201 -31.061 -11.803  1.00  0.00    -0.385 N 
ATOM     34  H12 UNL     1       2.072 -30.446 -12.606  1.00  0.00     0.157 HD
ATOM     35  H11 UNL     1       2.225 -32.066 -11.981  1.00  0.00     0.157 HD
ENDBRANCH   1  33
TORSDOF 7
ENDMDL
