MODEL 1
REMARK VINA RESULT: -6.781502468      0.000      0.000
REMARK  9 active torsions:
REMARK  status: ('A' for Active; 'I' for Inactive)
REMARK       I    between atoms: C1_4  and  N3_6 
REMARK    1  A    between atoms: C4_10  and  C5_11 
REMARK    2  A    between atoms: C5_11  and  N4_12 
REMARK    3  A    between atoms: C5_11  and  O1_15 
REMARK    4  A    between atoms: O1_15  and  C6_16 
REMARK    5  A    between atoms: C6_16  and  C7_17 
REMARK    6  A    between atoms: C7_17  and  O2_18 
REMARK    7  A    between atoms: C7_17  and  N5_20 
REMARK    8  A    between atoms: N5_20  and  N6_21 
REMARK       I    between atoms: N6_21  and  C8_23 
REMARK    9  A    between atoms: C8_23  and  C9_25 
ROOT
HETATM    1  C5  UNL     1       3.771 -31.684 -11.394  1.00  0.00     0.168 C 
ENDROOT
BRANCH   1   2
HETATM    2  C4  UNL     1       3.194 -31.167 -10.229  1.00  0.00     0.088 A 
HETATM    3  C3  UNL     1       3.446 -31.802  -9.013  1.00  0.00     0.082 A 
HETATM    4  C2  UNL     1       2.798 -31.271  -7.825  1.00  0.00     0.110 A 
HETATM    5  N3  UNL     1       3.130 -31.962  -6.803  1.00  0.00    -0.317 N 
HETATM    6  N9  UNL     1       1.975 -30.247  -7.811  1.00  0.00    -0.338 N 
HETATM    7  C1  UNL     1       2.959 -32.086  -5.514  1.00  0.00     0.187 C 
ATOM      8  H3  UNL     1       3.771 -32.694  -7.109  1.00  0.00     0.170 HD
HETATM    9  N1  UNL     1       3.518 -32.995  -4.685  1.00  0.00    -0.373 N 
HETATM   10  N2  UNL     1       2.103 -31.214  -4.759  1.00  0.00    -0.064 NA
ATOM     11  H12 UNL     1       3.384 -33.092  -3.678  1.00  0.00     0.158 HD
ATOM     12  H11 UNL     1       4.126 -33.614  -5.221  1.00  0.00     0.158 HD
HETATM   13  C10 UNL     1       1.766 -29.662  -9.056  1.00  0.00     0.182 A 
ATOM     14  H9  UNL     1       1.528 -29.909  -6.960  1.00  0.00     0.168 HD
HETATM   15  N8  UNL     1       2.366 -30.132 -10.182  1.00  0.00    -0.349 N 
ATOM     16  H8  UNL     1       2.163 -29.651 -11.058  1.00  0.00     0.167 HD
ENDBRANCH   1   2
BRANCH   1  17
HETATM   17  N4  UNL     1       3.205 -31.391 -12.608  1.00  0.00    -0.378 N 
ATOM     18  H42 UNL     1       2.607 -30.584 -12.432  1.00  0.00     0.158 HD
ATOM     19  H41 UNL     1       3.446 -31.961 -13.419  1.00  0.00     0.158 HD
ENDBRANCH   1  17
BRANCH   1  20
HETATM   20  O1  UNL     1       4.860 -32.493 -11.691  1.00  0.00    -0.299 OA
BRANCH  20  21
HETATM   21  C6  UNL     1       6.132 -32.163 -11.643  1.00  0.00     0.218 C 
BRANCH  21  22
HETATM   22  C7  UNL     1       6.739 -30.990 -12.298  1.00  0.00     0.261 C 
BRANCH  22  23
HETATM   23  O2  UNL     1       7.881 -30.601 -11.660  1.00  0.00    -0.333 OA
ATOM     24  H2  UNL     1       8.394 -30.012 -12.200  1.00  0.00     0.220 HD
ENDBRANCH  22  23
BRANCH  22  25
HETATM   25  N5  UNL     1       6.355 -30.267 -13.365  1.00  0.00    -0.295 NA
BRANCH  25  26
HETATM   26  N6  UNL     1       6.055 -29.436 -14.402  1.00  0.00    -0.192 N 
HETATM   27  C8  UNL     1       5.311 -30.565 -15.313  1.00  0.00     0.335 C 
HETATM   28  O3  UNL     1       5.459 -31.627 -14.955  1.00  0.00    -0.260 OA
ATOM     29  H6  UNL     1       6.235 -28.444 -14.556  1.00  0.00     0.205 HD
BRANCH  27  30
HETATM   30  C9  UNL     1       4.668 -29.977 -16.344  1.00  0.00     0.325 C 
HETATM   31  N7  UNL     1       5.270 -29.802 -17.676  1.00  0.00    -0.053 NA
HETATM   32  O4  UNL     1       3.498 -29.501 -16.426  1.00  0.00    -0.266 OA
ENDBRANCH  27  30
ENDBRANCH  25  26
ENDBRANCH  22  25
ENDBRANCH  21  22
ENDBRANCH  20  21
ENDBRANCH   1  20
TORSDOF 9
ENDMDL
MODEL 2
REMARK VINA RESULT: -6.745171327      2.615      7.294
REMARK  9 active torsions:
REMARK  status: ('A' for Active; 'I' for Inactive)
REMARK       I    between atoms: C1_4  and  N3_6 
REMARK    1  A    between atoms: C4_10  and  C5_11 
REMARK    2  A    between atoms: C5_11  and  N4_12 
REMARK    3  A    between atoms: C5_11  and  O1_15 
REMARK    4  A    between atoms: O1_15  and  C6_16 
REMARK    5  A    between atoms: C6_16  and  C7_17 
REMARK    6  A    between atoms: C7_17  and  O2_18 
REMARK    7  A    between atoms: C7_17  and  N5_20 
REMARK    8  A    between atoms: N5_20  and  N6_21 
REMARK       I    between atoms: N6_21  and  C8_23 
REMARK    9  A    between atoms: C8_23  and  C9_25 
ROOT
HETATM    1  C5  UNL     1       4.293 -32.045 -11.357  1.00  0.00     0.168 C 
ENDROOT
BRANCH   1   2
HETATM    2  C4  UNL     1       4.778 -31.291 -12.431  1.00  0.00     0.088 A 
HETATM    3  C3  UNL     1       4.369 -31.620 -13.723  1.00  0.00     0.082 A 
HETATM    4  C2  UNL     1       4.922 -30.849 -14.825  1.00  0.00     0.110 A 
HETATM    5  N3  UNL     1       4.450 -31.276 -15.934  1.00  0.00    -0.317 N 
HETATM    6  N9  UNL     1       5.794 -29.876 -14.698  1.00  0.00    -0.338 N 
HETATM    7  C1  UNL     1       4.483 -31.104 -17.227  1.00  0.00     0.187 C 
ATOM      8  H3  UNL     1       3.804 -32.038 -15.731  1.00  0.00     0.170 HD
HETATM    9  N1  UNL     1       3.794 -31.779 -18.173  1.00  0.00    -0.373 N 
HETATM   10  N2  UNL     1       5.305 -30.108 -17.856  1.00  0.00    -0.064 NA
ATOM     11  H12 UNL     1       3.820 -31.645 -19.184  1.00  0.00     0.158 HD
ATOM     12  H11 UNL     1       3.210 -32.486 -17.727  1.00  0.00     0.158 HD
HETATM   13  C10 UNL     1       6.160 -29.600 -13.384  1.00  0.00     0.182 A 
ATOM     14  H9  UNL     1       6.171 -29.364 -15.495  1.00  0.00     0.168 HD
HETATM   15  N8  UNL     1       5.652 -30.299 -12.334  1.00  0.00    -0.349 N 
ATOM     16  H8  UNL     1       5.969 -30.039 -11.400  1.00  0.00     0.167 HD
ENDBRANCH   1   2
BRANCH   1  17
HETATM   17  N4  UNL     1       2.943 -32.252 -11.238  1.00  0.00    -0.378 N 
ATOM     18  H42 UNL     1       2.568 -32.077 -12.171  1.00  0.00     0.158 HD
ATOM     19  H41 UNL     1       2.558 -32.523 -10.334  1.00  0.00     0.158 HD
ENDBRANCH   1  17
BRANCH   1  20
HETATM   20  O1  UNL     1       4.853 -32.704 -10.269  1.00  0.00    -0.299 OA
BRANCH  20  21
HETATM   21  C6  UNL     1       5.404 -32.159  -9.207  1.00  0.00     0.218 C 
BRANCH  21  22
HETATM   22  C7  UNL     1       4.729 -31.250  -8.263  1.00  0.00     0.261 C 
BRANCH  22  23
HETATM   23  O2  UNL     1       5.626 -30.638  -7.436  1.00  0.00    -0.333 OA
ATOM     24  H2  UNL     1       5.840 -29.765  -7.746  1.00  0.00     0.220 HD
ENDBRANCH  22  23
BRANCH  22  25
HETATM   25  N5  UNL     1       3.430 -30.954  -8.085  1.00  0.00    -0.295 NA
BRANCH  25  26
HETATM   26  N6  UNL     1       2.100 -30.660  -8.044  1.00  0.00    -0.192 N 
HETATM   27  C8  UNL     1       2.113 -29.641  -9.316  1.00  0.00     0.335 C 
HETATM   28  O3  UNL     1       3.146 -29.339  -9.663  1.00  0.00    -0.260 OA
ATOM     29  H6  UNL     1       1.350 -30.972  -7.426  1.00  0.00     0.205 HD
BRANCH  27  30
HETATM   30  C9  UNL     1       0.848 -29.353  -9.691  1.00  0.00     0.325 C 
HETATM   31  N7  UNL     1       0.280 -29.755 -10.988  1.00  0.00    -0.053 NA
HETATM   32  O4  UNL     1      -0.079 -28.749  -9.077  1.00  0.00    -0.266 OA
ENDBRANCH  27  30
ENDBRANCH  25  26
ENDBRANCH  22  25
ENDBRANCH  21  22
ENDBRANCH  20  21
ENDBRANCH   1  20
TORSDOF 9
ENDMDL
MODEL 3
REMARK VINA RESULT: -6.728628825      3.544      8.583
REMARK  9 active torsions:
REMARK  status: ('A' for Active; 'I' for Inactive)
REMARK       I    between atoms: C1_4  and  N3_6 
REMARK    1  A    between atoms: C4_10  and  C5_11 
REMARK    2  A    between atoms: C5_11  and  N4_12 
REMARK    3  A    between atoms: C5_11  and  O1_15 
REMARK    4  A    between atoms: O1_15  and  C6_16 
REMARK    5  A    between atoms: C6_16  and  C7_17 
REMARK    6  A    between atoms: C7_17  and  O2_18 
REMARK    7  A    between atoms: C7_17  and  N5_20 
REMARK    8  A    between atoms: N5_20  and  N6_21 
REMARK       I    between atoms: N6_21  and  C8_23 
REMARK    9  A    between atoms: C8_23  and  C9_25 
ROOT
HETATM    1  C5  UNL     1       3.098 -31.350 -11.048  1.00  0.00     0.168 C 
ENDROOT
BRANCH   1   2
HETATM    2  C4  UNL     1       4.060 -31.184 -12.050  1.00  0.00     0.088 A 
HETATM    3  C3  UNL     1       3.860 -31.797 -13.286  1.00  0.00     0.082 A 
HETATM    4  C2  UNL     1       4.896 -31.645 -14.294  1.00  0.00     0.110 A 
HETATM    5  N3  UNL     1       4.559 -32.265 -15.360  1.00  0.00    -0.317 N 
HETATM    6  N9  UNL     1       6.019 -30.987 -14.123  1.00  0.00    -0.338 N 
HETATM    7  C1  UNL     1       4.945 -32.561 -16.572  1.00  0.00     0.187 C 
ATOM      8  H3  UNL     1       3.645 -32.688 -15.206  1.00  0.00     0.170 HD
HETATM    9  N1  UNL     1       4.282 -33.283 -17.502  1.00  0.00    -0.373 N 
HETATM   10  N2  UNL     1       6.202 -32.125 -17.114  1.00  0.00    -0.064 NA
ATOM     11  H12 UNL     1       4.584 -33.515 -18.449  1.00  0.00     0.158 HD
ATOM     12  H11 UNL     1       3.390 -33.593 -17.118  1.00  0.00     0.158 HD
HETATM   13  C10 UNL     1       6.158 -30.402 -12.869  1.00  0.00     0.182 A 
ATOM     14  H9  UNL     1       6.731 -30.912 -14.850  1.00  0.00     0.168 HD
HETATM   15  N8  UNL     1       5.201 -30.520 -11.910  1.00  0.00    -0.349 N 
ATOM     16  H8  UNL     1       5.373 -30.064 -11.015  1.00  0.00     0.167 HD
ENDBRANCH   1   2
BRANCH   1  17
HETATM   17  N4  UNL     1       1.867 -30.765 -11.198  1.00  0.00    -0.378 N 
ATOM     18  H42 UNL     1       2.062 -29.770 -11.317  1.00  0.00     0.158 HD
ATOM     19  H41 UNL     1       1.032 -31.349 -11.174  1.00  0.00     0.158 HD
ENDBRANCH   1  17
BRANCH   1  20
HETATM   20  O1  UNL     1       3.037 -32.004  -9.824  1.00  0.00    -0.299 OA
BRANCH  20  21
HETATM   21  C6  UNL     1       3.504 -31.578  -8.671  1.00  0.00     0.218 C 
BRANCH  21  22
HETATM   22  C7  UNL     1       2.932 -30.481  -7.868  1.00  0.00     0.261 C 
BRANCH  22  23
HETATM   23  O2  UNL     1       1.604 -30.313  -8.134  1.00  0.00    -0.333 OA
ATOM     24  H2  UNL     1       1.425 -29.437  -8.456  1.00  0.00     0.220 HD
ENDBRANCH  22  23
BRANCH  22  25
HETATM   25  N5  UNL     1       3.488 -29.651  -6.969  1.00  0.00    -0.295 NA
BRANCH  25  26
HETATM   26  N6  UNL     1       4.162 -28.801  -6.143  1.00  0.00    -0.192 N 
HETATM   27  C8  UNL     1       4.124 -29.773  -4.835  1.00  0.00     0.335 C 
HETATM   28  O3  UNL     1       3.426 -30.657  -4.928  1.00  0.00    -0.260 OA
ATOM     29  H6  UNL     1       4.556 -27.873  -6.293  1.00  0.00     0.205 HD
BRANCH  27  30
HETATM   30  C9  UNL     1       4.949 -29.294  -3.879  1.00  0.00     0.325 C 
HETATM   31  N7  UNL     1       6.378 -29.024  -4.110  1.00  0.00    -0.053 NA
HETATM   32  O4  UNL     1       4.723 -28.966  -2.679  1.00  0.00    -0.266 OA
ENDBRANCH  27  30
ENDBRANCH  25  26
ENDBRANCH  22  25
ENDBRANCH  21  22
ENDBRANCH  20  21
ENDBRANCH   1  20
TORSDOF 9
ENDMDL
MODEL 4
REMARK VINA RESULT: -6.706332707      3.168      8.813
REMARK  9 active torsions:
REMARK  status: ('A' for Active; 'I' for Inactive)
REMARK       I    between atoms: C1_4  and  N3_6 
REMARK    1  A    between atoms: C4_10  and  C5_11 
REMARK    2  A    between atoms: C5_11  and  N4_12 
REMARK    3  A    between atoms: C5_11  and  O1_15 
REMARK    4  A    between atoms: O1_15  and  C6_16 
REMARK    5  A    between atoms: C6_16  and  C7_17 
REMARK    6  A    between atoms: C7_17  and  O2_18 
REMARK    7  A    between atoms: C7_17  and  N5_20 
REMARK    8  A    between atoms: N5_20  and  N6_21 
REMARK       I    between atoms: N6_21  and  C8_23 
REMARK    9  A    between atoms: C8_23  and  C9_25 
ROOT
HETATM    1  C5  UNL     1       3.497 -31.054 -11.183  1.00  0.00     0.168 C 
ENDROOT
BRANCH   1   2
HETATM    2  C4  UNL     1       4.406 -31.009 -12.245  1.00  0.00     0.088 A 
HETATM    3  C3  UNL     1       4.085 -31.660 -13.435  1.00  0.00     0.082 A 
HETATM    4  C2  UNL     1       5.067 -31.636 -14.507  1.00  0.00     0.110 A 
HETATM    5  N3  UNL     1       4.620 -32.275 -15.520  1.00  0.00    -0.317 N 
HETATM    6  N9  UNL     1       6.245 -31.061 -14.434  1.00  0.00    -0.338 N 
HETATM    7  C1  UNL     1       4.908 -32.655 -16.735  1.00  0.00     0.187 C 
ATOM      8  H3  UNL     1       3.687 -32.618 -15.293  1.00  0.00     0.170 HD
HETATM    9  N1  UNL     1       4.138 -33.366 -17.589  1.00  0.00    -0.373 N 
HETATM   10  N2  UNL     1       6.159 -32.344 -17.369  1.00  0.00    -0.064 NA
ATOM     11  H12 UNL     1       4.363 -33.663 -18.538  1.00  0.00     0.158 HD
ATOM     12  H11 UNL     1       3.249 -33.587 -17.139  1.00  0.00     0.158 HD
HETATM   13  C10 UNL     1       6.503 -30.431 -13.221  1.00  0.00     0.182 A 
ATOM     14  H9  UNL     1       6.915 -31.074 -15.203  1.00  0.00     0.168 HD
HETATM   15  N8  UNL     1       5.599 -30.430 -12.204  1.00  0.00    -0.349 N 
ATOM     16  H8  UNL     1       5.860 -29.948 -11.344  1.00  0.00     0.167 HD
ENDBRANCH   1   2
BRANCH   1  17
HETATM   17  N4  UNL     1       2.477 -31.971 -11.213  1.00  0.00    -0.378 N 
ATOM     18  H42 UNL     1       2.498 -32.355 -12.158  1.00  0.00     0.158 HD
ATOM     19  H41 UNL     1       1.915 -32.117 -10.375  1.00  0.00     0.158 HD
ENDBRANCH   1  17
BRANCH   1  20
HETATM   20  O1  UNL     1       3.319 -30.360  -9.993  1.00  0.00    -0.299 OA
BRANCH  20  21
HETATM   21  C6  UNL     1       3.904 -30.596  -8.839  1.00  0.00     0.218 C 
BRANCH  21  22
HETATM   22  C7  UNL     1       3.469 -31.595  -7.847  1.00  0.00     0.261 C 
BRANCH  22  23
HETATM   23  O2  UNL     1       2.183 -31.991  -8.073  1.00  0.00    -0.333 OA
ATOM     24  H2  UNL     1       1.564 -31.316  -7.818  1.00  0.00     0.220 HD
ENDBRANCH  22  23
BRANCH  22  25
HETATM   25  N5  UNL     1       4.103 -32.141  -6.795  1.00  0.00    -0.295 NA
BRANCH  25  26
HETATM   26  N6  UNL     1       4.838 -32.748  -5.820  1.00  0.00    -0.192 N 
HETATM   27  C8  UNL     1       3.590 -33.552  -5.145  1.00  0.00     0.335 C 
HETATM   28  O3  UNL     1       2.571 -33.218  -5.502  1.00  0.00    -0.260 OA
ATOM     29  H6  UNL     1       5.831 -32.712  -5.591  1.00  0.00     0.205 HD
BRANCH  27  30
HETATM   30  C9  UNL     1       4.050 -34.465  -4.264  1.00  0.00     0.325 C 
HETATM   31  N7  UNL     1       3.832 -35.913  -4.415  1.00  0.00    -0.053 NA
HETATM   32  O4  UNL     1       4.736 -34.325  -3.210  1.00  0.00    -0.266 OA
ENDBRANCH  27  30
ENDBRANCH  25  26
ENDBRANCH  22  25
ENDBRANCH  21  22
ENDBRANCH  20  21
ENDBRANCH   1  20
TORSDOF 9
ENDMDL
MODEL 5
REMARK VINA RESULT: -6.675032709      1.634      1.998
REMARK  9 active torsions:
REMARK  status: ('A' for Active; 'I' for Inactive)
REMARK       I    between atoms: C1_4  and  N3_6 
REMARK    1  A    between atoms: C4_10  and  C5_11 
REMARK    2  A    between atoms: C5_11  and  N4_12 
REMARK    3  A    between atoms: C5_11  and  O1_15 
REMARK    4  A    between atoms: O1_15  and  C6_16 
REMARK    5  A    between atoms: C6_16  and  C7_17 
REMARK    6  A    between atoms: C7_17  and  O2_18 
REMARK    7  A    between atoms: C7_17  and  N5_20 
REMARK    8  A    between atoms: N5_20  and  N6_21 
REMARK       I    between atoms: N6_21  and  C8_23 
REMARK    9  A    between atoms: C8_23  and  C9_25 
ROOT
HETATM    1  C5  UNL     1       3.468 -31.734 -11.088  1.00  0.00     0.168 C 
ENDROOT
BRANCH   1   2
HETATM    2  C4  UNL     1       3.327 -31.020  -9.892  1.00  0.00     0.088 A 
HETATM    3  C3  UNL     1       3.337 -31.719  -8.685  1.00  0.00     0.082 A 
HETATM    4  C2  UNL     1       3.143 -30.959  -7.461  1.00  0.00     0.110 A 
HETATM    5  N3  UNL     1       3.179 -31.743  -6.453  1.00  0.00    -0.317 N 
HETATM    6  N9  UNL     1       2.940 -29.663  -7.406  1.00  0.00    -0.338 N 
HETATM    7  C1  UNL     1       3.082 -31.790  -5.152  1.00  0.00     0.187 C 
ATOM      8  H3  UNL     1       3.344 -32.690  -6.793  1.00  0.00     0.170 HD
HETATM    9  N1  UNL     1       3.189 -32.872  -4.348  1.00  0.00    -0.373 N 
HETATM   10  N2  UNL     1       2.839 -30.623  -4.350  1.00  0.00    -0.064 NA
ATOM     11  H12 UNL     1       3.113 -32.908  -3.332  1.00  0.00     0.158 HD
ATOM     12  H11 UNL     1       3.362 -33.700  -4.917  1.00  0.00     0.158 HD
HETATM   13  C10 UNL     1       2.939 -29.028  -8.643  1.00  0.00     0.182 A 
ATOM     14  H9  UNL     1       2.795 -29.164  -6.529  1.00  0.00     0.168 HD
HETATM   15  N8  UNL     1       3.127 -29.712  -9.804  1.00  0.00    -0.349 N 
ATOM     16  H8  UNL     1       3.113 -29.178 -10.672  1.00  0.00     0.167 HD
ENDBRANCH   1   2
BRANCH   1  17
HETATM   17  N4  UNL     1       2.357 -32.283 -11.675  1.00  0.00    -0.378 N 
ATOM     18  H42 UNL     1       2.604 -33.259 -11.843  1.00  0.00     0.158 HD
ATOM     19  H41 UNL     1       1.538 -31.698 -11.834  1.00  0.00     0.158 HD
ENDBRANCH   1  17
BRANCH   1  20
HETATM   20  O1  UNL     1       4.522 -32.077 -11.924  1.00  0.00    -0.299 OA
BRANCH  20  21
HETATM   21  C6  UNL     1       5.239 -31.269 -12.674  1.00  0.00     0.218 C 
BRANCH  21  22
HETATM   22  C7  UNL     1       4.998 -30.986 -14.101  1.00  0.00     0.261 C 
BRANCH  22  23
HETATM   23  O2  UNL     1       3.726 -31.322 -14.466  1.00  0.00    -0.333 OA
ATOM     24  H2  UNL     1       3.088 -30.747 -14.060  1.00  0.00     0.220 HD
ENDBRANCH  22  23
BRANCH  22  25
HETATM   25  N5  UNL     1       5.799 -30.488 -15.058  1.00  0.00    -0.295 NA
BRANCH  25  26
HETATM   26  N6  UNL     1       6.692 -29.934 -15.926  1.00  0.00    -0.192 N 
HETATM   27  C8  UNL     1       5.885 -30.344 -17.283  1.00  0.00     0.335 C 
HETATM   28  O3  UNL     1       5.046 -31.083 -17.122  1.00  0.00    -0.260 OA
ATOM     29  H6  UNL     1       7.568 -29.433 -15.777  1.00  0.00     0.205 HD
BRANCH  27  30
HETATM   30  C9  UNL     1       6.416 -29.705 -18.347  1.00  0.00     0.325 C 
HETATM   31  N7  UNL     1       5.666 -29.440 -19.585  1.00  0.00    -0.053 NA
HETATM   32  O4  UNL     1       7.564 -29.202 -18.522  1.00  0.00    -0.266 OA
ENDBRANCH  27  30
ENDBRANCH  25  26
ENDBRANCH  22  25
ENDBRANCH  21  22
ENDBRANCH  20  21
ENDBRANCH   1  20
TORSDOF 9
ENDMDL
