MODEL 1
REMARK VINA RESULT: -5.980747329      0.000      0.000
REMARK  3 active torsions:
REMARK  status: ('A' for Active; 'I' for Inactive)
REMARK    1  A    between atoms: C2_2  and  C3_3 
REMARK    2  A    between atoms: C6_6  and  O1_7 
REMARK    3  A    between atoms: C11_13  and  O2_14 
ROOT
HETATM    1  C3  UNL     1      -1.431 -26.657 -27.476  1.00  0.00    -0.033 C 
HETATM    2  C4  UNL     1      -1.356 -25.354 -28.293  1.00  0.00     0.012 C 
HETATM    3  C5  UNL     1      -2.648 -25.298 -29.063  1.00  0.00     0.033 C 
HETATM    4  C6  UNL     1      -3.617 -25.768 -27.960  1.00  0.00     0.123 C 
HETATM    5  C7  UNL     1      -2.878 -26.895 -27.367  1.00  0.00     0.032 C 
HETATM    6  C8  UNL     1      -3.214 -27.258 -25.914  1.00  0.00    -0.022 C 
HETATM    7  C9  UNL     1      -4.590 -26.729 -25.624  1.00  0.00     0.013 C 
HETATM    8  C10 UNL     1      -5.495 -27.637 -24.843  1.00  0.00     0.033 C 
HETATM    9  C11 UNL     1      -5.979 -28.740 -25.764  1.00  0.00     0.120 C 
HETATM   10  C13 UNL     1      -4.820 -29.026 -26.684  1.00  0.00     0.033 C 
HETATM   11  C14 UNL     1      -3.479 -28.779 -25.967  1.00  0.00     0.013 C 
HETATM   12  C15 UNL     1      -2.085 -26.856 -25.124  1.00  0.00     0.008 C 
HETATM   13  C16 UNL     1      -2.278 -25.626 -24.231  1.00  0.00     0.124 C 
HETATM   14  C17 UNL     1      -2.752 -26.276 -22.963  1.00  0.00     0.260 C 
HETATM   15  O3  UNL     1      -3.326 -25.723 -21.978  1.00  0.00    -0.265 OA
HETATM   16  O4  UNL     1      -2.450 -27.649 -23.033  1.00  0.00    -0.310 OA
HETATM   17  C18 UNL     1      -1.463 -27.697 -24.072  1.00  0.00     0.072 C 
HETATM   18  C19 UNL     1      -0.292 -26.920 -23.441  1.00  0.00     0.047 C 
HETATM   19  C20 UNL     1      -0.970 -29.041 -24.360  1.00  0.00     0.047 C 
HETATM   20  C21 UNL     1      -0.950 -26.478 -26.088  1.00  0.00     0.023 C 
ENDROOT
BRANCH   1  21
HETATM   21  C2  UNL     1      -0.622 -27.644 -28.234  1.00  0.00     0.005 C 
HETATM   22  C1  UNL     1       0.625 -28.131 -27.619  1.00  0.00     0.006 C 
ENDBRANCH   1  21
BRANCH   4  23
HETATM   23  O1  UNL     1      -3.895 -24.654 -27.258  1.00  0.00    -0.395 OA
ATOM     24  H1  UNL     1      -4.412 -24.960 -26.522  1.00  0.00     0.210 HD
ENDBRANCH   4  23
BRANCH   9  25
HETATM   25  O2  UNL     1      -6.422 -29.848 -25.083  1.00  0.00    -0.391 OA
HETATM   26  C12 UNL     1      -7.404 -30.489 -25.837  1.00  0.00     0.202 C 
ENDBRANCH   9  25
TORSDOF 3
ENDMDL
MODEL 2
REMARK VINA RESULT: -5.893594638      1.918      2.981
REMARK  3 active torsions:
REMARK  status: ('A' for Active; 'I' for Inactive)
REMARK    1  A    between atoms: C2_2  and  C3_3 
REMARK    2  A    between atoms: C6_6  and  O1_7 
REMARK    3  A    between atoms: C11_13  and  O2_14 
ROOT
HETATM    1  C3  UNL     1      -2.237 -25.414 -25.953  1.00  0.00    -0.033 C 
HETATM    2  C4  UNL     1      -1.742 -24.650 -27.195  1.00  0.00     0.012 C 
HETATM    3  C5  UNL     1      -1.772 -25.656 -28.314  1.00  0.00     0.033 C 
HETATM    4  C6  UNL     1      -3.116 -26.343 -27.995  1.00  0.00     0.123 C 
HETATM    5  C7  UNL     1      -3.034 -26.505 -26.535  1.00  0.00     0.032 C 
HETATM    6  C8  UNL     1      -4.362 -26.611 -25.772  1.00  0.00    -0.022 C 
HETATM    7  C9  UNL     1      -5.408 -27.065 -26.751  1.00  0.00     0.013 C 
HETATM    8  C10 UNL     1      -6.371 -28.104 -26.252  1.00  0.00     0.033 C 
HETATM    9  C11 UNL     1      -5.656 -29.439 -26.208  1.00  0.00     0.120 C 
HETATM   10  C13 UNL     1      -4.236 -29.116 -25.817  1.00  0.00     0.033 C 
HETATM   11  C14 UNL     1      -4.189 -27.877 -24.904  1.00  0.00     0.013 C 
HETATM   12  C15 UNL     1      -4.513 -25.381 -25.046  1.00  0.00     0.008 C 
HETATM   13  C16 UNL     1      -5.576 -24.407 -25.563  1.00  0.00     0.124 C 
HETATM   14  C17 UNL     1      -6.770 -24.854 -24.770  1.00  0.00     0.260 C 
HETATM   15  O3  UNL     1      -7.989 -24.587 -24.989  1.00  0.00    -0.265 OA
HETATM   16  O4  UNL     1      -6.315 -25.648 -23.699  1.00  0.00    -0.310 OA
HETATM   17  C18 UNL     1      -4.927 -25.299 -23.623  1.00  0.00     0.072 C 
HETATM   18  C19 UNL     1      -4.987 -23.818 -23.207  1.00  0.00     0.047 C 
HETATM   19  C20 UNL     1      -4.196 -26.002 -22.573  1.00  0.00     0.047 C 
HETATM   20  C21 UNL     1      -3.185 -24.615 -25.144  1.00  0.00     0.023 C 
ENDROOT
BRANCH   1  21
HETATM   21  C2  UNL     1      -1.012 -25.776 -25.199  1.00  0.00     0.005 C 
HETATM   22  C1  UNL     1      -0.668 -27.205 -25.088  1.00  0.00     0.006 C 
ENDBRANCH   1  21
BRANCH   4  23
HETATM   23  O1  UNL     1      -4.042 -25.556 -28.571  1.00  0.00    -0.395 OA
ATOM     24  H1  UNL     1      -4.202 -25.957 -29.418  1.00  0.00     0.210 HD
ENDBRANCH   4  23
BRANCH   9  25
HETATM   25  O2  UNL     1      -6.261 -30.342 -25.367  1.00  0.00    -0.391 OA
HETATM   26  C12 UNL     1      -7.551 -30.605 -25.825  1.00  0.00     0.202 C 
ENDBRANCH   9  25
TORSDOF 3
ENDMDL
MODEL 3
REMARK VINA RESULT: -5.632698819      2.092      4.775
REMARK  3 active torsions:
REMARK  status: ('A' for Active; 'I' for Inactive)
REMARK    1  A    between atoms: C2_2  and  C3_3 
REMARK    2  A    between atoms: C6_6  and  O1_7 
REMARK    3  A    between atoms: C11_13  and  O2_14 
ROOT
HETATM    1  C3  UNL     1      -4.323 -26.182 -25.991  1.00  0.00    -0.033 C 
HETATM    2  C4  UNL     1      -5.697 -26.866 -26.109  1.00  0.00     0.012 C 
HETATM    3  C5  UNL     1      -5.791 -27.317 -27.542  1.00  0.00     0.033 C 
HETATM    4  C6  UNL     1      -4.356 -27.849 -27.731  1.00  0.00     0.123 C 
HETATM    5  C7  UNL     1      -3.555 -26.796 -27.086  1.00  0.00     0.032 C 
HETATM    6  C8  UNL     1      -2.172 -27.201 -26.557  1.00  0.00    -0.022 C 
HETATM    7  C9  UNL     1      -1.749 -28.435 -27.302  1.00  0.00     0.013 C 
HETATM    8  C10 UNL     1      -0.314 -28.480 -27.742  1.00  0.00     0.033 C 
HETATM    9  C11 UNL     1      -0.148 -27.556 -28.932  1.00  0.00     0.120 C 
HETATM   10  C13 UNL     1      -1.084 -26.402 -28.671  1.00  0.00     0.033 C 
HETATM   11  C14 UNL     1      -1.223 -26.142 -27.160  1.00  0.00     0.013 C 
HETATM   12  C15 UNL     1      -2.269 -27.198 -25.124  1.00  0.00     0.008 C 
HETATM   13  C16 UNL     1      -2.271 -28.567 -24.436  1.00  0.00     0.124 C 
HETATM   14  C17 UNL     1      -0.802 -28.756 -24.193  1.00  0.00     0.260 C 
HETATM   15  O3  UNL     1      -0.198 -29.832 -23.904  1.00  0.00    -0.265 OA
HETATM   16  O4  UNL     1      -0.166 -27.508 -24.338  1.00  0.00    -0.310 OA
HETATM   17  C18 UNL     1      -1.260 -26.589 -24.222  1.00  0.00     0.072 C 
HETATM   18  C19 UNL     1      -1.706 -26.798 -22.764  1.00  0.00     0.047 C 
HETATM   19  C20 UNL     1      -0.872 -25.187 -24.347  1.00  0.00     0.047 C 
HETATM   20  C21 UNL     1      -3.613 -26.556 -24.748  1.00  0.00     0.023 C 
ENDROOT
BRANCH   1  21
HETATM   21  C2  UNL     1      -4.599 -24.727 -26.071  1.00  0.00     0.005 C 
HETATM   22  C1  UNL     1      -4.363 -23.913 -24.865  1.00  0.00     0.006 C 
ENDBRANCH   1  21
BRANCH   4  23
HETATM   23  O1  UNL     1      -4.396 -29.105 -27.250  1.00  0.00    -0.395 OA
ATOM     24  H1  UNL     1      -3.975 -29.047 -26.400  1.00  0.00     0.210 HD
ENDBRANCH   4  23
BRANCH   9  25
HETATM   25  O2  UNL     1       1.155 -27.168 -29.130  1.00  0.00    -0.391 OA
HETATM   26  C12 UNL     1       1.346 -26.866 -30.477  1.00  0.00     0.202 C 
ENDBRANCH   9  25
TORSDOF 3
ENDMDL
MODEL 4
REMARK VINA RESULT: -5.601092192      1.933      5.262
REMARK  3 active torsions:
REMARK  status: ('A' for Active; 'I' for Inactive)
REMARK    1  A    between atoms: C2_2  and  C3_3 
REMARK    2  A    between atoms: C6_6  and  O1_7 
REMARK    3  A    between atoms: C11_13  and  O2_14 
ROOT
HETATM    1  C3  UNL     1      -4.383 -26.367 -23.266  1.00  0.00    -0.033 C 
HETATM    2  C4  UNL     1      -4.959 -25.045 -22.729  1.00  0.00     0.012 C 
HETATM    3  C5  UNL     1      -3.834 -24.051 -22.840  1.00  0.00     0.033 C 
HETATM    4  C6  UNL     1      -3.286 -24.449 -24.225  1.00  0.00     0.123 C 
HETATM    5  C7  UNL     1      -3.290 -25.918 -24.143  1.00  0.00     0.032 C 
HETATM    6  C8  UNL     1      -3.369 -26.688 -25.468  1.00  0.00    -0.022 C 
HETATM    7  C9  UNL     1      -2.878 -25.770 -26.552  1.00  0.00     0.013 C 
HETATM    8  C10 UNL     1      -1.976 -26.387 -27.581  1.00  0.00     0.033 C 
HETATM    9  C11 UNL     1      -0.608 -26.587 -26.962  1.00  0.00     0.120 C 
HETATM   10  C13 UNL     1      -0.873 -26.937 -25.520  1.00  0.00     0.033 C 
HETATM   11  C14 UNL     1      -2.203 -27.698 -25.377  1.00  0.00     0.013 C 
HETATM   12  C15 UNL     1      -4.682 -27.265 -25.526  1.00  0.00     0.008 C 
HETATM   13  C16 UNL     1      -5.662 -26.638 -26.522  1.00  0.00     0.124 C 
HETATM   14  C17 UNL     1      -5.397 -27.479 -27.738  1.00  0.00     0.260 C 
HETATM   15  O3  UNL     1      -5.722 -27.230 -28.937  1.00  0.00    -0.265 OA
HETATM   16  O4  UNL     1      -4.703 -28.635 -27.331  1.00  0.00    -0.310 OA
HETATM   17  C18 UNL     1      -4.959 -28.669 -25.920  1.00  0.00     0.072 C 
HETATM   18  C19 UNL     1      -6.479 -28.908 -25.873  1.00  0.00     0.047 C 
HETATM   19  C20 UNL     1      -4.334 -29.794 -25.232  1.00  0.00     0.047 C 
HETATM   20  C21 UNL     1      -5.335 -27.078 -24.148  1.00  0.00     0.023 C 
ENDROOT
BRANCH   1  21
HETATM   21  C2  UNL     1      -4.025 -27.158 -22.063  1.00  0.00     0.005 C 
HETATM   22  C1  UNL     1      -2.595 -27.378 -21.782  1.00  0.00     0.006 C 
ENDBRANCH   1  21
BRANCH   4  23
HETATM   23  O1  UNL     1      -4.064 -23.785 -25.099  1.00  0.00    -0.395 OA
ATOM     24  H1  UNL     1      -3.792 -22.878 -25.018  1.00  0.00     0.210 HD
ENDBRANCH   4  23
BRANCH   9  25
HETATM   25  O2  UNL     1       0.145 -27.528 -27.622  1.00  0.00    -0.391 OA
HETATM   26  C12 UNL     1      -0.053 -27.396 -28.995  1.00  0.00     0.202 C 
ENDBRANCH   9  25
TORSDOF 3
ENDMDL
MODEL 5
REMARK VINA RESULT: -5.535812459      2.302      5.229
REMARK  3 active torsions:
REMARK  status: ('A' for Active; 'I' for Inactive)
REMARK    1  A    between atoms: C2_2  and  C3_3 
REMARK    2  A    between atoms: C6_6  and  O1_7 
REMARK    3  A    between atoms: C11_13  and  O2_14 
ROOT
HETATM    1  C3  UNL     1      -2.850 -27.371 -23.441  1.00  0.00    -0.033 C 
HETATM    2  C4  UNL     1      -3.365 -28.578 -22.636  1.00  0.00     0.012 C 
HETATM    3  C5  UNL     1      -4.416 -28.018 -21.716  1.00  0.00     0.033 C 
HETATM    4  C6  UNL     1      -5.119 -27.056 -22.695  1.00  0.00     0.123 C 
HETATM    5  C7  UNL     1      -3.976 -26.426 -23.375  1.00  0.00     0.032 C 
HETATM    6  C8  UNL     1      -4.228 -25.857 -24.778  1.00  0.00    -0.022 C 
HETATM    7  C9  UNL     1      -5.704 -25.597 -24.899  1.00  0.00     0.013 C 
HETATM    8  C10 UNL     1      -6.094 -24.310 -25.567  1.00  0.00     0.033 C 
HETATM    9  C11 UNL     1      -5.848 -23.172 -24.597  1.00  0.00     0.120 C 
HETATM   10  C13 UNL     1      -4.616 -23.569 -23.824  1.00  0.00     0.033 C 
HETATM   11  C14 UNL     1      -3.673 -24.417 -24.697  1.00  0.00     0.013 C 
HETATM   12  C15 UNL     1      -3.553 -26.728 -25.698  1.00  0.00     0.008 C 
HETATM   13  C16 UNL     1      -4.439 -27.634 -26.558  1.00  0.00     0.124 C 
HETATM   14  C17 UNL     1      -4.644 -26.759 -27.761  1.00  0.00     0.260 C 
HETATM   15  O3  UNL     1      -5.519 -26.885 -28.669  1.00  0.00    -0.265 OA
HETATM   16  O4  UNL     1      -3.678 -25.736 -27.731  1.00  0.00    -0.310 OA
HETATM   17  C18 UNL     1      -2.702 -26.257 -26.819  1.00  0.00     0.072 C 
HETATM   18  C19 UNL     1      -2.165 -27.481 -27.584  1.00  0.00     0.047 C 
HETATM   19  C20 UNL     1      -1.566 -25.369 -26.595  1.00  0.00     0.047 C 
HETATM   20  C21 UNL     1      -2.676 -27.685 -24.876  1.00  0.00     0.023 C 
ENDROOT
BRANCH   1  21
HETATM   21  C2  UNL     1      -1.577 -26.977 -22.788  1.00  0.00     0.005 C 
HETATM   22  C1  UNL     1      -0.343 -27.031 -23.592  1.00  0.00     0.006 C 
ENDBRANCH   1  21
BRANCH   4  23
HETATM   23  O1  UNL     1      -5.998 -27.831 -23.356  1.00  0.00    -0.395 OA
ATOM     24  H1  UNL     1      -5.520 -28.136 -24.119  1.00  0.00     0.210 HD
ENDBRANCH   4  23
BRANCH   9  25
HETATM   25  O2  UNL     1      -5.732 -21.954 -25.221  1.00  0.00    -0.391 OA
HETATM   26  C12 UNL     1      -6.532 -21.943 -26.363  1.00  0.00     0.202 C 
ENDBRANCH   9  25
TORSDOF 3
ENDMDL
