MODEL 1
REMARK VINA RESULT: -6.565856480      0.000      0.000
REMARK  6 active torsions:
REMARK  status: ('A' for Active; 'I' for Inactive)
REMARK    1  A    between atoms: C2_2  and  C4_4 
REMARK    2  A    between atoms: C4_4  and  C5_5 
REMARK    3  A    between atoms: C5_5  and  N2_8 
REMARK    4  A    between atoms: C7_9  and  O1_10 
REMARK    5  A    between atoms: C10_14  and  O2_15 
REMARK    6  A    between atoms: C15_21  and  C17_23 
ROOT
HETATM    1  C5  UNL     1      58.313   8.442  34.297  1.00  0.00     0.201 C 
HETATM    2  C6  UNL     1      59.427   8.151  33.404  1.00  0.00     0.085 C 
HETATM    3  N1  UNL     1      60.326   7.902  32.699  1.00  0.00    -0.195 NA
ENDROOT
BRANCH   1   4
HETATM    4  C4  UNL     1      58.658   9.652  35.139  1.00  0.00     0.044 C 
BRANCH   4   5
HETATM    5  C2  UNL     1      58.401  10.901  34.341  1.00  0.00    -0.020 C 
HETATM    6  C1  UNL     1      59.314  12.019  34.794  1.00  0.00     0.009 C 
HETATM    7  C3  UNL     1      56.953  11.335  34.476  1.00  0.00     0.009 C 
ENDBRANCH   4   5
ENDBRANCH   1   4
BRANCH   1   8
HETATM    8  N2  UNL     1      57.922   7.314  35.102  1.00  0.00    -0.289 N 
HETATM    9  C7  UNL     1      58.035   6.007  34.821  1.00  0.00     0.152 A 
HETATM   10  C8  UNL     1      57.543   5.250  35.855  1.00  0.00     0.009 A 
HETATM   11  C9  UNL     1      57.108   6.145  36.813  1.00  0.00     0.009 A 
HETATM   12  C14 UNL     1      57.257   3.876  36.426  1.00  0.00     0.033 C 
HETATM   13  C10 UNL     1      57.351   7.398  36.330  1.00  0.00     0.152 A 
HETATM   14  C11 UNL     1      56.562   5.307  37.960  1.00  0.00     0.033 C 
HETATM   15  C12 UNL     1      55.266   4.792  37.391  1.00  0.00     0.011 C 
HETATM   16  C15 UNL     1      57.572   4.193  37.872  1.00  0.00    -0.022 C 
HETATM   17  C13 UNL     1      55.747   3.778  36.385  1.00  0.00     0.011 C 
HETATM   18  C16 UNL     1      58.948   4.890  37.901  1.00  0.00     0.017 C 
BRANCH   9  19
HETATM   19  O1  UNL     1      58.576   5.477  33.650  1.00  0.00    -0.345 OA
ATOM     20  H1  UNL     1      58.342   4.640  33.267  1.00  0.00     0.219 HD
ENDBRANCH   9  19
BRANCH  13  21
HETATM   21  O2  UNL     1      57.037   8.560  37.036  1.00  0.00    -0.345 OA
ATOM     22  H2  UNL     1      56.475   8.634  37.799  1.00  0.00     0.219 HD
ENDBRANCH  13  21
BRANCH  16  23
HETATM   23  C17 UNL     1      57.599   3.138  38.835  1.00  0.00    -0.043 C 
HETATM   24  C18 UNL     1      59.077   2.811  39.124  1.00  0.00     0.015 C 
HETATM   25  C19 UNL     1      56.956   1.824  38.591  1.00  0.00     0.015 C 
HETATM   26  C20 UNL     1      57.031   3.664  40.155  1.00  0.00     0.015 C 
ENDBRANCH  16  23
ENDBRANCH   1   8
TORSDOF 6
ENDMDL
MODEL 2
REMARK VINA RESULT: -6.514736396      1.022      2.692
REMARK  6 active torsions:
REMARK  status: ('A' for Active; 'I' for Inactive)
REMARK    1  A    between atoms: C2_2  and  C4_4 
REMARK    2  A    between atoms: C4_4  and  C5_5 
REMARK    3  A    between atoms: C5_5  and  N2_8 
REMARK    4  A    between atoms: C7_9  and  O1_10 
REMARK    5  A    between atoms: C10_14  and  O2_15 
REMARK    6  A    between atoms: C15_21  and  C17_23 
ROOT
HETATM    1  C5  UNL     1      58.412   8.652  34.098  1.00  0.00     0.201 C 
HETATM    2  C6  UNL     1      59.603   8.601  33.260  1.00  0.00     0.085 C 
HETATM    3  N1  UNL     1      60.567   8.546  32.600  1.00  0.00    -0.195 NA
ENDROOT
BRANCH   1   4
HETATM    4  C4  UNL     1      58.493   9.866  34.999  1.00  0.00     0.044 C 
BRANCH   4   5
HETATM    5  C2  UNL     1      58.628  11.103  34.154  1.00  0.00    -0.020 C 
HETATM    6  C1  UNL     1      59.638  12.053  34.760  1.00  0.00     0.009 C 
HETATM    7  C3  UNL     1      57.290  11.803  34.010  1.00  0.00     0.009 C 
ENDBRANCH   4   5
ENDBRANCH   1   4
BRANCH   1   8
HETATM    8  N2  UNL     1      58.188   7.439  34.840  1.00  0.00    -0.289 N 
HETATM    9  C7  UNL     1      57.664   7.295  36.067  1.00  0.00     0.152 A 
HETATM   10  C8  UNL     1      57.620   5.968  36.416  1.00  0.00     0.009 A 
HETATM   11  C9  UNL     1      58.144   5.272  35.344  1.00  0.00     0.009 A 
HETATM   12  C14 UNL     1      57.258   4.915  37.444  1.00  0.00     0.033 C 
HETATM   13  C10 UNL     1      58.482   6.191  34.395  1.00  0.00     0.152 A 
HETATM   14  C11 UNL     1      58.095   3.800  35.731  1.00  0.00     0.033 C 
HETATM   15  C12 UNL     1      59.200   3.699  36.749  1.00  0.00     0.011 C 
HETATM   16  C15 UNL     1      56.789   3.849  36.479  1.00  0.00    -0.022 C 
HETATM   17  C13 UNL     1      58.601   4.415  37.932  1.00  0.00     0.011 C 
HETATM   18  C16 UNL     1      55.789   4.513  35.510  1.00  0.00     0.017 C 
BRANCH   9  19
HETATM   19  O1  UNL     1      57.223   8.335  36.884  1.00  0.00    -0.345 OA
ATOM     20  H1  UNL     1      56.614   9.017  36.624  1.00  0.00     0.219 HD
ENDBRANCH   9  19
BRANCH  13  21
HETATM   21  O2  UNL     1      59.047   5.846  33.166  1.00  0.00    -0.345 OA
ATOM     22  H2  UNL     1      58.841   5.086  32.634  1.00  0.00     0.219 HD
ENDBRANCH  13  21
BRANCH  16  23
HETATM   23  C17 UNL     1      56.179   2.660  36.984  1.00  0.00    -0.043 C 
HETATM   24  C18 UNL     1      54.701   2.676  36.549  1.00  0.00     0.015 C 
HETATM   25  C19 UNL     1      56.148   2.337  38.433  1.00  0.00     0.015 C 
HETATM   26  C20 UNL     1      56.800   1.452  36.280  1.00  0.00     0.015 C 
ENDBRANCH  16  23
ENDBRANCH   1   8
TORSDOF 6
ENDMDL
MODEL 3
REMARK VINA RESULT: -6.479801350      3.718      7.769
REMARK  6 active torsions:
REMARK  status: ('A' for Active; 'I' for Inactive)
REMARK    1  A    between atoms: C2_2  and  C4_4 
REMARK    2  A    between atoms: C4_4  and  C5_5 
REMARK    3  A    between atoms: C5_5  and  N2_8 
REMARK    4  A    between atoms: C7_9  and  O1_10 
REMARK    5  A    between atoms: C10_14  and  O2_15 
REMARK    6  A    between atoms: C15_21  and  C17_23 
ROOT
HETATM    1  C5  UNL     1      58.340   9.106  34.397  1.00  0.00     0.201 C 
HETATM    2  C6  UNL     1      57.746  10.410  34.132  1.00  0.00     0.085 C 
HETATM    3  N1  UNL     1      57.288  11.464  33.918  1.00  0.00    -0.195 NA
ENDROOT
BRANCH   1   4
HETATM    4  C4  UNL     1      58.301   8.838  35.886  1.00  0.00     0.044 C 
BRANCH   4   5
HETATM    5  C2  UNL     1      57.290   7.760  36.170  1.00  0.00    -0.020 C 
HETATM    6  C1  UNL     1      57.181   7.512  37.658  1.00  0.00     0.009 C 
HETATM    7  C3  UNL     1      57.665   6.473  35.462  1.00  0.00     0.009 C 
ENDBRANCH   4   5
ENDBRANCH   1   4
BRANCH   1   8
HETATM    8  N2  UNL     1      59.666   8.966  33.855  1.00  0.00    -0.289 N 
HETATM    9  C7  UNL     1      60.172   7.954  33.133  1.00  0.00     0.152 A 
HETATM   10  C8  UNL     1      61.481   8.205  32.807  1.00  0.00     0.009 A 
HETATM   11  C9  UNL     1      61.786   9.433  33.360  1.00  0.00     0.009 A 
HETATM   12  C14 UNL     1      62.749   7.747  32.115  1.00  0.00     0.033 C 
HETATM   13  C10 UNL     1      60.662   9.877  33.994  1.00  0.00     0.152 A 
HETATM   14  C11 UNL     1      63.238   9.712  32.999  1.00  0.00     0.033 C 
HETATM   15  C12 UNL     1      63.981   8.762  33.901  1.00  0.00     0.011 C 
HETATM   16  C15 UNL     1      63.206   9.102  31.622  1.00  0.00    -0.022 C 
HETATM   17  C13 UNL     1      63.687   7.429  33.260  1.00  0.00     0.011 C 
HETATM   18  C16 UNL     1      62.006   9.763  30.913  1.00  0.00     0.017 C 
BRANCH   9  19
HETATM   19  O1  UNL     1      59.477   6.804  32.758  1.00  0.00    -0.345 OA
ATOM     20  H1  UNL     1      59.875   5.978  32.509  1.00  0.00     0.219 HD
ENDBRANCH   9  19
BRANCH  13  21
HETATM   21  O2  UNL     1      60.601  11.096  34.672  1.00  0.00    -0.345 OA
ATOM     22  H2  UNL     1      59.860  11.688  34.721  1.00  0.00     0.219 HD
ENDBRANCH  13  21
BRANCH  16  23
HETATM   23  C17 UNL     1      64.331   9.192  30.746  1.00  0.00    -0.043 C 
HETATM   24  C18 UNL     1      63.804   9.589  29.353  1.00  0.00     0.015 C 
HETATM   25  C19 UNL     1      65.238   8.044  30.499  1.00  0.00     0.015 C 
HETATM   26  C20 UNL     1      65.214  10.357  31.197  1.00  0.00     0.015 C 
ENDBRANCH  16  23
ENDBRANCH   1   8
TORSDOF 6
ENDMDL
MODEL 4
REMARK VINA RESULT: -6.453657332      3.682      7.626
REMARK  6 active torsions:
REMARK  status: ('A' for Active; 'I' for Inactive)
REMARK    1  A    between atoms: C2_2  and  C4_4 
REMARK    2  A    between atoms: C4_4  and  C5_5 
REMARK    3  A    between atoms: C5_5  and  N2_8 
REMARK    4  A    between atoms: C7_9  and  O1_10 
REMARK    5  A    between atoms: C10_14  and  O2_15 
REMARK    6  A    between atoms: C15_21  and  C17_23 
ROOT
HETATM    1  C5  UNL     1      58.258   8.934  34.252  1.00  0.00     0.201 C 
HETATM    2  C6  UNL     1      57.566  10.206  34.100  1.00  0.00     0.085 C 
HETATM    3  N1  UNL     1      57.028  11.237  33.974  1.00  0.00    -0.195 NA
ENDROOT
BRANCH   1   4
HETATM    4  C4  UNL     1      58.452   8.649  35.726  1.00  0.00     0.044 C 
BRANCH   4   5
HETATM    5  C2  UNL     1      57.353   7.740  36.205  1.00  0.00    -0.020 C 
HETATM    6  C1  UNL     1      57.337   7.677  37.716  1.00  0.00     0.009 C 
HETATM    7  C3  UNL     1      57.524   6.345  35.635  1.00  0.00     0.009 C 
ENDBRANCH   4   5
ENDBRANCH   1   4
BRANCH   1   8
HETATM    8  N2  UNL     1      59.496   8.870  33.520  1.00  0.00    -0.289 N 
HETATM    9  C7  UNL     1      60.258   9.882  33.077  1.00  0.00     0.152 A 
HETATM   10  C8  UNL     1      61.362   9.399  32.420  1.00  0.00     0.009 A 
HETATM   11  C9  UNL     1      61.264   8.022  32.467  1.00  0.00     0.009 A 
HETATM   12  C14 UNL     1      62.643   9.687  31.664  1.00  0.00     0.033 C 
HETATM   13  C10 UNL     1      60.117   7.724  33.143  1.00  0.00     0.152 A 
HETATM   14  C11 UNL     1      62.488   7.485  31.738  1.00  0.00     0.033 C 
HETATM   15  C12 UNL     1      62.161   7.780  30.299  1.00  0.00     0.011 C 
HETATM   16  C15 UNL     1      63.459   8.536  32.210  1.00  0.00    -0.022 C 
HETATM   17  C13 UNL     1      62.320   9.278  30.243  1.00  0.00     0.011 C 
HETATM   18  C16 UNL     1      63.319   8.559  33.746  1.00  0.00     0.017 C 
BRANCH   9  19
HETATM   19  O1  UNL     1      59.982  11.238  33.253  1.00  0.00    -0.345 OA
ATOM     20  H1  UNL     1      59.422  11.761  32.692  1.00  0.00     0.219 HD
ENDBRANCH   9  19
BRANCH  13  21
HETATM   21  O2  UNL     1      59.692   6.416  33.383  1.00  0.00    -0.345 OA
ATOM     22  H2  UNL     1      59.286   5.822  32.763  1.00  0.00     0.219 HD
ENDBRANCH  13  21
BRANCH  16  23
HETATM   23  C17 UNL     1      64.852   8.450  31.902  1.00  0.00    -0.043 C 
HETATM   24  C18 UNL     1      65.462   9.848  32.121  1.00  0.00     0.015 C 
HETATM   25  C19 UNL     1      65.346   8.020  30.570  1.00  0.00     0.015 C 
HETATM   26  C20 UNL     1      65.527   7.543  32.932  1.00  0.00     0.015 C 
ENDBRANCH  16  23
ENDBRANCH   1   8
TORSDOF 6
ENDMDL
MODEL 5
REMARK VINA RESULT: -6.286769055      1.603      3.102
REMARK  6 active torsions:
REMARK  status: ('A' for Active; 'I' for Inactive)
REMARK    1  A    between atoms: C2_2  and  C4_4 
REMARK    2  A    between atoms: C4_4  and  C5_5 
REMARK    3  A    between atoms: C5_5  and  N2_8 
REMARK    4  A    between atoms: C7_9  and  O1_10 
REMARK    5  A    between atoms: C10_14  and  O2_15 
REMARK    6  A    between atoms: C15_21  and  C17_23 
ROOT
HETATM    1  C5  UNL     1      58.763   6.883  33.187  1.00  0.00     0.201 C 
HETATM    2  C6  UNL     1      58.543   6.041  32.018  1.00  0.00     0.085 C 
HETATM    3  N1  UNL     1      58.368   5.349  31.092  1.00  0.00    -0.195 NA
ENDROOT
BRANCH   1   4
HETATM    4  C4  UNL     1      60.209   7.331  33.208  1.00  0.00     0.044 C 
BRANCH   4   5
HETATM    5  C2  UNL     1      60.295   8.754  32.727  1.00  0.00    -0.020 C 
HETATM    6  C1  UNL     1      61.620   9.368  33.119  1.00  0.00     0.009 C 
HETATM    7  C3  UNL     1      59.158   9.582  33.296  1.00  0.00     0.009 C 
ENDBRANCH   4   5
ENDBRANCH   1   4
BRANCH   1   8
HETATM    8  N2  UNL     1      58.371   6.254  34.420  1.00  0.00    -0.289 N 
HETATM    9  C7  UNL     1      57.740   6.798  35.472  1.00  0.00     0.152 A 
HETATM   10  C8  UNL     1      57.548   5.859  36.454  1.00  0.00     0.009 A 
HETATM   11  C9  UNL     1      58.092   4.684  35.974  1.00  0.00     0.009 A 
HETATM   12  C14 UNL     1      57.011   5.522  37.831  1.00  0.00     0.033 C 
HETATM   13  C10 UNL     1      58.588   4.950  34.731  1.00  0.00     0.152 A 
HETATM   14  C11 UNL     1      57.881   3.641  37.063  1.00  0.00     0.033 C 
HETATM   15  C12 UNL     1      58.886   4.057  38.104  1.00  0.00     0.011 C 
HETATM   16  C15 UNL     1      56.527   4.123  37.518  1.00  0.00    -0.022 C 
HETATM   17  C13 UNL     1      58.260   5.310  38.660  1.00  0.00     0.011 C 
HETATM   18  C16 UNL     1      55.674   4.207  36.236  1.00  0.00     0.017 C 
BRANCH   9  19
HETATM   19  O1  UNL     1      57.328   8.127  35.568  1.00  0.00    -0.345 OA
ATOM     20  H1  UNL     1      57.584   8.733  36.253  1.00  0.00     0.219 HD
ENDBRANCH   9  19
BRANCH  13  21
HETATM   21  O2  UNL     1      59.216   3.989  33.939  1.00  0.00    -0.345 OA
ATOM     22  H2  UNL     1      59.475   3.112  34.198  1.00  0.00     0.219 HD
ENDBRANCH  13  21
BRANCH  16  23
HETATM   23  C17 UNL     1      55.774   3.402  38.495  1.00  0.00    -0.043 C 
HETATM   24  C18 UNL     1      54.284   3.550  38.134  1.00  0.00     0.015 C 
HETATM   25  C19 UNL     1      55.851   3.712  39.944  1.00  0.00     0.015 C 
HETATM   26  C20 UNL     1      56.083   1.910  38.351  1.00  0.00     0.015 C 
ENDBRANCH  16  23
ENDBRANCH   1   8
TORSDOF 6
ENDMDL
