MODEL 1
REMARK VINA RESULT: -8.077510810      0.000      0.000
REMARK  6 active torsions:
REMARK  status: ('A' for Active; 'I' for Inactive)
REMARK    1  A    between atoms: C2_2  and  C3_3 
REMARK    2  A    between atoms: C3_3  and  C4_4 
REMARK    3  A    between atoms: C9_10  and  O2_11 
REMARK    4  A    between atoms: C10_13  and  C11_14 
REMARK    5  A    between atoms: C11_14  and  C13_16 
REMARK    6  A    between atoms: C18_22  and  O3_23 
ROOT
HETATM    1  C13 UNL     1      58.168  11.409  34.293  1.00  0.00     0.029 C 
HETATM    2  C14 UNL     1      58.133  12.725  34.569  1.00  0.00     0.019 C 
HETATM    3  C15 UNL     1      59.383  13.483  34.813  1.00  0.00     0.060 C 
HETATM    4  C16 UNL     1      56.847  13.350  34.613  1.00  0.00     0.094 C 
HETATM    5  N1  UNL     1      55.813  13.856  34.621  1.00  0.00    -0.192 NA
ENDROOT
BRANCH   1   6
HETATM    6  C11 UNL     1      59.530  10.772  34.249  1.00  0.00    -0.031 C 
HETATM    7  C12 UNL     1      60.543  10.297  34.216  1.00  0.00     0.024 C 
BRANCH   6   8
HETATM    8  C10 UNL     1      58.783   9.243  34.709  1.00  0.00     0.010 A 
HETATM    9  C9  UNL     1      58.901   8.328  33.764  1.00  0.00     0.091 A 
HETATM   10  C8  UNL     1      58.262   7.108  34.115  1.00  0.00     0.053 A 
HETATM   11  C7  UNL     1      58.239   5.987  33.231  1.00  0.00     0.163 C 
HETATM   12  C19 UNL     1      57.609   6.984  35.345  1.00  0.00    -0.008 A 
HETATM   13  C6  UNL     1      58.276   4.598  33.816  1.00  0.00     0.093 C 
HETATM   14  O1  UNL     1      58.185   6.155  31.987  1.00  0.00    -0.292 OA
HETATM   15  C4  UNL     1      57.701   4.488  35.160  1.00  0.00    -0.030 C 
HETATM   16  C5  UNL     1      56.738   3.280  35.184  1.00  0.00     0.016 C 
HETATM   17  C20 UNL     1      56.929   5.687  35.676  1.00  0.00     0.052 C 
HETATM   18  C18 UNL     1      57.559   8.004  36.238  1.00  0.00     0.073 A 
HETATM   19  C17 UNL     1      58.209   9.242  35.874  1.00  0.00     0.052 A 
BRANCH   9  20
HETATM   20  O2  UNL     1      59.537   8.447  32.577  1.00  0.00    -0.359 OA
ATOM     21  H2  UNL     1      59.489   9.259  32.087  1.00  0.00     0.217 HD
ENDBRANCH   9  20
BRANCH  15  22
HETATM   22  C3  UNL     1      58.798   4.169  36.167  1.00  0.00     0.036 C 
BRANCH  22  23
HETATM   23  C2  UNL     1      58.324   4.251  37.555  1.00  0.00    -0.036 C 
HETATM   24  C1  UNL     1      59.099   3.767  38.558  1.00  0.00     0.007 C 
ENDBRANCH  22  23
ENDBRANCH  15  22
BRANCH  18  25
HETATM   25  O3  UNL     1      56.951   7.985  37.453  1.00  0.00    -0.360 OA
ATOM     26  H3  UNL     1      56.004   8.059  37.447  1.00  0.00     0.217 HD
ENDBRANCH  18  25
ENDBRANCH   6   8
ENDBRANCH   1   6
TORSDOF 6
ENDMDL
MODEL 2
REMARK VINA RESULT: -7.500888699      3.217      7.093
REMARK  6 active torsions:
REMARK  status: ('A' for Active; 'I' for Inactive)
REMARK    1  A    between atoms: C2_2  and  C3_3 
REMARK    2  A    between atoms: C3_3  and  C4_4 
REMARK    3  A    between atoms: C9_10  and  O2_11 
REMARK    4  A    between atoms: C10_13  and  C11_14 
REMARK    5  A    between atoms: C11_14  and  C13_16 
REMARK    6  A    between atoms: C18_22  and  O3_23 
ROOT
HETATM    1  C13 UNL     1      59.538   4.226  33.616  1.00  0.00     0.029 C 
HETATM    2  C14 UNL     1      59.320   2.917  33.836  1.00  0.00     0.019 C 
HETATM    3  C15 UNL     1      58.438   2.133  32.939  1.00  0.00     0.060 C 
HETATM    4  C16 UNL     1      59.974   2.325  34.961  1.00  0.00     0.094 C 
HETATM    5  N1  UNL     1      60.524   1.846  35.852  1.00  0.00    -0.192 NA
ENDROOT
BRANCH   1   6
HETATM    6  C11 UNL     1      58.842   4.829  32.426  1.00  0.00    -0.031 C 
HETATM    7  C12 UNL     1      58.325   5.277  31.540  1.00  0.00     0.024 C 
BRANCH   6   8
HETATM    8  C10 UNL     1      58.878   6.388  33.246  1.00  0.00     0.010 A 
HETATM    9  C9  UNL     1      59.839   7.169  32.788  1.00  0.00     0.091 A 
HETATM   10  C8  UNL     1      59.897   8.410  33.478  1.00  0.00     0.053 A 
HETATM   11  C7  UNL     1      60.878   9.400  33.168  1.00  0.00     0.163 C 
HETATM   12  C19 UNL     1      58.996   8.684  34.511  1.00  0.00    -0.008 A 
HETATM   13  C6  UNL     1      60.509  10.856  33.299  1.00  0.00     0.093 C 
HETATM   14  O1  UNL     1      62.030   9.064  32.796  1.00  0.00    -0.292 OA
HETATM   15  C4  UNL     1      59.472  11.134  34.299  1.00  0.00    -0.030 C 
HETATM   16  C5  UNL     1      59.945  12.311  35.181  1.00  0.00     0.016 C 
HETATM   17  C20 UNL     1      59.096   9.998  35.230  1.00  0.00     0.052 C 
HETATM   18  C18 UNL     1      58.045   7.793  34.891  1.00  0.00     0.073 A 
HETATM   19  C17 UNL     1      57.992   6.533  34.185  1.00  0.00     0.052 A 
BRANCH   9  20
HETATM   20  O2  UNL     1      60.708   6.905  31.786  1.00  0.00    -0.359 OA
ATOM     21  H2  UNL     1      60.932   6.008  31.571  1.00  0.00     0.217 HD
ENDBRANCH   9  20
BRANCH  15  22
HETATM   22  C3  UNL     1      58.203  11.611  33.607  1.00  0.00     0.036 C 
BRANCH  22  23
HETATM   23  C2  UNL     1      57.244  12.206  34.547  1.00  0.00    -0.036 C 
HETATM   24  C1  UNL     1      56.755  13.449  34.309  1.00  0.00     0.007 C 
ENDBRANCH  22  23
ENDBRANCH  15  22
BRANCH  18  25
HETATM   25  O3  UNL     1      57.127   7.963  35.878  1.00  0.00    -0.360 OA
ATOM     26  H3  UNL     1      56.254   8.212  35.598  1.00  0.00     0.217 HD
ENDBRANCH  18  25
ENDBRANCH   6   8
ENDBRANCH   1   6
TORSDOF 6
ENDMDL
MODEL 3
REMARK VINA RESULT: -7.227856042      2.460      4.067
REMARK  6 active torsions:
REMARK  status: ('A' for Active; 'I' for Inactive)
REMARK    1  A    between atoms: C2_2  and  C3_3 
REMARK    2  A    between atoms: C3_3  and  C4_4 
REMARK    3  A    between atoms: C9_10  and  O2_11 
REMARK    4  A    between atoms: C10_13  and  C11_14 
REMARK    5  A    between atoms: C11_14  and  C13_16 
REMARK    6  A    between atoms: C18_22  and  O3_23 
ROOT
HETATM    1  C13 UNL     1      59.847   9.372  33.465  1.00  0.00     0.029 C 
HETATM    2  C14 UNL     1      60.749  10.230  33.974  1.00  0.00     0.019 C 
HETATM    3  C15 UNL     1      60.315  11.403  34.769  1.00  0.00     0.060 C 
HETATM    4  C16 UNL     1      62.129   9.958  33.717  1.00  0.00     0.094 C 
HETATM    5  N1  UNL     1      63.240   9.722  33.531  1.00  0.00    -0.192 NA
ENDROOT
BRANCH   1   6
HETATM    6  C11 UNL     1      58.401   9.674  33.749  1.00  0.00    -0.031 C 
HETATM    7  C12 UNL     1      57.325   9.899  33.960  1.00  0.00     0.024 C 
BRANCH   6   8
HETATM    8  C10 UNL     1      58.195   8.001  34.263  1.00  0.00     0.010 A 
HETATM    9  C9  UNL     1      57.902   7.908  35.547  1.00  0.00     0.091 A 
HETATM   10  C8  UNL     1      57.778   6.558  35.974  1.00  0.00     0.053 A 
HETATM   11  C7  UNL     1      57.492   6.219  37.331  1.00  0.00     0.163 C 
HETATM   12  C19 UNL     1      57.961   5.513  35.064  1.00  0.00    -0.008 A 
HETATM   13  C6  UNL     1      56.657   4.995  37.615  1.00  0.00     0.093 C 
HETATM   14  O1  UNL     1      57.931   6.926  38.272  1.00  0.00    -0.292 OA
HETATM   15  C4  UNL     1      56.753   3.944  36.597  1.00  0.00    -0.030 C 
HETATM   16  C5  UNL     1      56.991   2.593  37.309  1.00  0.00     0.016 C 
HETATM   17  C20 UNL     1      57.840   4.098  35.551  1.00  0.00     0.052 C 
HETATM   18  C18 UNL     1      58.260   5.739  33.759  1.00  0.00     0.073 A 
HETATM   19  C17 UNL     1      58.386   7.115  33.333  1.00  0.00     0.052 A 
BRANCH   9  20
HETATM   20  O2  UNL     1      57.720   8.919  36.426  1.00  0.00    -0.359 OA
ATOM     21  H2  UNL     1      56.882   9.363  36.479  1.00  0.00     0.217 HD
ENDBRANCH   9  20
BRANCH  15  22
HETATM   22  C3  UNL     1      55.422   3.806  35.871  1.00  0.00     0.036 C 
BRANCH  22  23
HETATM   23  C2  UNL     1      54.870   2.448  35.969  1.00  0.00    -0.036 C 
HETATM   24  C1  UNL     1      53.525   2.270  35.973  1.00  0.00     0.007 C 
ENDBRANCH  22  23
ENDBRANCH  15  22
BRANCH  18  25
HETATM   25  O3  UNL     1      58.457   4.797  32.800  1.00  0.00    -0.360 OA
ATOM     26  H3  UNL     1      58.500   3.898  33.102  1.00  0.00     0.217 HD
ENDBRANCH  18  25
ENDBRANCH   6   8
ENDBRANCH   1   6
TORSDOF 6
ENDMDL
MODEL 4
REMARK VINA RESULT: -7.111734615      2.957      6.717
REMARK  6 active torsions:
REMARK  status: ('A' for Active; 'I' for Inactive)
REMARK    1  A    between atoms: C2_2  and  C3_3 
REMARK    2  A    between atoms: C3_3  and  C4_4 
REMARK    3  A    between atoms: C9_10  and  O2_11 
REMARK    4  A    between atoms: C10_13  and  C11_14 
REMARK    5  A    between atoms: C11_14  and  C13_16 
REMARK    6  A    between atoms: C18_22  and  O3_23 
ROOT
HETATM    1  C13 UNL     1      58.569   5.203  31.385  1.00  0.00     0.029 C 
HETATM    2  C14 UNL     1      58.752   4.458  30.281  1.00  0.00     0.019 C 
HETATM    3  C15 UNL     1      59.307   3.087  30.374  1.00  0.00     0.060 C 
HETATM    4  C16 UNL     1      58.388   5.044  29.028  1.00  0.00     0.094 C 
HETATM    5  N1  UNL     1      58.069   5.508  28.025  1.00  0.00    -0.192 NA
ENDROOT
BRANCH   1   6
HETATM    6  C11 UNL     1      58.956   4.567  32.693  1.00  0.00    -0.031 C 
HETATM    7  C12 UNL     1      59.244   4.095  33.666  1.00  0.00     0.024 C 
BRANCH   6   8
HETATM    8  C10 UNL     1      58.946   6.170  33.428  1.00  0.00     0.010 A 
HETATM    9  C9  UNL     1      59.919   6.934  32.968  1.00  0.00     0.091 A 
HETATM   10  C8  UNL     1      59.940   8.211  33.590  1.00  0.00     0.053 A 
HETATM   11  C7  UNL     1      60.926   9.192  33.267  1.00  0.00     0.163 C 
HETATM   12  C19 UNL     1      58.994   8.532  34.568  1.00  0.00    -0.008 A 
HETATM   13  C6  UNL     1      60.541  10.649  33.303  1.00  0.00     0.093 C 
HETATM   14  O1  UNL     1      62.095   8.846  32.962  1.00  0.00    -0.292 OA
HETATM   15  C4  UNL     1      59.462  10.971  34.243  1.00  0.00    -0.030 C 
HETATM   16  C5  UNL     1      59.888  12.199  35.077  1.00  0.00     0.016 C 
HETATM   17  C20 UNL     1      59.055   9.884  35.218  1.00  0.00     0.052 C 
HETATM   18  C18 UNL     1      58.034   7.654  34.956  1.00  0.00     0.073 A 
HETATM   19  C17 UNL     1      58.021   6.357  34.320  1.00  0.00     0.052 A 
BRANCH   9  20
HETATM   20  O2  UNL     1      60.831   6.624  32.019  1.00  0.00    -0.359 OA
ATOM     21  H2  UNL     1      61.721   6.949  32.086  1.00  0.00     0.217 HD
ENDBRANCH   9  20
BRANCH  15  22
HETATM   22  C3  UNL     1      58.219  11.398  33.473  1.00  0.00     0.036 C 
BRANCH  22  23
HETATM   23  C2  UNL     1      57.081  11.675  34.360  1.00  0.00    -0.036 C 
HETATM   24  C1  UNL     1      56.677  12.955  34.552  1.00  0.00     0.007 C 
ENDBRANCH  22  23
ENDBRANCH  15  22
BRANCH  18  25
HETATM   25  O3  UNL     1      57.075   7.869  35.894  1.00  0.00    -0.360 OA
ATOM     26  H3  UNL     1      56.217   8.109  35.566  1.00  0.00     0.217 HD
ENDBRANCH  18  25
ENDBRANCH   6   8
ENDBRANCH   1   6
TORSDOF 6
ENDMDL
MODEL 5
REMARK VINA RESULT: -7.063289166      5.607      9.083
REMARK  6 active torsions:
REMARK  status: ('A' for Active; 'I' for Inactive)
REMARK    1  A    between atoms: C2_2  and  C3_3 
REMARK    2  A    between atoms: C3_3  and  C4_4 
REMARK    3  A    between atoms: C9_10  and  O2_11 
REMARK    4  A    between atoms: C10_13  and  C11_14 
REMARK    5  A    between atoms: C11_14  and  C13_16 
REMARK    6  A    between atoms: C18_22  and  O3_23 
ROOT
HETATM    1  C13 UNL     1      61.753  10.070  33.639  1.00  0.00     0.029 C 
HETATM    2  C14 UNL     1      60.420  10.239  33.706  1.00  0.00     0.019 C 
HETATM    3  C15 UNL     1      59.498   9.113  33.430  1.00  0.00     0.060 C 
HETATM    4  C16 UNL     1      59.943  11.541  34.056  1.00  0.00     0.094 C 
HETATM    5  N1  UNL     1      59.563  12.582  34.364  1.00  0.00    -0.192 NA
ENDROOT
BRANCH   1   6
HETATM    6  C11 UNL     1      62.235   8.693  33.272  1.00  0.00    -0.031 C 
HETATM    7  C12 UNL     1      62.594   7.668  32.998  1.00  0.00     0.024 C 
BRANCH   6   8
HETATM    8  C10 UNL     1      63.452   9.439  32.238  1.00  0.00     0.010 A 
HETATM    9  C9  UNL     1      62.989   9.692  31.027  1.00  0.00     0.091 A 
HETATM   10  C8  UNL     1      63.980  10.254  30.179  1.00  0.00     0.053 A 
HETATM   11  C7  UNL     1      63.710  10.582  28.816  1.00  0.00     0.163 C 
HETATM   12  C19 UNL     1      65.273  10.478  30.661  1.00  0.00    -0.008 A 
HETATM   13  C6  UNL     1      64.402  11.773  28.203  1.00  0.00     0.093 C 
HETATM   14  O1  UNL     1      62.911   9.888  28.138  1.00  0.00    -0.292 OA
HETATM   15  C4  UNL     1      65.709  12.086  28.791  1.00  0.00    -0.030 C 
HETATM   16  C5  UNL     1      66.724  12.297  27.645  1.00  0.00     0.016 C 
HETATM   17  C20 UNL     1      66.302  11.057  29.733  1.00  0.00     0.052 C 
HETATM   18  C18 UNL     1      65.629  10.175  31.935  1.00  0.00     0.073 A 
HETATM   19  C17 UNL     1      64.615   9.603  32.792  1.00  0.00     0.052 A 
BRANCH   9  20
HETATM   20  O2  UNL     1      61.737   9.479  30.563  1.00  0.00    -0.359 OA
ATOM     21  H2  UNL     1      61.292  10.150  30.059  1.00  0.00     0.217 HD
ENDBRANCH   9  20
BRANCH  15  22
HETATM   22  C3  UNL     1      65.635  13.413  29.534  1.00  0.00     0.036 C 
BRANCH  22  23
HETATM   23  C2  UNL     1      66.807  13.640  30.390  1.00  0.00    -0.036 C 
HETATM   24  C1  UNL     1      66.642  14.182  31.623  1.00  0.00     0.007 C 
ENDBRANCH  22  23
ENDBRANCH  15  22
BRANCH  18  25
HETATM   25  O3  UNL     1      66.853  10.353  32.497  1.00  0.00    -0.360 OA
ATOM     26  H3  UNL     1      67.026   9.856  33.287  1.00  0.00     0.217 HD
ENDBRANCH  18  25
ENDBRANCH   6   8
ENDBRANCH   1   6
TORSDOF 6
ENDMDL
